AV-unprocessed.smi:1833|AV-procd|sdf|7467|dock10
  -GOLD-   22720 9163D 1   1.00000     0.00000
 Structure written by MMmdl.
 42 43  0  0  0  0  0  0  0  0  2 V2000
  145.3161  132.4391  150.6394 C   0  0  0  0  0  0  0  0  0  0  0  0
  146.6040  133.2750  150.6739 C   0  0  0  0  0  0  0  0  0  0  0  0
  146.4877  134.4539  151.5681 N   0  3  1  0  0  0  0  0  0  0  0  0
  145.4479  135.4122  151.1100 C   0  0  0  0  0  0  0  0  0  0  0  0
  145.4532  136.6917  151.9648 C   0  0  0  0  0  0  0  0  0  0  0  0
  145.3060  136.3679  153.4610 C   0  0  0  0  0  0  0  0  0  0  0  0
  146.3573  135.3365  153.9073 C   0  0  2  0  0  0  0  0  0  0  0  0
  147.6876  135.9456  153.8985 N   0  0  0  0  0  0  0  0  0  0  0  0
  148.4775  136.0907  154.9713 C   0  0  0  0  0  0  0  0  0  0  0  0
  148.1851  135.6913  156.0981 O   0  0  0  0  0  0  0  0  0  0  0  0
  149.6148  136.7332  154.6692 N   0  0  0  0  0  0  0  0  0  0  0  0
  150.6678  137.0795  155.6212 C   0  0  0  0  0  0  0  0  0  0  0  0
  151.5106  138.2838  155.1593 C   0  0  0  0  0  0  0  0  0  0  0  0
  151.1820  139.5654  155.8556 C   0  0  0  0  0  0  0  0  0  0  0  0
  150.6886  140.6365  155.2279 N   0  0  0  0  0  0  0  0  0  0  0  0
  150.5053  141.7224  156.0872 C   0  0  0  0  0  0  0  0  0  0  0  0
  150.8729  141.4638  157.3832 C   0  0  0  0  0  0  0  0  0  0  0  0
  151.4657  139.8369  157.5732 S   0  0  0  0  0  0  0  0  0  0  0  0
  146.2889  134.0905  152.9965 C   0  0  0  0  0  0  0  0  0  0  0  0
  145.4603  131.5384  150.0425 H   0  0  0  0  0  0  0  0  0  0  0  0
  144.4820  132.9855  150.2005 H   0  0  0  0  0  0  0  0  0  0  0  0
  145.0228  132.1263  151.6419 H   0  0  0  0  0  0  0  0  0  0  0  0
  147.4071  132.6293  151.0314 H   0  0  0  0  0  0  0  0  0  0  0  0
  146.8874  133.5922  149.6692 H   0  0  0  0  0  0  0  0  0  0  0  0
  145.6245  135.6803  150.0676 H   0  0  0  0  0  0  0  0  0  0  0  0
  144.4678  134.9342  151.1525 H   0  0  0  0  0  0  0  0  0  0  0  0
  146.3808  137.2396  151.7943 H   0  0  0  0  0  0  0  0  0  0  0  0
  144.6464  137.3532  151.6479 H   0  0  0  0  0  0  0  0  0  0  0  0
  145.3846  137.2789  154.0560 H   0  0  0  0  0  0  0  0  0  0  0  0
  144.3081  135.9679  153.6451 H   0  0  0  0  0  0  0  0  0  0  0  0
  146.1302  135.0392  154.9327 H   0  0  0  0  0  0  0  0  0  0  0  0
  148.0117  136.3188  153.0181 H   0  0  0  0  0  0  0  0  0  0  0  0
  149.7577  137.0237  153.7128 H   0  0  0  0  0  0  0  0  0  0  0  0
  150.2461  137.2765  156.6082 H   0  0  0  0  0  0  0  0  0  0  0  0
  151.3142  136.2097  155.7382 H   0  0  0  0  0  0  0  0  0  0  0  0
  152.5690  138.0685  155.3109 H   0  0  0  0  0  0  0  0  0  0  0  0
  151.3810  138.4333  154.0870 H   0  0  0  0  0  0  0  0  0  0  0  0
  150.1082  142.6452  155.6907 H   0  0  0  0  0  0  0  0  0  0  0  0
  150.8313  142.1288  158.2328 H   0  0  0  0  0  0  0  0  0  0  0  0
  145.3211  133.5997  153.1115 H   0  0  0  0  0  0  0  0  0  0  0  0
  147.0352  133.3633  153.3132 H   0  0  0  0  0  0  0  0  0  0  0  0
  147.3692  134.9435  151.5093 H   0  0  0  0  0  0  0  0  0  0  0  0
  1  2  1  0  0  0  0
  1 20  1  0  0  0  0
  1 21  1  0  0  0  0
  1 22  1  0  0  0  0
  2  3  1  0  0  0  0
  2 23  1  0  0  0  0
  2 24  1  0  0  0  0
  3 19  1  0  0  0  0
  3  4  1  0  0  0  0
  3 42  1  0  0  0  0
  4  5  1  0  0  0  0
  4 25  1  0  0  0  0
  4 26  1  0  0  0  0
  5  6  1  0  0  0  0
  5 27  1  0  0  0  0
  5 28  1  0  0  0  0
  6  7  1  0  0  0  0
  6 29  1  0  0  0  0
  6 30  1  0  0  0  0
  7  8  1  0  0  0  0
  7 19  1  0  0  0  0
  7 31  1  0  0  0  0
  8  9  1  0  0  0  0
  8 32  1  0  0  0  0
  9 10  2  0  0  0  0
  9 11  1  0  0  0  0
 11 12  1  0  0  0  0
 11 33  1  0  0  0  0
 12 13  1  0  0  0  0
 12 34  1  0  0  0  0
 12 35  1  0  0  0  0
 13 14  1  0  0  0  0
 13 36  1  0  0  0  0
 13 37  1  0  0  0  0
 14 18  1  0  0  0  0
 14 15  2  0  0  0  0
 15 16  1  0  0  0  0
 16 17  2  0  0  0  0
 16 38  1  0  0  0  0
 17 18  1  0  0  0  0
 17 39  1  0  0  0  0
 19 40  1  0  0  0  0
 19 41  1  0  0  0  0
M  CHG  1   3   1
M  END
> <s_m_source_file>
AV-unprocessed.smi

> <i_m_source_file_index>
1833

> <i_lp_mmshare_version>
43012

> <i_f3d_flags>
0

> <s_epik_input>
W0NIM11bQ0gyXU4xW0NIMl1bQ0gyXVtDSDJdW0NASF0oW0NIMl0xKVtOSF1DKD1PKVtOSF1bQ0gyXVtDSDJdYzJuW2NIXVtjSF1zMg==

> <s_epik_cmdline>
J2VwaWtfcHl0aG9uJywgJy1waCcsICc3LjAnLCAnLXRuJywgJzgnLCAnLW1hJywgJzIwMCcsICctbWV0YWxfYmluZGluZycsICctaW1hZScsICc8aW5maWxlLm1hZT4nLCAnLW9tYWUnLCAnPG91dGZpbGUubWFlPic=

> <r_lp_tautomer_probability>
1

> <r_epik_Ionization_Penalty>
0.00269629

> <r_epik_Ionization_Penalty_Charging>
0.00233899

> <r_epik_Ionization_Penalty_Neutral>
0.000357304

> <r_epik_State_Penalty>
-0

> <r_epik_Charging_Adjusted_Penalty>
0.00233899

> <i_epik_Tot_Q>
1

> <i_epik_Tot_abs_Q>
1

> <r_epik_Metal_State_Penalty>
-0

> <b_epik_Metal_Only>
0

> <s_lp_Force_Field>
OPLS_2005

> <r_lp_Energy>
15.7918

> <b_lp_Chiralities_Consistent>
1

> <s_lp_Variant>
AV-unprocessed.smi:1833-3

> <Gold.Version>
5.8.1

> <Gold.Id.Protein>
6NUR|6NUR_protein|mol2

> <Gold.PLP.Fitness>
44.8123

> <Gold.PLP.PLP>
-29.7133

> <Gold.PLP.part.hbond>
-3.6705

> <Gold.PLP.part.metal>
0.0000

> <Gold.PLP.part.buried>
-4.5919

> <Gold.PLP.part.nonpolar>
-22.1765

> <Gold.PLP.part.repulsive>
0.1632

> <Gold.PLP.ligand.clash>
0.0000

> <Gold.PLP.ligand.torsion>
0.5113

> <Gold.PLP.Chemscore.Hbond>
4.3555

> <Gold.PLP.Chemscore.CHOScore>
1.0000

> <Gold.PLP.Chemscore.Metal>
0.0000

> <Gold.Chemscore.Hbonds>
donor molecule, donor type, donor heavy atom, donor atom, acceptor molecule, acceptor atom, score
      L1  H     3    42       P1  7948  2.00
      L1  H     8    32       P1  7948  0.89
      L1  H    11    33       P1  7948  0.47
      P1  H  7989  7998       L1    15  0.93
      L1  C    16    38       P1  8028  1.00

> <Gold.PLP.Chemscore.Internal.Correction>
0.0550

> <Gold.Rescore>
     Score         DG    S(hbond)    S(metal)    S(lipo)     H(rot)  DE(clash)    DE(int)     intcor
     18.09     -18.59       2.84        0.00      68.58       1.71       0.03       0.47       ----

> <Gold.Chemscore.Fitness>
18.0915

> <Gold.Chemscore.DG>
-18.5854

> <Gold.Chemscore.ZeroCoef>
-5.4800

> <Gold.Chemscore.Hbond>
2.8356

> <Gold.Chemscore.Metal>
0.0000

> <Gold.Chemscore.Lipo>
68.5810

> <Gold.Chemscore.Internal_Hbond>
0.0000

> <Gold.Chemscore.DEClash>
0.0275

> <Gold.Chemscore.DEInternal>
0.4665

> <Gold.Chemscore.Rot>
1.7147

> <Gold.Chemscore.Internal.Correction>
   9.000000E+99

> <Gold.Chemscore.Hbonds>
donor molecule, donor type, donor heavy atom, donor atom, acceptor molecule, acceptor atom, score
      L1  H     3    42       P1  7948  0.62
      L1  H     8    32       P1  7948  0.81
      L1  H    11    33       P1  7948  0.30
      P1  H  7989  7998       L1    15  0.64

> <Gold.Chemscore.Hbond.Weighted>
-9.4710

> <Gold.Chemscore.Metal.Weighted>
-0.0000

> <Gold.Chemscore.Lipo.Weighted>
-8.0240

> <Gold.Chemscore.Internal_Hbond.Weighted>
0.0000

> <Gold.Chemscore.DEClash.Weighted>
0.0275

> <Gold.Chemscore.DEInternal.Weighted>
0.4665

> <Gold.Chemscore.Rot.Weighted>
4.3896

> <Gold.Chemscore.Internal.Correction.Weighted>
   9.000000E+99

> <Gold.Protein.RotatedTorsions>
[ 6907 6896 6895 6894 ] final   35.43 input  -60.11 | X-H torsion
[ 7974 7965 7964 7962 ] final -142.43 input  175.53 | X-H torsion
[ 8008 7997 7996 7995 ] final   41.83 input   59.86 | X-H torsion
[ 10167 10162 10161 10158 ] final  171.64 input  -65.29 | X-H torsion
[ 10718 10713 10712 10709 ] final  -51.47 input   66.30 | X-H torsion
[ 10763 10752 10751 10750 ] final  -32.51 input  -60.55 | X-H torsion
[ 11005 11000 10999 10996 ] final -101.12 input  -57.11 | X-H torsion

> <Gold.Protein.ActiveResidues>
 VAL166  LYS551  ARG553  GLY616  TRP617  ASP618  TYR619  PRO620  LYS621  CYS622 
 ASP623  PHE694  ASN695  SER759  ASP760  ASP761  ALA762  ILE779  LEU786  VAL792 
 PHE793  MET794  SER795  GLU796  ALA797  LYS798  CYS799  TRP800  GLU811  SER814 

> <Gold.Protein.RotatedAtoms>
  152.1161  134.9240  160.0564 H   0  0  0  0  0  0  0  0  0  0  0  0  # atno 6907 bound_to 6896
  152.0399  133.3968  159.4340 H   0  0  0  0  0  0  0  0  0  0  0  0  # atno 6908 bound_to 6896
  150.6846  134.3348  159.4886 H   0  0  0  0  0  0  0  0  0  0  0  0  # atno 6909 bound_to 6896
  144.8444  140.5958  143.5431 H   0  0  0  0  0  0  0  0  0  0  0  0  # atno 7974 bound_to 7965
  155.2761  140.3369  155.4261 H   0  0  0  0  0  0  0  0  0  0  0  0  # atno 8008 bound_to 7997
  156.2111  140.1770  156.7735 H   0  0  0  0  0  0  0  0  0  0  0  0  # atno 8009 bound_to 7997
  154.5687  140.0674  156.8916 H   0  0  0  0  0  0  0  0  0  0  0  0  # atno 8010 bound_to 7997
  139.5052  144.3463  151.9968 H   0  0  0  0  0  0  0  0  0  0  0  0  # atno 10167 bound_to 10162
  156.1707  130.4149  149.9651 H   0  0  0  0  0  0  0  0  0  0  0  0  # atno 10718 bound_to 10713
  153.8149  135.6879  153.4835 H   0  0  0  0  0  0  0  0  0  0  0  0  # atno 10763 bound_to 10752
  153.1605  135.4582  154.9764 H   0  0  0  0  0  0  0  0  0  0  0  0  # atno 10764 bound_to 10752
  154.7952  135.3316  154.7626 H   0  0  0  0  0  0  0  0  0  0  0  0  # atno 10765 bound_to 10752
  141.1243  133.8453  157.1191 H   0  0  0  0  0  0  0  0  0  0  0  0  # atno 11005 bound_to 11000
  145.4628  139.1511  143.3857 LP  0  0  0  0  0  0  0  0  0  0  0  0  # atno 17320 bound_to 7965
  146.2731  140.4758  142.8806 LP  0  0  0  0  0  0  0  0  0  0  0  0  # atno 17321 bound_to 7965
  140.2900  144.3764  150.6091 LP  0  0  0  0  0  0  0  0  0  0  0  0  # atno 17342 bound_to 10162
  140.5953  143.2167  151.7175 LP  0  0  0  0  0  0  0  0  0  0  0  0  # atno 17343 bound_to 10162
  156.7452  130.9095  151.3634 LP  0  0  0  0  0  0  0  0  0  0  0  0  # atno 17370 bound_to 10713
  157.6801  130.9131  150.0245 LP  0  0  0  0  0  0  0  0  0  0  0  0  # atno 17371 bound_to 10713
  140.0228  134.9938  157.0626 LP  0  0  0  0  0  0  0  0  0  0  0  0  # atno 17394 bound_to 11000
  140.4411  134.1680  155.7174 LP  0  0  0  0  0  0  0  0  0  0  0  0  # atno 17395 bound_to 11000

$$$$
