AV-unprocessed.smi:503|AV-procd|sdf|2746|dock5
  -GOLD-   2262023213D 1   1.00000     0.00000
 Structure written by MMmdl.
 44 45  0  0  0  0  0  0  0  0  1 V2000
  152.9157  138.2929  160.1464 O   0  0  0  0  0  0  0  0  0  0  0  0
  153.1075  139.3554  159.5531 C   0  0  0  0  0  0  0  0  0  0  0  0
  154.1671  140.3532  160.0423 C   0  0  0  0  0  0  0  0  0  0  0  0
  153.6003  141.4990  160.7735 N   0  0  0  0  0  0  0  0  0  0  0  0
  152.8338  142.4177  160.0296 C   0  0  0  0  0  0  0  0  0  0  0  0
  152.2668  143.5109  160.5754 C   0  0  0  0  0  0  0  0  0  0  0  0
  151.3930  144.4517  159.7601 C   0  0  0  0  0  0  0  0  0  0  0  0
  150.9930  145.4908  160.4934 F   0  0  0  0  0  0  0  0  0  0  0  0
  152.0808  144.9185  158.7188 F   0  0  0  0  0  0  0  0  0  0  0  0
  150.3110  143.8258  159.2951 F   0  0  0  0  0  0  0  0  0  0  0  0
  152.4555  143.6913  162.0014 C   0  0  0  0  0  0  0  0  0  0  0  0
  153.1745  142.8151  162.7302 C   0  0  0  0  0  0  0  0  0  0  0  0
  153.8000  141.6404  162.1183 C   0  0  0  0  0  0  0  0  0  0  0  0
  154.4607  140.8340  162.7734 O   0  0  0  0  0  0  0  0  0  0  0  0
  152.4106  139.7285  158.4688 N   0  0  0  0  0  0  0  0  0  0  0  0
  151.3510  138.9525  157.8275 C   0  0  0  0  0  0  0  0  0  0  0  0
  151.7186  138.7256  156.3452 C   0  0  0  0  0  0  0  0  0  0  0  0
  150.6032  138.1230  155.4671 C   0  0  0  0  0  0  0  0  0  0  0  0
  149.8896  139.1392  154.5517 C   0  0  0  0  0  0  0  0  0  0  0  0
  148.9872  140.1844  155.2392 C   0  0  0  0  0  0  0  0  0  0  0  0
  149.7406  141.2396  156.0751 C   0  0  0  0  0  0  0  0  0  0  0  0
  149.7206  141.0159  157.5998 C   0  0  0  0  0  0  0  0  0  0  0  0
  149.9614  139.5768  158.0976 C   0  0  0  0  0  0  0  0  0  0  0  0
  154.8925  139.8289  160.6676 H   0  0  0  0  0  0  0  0  0  0  0  0
  154.7350  140.6977  159.1769 H   0  0  0  0  0  0  0  0  0  0  0  0
  152.7271  142.1690  158.9837 H   0  0  0  0  0  0  0  0  0  0  0  0
  152.0151  144.5458  162.4938 H   0  0  0  0  0  0  0  0  0  0  0  0
  153.2946  142.9821  163.7907 H   0  0  0  0  0  0  0  0  0  0  0  0
  152.6317  140.6212  158.0516 H   0  0  0  0  0  0  0  0  0  0  0  0
  151.3355  137.9616  158.2860 H   0  0  0  0  0  0  0  0  0  0  0  0
  152.1050  139.6367  155.8905 H   0  0  0  0  0  0  0  0  0  0  0  0
  152.5669  138.0396  156.3277 H   0  0  0  0  0  0  0  0  0  0  0  0
  151.0664  137.3824  154.8141 H   0  0  0  0  0  0  0  0  0  0  0  0
  149.8859  137.5582  156.0624 H   0  0  0  0  0  0  0  0  0  0  0  0
  150.6272  139.6485  153.9303 H   0  0  0  0  0  0  0  0  0  0  0  0
  149.2682  138.5753  153.8550 H   0  0  0  0  0  0  0  0  0  0  0  0
  148.4596  140.7140  154.4452 H   0  0  0  0  0  0  0  0  0  0  0  0
  148.2020  139.7021  155.8213 H   0  0  0  0  0  0  0  0  0  0  0  0
  150.7617  141.3547  155.7153 H   0  0  0  0  0  0  0  0  0  0  0  0
  149.2813  142.2112  155.8905 H   0  0  0  0  0  0  0  0  0  0  0  0
  150.4325  141.6946  158.0707 H   0  0  0  0  0  0  0  0  0  0  0  0
  148.7415  141.3253  157.9673 H   0  0  0  0  0  0  0  0  0  0  0  0
  149.1783  138.9189  157.7252 H   0  0  0  0  0  0  0  0  0  0  0  0
  149.8036  139.5804  159.1770 H   0  0  0  0  0  0  0  0  0  0  0  0
  1  2  2  0  0  0  0
  2  3  1  0  0  0  0
  2 15  1  0  0  0  0
  3  4  1  0  0  0  0
  3 24  1  0  0  0  0
  3 25  1  0  0  0  0
  4 13  1  0  0  0  0
  4  5  1  0  0  0  0
  5  6  2  0  0  0  0
  5 26  1  0  0  0  0
  6  7  1  0  0  0  0
  6 11  1  0  0  0  0
  7  8  1  0  0  0  0
  7  9  1  0  0  0  0
  7 10  1  0  0  0  0
 11 12  2  0  0  0  0
 11 27  1  0  0  0  0
 12 13  1  0  0  0  0
 12 28  1  0  0  0  0
 13 14  2  0  0  0  0
 15 16  1  0  0  0  0
 15 29  1  0  0  0  0
 16 23  1  0  0  0  0
 16 17  1  0  0  0  0
 16 30  1  0  0  0  0
 17 18  1  0  0  0  0
 17 31  1  0  0  0  0
 17 32  1  0  0  0  0
 18 19  1  0  0  0  0
 18 33  1  0  0  0  0
 18 34  1  0  0  0  0
 19 20  1  0  0  0  0
 19 35  1  0  0  0  0
 19 36  1  0  0  0  0
 20 21  1  0  0  0  0
 20 37  1  0  0  0  0
 20 38  1  0  0  0  0
 21 22  1  0  0  0  0
 21 39  1  0  0  0  0
 21 40  1  0  0  0  0
 22 23  1  0  0  0  0
 22 41  1  0  0  0  0
 22 42  1  0  0  0  0
 23 43  1  0  0  0  0
 23 44  1  0  0  0  0
M  END
> <s_m_source_file>
AV-unprocessed.smi

> <i_m_source_file_index>
503

> <i_lp_mmshare_version>
43012

> <i_f3d_flags>
0

> <s_epik_input>
Tz1jMVtjSF1bY0hdYyhDKEYpKEYpRilbY0hdbjFbQ0gyXUMoPU8pW05IXVtDSF0yW0NIMl1bQ0gyXVtDSDJdW0NIMl1bQ0gyXVtDSDJdW0NIMl0y

> <s_epik_cmdline>
J2VwaWtfcHl0aG9uJywgJy1waCcsICc3LjAnLCAnLXRuJywgJzgnLCAnLW1hJywgJzIwMCcsICctbWV0YWxfYmluZGluZycsICctaW1hZScsICc8aW5maWxlLm1hZT4nLCAnLW9tYWUnLCAnPG91dGZpbGUubWFlPic=

> <r_lp_tautomer_probability>
1

> <r_epik_Ionization_Penalty>
3.93819e-08

> <r_epik_Ionization_Penalty_Charging>
1.9167e-08

> <r_epik_Ionization_Penalty_Neutral>
2.02148e-08

> <r_epik_State_Penalty>
-0

> <r_epik_Charging_Adjusted_Penalty>
1.9167e-08

> <i_epik_Tot_Q>
0

> <i_epik_Tot_abs_Q>
0

> <r_epik_Metal_State_Penalty>
-0

> <b_epik_Metal_Only>
0

> <s_lp_Force_Field>
OPLS_2005

> <r_lp_Energy>
31.4462

> <b_lp_Chiralities_Consistent>
1

> <s_lp_Variant>
AV-unprocessed.smi:503-1

> <Gold.Version>
5.8.1

> <Gold.Id.Protein>
6NUR|6NUR_protein|mol2

> <Gold.PLP.Fitness>
56.2269

> <Gold.PLP.PLP>
-57.0439

> <Gold.PLP.part.hbond>
-0.6265

> <Gold.PLP.part.metal>
0.0000

> <Gold.PLP.part.buried>
-5.9224

> <Gold.PLP.part.nonpolar>
-50.3465

> <Gold.PLP.part.repulsive>
0.3450

> <Gold.PLP.ligand.clash>
0.0000

> <Gold.PLP.ligand.torsion>
0.4579

> <Gold.PLP.Chemscore.Hbond>
0.0000

> <Gold.PLP.Chemscore.CHOScore>
0.0000

> <Gold.PLP.Chemscore.Metal>
0.0000

> <Gold.PLP.Chemscore.Internal.Correction>
0.0988

> <Gold.Rescore>
     Score         DG    S(hbond)    S(metal)    S(lipo)     H(rot)  DE(clash)    DE(int)     intcor
     14.72     -15.20       0.00        0.00     116.15       1.51       0.06       0.42       ----

> <Gold.Chemscore.Fitness>
14.7246

> <Gold.Chemscore.DG>
-15.1967

> <Gold.Chemscore.ZeroCoef>
-5.4800

> <Gold.Chemscore.Hbond>
0.0000

> <Gold.Chemscore.Metal>
0.0000

> <Gold.Chemscore.Lipo>
116.1546

> <Gold.Chemscore.Internal_Hbond>
0.0000

> <Gold.Chemscore.DEClash>
0.0556

> <Gold.Chemscore.DEInternal>
0.4164

> <Gold.Chemscore.Rot>
1.5131

> <Gold.Chemscore.Internal.Correction>
   9.000000E+99

> <Gold.Chemscore.Hbond.Weighted>
-0.0000

> <Gold.Chemscore.Metal.Weighted>
-0.0000

> <Gold.Chemscore.Lipo.Weighted>
-13.5901

> <Gold.Chemscore.Internal_Hbond.Weighted>
0.0000

> <Gold.Chemscore.DEClash.Weighted>
0.0556

> <Gold.Chemscore.DEInternal.Weighted>
0.4164

> <Gold.Chemscore.Rot.Weighted>
3.8734

> <Gold.Chemscore.Internal.Correction.Weighted>
   9.000000E+99

> <Gold.Protein.RotatedTorsions>
[ 6907 6896 6895 6894 ] final  -96.46 input  -60.11 | X-H torsion
[ 7974 7965 7964 7962 ] final   72.22 input  175.53 | X-H torsion
[ 8008 7997 7996 7995 ] final  -78.10 input   59.86 | X-H torsion
[ 10167 10162 10161 10158 ] final   81.57 input  -65.29 | X-H torsion
[ 10718 10713 10712 10709 ] final  100.92 input   66.30 | X-H torsion
[ 10763 10752 10751 10750 ] final   73.52 input  -60.55 | X-H torsion
[ 11005 11000 10999 10996 ] final  157.46 input  -57.11 | X-H torsion

> <Gold.Protein.ActiveResidues>
 VAL166  LYS551  ARG553  GLY616  TRP617  ASP618  TYR619  PRO620  LYS621  CYS622 
 ASP623  PHE694  ASN695  SER759  ASP760  ASP761  ALA762  ILE779  LEU786  VAL792 
 PHE793  MET794  SER795  GLU796  ALA797  LYS798  CYS799  TRP800  GLU811  SER814 

> <Gold.Protein.RotatedAtoms>
  150.6989  134.1500  159.4136 H   0  0  0  0  0  0  0  0  0  0  0  0  # atno 6907 bound_to 6896
  151.9483  135.0179  160.0549 H   0  0  0  0  0  0  0  0  0  0  0  0  # atno 6908 bound_to 6896
  152.2033  133.4822  159.5107 H   0  0  0  0  0  0  0  0  0  0  0  0  # atno 6909 bound_to 6896
  145.7561  139.2780  143.1403 H   0  0  0  0  0  0  0  0  0  0  0  0  # atno 7974 bound_to 7965
  154.5658  140.0699  156.8889 H   0  0  0  0  0  0  0  0  0  0  0  0  # atno 8008 bound_to 7997
  155.2726  140.3366  155.4246 H   0  0  0  0  0  0  0  0  0  0  0  0  # atno 8009 bound_to 7997
  156.2079  140.1747  156.7745 H   0  0  0  0  0  0  0  0  0  0  0  0  # atno 8010 bound_to 7997
  139.9379  144.6109  150.8281 H   0  0  0  0  0  0  0  0  0  0  0  0  # atno 10167 bound_to 10162
  157.6842  131.0712  150.5173 H   0  0  0  0  0  0  0  0  0  0  0  0  # atno 10718 bound_to 10713
  153.0527  135.5060  154.7905 H   0  0  0  0  0  0  0  0  0  0  0  0  # atno 10763 bound_to 10752
  154.6755  135.2960  154.9686 H   0  0  0  0  0  0  0  0  0  0  0  0  # atno 10764 bound_to 10752
  154.0490  135.6706  153.4851 H   0  0  0  0  0  0  0  0  0  0  0  0  # atno 10765 bound_to 10752
  140.1772  134.8501  157.2760 H   0  0  0  0  0  0  0  0  0  0  0  0  # atno 11005 bound_to 11000
  146.0310  140.8258  142.9876 LP  0  0  0  0  0  0  0  0  0  0  0  0  # atno 17320 bound_to 7965
  144.6840  140.2769  143.7298 LP  0  0  0  0  0  0  0  0  0  0  0  0  # atno 17321 bound_to 7965
  140.7619  143.3186  151.2675 LP  0  0  0  0  0  0  0  0  0  0  0  0  # atno 17342 bound_to 10162
  139.6729  143.9989  152.2763 LP  0  0  0  0  0  0  0  0  0  0  0  0  # atno 17343 bound_to 10162
  156.5488  130.4226  149.6118 LP  0  0  0  0  0  0  0  0  0  0  0  0  # atno 17370 bound_to 10713
  156.2921  130.7130  151.1981 LP  0  0  0  0  0  0  0  0  0  0  0  0  # atno 17371 bound_to 10713
  140.2309  134.3910  155.7522 LP  0  0  0  0  0  0  0  0  0  0  0  0  # atno 17394 bound_to 11000
  141.2221  133.7214  156.8639 LP  0  0  0  0  0  0  0  0  0  0  0  0  # atno 17395 bound_to 11000

$$$$
