AV-unprocessed.smi:171|AV-procd|sdf|1417|dock10
  -GOLD-   2262019183D 1   1.00000     0.00000
 Structure written by MMmdl.
 56 59  0  0  0  0  0  0  0  0  1 V2000
  152.2843  143.3490  162.6498 C   0  0  0  0  0  0  0  0  0  0  0  0
  152.8492  142.5974  161.4326 C   0  0  0  0  0  0  0  0  0  0  0  0
  151.9327  142.7836  160.2138 C   0  0  0  0  0  0  0  0  0  0  0  0
  153.0787  141.0937  161.7143 C   0  0  0  0  0  0  0  0  0  0  0  0
  153.6065  140.2654  160.5172 C   0  0  1  0  0  0  0  0  0  0  0  0
  155.1288  140.0357  160.6546 C   0  0  0  0  0  0  0  0  0  0  0  0
  155.8986  140.9856  160.5271 O   0  0  0  0  0  0  0  0  0  0  0  0
  155.5858  138.7961  160.9088 N   0  0  0  0  0  0  0  0  0  0  0  0
  154.7651  137.5943  161.0586 C   0  0  0  0  0  0  0  0  0  0  0  0
  153.2783  137.9137  161.2899 C   0  0  0  0  0  0  0  0  0  0  0  0
  152.8584  139.0033  160.4146 N   0  0  0  0  0  0  0  0  0  0  0  0
  152.3973  138.6127  159.2004 C   0  0  0  0  0  0  0  0  0  0  0  0
  152.2538  137.2915  158.9145 N   0  0  0  0  0  0  0  0  0  0  0  0
  151.7922  136.9088  157.7205 C   0  0  0  0  0  0  0  0  0  0  0  0
  151.4197  137.6671  156.6873 N   0  0  0  0  0  0  0  0  0  0  0  0
  151.5590  138.9940  156.9712 C   0  0  0  0  0  0  0  0  0  0  0  0
  152.0355  139.5473  158.1924 C   0  0  0  0  0  0  0  0  0  0  0  0
  152.0510  140.9338  158.1128 N   0  0  0  0  0  0  0  0  0  0  0  0
  151.6068  141.1865  156.9120 C   0  0  0  0  0  0  0  0  0  0  0  0
  151.2781  140.0802  156.1602 N   0  0  0  0  0  0  0  0  0  0  0  0
  150.7713  140.0706  154.7955 C   0  0  0  0  0  0  0  0  0  0  0  0
  149.3088  140.5626  154.6601 C   0  0  2  0  0  0  0  0  0  0  0  0
  149.1382  141.1187  153.3667 O   0  0  0  0  0  0  0  0  0  0  0  0
  148.8981  141.6189  155.6965 C   0  0  0  0  0  0  0  0  0  0  0  0
  147.7702  140.9594  156.4860 C   0  0  0  0  0  0  0  0  0  0  0  0
  147.2095  140.0382  155.5676 O   0  0  0  0  0  0  0  0  0  0  0  0
  148.2938  139.4188  154.8938 C   0  0  1  0  0  0  0  0  0  0  0  0
  147.8085  138.6497  153.6543 C   0  0  0  0  0  0  0  0  0  0  0  0
  151.3481  142.9061  162.9904 H   0  0  0  0  0  0  0  0  0  0  0  0
  152.0890  144.3941  162.4082 H   0  0  0  0  0  0  0  0  0  0  0  0
  152.9833  143.3419  163.4861 H   0  0  0  0  0  0  0  0  0  0  0  0
  153.8063  143.0537  161.1770 H   0  0  0  0  0  0  0  0  0  0  0  0
  150.9446  142.3584  160.3925 H   0  0  0  0  0  0  0  0  0  0  0  0
  152.3488  142.2994  159.3301 H   0  0  0  0  0  0  0  0  0  0  0  0
  151.8028  143.8400  159.9767 H   0  0  0  0  0  0  0  0  0  0  0  0
  153.7748  140.9986  162.5492 H   0  0  0  0  0  0  0  0  0  0  0  0
  152.1419  140.6583  162.0658 H   0  0  0  0  0  0  0  0  0  0  0  0
  153.4653  140.8667  159.6184 H   0  0  0  0  0  0  0  0  0  0  0  0
  156.5847  138.6756  160.9927 H   0  0  0  0  0  0  0  0  0  0  0  0
  154.8742  137.0078  160.1455 H   0  0  0  0  0  0  0  0  0  0  0  0
  155.1548  136.9835  161.8731 H   0  0  0  0  0  0  0  0  0  0  0  0
  152.6745  137.0158  161.1528 H   0  0  0  0  0  0  0  0  0  0  0  0
  153.1235  138.2240  162.3235 H   0  0  0  0  0  0  0  0  0  0  0  0
  151.7092  135.8423  157.5720 H   0  0  0  0  0  0  0  0  0  0  0  0
  151.5038  142.1951  156.5390 H   0  0  0  0  0  0  0  0  0  0  0  0
  151.4323  140.6868  154.1847 H   0  0  0  0  0  0  0  0  0  0  0  0
  150.8602  139.0553  154.4074 H   0  0  0  0  0  0  0  0  0  0  0  0
  149.1041  140.4104  152.7414 H   0  0  0  0  0  0  0  0  0  0  0  0
  149.7073  141.9217  156.3597 H   0  0  0  0  0  0  0  0  0  0  0  0
  148.5257  142.5239  155.2138 H   0  0  0  0  0  0  0  0  0  0  0  0
  148.1648  140.4192  157.3480 H   0  0  0  0  0  0  0  0  0  0  0  0
  147.0292  141.6761  156.8409 H   0  0  0  0  0  0  0  0  0  0  0  0
  148.7216  138.6994  155.5946 H   0  0  0  0  0  0  0  0  0  0  0  0
  148.6468  138.2068  153.1158 H   0  0  0  0  0  0  0  0  0  0  0  0
  147.2653  139.2951  152.9637 H   0  0  0  0  0  0  0  0  0  0  0  0
  147.1358  137.8414  153.9413 H   0  0  0  0  0  0  0  0  0  0  0  0
  1  2  1  0  0  0  0
  1 29  1  0  0  0  0
  1 30  1  0  0  0  0
  1 31  1  0  0  0  0
  2  3  1  0  0  0  0
  2  4  1  0  0  0  0
  2 32  1  0  0  0  0
  3 33  1  0  0  0  0
  3 34  1  0  0  0  0
  3 35  1  0  0  0  0
  4  5  1  0  0  0  0
  4 36  1  0  0  0  0
  4 37  1  0  0  0  0
  5 11  1  0  0  0  0
  5  6  1  0  0  0  0
  5 38  1  0  0  0  0
  6  7  2  0  0  0  0
  6  8  1  0  0  0  0
  8  9  1  0  0  0  0
  8 39  1  0  0  0  0
  9 10  1  0  0  0  0
  9 40  1  0  0  0  0
  9 41  1  0  0  0  0
 10 11  1  0  0  0  0
 10 42  1  0  0  0  0
 10 43  1  0  0  0  0
 11 12  1  0  0  0  0
 12 17  1  0  0  0  0
 12 13  2  0  0  0  0
 13 14  1  0  0  0  0
 14 15  2  0  0  0  0
 14 44  1  0  0  0  0
 15 16  1  0  0  0  0
 16 20  1  0  0  0  0
 16 17  2  0  0  0  0
 17 18  1  0  0  0  0
 18 19  2  0  0  0  0
 19 20  1  0  0  0  0
 19 45  1  0  0  0  0
 20 21  1  0  0  0  0
 21 22  1  0  0  0  0
 21 46  1  0  0  0  0
 21 47  1  0  0  0  0
 22 27  1  0  0  0  0
 22 23  1  0  0  0  0
 22 24  1  0  0  0  0
 23 48  1  0  0  0  0
 24 25  1  0  0  0  0
 24 49  1  0  0  0  0
 24 50  1  0  0  0  0
 25 26  1  0  0  0  0
 25 51  1  0  0  0  0
 25 52  1  0  0  0  0
 26 27  1  0  0  0  0
 27 28  1  0  0  0  0
 27 53  1  0  0  0  0
 28 54  1  0  0  0  0
 28 55  1  0  0  0  0
 28 56  1  0  0  0  0
M  END
> <s_m_source_file>
AV-unprocessed.smi

> <i_m_source_file_index>
171

> <i_lp_mmshare_version>
43012

> <i_f3d_flags>
0

> <s_epik_input>
W0NIM11bQ0hdKFtDSDNdKVtDSDJdW0NAQEhdMUMoPU8pW05IXVtDSDJdW0NIMl1OMWMobltjSF1uMiljKGMyMyluW2NIXW4zW0NIMl1bQ0BAXTQoW09IXSlbQ0gyXVtDSDJdT1tDQEhdNFtDSDNd

> <s_epik_cmdline>
J2VwaWtfcHl0aG9uJywgJy1waCcsICc3LjAnLCAnLXRuJywgJzgnLCAnLW1hJywgJzIwMCcsICctbWV0YWxfYmluZGluZycsICctaW1hZScsICc8aW5maWxlLm1hZT4nLCAnLW9tYWUnLCAnPG91dGZpbGUubWFlPic=

> <r_lp_tautomer_probability>
1

> <r_epik_Ionization_Penalty>
0.000670584

> <r_epik_Ionization_Penalty_Charging>
0

> <r_epik_Ionization_Penalty_Neutral>
0.000670584

> <r_epik_State_Penalty>
0.000304767

> <r_epik_Charging_Adjusted_Penalty>
0.000304767

> <i_epik_Tot_Q>
0

> <i_epik_Tot_abs_Q>
0

> <r_epik_Metal_State_Penalty>
-0

> <b_epik_Metal_Only>
0

> <s_lp_Force_Field>
OPLS_2005

> <r_lp_Energy>
42.7698

> <b_lp_Chiralities_Consistent>
1

> <s_lp_Variant>
AV-unprocessed.smi:171-4

> <Gold.Version>
5.8.1

> <Gold.Id.Protein>
6NUR|6NUR_protein|mol2

> <Gold.PLP.Fitness>
43.4568

> <Gold.PLP.PLP>
-40.6808

> <Gold.PLP.part.hbond>
-4.0161

> <Gold.PLP.part.metal>
0.0000

> <Gold.PLP.part.buried>
-2.4600

> <Gold.PLP.part.nonpolar>
-34.2403

> <Gold.PLP.part.repulsive>
0.0208

> <Gold.PLP.ligand.clash>
0.0000

> <Gold.PLP.ligand.torsion>
1.4182

> <Gold.PLP.Chemscore.Hbond>
1.7680

> <Gold.PLP.Chemscore.CHOScore>
0.0000

> <Gold.PLP.Chemscore.Metal>
0.0000

> <Gold.Chemscore.Hbonds>
donor molecule, donor type, donor heavy atom, donor atom, acceptor molecule, acceptor atom, score
      L1  H    23    48       P1  7957  0.80
      P1  H  8011  8017       L1    23  1.00

> <Gold.PLP.Chemscore.Internal.Correction>
0.3085

> <Gold.Rescore>
     Score         DG    S(hbond)    S(metal)    S(lipo)     H(rot)  DE(clash)    DE(int)     intcor
     11.16     -15.23       1.28        0.00      96.87       2.29       0.52       3.56       ----

> <Gold.Chemscore.Fitness>
11.1565

> <Gold.Chemscore.DG>
-15.2346

> <Gold.Chemscore.ZeroCoef>
-5.4800

> <Gold.Chemscore.Hbond>
1.2846

> <Gold.Chemscore.Metal>
0.0000

> <Gold.Chemscore.Lipo>
96.8672

> <Gold.Chemscore.Internal_Hbond>
0.0000

> <Gold.Chemscore.DEClash>
0.5186

> <Gold.Chemscore.DEInternal>
3.5595

> <Gold.Chemscore.Rot>
2.2928

> <Gold.Chemscore.Internal.Correction>
   9.000000E+99

> <Gold.Chemscore.Hbonds>
donor molecule, donor type, donor heavy atom, donor atom, acceptor molecule, acceptor atom, score
      L1  H    23    48       P1  7957  0.80
      P1  H  8011  8017       L1    23  0.25

> <Gold.Chemscore.Hbond.Weighted>
-4.2907

> <Gold.Chemscore.Metal.Weighted>
-0.0000

> <Gold.Chemscore.Lipo.Weighted>
-11.3335

> <Gold.Chemscore.Internal_Hbond.Weighted>
0.0000

> <Gold.Chemscore.DEClash.Weighted>
0.5186

> <Gold.Chemscore.DEInternal.Weighted>
3.5595

> <Gold.Chemscore.Rot.Weighted>
5.8696

> <Gold.Chemscore.Internal.Correction.Weighted>
   9.000000E+99

> <Gold.Protein.RotatedTorsions>
[ 6907 6896 6895 6894 ] final  -85.89 input  -60.11 | X-H torsion
[ 7974 7965 7964 7962 ] final -112.54 input  175.53 | X-H torsion
[ 8008 7997 7996 7995 ] final  140.46 input   59.86 | X-H torsion
[ 10167 10162 10161 10158 ] final  108.27 input  -65.29 | X-H torsion
[ 10718 10713 10712 10709 ] final  146.93 input   66.30 | X-H torsion
[ 10763 10752 10751 10750 ] final  -91.01 input  -60.55 | X-H torsion
[ 11005 11000 10999 10996 ] final   16.42 input  -57.11 | X-H torsion

> <Gold.Protein.ActiveResidues>
 VAL166  LYS551  ARG553  GLY616  TRP617  ASP618  TYR619  PRO620  LYS621  CYS622 
 ASP623  PHE694  ASN695  SER759  ASP760  ASP761  ALA762  ILE779  LEU786  VAL792 
 PHE793  MET794  SER795  GLU796  ALA797  LYS798  CYS799  TRP800  GLU811  SER814 

> <Gold.Protein.RotatedAtoms>
  150.6868  134.3135  159.4756 H   0  0  0  0  0  0  0  0  0  0  0  0  # atno 6907 bound_to 6896
  152.1018  134.9333  160.0578 H   0  0  0  0  0  0  0  0  0  0  0  0  # atno 6908 bound_to 6896
  152.0609  133.4027  159.4454 H   0  0  0  0  0  0  0  0  0  0  0  0  # atno 6909 bound_to 6896
  145.1428  140.8787  143.3692 H   0  0  0  0  0  0  0  0  0  0  0  0  # atno 7974 bound_to 7965
  156.2979  140.2341  156.4404 H   0  0  0  0  0  0  0  0  0  0  0  0  # atno 8008 bound_to 7997
  154.8191  140.0439  157.1418 H   0  0  0  0  0  0  0  0  0  0  0  0  # atno 8009 bound_to 7997
  154.9336  140.3020  155.5159 H   0  0  0  0  0  0  0  0  0  0  0  0  # atno 8010 bound_to 7997
  139.6860  144.7113  151.1432 H   0  0  0  0  0  0  0  0  0  0  0  0  # atno 10167 bound_to 10162
  157.3272  131.0914  151.1192 H   0  0  0  0  0  0  0  0  0  0  0  0  # atno 10718 bound_to 10713
  154.6717  135.5283  153.8147 H   0  0  0  0  0  0  0  0  0  0  0  0  # atno 10763 bound_to 10752
  153.0506  135.6530  154.0714 H   0  0  0  0  0  0  0  0  0  0  0  0  # atno 10764 bound_to 10752
  154.0612  135.2961  155.3304 H   0  0  0  0  0  0  0  0  0  0  0  0  # atno 10765 bound_to 10752
  140.4473  134.1260  155.7698 H   0  0  0  0  0  0  0  0  0  0  0  0  # atno 11005 bound_to 11000
  145.0514  139.3179  143.5927 LP  0  0  0  0  0  0  0  0  0  0  0  0  # atno 17320 bound_to 7965
  146.3503  139.9923  142.8684 LP  0  0  0  0  0  0  0  0  0  0  0  0  # atno 17321 bound_to 7965
  140.7668  143.5629  150.9079 LP  0  0  0  0  0  0  0  0  0  0  0  0  # atno 17342 bound_to 10162
  139.9304  143.6500  152.3077 LP  0  0  0  0  0  0  0  0  0  0  0  0  # atno 17343 bound_to 10162
  157.2454  130.6589  149.5908 LP  0  0  0  0  0  0  0  0  0  0  0  0  # atno 17370 bound_to 10713
  155.9692  130.4555  150.5890 LP  0  0  0  0  0  0  0  0  0  0  0  0  # atno 17371 bound_to 10713
  141.1679  133.8666  157.1659 LP  0  0  0  0  0  0  0  0  0  0  0  0  # atno 17394 bound_to 11000
  140.0030  135.0020  157.0231 LP  0  0  0  0  0  0  0  0  0  0  0  0  # atno 17395 bound_to 11000

$$$$
