AV-unprocessed.smi:1464|AV-procd|sdf|5946|dock1
  -GOLD-   22720 6 23D 1   1.00000     0.00000
 Structure written by MMmdl.
 41 42  0  0  0  0  0  0  0  0  1 V2000
  147.3939  139.8879  153.4733 C   0  0  0  0  0  0  0  0  0  0  0  0
  147.8509  139.6177  154.9216 C   0  0  1  0  0  0  0  0  0  0  0  0
  148.8524  138.4468  154.9921 C   0  0  0  0  0  0  0  0  0  0  0  0
  150.2346  138.8321  154.4420 C   0  0  0  0  0  0  0  0  0  0  0  0
  150.7957  140.0621  155.1680 C   0  0  0  0  0  0  0  0  0  0  0  0
  149.8216  141.2579  155.1145 C   0  0  2  0  0  0  0  0  0  0  0  0
  150.3695  142.3694  155.8897 N   0  0  0  0  0  0  0  0  0  0  0  0
  150.9243  142.2706  157.1073 C   0  0  0  0  0  0  0  0  0  0  0  0
  151.0150  141.2079  157.7239 O   0  0  0  0  0  0  0  0  0  0  0  0
  151.4315  143.5839  157.7207 C   0  0  0  0  0  0  0  0  0  0  0  0
  151.8385  143.4528  159.1271 N   0  0  0  0  0  0  0  0  0  0  0  0
  152.5858  142.3163  159.3971 N   0  0  0  0  0  0  0  0  0  0  0  0
  153.0172  142.0972  160.5931 C   0  0  0  0  0  0  0  0  0  0  0  0
  153.7574  140.9620  160.8158 O   0  0  0  0  0  0  0  0  0  0  0  0
  152.7318  143.0175  161.6721 C   0  0  0  0  0  0  0  0  0  0  0  0
  151.9978  144.1189  161.4005 C   0  0  0  0  0  0  0  0  0  0  0  0
  151.4937  144.3984  160.0546 C   0  0  0  0  0  0  0  0  0  0  0  0
  150.8223  145.3927  159.7793 O   0  0  0  0  0  0  0  0  0  0  0  0
  148.4211  140.8637  155.6518 C   0  0  1  0  0  0  0  0  0  0  0  0
  147.4281  142.0432  155.6625 C   0  0  0  0  0  0  0  0  0  0  0  0
  154.4459  140.9791  160.1692 H   0  0  0  0  0  0  0  0  0  0  0  0
  148.2011  140.2723  152.8506 H   0  0  0  0  0  0  0  0  0  0  0  0
  146.5778  140.6094  153.4388 H   0  0  0  0  0  0  0  0  0  0  0  0
  147.0271  138.9738  153.0057 H   0  0  0  0  0  0  0  0  0  0  0  0
  146.9605  139.3007  155.4667 H   0  0  0  0  0  0  0  0  0  0  0  0
  148.9603  138.1291  156.0301 H   0  0  0  0  0  0  0  0  0  0  0  0
  148.4640  137.5824  154.4526 H   0  0  0  0  0  0  0  0  0  0  0  0
  150.9228  137.9937  154.5529 H   0  0  0  0  0  0  0  0  0  0  0  0
  150.1698  139.0332  153.3725 H   0  0  0  0  0  0  0  0  0  0  0  0
  151.0006  139.8014  156.2074 H   0  0  0  0  0  0  0  0  0  0  0  0
  151.7545  140.3369  154.7262 H   0  0  0  0  0  0  0  0  0  0  0  0
  149.7131  141.5766  154.0765 H   0  0  0  0  0  0  0  0  0  0  0  0
  150.3318  143.2827  155.4609 H   0  0  0  0  0  0  0  0  0  0  0  0
  152.2644  143.9666  157.1274 H   0  0  0  0  0  0  0  0  0  0  0  0
  150.6384  144.3277  157.6254 H   0  0  0  0  0  0  0  0  0  0  0  0
  153.0998  142.8211  162.6684 H   0  0  0  0  0  0  0  0  0  0  0  0
  151.7767  144.8145  162.1967 H   0  0  0  0  0  0  0  0  0  0  0  0
  148.5525  140.5712  156.6950 H   0  0  0  0  0  0  0  0  0  0  0  0
  147.3233  142.4889  154.6732 H   0  0  0  0  0  0  0  0  0  0  0  0
  147.7508  142.8322  156.3421 H   0  0  0  0  0  0  0  0  0  0  0  0
  146.4398  141.7212  155.9915 H   0  0  0  0  0  0  0  0  0  0  0  0
  1  2  1  0  0  0  0
  1 22  1  0  0  0  0
  1 23  1  0  0  0  0
  1 24  1  0  0  0  0
  2 19  1  0  0  0  0
  2  3  1  0  0  0  0
  2 25  1  0  0  0  0
  3  4  1  0  0  0  0
  3 26  1  0  0  0  0
  3 27  1  0  0  0  0
  4  5  1  0  0  0  0
  4 28  1  0  0  0  0
  4 29  1  0  0  0  0
  5  6  1  0  0  0  0
  5 30  1  0  0  0  0
  5 31  1  0  0  0  0
  6  7  1  0  0  0  0
  6 19  1  0  0  0  0
  6 32  1  0  0  0  0
  7  8  1  0  0  0  0
  7 33  1  0  0  0  0
  8  9  2  0  0  0  0
  8 10  1  0  0  0  0
 10 34  1  0  0  0  0
 10 35  1  0  0  0  0
 10 11  1  0  0  0  0
 11 12  1  0  0  0  0
 11 17  1  0  0  0  0
 12 13  2  0  0  0  0
 13 14  1  0  0  0  0
 13 15  1  0  0  0  0
 14 21  1  0  0  0  0
 15 36  1  0  0  0  0
 15 16  2  0  0  0  0
 16 37  1  0  0  0  0
 16 17  1  0  0  0  0
 17 18  2  0  0  0  0
 19 20  1  0  0  0  0
 19 38  1  0  0  0  0
 20 39  1  0  0  0  0
 20 40  1  0  0  0  0
 20 41  1  0  0  0  0
M  END
> <s_m_source_file>
AV-unprocessed.smi

> <i_m_source_file_index>
1464

> <i_lp_mmshare_version>
43012

> <i_f3d_flags>
0

> <s_epik_input>
W0NIM11bQ0BASF0xW0NIMl1bQ0gyXVtDSDJdW0NASF0oW0NASF0xW0NIM10pW05IXUMoPU8pW0NIMl1uMltuSF1jKD1PKVtjSF1bY0hdYzI9Tw==

> <s_epik_cmdline>
J2VwaWtfcHl0aG9uJywgJy1waCcsICc3LjAnLCAnLXRuJywgJzgnLCAnLW1hJywgJzIwMCcsICctbWV0YWxfYmluZGluZycsICctaW1hZScsICc8aW5maWxlLm1hZT4nLCAnLW9tYWUnLCAnPG91dGZpbGUubWFlPic=

> <r_lp_tautomer_probability>
0.9996

> <r_epik_Ionization_Penalty>
2.10335

> <r_epik_Ionization_Penalty_Charging>
3.98079e-08

> <r_epik_Ionization_Penalty_Neutral>
2.10335

> <r_epik_State_Penalty>
1.67957

> <r_epik_Charging_Adjusted_Penalty>
1.67957

> <i_epik_Tot_Q>
0

> <i_epik_Tot_abs_Q>
0

> <r_epik_Metal_State_Penalty>
1.67957

> <b_epik_Metal_Only>
0

> <s_lp_Force_Field>
OPLS_2005

> <r_lp_Energy>
23.4663

> <b_lp_Chiralities_Consistent>
1

> <s_lp_Variant>
AV-unprocessed.smi:1464-12

> <Gold.Version>
5.8.1

> <Gold.Id.Protein>
6NUR|6NUR_protein|mol2

> <Gold.PLP.Fitness>
41.5585

> <Gold.PLP.PLP>
-40.5831

> <Gold.PLP.part.hbond>
-1.1562

> <Gold.PLP.part.metal>
0.0000

> <Gold.PLP.part.buried>
-3.2846

> <Gold.PLP.part.nonpolar>
-35.8758

> <Gold.PLP.part.repulsive>
0.3550

> <Gold.PLP.ligand.clash>
0.0000

> <Gold.PLP.ligand.torsion>
0.5046

> <Gold.PLP.Chemscore.Hbond>
0.6560

> <Gold.PLP.Chemscore.CHOScore>
0.0000

> <Gold.PLP.Chemscore.Metal>
0.0000

> <Gold.Chemscore.Hbonds>
donor molecule, donor type, donor heavy atom, donor atom, acceptor molecule, acceptor atom, score
      L1  H     7    33       P1  8028  0.58

> <Gold.PLP.Chemscore.Internal.Correction>
0.0166

> <Gold.Rescore>
     Score         DG    S(hbond)    S(metal)    S(lipo)     H(rot)  DE(clash)    DE(int)     intcor
      8.09     -11.56       0.91        0.00      74.64       2.22       0.05       3.41       ----

> <Gold.Chemscore.Fitness>
8.0942

> <Gold.Chemscore.DG>
-11.5599

> <Gold.Chemscore.ZeroCoef>
-5.4800

> <Gold.Chemscore.Hbond>
0.9093

> <Gold.Chemscore.Metal>
0.0000

> <Gold.Chemscore.Lipo>
74.6351

> <Gold.Chemscore.Internal_Hbond>
0.0000

> <Gold.Chemscore.DEClash>
0.0510

> <Gold.Chemscore.DEInternal>
3.4147

> <Gold.Chemscore.Rot>
2.2224

> <Gold.Chemscore.Internal.Correction>
   9.000000E+99

> <Gold.Chemscore.Hbonds>
donor molecule, donor type, donor heavy atom, donor atom, acceptor molecule, acceptor atom, score
      L1  H     7    33       P1  8028  0.54

> <Gold.Chemscore.Hbond.Weighted>
-3.0369

> <Gold.Chemscore.Metal.Weighted>
-0.0000

> <Gold.Chemscore.Lipo.Weighted>
-8.7323

> <Gold.Chemscore.Internal_Hbond.Weighted>
0.0000

> <Gold.Chemscore.DEClash.Weighted>
0.0510

> <Gold.Chemscore.DEInternal.Weighted>
3.4147

> <Gold.Chemscore.Rot.Weighted>
5.6893

> <Gold.Chemscore.Internal.Correction.Weighted>
   9.000000E+99

> <Gold.Protein.RotatedTorsions>
[ 6907 6896 6895 6894 ] final  119.93 input  -60.11 | X-H torsion
[ 7974 7965 7964 7962 ] final -160.88 input  175.53 | X-H torsion
[ 8008 7997 7996 7995 ] final   -2.71 input   59.86 | X-H torsion
[ 10167 10162 10161 10158 ] final -117.87 input  -65.29 | X-H torsion
[ 10718 10713 10712 10709 ] final   17.89 input   66.30 | X-H torsion
[ 10763 10752 10751 10750 ] final  -98.56 input  -60.55 | X-H torsion
[ 11005 11000 10999 10996 ] final -109.04 input  -57.11 | X-H torsion

> <Gold.Protein.ActiveResidues>
 VAL166  LYS551  ARG553  GLY616  TRP617  ASP618  TYR619  PRO620  LYS621  CYS622 
 ASP623  PHE694  ASN695  SER759  ASP760  ASP761  ALA762  ILE779  LEU786  VAL792 
 PHE793  MET794  SER795  GLU796  ALA797  LYS798  CYS799  TRP800  GLU811  SER814 

> <Gold.Protein.RotatedAtoms>
  152.4435  133.7493  159.6684 H   0  0  0  0  0  0  0  0  0  0  0  0  # atno 6907 bound_to 6896
  150.8330  133.8048  159.3097 H   0  0  0  0  0  0  0  0  0  0  0  0  # atno 6908 bound_to 6896
  151.5696  135.1065  160.0044 H   0  0  0  0  0  0  0  0  0  0  0  0  # atno 6909 bound_to 6896
  144.7411  140.3478  143.6122 H   0  0  0  0  0  0  0  0  0  0  0  0  # atno 7974 bound_to 7965
  154.6327  140.2527  155.7414 H   0  0  0  0  0  0  0  0  0  0  0  0  # atno 8008 bound_to 7997
  156.2488  140.2903  156.0606 H   0  0  0  0  0  0  0  0  0  0  0  0  # atno 8009 bound_to 7997
  155.1719  140.0387  157.2855 H   0  0  0  0  0  0  0  0  0  0  0  0  # atno 8010 bound_to 7997
  140.0636  143.4944  152.2018 H   0  0  0  0  0  0  0  0  0  0  0  0  # atno 10167 bound_to 10162
  157.0886  130.6418  149.5843 H   0  0  0  0  0  0  0  0  0  0  0  0  # atno 10718 bound_to 10713
  154.7424  135.5005  153.9146 H   0  0  0  0  0  0  0  0  0  0  0  0  # atno 10763 bound_to 10752
  153.1057  135.6696  153.9599 H   0  0  0  0  0  0  0  0  0  0  0  0  # atno 10764 bound_to 10752
  153.9372  135.3071  155.3423 H   0  0  0  0  0  0  0  0  0  0  0  0  # atno 10765 bound_to 10752
  141.0869  133.9123  157.2165 H   0  0  0  0  0  0  0  0  0  0  0  0  # atno 11005 bound_to 11000
  145.7307  139.1735  143.2432 LP  0  0  0  0  0  0  0  0  0  0  0  0  # atno 17320 bound_to 7965
  146.1208  140.7311  142.9458 LP  0  0  0  0  0  0  0  0  0  0  0  0  # atno 17321 bound_to 7965
  139.5879  144.7538  151.3475 LP  0  0  0  0  0  0  0  0  0  0  0  0  # atno 17342 bound_to 10162
  140.7160  143.7265  150.7656 LP  0  0  0  0  0  0  0  0  0  0  0  0  # atno 17343 bound_to 10162
  155.9904  130.4955  150.7256 LP  0  0  0  0  0  0  0  0  0  0  0  0  # atno 17370 bound_to 10713
  157.4740  131.0896  151.0610 LP  0  0  0  0  0  0  0  0  0  0  0  0  # atno 17371 bound_to 10713
  139.9688  135.0134  156.9459 LP  0  0  0  0  0  0  0  0  0  0  0  0  # atno 17394 bound_to 11000
  140.5342  134.0783  155.7324 LP  0  0  0  0  0  0  0  0  0  0  0  0  # atno 17395 bound_to 11000

$$$$
