#       Name:                AV-unprocessed.smi:3354
#       Creating user name   scv26
#       Creation time:       Fri Mar 27 19:39:29 2020


#       File generated by GOLD software.
#

@<TRIPOS>MOLECULE
AV-unprocessed.smi:3354
    43    45     1
SMALL
NO_CHARGES


@<TRIPOS>ATOM
      1 ****        -5.4632  -0.8902  -2.1220 C.3            1 S1                 0.0000
      2 ****        -4.1533  -0.6466  -1.4045 C.3            1 S1                 0.0000
      3 ****        -4.1349   0.1278  -0.1079 C.3            1 S1                 0.0000
      4 ****        -3.5347   0.7341  -1.3616 C.3            1 S1                 0.0000
      5 ****        -2.1133   0.8501  -1.5071 N.am           1 S1                 0.0000
      6 ****        -1.1997   0.7349  -0.3786 C.3            1 S1                 0.0000
      7 ****         0.1454   1.2969  -0.8777 C.3            1 S1                 0.0000
      8 ****         1.2710   0.4460  -0.5006 N.am           1 S1                 0.0000
      9 ****         1.8341   0.4116   0.7152 C.2            1 S1                 0.0000
     10 ****         1.4376   1.0891   1.6630 O.2            1 S1                 0.0000
     11 ****         2.8577  -0.4592   0.7495 N.am           1 S1                 0.0000
     12 ****         3.7343  -0.7715   1.8249 C.ar           1 S1                 0.0000
     13 ****         3.8861   0.0131   2.9947 C.ar           1 S1                 0.0000
     14 ****         4.8046  -0.4029   3.9779 C.ar           1 S1                 0.0000
     15 ****         5.5416  -1.5820   3.7554 C.ar           1 S1                 0.0000
     16 ****         5.4153  -2.3339   2.6420 N.ar           1 S1                 0.0000
     17 ****         4.5331  -1.9288   1.7037 C.ar           1 S1                 0.0000
     18 ****         0.0008   1.4042  -2.4013 C.3            1 S1                 0.0000
     19 ****        -1.4919   1.2364  -2.6271 C.2            1 S1                 0.0000
     20 ****        -2.0267   1.4509  -3.7143 O.2            1 S1                 0.0000
     21 ****        -6.1230  -0.0271  -2.0295 H              1 S1                 0.0000
     22 ****        -5.9660  -1.7598  -1.6990 H              1 S1                 0.0000
     23 ****        -5.2796  -1.0746  -3.1805 H              1 S1                 0.0000
     24 ****        -3.4593  -1.4830  -1.4681 H              1 S1                 0.0000
     25 ****        -5.0755   0.5468   0.2438 H              1 S1                 0.0000
     26 ****        -3.4796  -0.2459   0.6758 H              1 S1                 0.0000
     27 ****        -4.1174   1.5380  -1.8094 H              1 S1                 0.0000
     28 ****        -1.5610   1.2921   0.4868 H              1 S1                 0.0000
     29 ****        -1.1204  -0.3165  -0.0969 H              1 S1                 0.0000
     30 ****         0.2917   2.3007  -0.4732 H              1 S1                 0.0000
     31 ****         1.6537  -0.1495  -1.2205 H              1 S1                 0.0000
     32 ****         3.0131  -0.9881  -0.0961 H              1 S1                 0.0000
     33 ****         3.3340   0.9253   3.1559 H              1 S1                 0.0000
     34 ****         4.9439   0.1725   4.8811 H              1 S1                 0.0000
     35 ****         6.2550  -1.9275   4.4890 H              1 S1                 0.0000
     36 ****         4.4619  -2.5534   0.8249 H              1 S1                 0.0000
     37 ****         0.3542   2.3640  -2.7800 H              1 S1                 0.0000
     38 ****         0.5296   0.6074  -2.9263 H              1 S1                 0.0000
     39 ****         0.6579   1.7042   1.5463 LP             1 S1                 0.0000
     40 ****         1.8952   1.0245   2.5498 LP             1 S1                 0.0000
     41 ****         5.9577  -3.1645   2.5159 LP             1 S1                 0.0000
     42 ****        -3.0151   1.3386  -3.8161 LP             1 S1                 0.0000
     43 ****        -1.4729   1.7374  -4.4961 LP             1 S1                 0.0000
@<TRIPOS>BOND
    1    1    2 1     
    2    1   21 1     
    3    1   22 1     
    4    1   23 1     
    5    2    4 1     
    6    2    3 1     
    7    2   24 1     
    8    3    4 1     
    9    3   25 1     
   10    3   26 1     
   11    4    5 1     
   12    4   27 1     
   13    5   19 am    
   14    5    6 1     
   15    6    7 1     
   16    6   28 1     
   17    6   29 1     
   18    7    8 1     
   19    7   18 1     
   20    7   30 1     
   21    8    9 am    
   22    8   31 1     
   23    9   10 2     
   24    9   11 am    
   25   11   12 1     
   26   11   32 1     
   27   12   17 ar    
   28   12   13 ar    
   29   13   14 ar    
   30   13   33 1     
   31   14   15 ar    
   32   14   34 1     
   33   15   16 ar    
   34   15   35 1     
   35   16   17 ar    
   36   17   36 1     
   37   18   19 1     
   38   18   37 1     
   39   18   38 1     
   40   19   20 2     
   41   10   39 1     
   42   10   40 1     
   43   16   41 1     
   44   20   42 1     
   45   20   43 1     
@<TRIPOS>SUBSTRUCTURE
      1 S1             1
@<TRIPOS>SET
LONE_PAIRS      STATIC     ATOMS    <user>   **** ""
5 39 40 41 42 43
DONOR_HYDROGENS      STATIC     ATOMS    <user>   **** ""
2 31 32
ATOM$BLUE        STATIC     ATOMS    COLORGROUP SYSTEM
5 39 40 41 42 43
ATOM$RED        STATIC     ATOMS    COLORGROUP SYSTEM
2 31 32
