#       Name:                AV-unprocessed.smi:1257
#       Creating user name   scv26
#       Creation time:       Fri Mar 27 04:40:42 2020


#       File generated by GOLD software.
#

@<TRIPOS>MOLECULE
AV-unprocessed.smi:1257
    55    56     1
SMALL
NO_CHARGES


@<TRIPOS>ATOM
      1 ****        -7.5927   3.0665  -0.5165 C.3            1 S1                 0.0000
      2 ****        -7.0807   2.6802   0.8777 C.3            1 S1                 0.0000
      3 ****        -6.4189   1.3804   0.8680 N.am           1 S1                 0.0000
      4 ****        -5.1586   1.1600   0.4644 C.2            1 S1                 0.0000
      5 ****        -4.4204   2.0528   0.0441 O.2            1 S1                 0.0000
      6 ****        -4.6773  -0.2951   0.5329 C.3            1 S1                 0.0000
      7 ****        -3.2304  -0.4216   0.3773 N.am           1 S1                 0.0000
      8 ****        -2.3315  -0.3216   1.3706 C.2            1 S1                 0.0000
      9 ****        -2.6371  -0.1884   2.5558 O.2            1 S1                 0.0000
     10 ****        -0.8943  -0.4375   0.9545 C.ar           1 S1                 0.0000
     11 ****         0.0648  -1.0017   1.8211 C.ar           1 S1                 0.0000
     12 ****         1.4094  -1.0662   1.4074 C.ar           1 S1                 0.0000
     13 ****         1.7666  -0.5551   0.1375 C.ar           1 S1                 0.0000
     14 ****         3.1087  -0.6061  -0.2952 N.3            1 S1                 0.0000
     15 ****         3.7308  -1.9256  -0.2662 C.3            1 S1                 0.0000
     16 ****         5.2591  -1.8003  -0.4015 C.3            1 S1                 0.0000
     17 ****         5.9363  -3.1701  -0.5142 C.3            1 S1                 0.0000
     18 ****         5.5781  -1.0534  -1.5751 O.3            1 S1                 0.0000
     19 ****         5.0108   0.2575  -1.6235 C.3            1 S1                 0.0000
     20 ****         5.6776   1.2184  -0.6231 C.3            1 S1                 0.0000
     21 ****         3.4797   0.1788  -1.4706 C.3            1 S1                 0.0000
     22 ****         0.8462   0.0014  -0.6874 N.ar           1 S1                 0.0000
     23 ****        -0.4413   0.0595  -0.2877 C.ar           1 S1                 0.0000
     24 ****        -8.1079   4.0266  -0.4865 H              1 S1                 0.0000
     25 ****        -8.2941   2.3244  -0.8989 H              1 S1                 0.0000
     26 ****        -6.7739   3.1545  -1.2315 H              1 S1                 0.0000
     27 ****        -6.4037   3.4460   1.2597 H              1 S1                 0.0000
     28 ****        -7.9175   2.6305   1.5748 H              1 S1                 0.0000
     29 ****        -6.9575   0.5913   1.1951 H              1 S1                 0.0000
     30 ****        -5.0012  -0.7493   1.4711 H              1 S1                 0.0000
     31 ****        -5.1571  -0.8579  -0.2682 H              1 S1                 0.0000
     32 ****        -2.8853  -0.5527  -0.5624 H              1 S1                 0.0000
     33 ****        -0.2181  -1.3825   2.7918 H              1 S1                 0.0000
     34 ****         2.1495  -1.4878   2.0712 H              1 S1                 0.0000
     35 ****         3.4960  -2.4614   0.6527 H              1 S1                 0.0000
     36 ****         3.3283  -2.5181  -1.0890 H              1 S1                 0.0000
     37 ****         5.6639  -1.2964   0.4764 H              1 S1                 0.0000
     38 ****         5.7341  -3.7817   0.3655 H              1 S1                 0.0000
     39 ****         7.0177  -3.0638  -0.6028 H              1 S1                 0.0000
     40 ****         5.5824  -3.7149  -1.3900 H              1 S1                 0.0000
     41 ****         5.2240   0.6442  -2.6204 H              1 S1                 0.0000
     42 ****         5.3218   2.2379  -0.7729 H              1 S1                 0.0000
     43 ****         6.7600   1.2252  -0.7528 H              1 S1                 0.0000
     44 ****         5.4650   0.9522   0.4120 H              1 S1                 0.0000
     45 ****         3.0476  -0.2909  -2.3553 H              1 S1                 0.0000
     46 ****         3.0657   1.1859  -1.4061 H              1 S1                 0.0000
     47 ****        -1.1223   0.5251  -0.9851 H              1 S1                 0.0000
     48 ****        -4.7539   2.9941  -0.0080 LP             1 S1                 0.0000
     49 ****        -3.4880   1.8360  -0.2448 LP             1 S1                 0.0000
     50 ****        -3.6001  -0.1494   2.8225 LP             1 S1                 0.0000
     51 ****        -1.9224  -0.1192   3.2518 LP             1 S1                 0.0000
     52 ****         3.5310  -0.0899   0.4499 LP             1 S1                 0.0000
     53 ****         5.2481  -1.5647  -2.3686 LP             1 S1                 0.0000
     54 ****         6.5727  -0.9640  -1.6262 LP             1 S1                 0.0000
     55 ****         1.1173   0.3636  -1.5791 LP             1 S1                 0.0000
@<TRIPOS>BOND
    1    1    2 1     
    2    1   24 1     
    3    1   25 1     
    4    1   26 1     
    5    2    3 1     
    6    2   27 1     
    7    2   28 1     
    8    3    4 am    
    9    3   29 1     
   10    4    5 2     
   11    4    6 1     
   12    6    7 1     
   13    6   30 1     
   14    6   31 1     
   15    7    8 am    
   16    7   32 1     
   17    8    9 2     
   18    8   10 1     
   19   10   23 ar    
   20   10   11 ar    
   21   11   12 ar    
   22   11   33 1     
   23   12   13 ar    
   24   12   34 1     
   25   13   14 1     
   26   13   22 ar    
   27   14   21 1     
   28   14   15 1     
   29   15   16 1     
   30   15   35 1     
   31   15   36 1     
   32   16   17 1     
   33   16   18 1     
   34   16   37 1     
   35   17   38 1     
   36   17   39 1     
   37   17   40 1     
   38   18   19 1     
   39   19   20 1     
   40   19   21 1     
   41   19   41 1     
   42   20   42 1     
   43   20   43 1     
   44   20   44 1     
   45   21   45 1     
   46   21   46 1     
   47   22   23 ar    
   48   23   47 1     
   49    5   48 1     
   50    5   49 1     
   51    9   50 1     
   52    9   51 1     
   53   14   52 1     
   54   18   53 1     
   55   18   54 1     
   56   22   55 1     
@<TRIPOS>SUBSTRUCTURE
      1 S1             1
@<TRIPOS>SET
LONE_PAIRS      STATIC     ATOMS    <user>   **** ""
8 48 49 50 51 52 53 54 55
DONOR_HYDROGENS      STATIC     ATOMS    <user>   **** ""
2 29 32
ATOM$BLUE        STATIC     ATOMS    COLORGROUP SYSTEM
8 48 49 50 51 52 53 54 55
ATOM$RED        STATIC     ATOMS    COLORGROUP SYSTEM
2 29 32
