AV-unprocessed.smi:3287|AV-procd|sdf|12600|dock1
  -GOLD-   2272018523D 1   1.00000     0.00000
 Structure written by MMmdl.
 43 44  0  0  0  0  0  0  0  0  2 V2000
  153.9187  142.4139  159.4526 C   0  0  0  0  0  0  0  0  0  0  0  0
  152.4891  142.6592  159.9761 C   0  0  2  0  0  0  0  0  0  0  0  0
  151.5686  141.4516  159.7044 C   0  0  0  0  0  0  0  0  0  0  0  0
  151.1819  141.3284  158.2203 C   0  0  0  0  0  0  0  0  0  0  0  0
  150.5325  142.6258  157.6969 C   0  0  2  0  0  0  0  0  0  0  0  0
  150.2189  142.5342  156.2541 N   0  3  0  0  0  0  0  0  0  0  0  0
  149.0991  141.6324  155.9073 C   0  0  0  0  0  0  0  0  0  0  0  0
  149.3779  140.8653  154.6033 C   0  0  2  0  0  0  0  0  0  0  0  0
  148.1572  140.6839  153.9113 O   0  0  0  0  0  0  0  0  0  0  0  0
  150.0695  139.5406  154.8851 C   0  0  0  0  0  0  0  0  0  0  0  0
  149.5203  138.3312  154.4100 C   0  0  0  0  0  0  0  0  0  0  0  0
  150.1995  137.1276  154.6871 C   0  0  0  0  0  0  0  0  0  0  0  0
  151.3545  137.0715  155.3839 N   0  0  0  0  0  0  0  0  0  0  0  0
  151.8776  138.2316  155.8345 C   0  0  0  0  0  0  0  0  0  0  0  0
  151.2787  139.4876  155.6122 C   0  0  0  0  0  0  0  0  0  0  0  0
  151.4533  143.8331  157.9540 C   0  0  0  0  0  0  0  0  0  0  0  0
  151.8307  143.9576  159.4440 C   0  0  2  0  0  0  0  0  0  0  0  0
  152.6639  145.2203  159.7188 C   0  0  0  0  0  0  0  0  0  0  0  0
  153.9567  142.3575  158.3652 H   0  0  0  0  0  0  0  0  0  0  0  0
  154.3188  141.4775  159.8425 H   0  0  0  0  0  0  0  0  0  0  0  0
  154.6009  143.2032  159.7674 H   0  0  0  0  0  0  0  0  0  0  0  0
  152.5732  142.7559  161.0595 H   0  0  0  0  0  0  0  0  0  0  0  0
  152.0442  140.5308  160.0438 H   0  0  0  0  0  0  0  0  0  0  0  0
  150.6595  141.5549  160.2985 H   0  0  0  0  0  0  0  0  0  0  0  0
  152.0650  141.0879  157.6273 H   0  0  0  0  0  0  0  0  0  0  0  0
  150.4994  140.4865  158.1052 H   0  0  0  0  0  0  0  0  0  0  0  0
  149.6001  142.7981  158.2371 H   0  0  0  0  0  0  0  0  0  0  0  0
  149.9587  143.4581  155.9385 H   0  0  0  0  0  0  0  0  0  0  0  0
  148.9509  140.9210  156.7198 H   0  0  0  0  0  0  0  0  0  0  0  0
  148.1779  142.2098  155.8151 H   0  0  0  0  0  0  0  0  0  0  0  0
  150.0281  141.4653  153.9646 H   0  0  0  0  0  0  0  0  0  0  0  0
  148.2011  139.8684  153.4348 H   0  0  0  0  0  0  0  0  0  0  0  0
  148.6001  138.3191  153.8446 H   0  0  0  0  0  0  0  0  0  0  0  0
  149.8050  136.1850  154.3379 H   0  0  0  0  0  0  0  0  0  0  0  0
  152.8018  138.1577  156.3881 H   0  0  0  0  0  0  0  0  0  0  0  0
  151.7419  140.3865  155.9921 H   0  0  0  0  0  0  0  0  0  0  0  0
  152.3553  143.7514  157.3465 H   0  0  0  0  0  0  0  0  0  0  0  0
  150.9521  144.7461  157.6293 H   0  0  0  0  0  0  0  0  0  0  0  0
  150.8982  144.0848  159.9969 H   0  0  0  0  0  0  0  0  0  0  0  0
  153.5862  145.2318  159.1380 H   0  0  0  0  0  0  0  0  0  0  0  0
  152.9296  145.2945  160.7737 H   0  0  0  0  0  0  0  0  0  0  0  0
  152.1046  146.1194  159.4586 H   0  0  0  0  0  0  0  0  0  0  0  0
  151.0481  142.2482  155.7537 H   0  0  0  0  0  0  0  0  0  0  0  0
  1  2  1  0  0  0  0
  1 19  1  0  0  0  0
  1 20  1  0  0  0  0
  1 21  1  0  0  0  0
  2 17  1  0  0  0  0
  2  3  1  0  0  0  0
  2 22  1  0  0  0  0
  3  4  1  0  0  0  0
  3 23  1  0  0  0  0
  3 24  1  0  0  0  0
  4  5  1  0  0  0  0
  4 25  1  0  0  0  0
  4 26  1  0  0  0  0
  5  6  1  0  0  0  0
  5 16  1  0  0  0  0
  5 27  1  0  0  0  0
  6  7  1  0  0  0  0
  6 28  1  0  0  0  0
  6 43  1  0  0  0  0
  7  8  1  0  0  0  0
  7 29  1  0  0  0  0
  7 30  1  0  0  0  0
  8  9  1  0  0  0  0
  8 10  1  0  0  0  0
  8 31  1  0  0  0  0
  9 32  1  0  0  0  0
 10 15  1  0  0  0  0
 10 11  2  0  0  0  0
 11 12  1  0  0  0  0
 11 33  1  0  0  0  0
 12 13  2  0  0  0  0
 12 34  1  0  0  0  0
 13 14  1  0  0  0  0
 14 15  2  0  0  0  0
 14 35  1  0  0  0  0
 15 36  1  0  0  0  0
 16 17  1  0  0  0  0
 16 37  1  0  0  0  0
 16 38  1  0  0  0  0
 17 18  1  0  0  0  0
 17 39  1  0  0  0  0
 18 40  1  0  0  0  0
 18 41  1  0  0  0  0
 18 42  1  0  0  0  0
M  CHG  1   6   1
M  END
> <s_m_source_file>
AV-unprocessed.smi

> <i_m_source_file_index>
3287

> <i_lp_mmshare_version>
43012

> <i_f3d_flags>
0

> <s_epik_input>
W0NIM11bQ0BASF0xW0NIMl1bQ0gyXVtDQEhdKFtDSDJdW0NASF0xW0NIM10pW05IXVtDSDJdW0NASF0oW09IXSljMltjSF1bY0hdbltjSF1bY0hdMg==

> <s_epik_cmdline>
J2VwaWtfcHl0aG9uJywgJy1waCcsICc3LjAnLCAnLXRuJywgJzgnLCAnLW1hJywgJzIwMCcsICctbWV0YWxfYmluZGluZycsICctaW1hZScsICc8aW5maWxlLm1hZT4nLCAnLW9tYWUnLCAnPG91dGZpbGUubWFlPic=

> <r_lp_tautomer_probability>
1

> <r_epik_Ionization_Penalty>
0.00537262

> <r_epik_Ionization_Penalty_Charging>
0.00321624

> <r_epik_Ionization_Penalty_Neutral>
0.00215638

> <r_epik_State_Penalty>
-0

> <r_epik_Charging_Adjusted_Penalty>
0.00321624

> <i_epik_Tot_Q>
1

> <i_epik_Tot_abs_Q>
1

> <r_epik_Metal_State_Penalty>
-0

> <b_epik_Metal_Only>
0

> <s_lp_Force_Field>
OPLS_2005

> <r_lp_Energy>
17.0862

> <b_lp_Chiralities_Consistent>
1

> <s_lp_Variant>
AV-unprocessed.smi:3287-11

> <Gold.Version>
5.8.1

> <Gold.Id.Protein>
6NUR|6NUR_protein|mol2

> <Gold.PLP.Fitness>
49.6091

> <Gold.PLP.PLP>
-40.6697

> <Gold.PLP.part.hbond>
-3.0000

> <Gold.PLP.part.metal>
0.0000

> <Gold.PLP.part.buried>
-0.9018

> <Gold.PLP.part.nonpolar>
-37.4600

> <Gold.PLP.part.repulsive>
0.1737

> <Gold.PLP.ligand.clash>
0.0000

> <Gold.PLP.ligand.torsion>
0.7936

> <Gold.PLP.Chemscore.Hbond>
2.8497

> <Gold.PLP.Chemscore.CHOScore>
0.6437

> <Gold.PLP.Chemscore.Metal>
0.0000

> <Gold.Chemscore.Hbonds>
donor molecule, donor type, donor heavy atom, donor atom, acceptor molecule, acceptor atom, score
      L1  H     6    28       P1  8028  2.00
      P1  H 10752 10763       L1    13  0.29
      L1  C    12    34       P1  7948  0.59

> <Gold.PLP.Chemscore.Internal.Correction>
0.0465

> <Gold.Rescore>
     Score         DG    S(hbond)    S(metal)    S(lipo)     H(rot)  DE(clash)    DE(int)     intcor
     20.31     -21.47       1.88        0.00     124.60       1.90       0.07       1.08       ----

> <Gold.Chemscore.Fitness>
20.3129

> <Gold.Chemscore.DG>
-21.4666

> <Gold.Chemscore.ZeroCoef>
-5.4800

> <Gold.Chemscore.Hbond>
1.8805

> <Gold.Chemscore.Metal>
0.0000

> <Gold.Chemscore.Lipo>
124.6029

> <Gold.Chemscore.Internal_Hbond>
0.0000

> <Gold.Chemscore.DEClash>
0.0691

> <Gold.Chemscore.DEInternal>
1.0845

> <Gold.Chemscore.Rot>
1.9035

> <Gold.Chemscore.Internal.Correction>
   9.000000E+99

> <Gold.Chemscore.Hbonds>
donor molecule, donor type, donor heavy atom, donor atom, acceptor molecule, acceptor atom, score
      L1  H     6    28       P1  8028  0.98
      P1  H 10752 10763       L1    13  0.23

> <Gold.Chemscore.Hbond.Weighted>
-6.2809

> <Gold.Chemscore.Metal.Weighted>
-0.0000

> <Gold.Chemscore.Lipo.Weighted>
-14.5785

> <Gold.Chemscore.Internal_Hbond.Weighted>
0.0000

> <Gold.Chemscore.DEClash.Weighted>
0.0691

> <Gold.Chemscore.DEInternal.Weighted>
1.0845

> <Gold.Chemscore.Rot.Weighted>
4.8729

> <Gold.Chemscore.Internal.Correction.Weighted>
   9.000000E+99

> <Gold.Protein.RotatedTorsions>
[ 6907 6896 6895 6894 ] final   30.11 input  -60.11 | X-H torsion
[ 7974 7965 7964 7962 ] final  -58.17 input  175.53 | X-H torsion
[ 8008 7997 7996 7995 ] final -171.45 input   59.86 | X-H torsion
[ 10167 10162 10161 10158 ] final   53.42 input  -65.29 | X-H torsion
[ 10718 10713 10712 10709 ] final -132.22 input   66.30 | X-H torsion
[ 10763 10752 10751 10750 ] final   54.53 input  -60.55 | X-H torsion
[ 11005 11000 10999 10996 ] final -177.08 input  -57.11 | X-H torsion

> <Gold.Protein.ActiveResidues>
 VAL166  LYS551  ARG553  GLY616  TRP617  ASP618  TYR619  PRO620  LYS621  CYS622 
 ASP623  PHE694  ASN695  SER759  ASP760  ASP761  ALA762  ILE779  LEU786  VAL792 
 PHE793  MET794  SER795  GLU796  ALA797  LYS798  CYS799  TRP800  GLU811  SER814 

> <Gold.Protein.RotatedAtoms>
  152.0413  134.9710  160.0573 H   0  0  0  0  0  0  0  0  0  0  0  0  # atno 6907 bound_to 6896
  152.1147  133.4315  159.4656 H   0  0  0  0  0  0  0  0  0  0  0  0  # atno 6908 bound_to 6896
  150.6845  134.2525  159.4559 H   0  0  0  0  0  0  0  0  0  0  0  0  # atno 6909 bound_to 6896
  145.8424  140.8408  143.0027 H   0  0  0  0  0  0  0  0  0  0  0  0  # atno 7974 bound_to 7965
  155.9317  140.1092  157.1127 H   0  0  0  0  0  0  0  0  0  0  0  0  # atno 8008 bound_to 7997
  154.4072  140.1236  156.4876 H   0  0  0  0  0  0  0  0  0  0  0  0  # atno 8009 bound_to 7997
  155.7072  140.3471  155.4960 H   0  0  0  0  0  0  0  0  0  0  0  0  # atno 8010 bound_to 7997
  140.2409  144.3584  150.6380 H   0  0  0  0  0  0  0  0  0  0  0  0  # atno 10167 bound_to 10162
  156.2324  130.7045  151.0872 H   0  0  0  0  0  0  0  0  0  0  0  0  # atno 10718 bound_to 10713
  152.9806  135.5742  154.4918 H   0  0  0  0  0  0  0  0  0  0  0  0  # atno 10763 bound_to 10752
  154.4451  135.2777  155.1822 H   0  0  0  0  0  0  0  0  0  0  0  0  # atno 10764 bound_to 10752
  154.3473  135.6216  153.5679 H   0  0  0  0  0  0  0  0  0  0  0  0  # atno 10765 bound_to 10752
  140.4449  134.6397  157.4775 H   0  0  0  0  0  0  0  0  0  0  0  0  # atno 11005 bound_to 11000
  144.6733  140.0832  143.7468 LP  0  0  0  0  0  0  0  0  0  0  0  0  # atno 17320 bound_to 7965
  145.9450  139.2694  143.1246 LP  0  0  0  0  0  0  0  0  0  0  0  0  # atno 17321 bound_to 7965
  140.6114  143.2170  151.6878 LP  0  0  0  0  0  0  0  0  0  0  0  0  # atno 17342 bound_to 10162
  139.5077  144.3635  152.0539 LP  0  0  0  0  0  0  0  0  0  0  0  0  # atno 17343 bound_to 10162
  157.7139  131.0720  150.6400 LP  0  0  0  0  0  0  0  0  0  0  0  0  # atno 17370 bound_to 10713
  156.6469  130.4474  149.5733 LP  0  0  0  0  0  0  0  0  0  0  0  0  # atno 17371 bound_to 10713
  140.0045  134.6785  155.9477 LP  0  0  0  0  0  0  0  0  0  0  0  0  # atno 17394 bound_to 11000
  141.1689  133.6537  156.4581 LP  0  0  0  0  0  0  0  0  0  0  0  0  # atno 17395 bound_to 11000

$$$$
