AV-unprocessed.smi:2299|AV-procd|sdf|9229|dock1
  -GOLD-   2272012443D 1   1.00000     0.00000
 Structure written by MMmdl.
 43 44  0  0  0  0  0  0  0  0  2 V2000
  145.1241  134.0091  150.4824 C   0  0  0  0  0  0  0  0  0  0  0  0
  145.9871  132.7931  150.8487 C   0  0  0  0  0  0  0  0  0  0  0  0
  145.1185  131.5797  151.2185 C   0  0  0  0  0  0  0  0  0  0  0  0
  146.9769  133.1337  151.9292 C   0  0  0  0  0  0  0  0  0  0  0  0
  148.2485  132.7151  151.9733 N   0  3  0  0  0  0  0  0  0  0  0  0
  148.8704  133.1785  153.0995 C   0  0  0  0  0  0  0  0  0  0  0  0
  147.9315  133.8979  153.7892 C   0  0  0  0  0  0  0  0  0  0  0  0
  146.7727  133.8434  153.0558 N   0  0  0  0  0  0  0  0  0  0  0  0
  145.4977  134.4748  153.4250 C   0  0  0  0  0  0  0  0  0  0  0  0
  145.7231  135.8861  153.9686 C   0  0  0  0  0  0  0  0  0  0  0  0
  145.2818  136.1990  155.0740 O   0  0  0  0  0  0  0  0  0  0  0  0
  146.3956  136.7324  153.1722 N   0  0  0  0  0  0  0  0  0  0  0  0
  146.6740  138.1398  153.4662 C   0  0  1  0  0  0  0  0  0  0  0  0
  148.0241  138.1960  154.2174 C   0  0  0  0  0  0  0  0  0  0  0  0
  148.2233  139.4750  155.0486 C   0  0  0  0  0  0  0  0  0  0  0  0
  148.3143  140.7708  154.2292 C   0  0  0  0  0  0  0  0  0  0  0  0
  147.0330  141.0932  153.4421 C   0  0  0  0  0  0  0  0  0  0  0  0
  146.9159  140.2904  152.2316 N   0  0  0  0  0  0  0  0  0  0  0  0
  146.7820  138.9575  152.1571 C   0  0  0  0  0  0  0  0  0  0  0  0
  146.7482  138.3964  151.0614 O   0  0  0  0  0  0  0  0  0  0  0  0
  145.7390  134.8485  150.1571 H   0  0  0  0  0  0  0  0  0  0  0  0
  144.5297  134.3436  151.3334 H   0  0  0  0  0  0  0  0  0  0  0  0
  144.4373  133.7722  149.6695 H   0  0  0  0  0  0  0  0  0  0  0  0
  146.5738  132.5102  149.9753 H   0  0  0  0  0  0  0  0  0  0  0  0
  145.7360  130.7091  151.4422 H   0  0  0  0  0  0  0  0  0  0  0  0
  144.4560  131.3084  150.3962 H   0  0  0  0  0  0  0  0  0  0  0  0
  144.4944  131.7812  152.0900 H   0  0  0  0  0  0  0  0  0  0  0  0
  149.9058  132.9646  153.3209 H   0  0  0  0  0  0  0  0  0  0  0  0
  147.9991  134.4312  154.7264 H   0  0  0  0  0  0  0  0  0  0  0  0
  144.8332  134.5002  152.5616 H   0  0  0  0  0  0  0  0  0  0  0  0
  145.0167  133.8444  154.1745 H   0  0  0  0  0  0  0  0  0  0  0  0
  146.7167  136.3880  152.2791 H   0  0  0  0  0  0  0  0  0  0  0  0
  145.8752  138.5396  154.0938 H   0  0  0  0  0  0  0  0  0  0  0  0
  148.0789  137.3555  154.9112 H   0  0  0  0  0  0  0  0  0  0  0  0
  148.8602  138.0606  153.5288 H   0  0  0  0  0  0  0  0  0  0  0  0
  147.4176  139.5626  155.7787 H   0  0  0  0  0  0  0  0  0  0  0  0
  149.1393  139.3704  155.6307 H   0  0  0  0  0  0  0  0  0  0  0  0
  148.5129  141.5929  154.9177 H   0  0  0  0  0  0  0  0  0  0  0  0
  149.1715  140.7323  153.5555 H   0  0  0  0  0  0  0  0  0  0  0  0
  146.1453  140.9780  154.0658 H   0  0  0  0  0  0  0  0  0  0  0  0
  147.0567  142.1383  153.1327 H   0  0  0  0  0  0  0  0  0  0  0  0
  146.9715  140.7946  151.3584 H   0  0  0  0  0  0  0  0  0  0  0  0
  148.6871  132.1412  151.2641 H   0  0  0  0  0  0  0  0  0  0  0  0
  1  2  1  0  0  0  0
  1 21  1  0  0  0  0
  1 22  1  0  0  0  0
  1 23  1  0  0  0  0
  2  3  1  0  0  0  0
  2  4  1  0  0  0  0
  2 24  1  0  0  0  0
  3 25  1  0  0  0  0
  3 26  1  0  0  0  0
  3 27  1  0  0  0  0
  4  8  1  0  0  0  0
  4  5  2  0  0  0  0
  5  6  1  0  0  0  0
  5 43  1  0  0  0  0
  6  7  2  0  0  0  0
  6 28  1  0  0  0  0
  7  8  1  0  0  0  0
  7 29  1  0  0  0  0
  8  9  1  0  0  0  0
  9 10  1  0  0  0  0
  9 30  1  0  0  0  0
  9 31  1  0  0  0  0
 10 11  2  0  0  0  0
 10 12  1  0  0  0  0
 12 13  1  0  0  0  0
 12 32  1  0  0  0  0
 13 19  1  0  0  0  0
 13 14  1  0  0  0  0
 13 33  1  0  0  0  0
 14 15  1  0  0  0  0
 14 34  1  0  0  0  0
 14 35  1  0  0  0  0
 15 16  1  0  0  0  0
 15 36  1  0  0  0  0
 15 37  1  0  0  0  0
 16 17  1  0  0  0  0
 16 38  1  0  0  0  0
 16 39  1  0  0  0  0
 17 18  1  0  0  0  0
 17 40  1  0  0  0  0
 17 41  1  0  0  0  0
 18 19  1  0  0  0  0
 18 42  1  0  0  0  0
 19 20  2  0  0  0  0
M  CHG  1   5   1
M  END
> <s_m_source_file>
AV-unprocessed.smi

> <i_m_source_file_index>
2299

> <i_lp_mmshare_version>
43012

> <i_f3d_flags>
0

> <s_epik_input>
W0NIM11bQ0hdKFtDSDNdKWMxbltjSF1bY0hdbjFbQ0gyXUMoPU8pW05IXVtDQEBIXTJbQ0gyXVtDSDJdW0NIMl1bQ0gyXVtOSF1DMj1P

> <s_epik_cmdline>
J2VwaWtfcHl0aG9uJywgJy1waCcsICc3LjAnLCAnLXRuJywgJzgnLCAnLW1hJywgJzIwMCcsICctbWV0YWxfYmluZGluZycsICctaW1hZScsICc8aW5maWxlLm1hZT4nLCAnLW9tYWUnLCAnPG91dGZpbGUubWFlPic=

> <r_lp_tautomer_probability>
1

> <r_epik_Ionization_Penalty>
0.292878

> <r_epik_Ionization_Penalty_Charging>
0

> <r_epik_Ionization_Penalty_Neutral>
0.292878

> <r_epik_State_Penalty>
0.286008

> <r_epik_Charging_Adjusted_Penalty>
0.286008

> <i_epik_Tot_Q>
1

> <i_epik_Tot_abs_Q>
1

> <r_epik_Metal_State_Penalty>
0.563502

> <b_epik_Metal_Only>
0

> <s_lp_Force_Field>
OPLS_2005

> <r_lp_Energy>
15.0936

> <b_lp_Chiralities_Consistent>
1

> <s_lp_Variant>
AV-unprocessed.smi:2299-2

> <Gold.Version>
5.8.1

> <Gold.Id.Protein>
6NUR|6NUR_protein|mol2

> <Gold.PLP.Fitness>
37.1738

> <Gold.PLP.PLP>
-32.8722

> <Gold.PLP.part.hbond>
-4.2050

> <Gold.PLP.part.metal>
0.0000

> <Gold.PLP.part.buried>
-3.5657

> <Gold.PLP.part.nonpolar>
-24.4233

> <Gold.PLP.part.repulsive>
0.6482

> <Gold.PLP.ligand.clash>
0.0000

> <Gold.PLP.ligand.torsion>
1.1930

> <Gold.PLP.Chemscore.Hbond>
2.2111

> <Gold.PLP.Chemscore.CHOScore>
0.0000

> <Gold.PLP.Chemscore.Metal>
0.0000

> <Gold.Chemscore.Hbonds>
donor molecule, donor type, donor heavy atom, donor atom, acceptor molecule, acceptor atom, score
      L1  H     5    43       P1 10747  1.00
      L1  H    12    32       P1  7948  0.18
      P1  H  7954  7966       L1    20  1.00

> <Gold.PLP.Chemscore.Internal.Correction>
0.0542

> <Gold.Rescore>
     Score         DG    S(hbond)    S(metal)    S(lipo)     H(rot)  DE(clash)    DE(int)     intcor
     14.68     -16.24       2.38        0.00      62.21       1.75       0.61       0.95       ----

> <Gold.Chemscore.Fitness>
14.6792

> <Gold.Chemscore.DG>
-16.2407

> <Gold.Chemscore.ZeroCoef>
-5.4800

> <Gold.Chemscore.Hbond>
2.3846

> <Gold.Chemscore.Metal>
0.0000

> <Gold.Chemscore.Lipo>
62.2064

> <Gold.Chemscore.Internal_Hbond>
0.0000

> <Gold.Chemscore.DEClash>
0.6101

> <Gold.Chemscore.DEInternal>
0.9515

> <Gold.Chemscore.Rot>
1.7508

> <Gold.Chemscore.Internal.Correction>
   9.000000E+99

> <Gold.Chemscore.Hbonds>
donor molecule, donor type, donor heavy atom, donor atom, acceptor molecule, acceptor atom, score
      L1  H     5    43       P1 10747  0.99
      L1  H    12    32       P1  7948  0.17
      P1  H  7954  7966       L1    20  0.98

> <Gold.Chemscore.Hbond.Weighted>
-7.9647

> <Gold.Chemscore.Metal.Weighted>
-0.0000

> <Gold.Chemscore.Lipo.Weighted>
-7.2781

> <Gold.Chemscore.Internal_Hbond.Weighted>
0.0000

> <Gold.Chemscore.DEClash.Weighted>
0.6101

> <Gold.Chemscore.DEInternal.Weighted>
0.9515

> <Gold.Chemscore.Rot.Weighted>
4.4821

> <Gold.Chemscore.Internal.Correction.Weighted>
   9.000000E+99

> <Gold.Protein.RotatedTorsions>
[ 6907 6896 6895 6894 ] final -166.24 input  -60.11 | X-H torsion
[ 7974 7965 7964 7962 ] final  -63.27 input  175.53 | X-H torsion
[ 8008 7997 7996 7995 ] final   76.34 input   59.86 | X-H torsion
[ 10167 10162 10161 10158 ] final -119.32 input  -65.29 | X-H torsion
[ 10718 10713 10712 10709 ] final  137.34 input   66.30 | X-H torsion
[ 10763 10752 10751 10750 ] final -112.89 input  -60.55 | X-H torsion
[ 11005 11000 10999 10996 ] final   76.14 input  -57.11 | X-H torsion

> <Gold.Protein.ActiveResidues>
 VAL166  LYS551  ARG553  GLY616  TRP617  ASP618  TYR619  PRO620  LYS621  CYS622 
 ASP623  PHE694  ASN695  SER759  ASP760  ASP761  ALA762  ILE779  LEU786  VAL792 
 PHE793  MET794  SER795  GLU796  ALA797  LYS798  CYS799  TRP800  GLU811  SER814 

> <Gold.Protein.RotatedAtoms>
  151.4405  133.3645  159.2780 H   0  0  0  0  0  0  0  0  0  0  0  0  # atno 6907 bound_to 6896
  150.9161  134.8580  159.7468 H   0  0  0  0  0  0  0  0  0  0  0  0  # atno 6908 bound_to 6896
  152.4958  134.4339  159.9573 H   0  0  0  0  0  0  0  0  0  0  0  0  # atno 6909 bound_to 6896
  145.7811  140.8761  143.0330 H   0  0  0  0  0  0  0  0  0  0  0  0  # atno 7974 bound_to 7965
  155.8259  140.3468  155.5542 H   0  0  0  0  0  0  0  0  0  0  0  0  # atno 8008 bound_to 7997
  155.8293  140.0924  157.1822 H   0  0  0  0  0  0  0  0  0  0  0  0  # atno 8009 bound_to 7997
  154.4004  140.1415  156.3582 H   0  0  0  0  0  0  0  0  0  0  0  0  # atno 8010 bound_to 7997
  140.0479  143.5089  152.2097 H   0  0  0  0  0  0  0  0  0  0  0  0  # atno 10167 bound_to 10162
  157.4371  131.1054  151.0185 H   0  0  0  0  0  0  0  0  0  0  0  0  # atno 10718 bound_to 10713
  154.8371  135.4474  154.1264 H   0  0  0  0  0  0  0  0  0  0  0  0  # atno 10763 bound_to 10752
  153.2486  135.6924  153.7710 H   0  0  0  0  0  0  0  0  0  0  0  0  # atno 10764 bound_to 10752
  153.7031  135.3368  155.3205 H   0  0  0  0  0  0  0  0  0  0  0  0  # atno 10765 bound_to 10752
  139.9311  134.7576  156.1359 H   0  0  0  0  0  0  0  0  0  0  0  0  # atno 11005 bound_to 11000
  144.6796  139.9991  143.7484 LP  0  0  0  0  0  0  0  0  0  0  0  0  # atno 17320 bound_to 7965
  146.0073  139.3140  143.0892 LP  0  0  0  0  0  0  0  0  0  0  0  0  # atno 17321 bound_to 7965
  139.5972  144.7571  151.3259 LP  0  0  0  0  0  0  0  0  0  0  0  0  # atno 17342 bound_to 10162
  140.7230  143.7082  150.7790 LP  0  0  0  0  0  0  0  0  0  0  0  0  # atno 17343 bound_to 10162
  157.1061  130.6002  149.5471 LP  0  0  0  0  0  0  0  0  0  0  0  0  # atno 17370 bound_to 10713
  155.9934  130.4996  150.7381 LP  0  0  0  0  0  0  0  0  0  0  0  0  # atno 17371 bound_to 10713
  141.0901  133.6718  156.2521 LP  0  0  0  0  0  0  0  0  0  0  0  0  # atno 17394 bound_to 11000
  140.6198  134.5373  157.5546 LP  0  0  0  0  0  0  0  0  0  0  0  0  # atno 17395 bound_to 11000

$$$$
