AV-unprocessed.smi:1867|AV-procd|sdf|7580|dock1
  -GOLD-   22720 9293D 1   1.00000     0.00000
 Structure written by MMmdl.
 52 55  0  0  0  0  0  0  0  0  4 V2000
  147.6922  139.7812  153.6654 O   0  0  0  0  0  0  0  0  0  0  0  0
  147.4939  138.8495  154.4429 C   0  0  0  0  0  0  0  0  0  0  0  0
  148.1449  138.8364  155.6326 N   0  0  0  0  0  0  0  0  0  0  0  0
  149.0334  139.8007  156.1788 C   0  0  0  0  0  0  0  0  0  0  0  0
  149.9141  139.3834  157.1980 C   0  0  0  0  0  0  0  0  0  0  0  0
  150.7997  140.3122  157.7815 C   0  0  0  0  0  0  0  0  0  0  0  0
  150.7891  141.6588  157.3468 C   0  0  0  0  0  0  0  0  0  0  0  0
  151.6423  142.6400  157.8864 N   0  0  0  0  0  0  0  0  0  0  0  0
  152.1279  142.5520  159.2547 C   0  0  0  0  0  0  0  0  0  0  0  0
  152.8413  143.8811  159.4963 C   0  0  0  0  0  0  0  0  0  0  0  0
  152.0343  144.8643  158.6479 C   0  0  0  0  0  0  0  0  0  0  0  0
  151.5631  144.0281  157.4521 C   0  0  0  0  0  0  0  0  0  0  0  0
  149.9088  142.0200  156.3830 N   0  3  0  0  0  0  0  0  0  0  0  0
  149.0462  141.1624  155.7958 C   0  0  0  0  0  0  0  0  0  0  0  0
  146.6545  137.8204  154.1160 N   0  5  0  0  0  0  0  0  0  0  0  0
  145.5634  137.7889  153.1299 C   0  0  2  0  0  0  0  0  0  0  0  0
  144.1957  137.4924  153.7630 C   0  0  0  0  0  0  0  0  0  0  0  0
  143.3955  136.7935  152.6496 C   0  0  0  0  0  0  0  0  0  0  0  0
  144.3472  136.5777  151.5357 N   0  3  2  0  0  0  0  0  0  0  0  0
  144.0682  135.4326  150.6312 C   0  0  0  0  0  0  0  0  0  0  0  0
  144.5250  134.0876  151.2181 C   0  0  0  0  0  0  0  0  0  0  0  0
  145.9962  134.1568  151.6385 C   0  0  0  0  0  0  0  0  0  0  0  0
  146.1808  135.2831  152.6612 C   0  0  0  0  0  0  0  0  0  0  0  0
  145.7184  136.6592  152.0923 C   0  0  2  0  0  0  0  0  0  0  0  0
  148.0249  137.9977  156.1808 H   0  0  0  0  0  0  0  0  0  0  0  0
  149.9173  138.3551  157.5296 H   0  0  0  0  0  0  0  0  0  0  0  0
  151.4707  139.9816  158.5604 H   0  0  0  0  0  0  0  0  0  0  0  0
  151.2832  142.4403  159.9361 H   0  0  0  0  0  0  0  0  0  0  0  0
  152.7985  141.7030  159.3914 H   0  0  0  0  0  0  0  0  0  0  0  0
  152.8811  144.1568  160.5505 H   0  0  0  0  0  0  0  0  0  0  0  0
  153.8648  143.8258  159.1222 H   0  0  0  0  0  0  0  0  0  0  0  0
  151.1692  145.2087  159.2165 H   0  0  0  0  0  0  0  0  0  0  0  0
  152.6088  145.7419  158.3503 H   0  0  0  0  0  0  0  0  0  0  0  0
  152.2262  144.1682  156.5977 H   0  0  0  0  0  0  0  0  0  0  0  0
  150.5535  144.3120  157.1534 H   0  0  0  0  0  0  0  0  0  0  0  0
  148.3955  141.6036  155.0554 H   0  0  0  0  0  0  0  0  0  0  0  0
  145.4855  138.7314  152.5841 H   0  0  0  0  0  0  0  0  0  0  0  0
  144.2972  136.8199  154.6164 H   0  0  0  0  0  0  0  0  0  0  0  0
  143.7057  138.3997  154.1175 H   0  0  0  0  0  0  0  0  0  0  0  0
  142.9923  135.8476  153.0141 H   0  0  0  0  0  0  0  0  0  0  0  0
  142.5573  137.4009  152.3056 H   0  0  0  0  0  0  0  0  0  0  0  0
  143.0061  135.4069  150.3853 H   0  0  0  0  0  0  0  0  0  0  0  0
  144.5984  135.6116  149.6951 H   0  0  0  0  0  0  0  0  0  0  0  0
  143.9075  133.8231  152.0770 H   0  0  0  0  0  0  0  0  0  0  0  0
  144.3848  133.2953  150.4823 H   0  0  0  0  0  0  0  0  0  0  0  0
  146.3100  133.2048  152.0679 H   0  0  0  0  0  0  0  0  0  0  0  0
  146.6287  134.3338  150.7677 H   0  0  0  0  0  0  0  0  0  0  0  0
  145.6278  135.0121  153.5635 H   0  0  0  0  0  0  0  0  0  0  0  0
  147.2316  135.3268  152.9532 H   0  0  0  0  0  0  0  0  0  0  0  0
  146.4056  136.9623  151.3011 H   0  0  0  0  0  0  0  0  0  0  0  0
  144.2549  137.4074  150.9676 H   0  0  0  0  0  0  0  0  0  0  0  0
  149.8938  142.9945  156.0818 H   0  0  0  0  0  0  0  0  0  0  0  0
  1  2  2  0  0  0  0
  2  3  1  0  0  0  0
  2 15  1  0  0  0  0
  3  4  1  0  0  0  0
  3 25  1  0  0  0  0
  4 14  1  0  0  0  0
  4  5  2  0  0  0  0
  5  6  1  0  0  0  0
  5 26  1  0  0  0  0
  6  7  2  0  0  0  0
  6 27  1  0  0  0  0
  7  8  1  0  0  0  0
  7 13  1  0  0  0  0
  8 12  1  0  0  0  0
  8  9  1  0  0  0  0
  9 10  1  0  0  0  0
  9 28  1  0  0  0  0
  9 29  1  0  0  0  0
 10 11  1  0  0  0  0
 10 30  1  0  0  0  0
 10 31  1  0  0  0  0
 11 12  1  0  0  0  0
 11 32  1  0  0  0  0
 11 33  1  0  0  0  0
 12 34  1  0  0  0  0
 12 35  1  0  0  0  0
 13 14  2  0  0  0  0
 13 52  1  0  0  0  0
 14 36  1  0  0  0  0
 15 16  1  0  0  0  0
 16 24  1  0  0  0  0
 16 17  1  0  0  0  0
 16 37  1  0  0  0  0
 17 18  1  0  0  0  0
 17 38  1  0  0  0  0
 17 39  1  0  0  0  0
 18 19  1  0  0  0  0
 18 40  1  0  0  0  0
 18 41  1  0  0  0  0
 19 24  1  0  0  0  0
 19 20  1  0  0  0  0
 19 51  1  0  0  0  0
 20 21  1  0  0  0  0
 20 42  1  0  0  0  0
 20 43  1  0  0  0  0
 21 22  1  0  0  0  0
 21 44  1  0  0  0  0
 21 45  1  0  0  0  0
 22 23  1  0  0  0  0
 22 46  1  0  0  0  0
 22 47  1  0  0  0  0
 23 24  1  0  0  0  0
 23 48  1  0  0  0  0
 23 49  1  0  0  0  0
 24 50  1  0  0  0  0
M  CHG  1  13   1
M  CHG  1  15  -1
M  CHG  1  19   1
M  END
> <s_m_source_file>
AV-unprocessed.smi

> <i_m_source_file_index>
1867

> <i_lp_mmshare_version>
43012

> <i_f3d_flags>
0

> <s_epik_input>
W0NIMl0xW0NIMl1bQ0gyXVtDSDJdW0NASF0oTjEyKVtDQEBIXShbQ0gyXVtDSDJdMilbTkhdQyg9TylbTkhdYzNbY0hdW2NIXWMobltjSF0zKU40W0NIMl1bQ0gyXVtDSDJdW0NIMl00

> <s_epik_cmdline>
J2VwaWtfcHl0aG9uJywgJy1waCcsICc3LjAnLCAnLXRuJywgJzgnLCAnLW1hJywgJzIwMCcsICctbWV0YWxfYmluZGluZycsICctaW1hZScsICc8aW5maWxlLm1hZT4nLCAnLW9tYWUnLCAnPG91dGZpbGUubWFlPic=

> <r_lp_tautomer_probability>
0.999994

> <r_epik_Ionization_Penalty>
8.56137

> <r_epik_Ionization_Penalty_Charging>
8.56136

> <r_epik_Ionization_Penalty_Neutral>
3.91889e-06

> <r_epik_State_Penalty>
8.16255

> <r_epik_Charging_Adjusted_Penalty>
16.7239

> <i_epik_Tot_Q>
1

> <i_epik_Tot_abs_Q>
3

> <r_epik_Metal_State_Penalty>
4.14279

> <b_epik_Metal_Only>
1

> <s_lp_Force_Field>
OPLS_2005

> <r_lp_Energy>
70.2226

> <b_lp_Chiralities_Consistent>
1

> <s_lp_Variant>
AV-unprocessed.smi:1867-21

> <Gold.Version>
5.8.1

> <Gold.Id.Protein>
6NUR|6NUR_protein|mol2

> <Gold.PLP.Fitness>
47.3550

> <Gold.PLP.PLP>
-38.8821

> <Gold.PLP.part.hbond>
-2.0000

> <Gold.PLP.part.metal>
0.0000

> <Gold.PLP.part.buried>
-3.7600

> <Gold.PLP.part.nonpolar>
-33.9330

> <Gold.PLP.part.repulsive>
0.4542

> <Gold.PLP.ligand.clash>
0.0000

> <Gold.PLP.ligand.torsion>
0.3916

> <Gold.PLP.Chemscore.Hbond>
3.0000

> <Gold.PLP.Chemscore.CHOScore>
0.0000

> <Gold.PLP.Chemscore.Metal>
0.0000

> <Gold.Chemscore.Hbonds>
donor molecule, donor type, donor heavy atom, donor atom, acceptor molecule, acceptor atom, score
      L1  H    13    52       P1  8028  1.95
      L1  H    19    51       P1 10171  1.00

> <Gold.PLP.Chemscore.Internal.Correction>
0.2562

> <Gold.Rescore>
     Score         DG    S(hbond)    S(metal)    S(lipo)     H(rot)  DE(clash)    DE(int)     intcor
     19.47     -21.22       1.99        0.00      99.66       1.00       0.14       1.61       ----

> <Gold.Chemscore.Fitness>
19.4661

> <Gold.Chemscore.DG>
-21.2157

> <Gold.Chemscore.ZeroCoef>
-5.4800

> <Gold.Chemscore.Hbond>
1.9868

> <Gold.Chemscore.Metal>
0.0000

> <Gold.Chemscore.Lipo>
99.6552

> <Gold.Chemscore.Internal_Hbond>
0.0000

> <Gold.Chemscore.DEClash>
0.1373

> <Gold.Chemscore.DEInternal>
1.6124

> <Gold.Chemscore.Rot>
1.0000

> <Gold.Chemscore.Internal.Correction>
   9.000000E+99

> <Gold.Chemscore.Hbonds>
donor molecule, donor type, donor heavy atom, donor atom, acceptor molecule, acceptor atom, score
      L1  H    13    52       P1  8028  0.87
      L1  H    19    51       P1 10171  1.00

> <Gold.Chemscore.Hbond.Weighted>
-6.6360

> <Gold.Chemscore.Metal.Weighted>
-0.0000

> <Gold.Chemscore.Lipo.Weighted>
-11.6597

> <Gold.Chemscore.Internal_Hbond.Weighted>
0.0000

> <Gold.Chemscore.DEClash.Weighted>
0.1373

> <Gold.Chemscore.DEInternal.Weighted>
1.6124

> <Gold.Chemscore.Rot.Weighted>
2.5600

> <Gold.Chemscore.Internal.Correction.Weighted>
   9.000000E+99

> <Gold.Protein.RotatedTorsions>
[ 6907 6896 6895 6894 ] final -140.30 input  -60.11 | X-H torsion
[ 7974 7965 7964 7962 ] final -109.17 input  175.53 | X-H torsion
[ 8008 7997 7996 7995 ] final  -76.66 input   59.86 | X-H torsion
[ 10167 10162 10161 10158 ] final   42.17 input  -65.29 | X-H torsion
[ 10718 10713 10712 10709 ] final  102.89 input   66.30 | X-H torsion
[ 10763 10752 10751 10750 ] final  177.84 input  -60.55 | X-H torsion
[ 11005 11000 10999 10996 ] final  -77.69 input  -57.11 | X-H torsion

> <Gold.Protein.ActiveResidues>
 VAL166  LYS551  ARG553  GLY616  TRP617  ASP618  TYR619  PRO620  LYS621  CYS622 
 ASP623  PHE694  ASN695  SER759  ASP760  ASP761  ALA762  ILE779  LEU786  VAL792 
 PHE793  MET794  SER795  GLU796  ALA797  LYS798  CYS799  TRP800  GLU811  SER814 

> <Gold.Protein.RotatedAtoms>
  151.0589  133.5561  159.2635 H   0  0  0  0  0  0  0  0  0  0  0  0  # atno 6907 bound_to 6896
  151.2543  135.0632  159.9084 H   0  0  0  0  0  0  0  0  0  0  0  0  # atno 6908 bound_to 6896
  152.5394  134.0345  159.8093 H   0  0  0  0  0  0  0  0  0  0  0  0  # atno 6909 bound_to 6896
  145.1838  140.8983  143.3464 H   0  0  0  0  0  0  0  0  0  0  0  0  # atno 7974 bound_to 7965
  154.5525  140.0723  156.8691 H   0  0  0  0  0  0  0  0  0  0  0  0  # atno 8008 bound_to 7997
  155.2966  140.3381  155.4231 H   0  0  0  0  0  0  0  0  0  0  0  0  # atno 8009 bound_to 7997
  156.1974  140.1708  156.7957 H   0  0  0  0  0  0  0  0  0  0  0  0  # atno 8010 bound_to 7997
  140.3571  144.2276  150.6141 H   0  0  0  0  0  0  0  0  0  0  0  0  # atno 10167 bound_to 10162
  157.6789  131.0765  150.5473 H   0  0  0  0  0  0  0  0  0  0  0  0  # atno 10718 bound_to 10713
  154.4998  135.2783  155.1430 H   0  0  0  0  0  0  0  0  0  0  0  0  # atno 10763 bound_to 10752
  154.3067  135.6237  153.5452 H   0  0  0  0  0  0  0  0  0  0  0  0  # atno 10764 bound_to 10752
  152.9900  135.5710  154.5439 H   0  0  0  0  0  0  0  0  0  0  0  0  # atno 10765 bound_to 10752
  141.1661  133.7032  156.7859 H   0  0  0  0  0  0  0  0  0  0  0  0  # atno 11005 bound_to 11000
  145.0110  139.3510  143.6120 LP  0  0  0  0  0  0  0  0  0  0  0  0  # atno 17320 bound_to 7965
  146.3448  139.9372  142.8746 LP  0  0  0  0  0  0  0  0  0  0  0  0  # atno 17321 bound_to 7965
  140.5163  143.2277  151.8458 LP  0  0  0  0  0  0  0  0  0  0  0  0  # atno 17342 bound_to 10162
  139.4819  144.4890  151.9210 LP  0  0  0  0  0  0  0  0  0  0  0  0  # atno 17343 bound_to 10162
  156.5778  130.4296  149.5990 LP  0  0  0  0  0  0  0  0  0  0  0  0  # atno 17370 bound_to 10713
  156.2687  130.7004  151.1795 LP  0  0  0  0  0  0  0  0  0  0  0  0  # atno 17371 bound_to 10713
  140.2361  134.8649  157.3526 LP  0  0  0  0  0  0  0  0  0  0  0  0  # atno 17394 bound_to 11000
  140.1842  134.4451  155.7753 LP  0  0  0  0  0  0  0  0  0  0  0  0  # atno 17395 bound_to 11000

$$$$
