AV-unprocessed.smi:1940|AV-procd|sdf|7838|dock2
  -GOLD-   22720 9583D 1   1.00000     0.00000
 Structure written by MMmdl.
 49 51  0  0  0  0  0  0  0  0  1 V2000
  149.6490  132.4723  154.8379 C   0  0  0  0  0  0  0  0  0  0  0  0
  148.5067  133.3273  154.2700 C   0  0  1  0  0  0  0  0  0  0  0  0
  148.9703  134.7075  154.1324 N   0  0  0  0  0  0  0  0  0  0  0  0
  149.4407  135.4817  155.1213 C   0  0  0  0  0  0  0  0  0  0  0  0
  149.5364  135.1106  156.2905 O   0  0  0  0  0  0  0  0  0  0  0  0
  149.7976  136.6919  154.6578 N   0  0  0  0  0  0  0  0  0  0  0  0
  150.3648  137.7844  155.3693 C   0  0  0  0  0  0  0  0  0  0  0  0
  150.7592  139.0080  154.7765 C   0  0  0  0  0  0  0  0  0  0  0  0
  151.3180  140.0105  155.5924 C   0  0  0  0  0  0  0  0  0  0  0  0
  151.4748  139.7585  156.9704 C   0  0  0  0  0  0  0  0  0  0  0  0
  152.0282  140.7554  157.7865 N   0  0  0  0  0  0  0  0  0  0  0  0
  151.3428  142.0406  157.6713 C   0  0  0  0  0  0  0  0  0  0  0  0
  152.1178  143.1420  158.4156 C   0  0  0  0  0  0  0  0  0  0  0  0
  152.3752  142.7420  159.8776 C   0  0  0  0  0  0  0  0  0  0  0  0
  153.0660  141.3702  159.9406 C   0  0  0  0  0  0  0  0  0  0  0  0
  152.2635  140.3152  159.1595 C   0  0  0  0  0  0  0  0  0  0  0  0
  151.1142  138.5853  157.5422 N   0  0  0  0  0  0  0  0  0  0  0  0
  150.5784  137.6289  156.7546 C   0  0  0  0  0  0  0  0  0  0  0  0
  148.0057  132.7928  152.9131 C   0  0  2  0  0  0  0  0  0  0  0  0
  146.9145  133.6397  152.2522 C   0  0  0  0  0  0  0  0  0  0  0  0
  146.2112  132.6189  151.3883 C   0  0  0  0  0  0  0  0  0  0  0  0
  146.2337  131.3893  152.2893 C   0  0  0  0  0  0  0  0  0  0  0  0
  147.4199  131.5013  153.0710 O   0  0  0  0  0  0  0  0  0  0  0  0
  149.3311  131.4402  154.9882 H   0  0  0  0  0  0  0  0  0  0  0  0
  149.9827  132.8555  155.8028 H   0  0  0  0  0  0  0  0  0  0  0  0
  150.5093  132.4609  154.1680 H   0  0  0  0  0  0  0  0  0  0  0  0
  147.6768  133.2791  154.9773 H   0  0  0  0  0  0  0  0  0  0  0  0
  148.9341  135.1016  153.2036 H   0  0  0  0  0  0  0  0  0  0  0  0
  149.7161  136.8239  153.6602 H   0  0  0  0  0  0  0  0  0  0  0  0
  150.6579  139.1960  153.7194 H   0  0  0  0  0  0  0  0  0  0  0  0
  151.6235  140.9543  155.1646 H   0  0  0  0  0  0  0  0  0  0  0  0
  151.2362  142.3081  156.6193 H   0  0  0  0  0  0  0  0  0  0  0  0
  150.3364  141.9541  158.0833 H   0  0  0  0  0  0  0  0  0  0  0  0
  153.0696  143.3208  157.9133 H   0  0  0  0  0  0  0  0  0  0  0  0
  151.5646  144.0806  158.3753 H   0  0  0  0  0  0  0  0  0  0  0  0
  152.9863  143.4962  160.3740 H   0  0  0  0  0  0  0  0  0  0  0  0
  151.4289  142.7006  160.4181 H   0  0  0  0  0  0  0  0  0  0  0  0
  154.0704  141.4475  159.5221 H   0  0  0  0  0  0  0  0  0  0  0  0
  153.1851  141.0569  160.9779 H   0  0  0  0  0  0  0  0  0  0  0  0
  151.3072  140.1382  159.6541 H   0  0  0  0  0  0  0  0  0  0  0  0
  152.8020  139.3665  159.1550 H   0  0  0  0  0  0  0  0  0  0  0  0
  150.3056  136.7089  157.2511 H   0  0  0  0  0  0  0  0  0  0  0  0
  148.8410  132.6909  152.2180 H   0  0  0  0  0  0  0  0  0  0  0  0
  146.2241  134.0318  153.0008 H   0  0  0  0  0  0  0  0  0  0  0  0
  147.3133  134.4791  151.6816 H   0  0  0  0  0  0  0  0  0  0  0  0
  145.2035  132.9193  151.1004 H   0  0  0  0  0  0  0  0  0  0  0  0
  146.7874  132.4331  150.4809 H   0  0  0  0  0  0  0  0  0  0  0  0
  145.3753  131.3952  152.9619 H   0  0  0  0  0  0  0  0  0  0  0  0
  146.2143  130.4575  151.7238 H   0  0  0  0  0  0  0  0  0  0  0  0
  1  2  1  0  0  0  0
  1 24  1  0  0  0  0
  1 25  1  0  0  0  0
  1 26  1  0  0  0  0
  2  3  1  0  0  0  0
  2 19  1  0  0  0  0
  2 27  1  0  0  0  0
  3  4  1  0  0  0  0
  3 28  1  0  0  0  0
  4  5  2  0  0  0  0
  4  6  1  0  0  0  0
  6  7  1  0  0  0  0
  6 29  1  0  0  0  0
  7 18  1  0  0  0  0
  7  8  2  0  0  0  0
  8  9  1  0  0  0  0
  8 30  1  0  0  0  0
  9 10  2  0  0  0  0
  9 31  1  0  0  0  0
 10 11  1  0  0  0  0
 10 17  1  0  0  0  0
 11 16  1  0  0  0  0
 11 12  1  0  0  0  0
 12 13  1  0  0  0  0
 12 32  1  0  0  0  0
 12 33  1  0  0  0  0
 13 14  1  0  0  0  0
 13 34  1  0  0  0  0
 13 35  1  0  0  0  0
 14 15  1  0  0  0  0
 14 36  1  0  0  0  0
 14 37  1  0  0  0  0
 15 16  1  0  0  0  0
 15 38  1  0  0  0  0
 15 39  1  0  0  0  0
 16 40  1  0  0  0  0
 16 41  1  0  0  0  0
 17 18  2  0  0  0  0
 18 42  1  0  0  0  0
 19 23  1  0  0  0  0
 19 20  1  0  0  0  0
 19 43  1  0  0  0  0
 20 21  1  0  0  0  0
 20 44  1  0  0  0  0
 20 45  1  0  0  0  0
 21 22  1  0  0  0  0
 21 46  1  0  0  0  0
 21 47  1  0  0  0  0
 22 23  1  0  0  0  0
 22 48  1  0  0  0  0
 22 49  1  0  0  0  0
M  END
> <s_m_source_file>
AV-unprocessed.smi

> <i_m_source_file_index>
1940

> <i_lp_mmshare_version>
43012

> <i_f3d_flags>
0

> <s_epik_input>
TzFbQ0gyXVtDSDJdW0NIMl1bQ0BIXTFbQ0BIXShbQ0gzXSlbTkhdQyg9TylbTkhdYzJbY0hdW2NIXWMobltjSF0yKU4zW0NIMl1bQ0gyXVtDSDJdW0NIMl1bQ0gyXTM=

> <s_epik_cmdline>
J2VwaWtfcHl0aG9uJywgJy1waCcsICc3LjAnLCAnLXRuJywgJzgnLCAnLW1hJywgJzIwMCcsICctbWV0YWxfYmluZGluZycsICctaW1hZScsICc8aW5maWxlLm1hZT4nLCAnLW9tYWUnLCAnPG91dGZpbGUubWFlPic=

> <r_lp_tautomer_probability>
1

> <r_epik_Ionization_Penalty>
0.105688

> <r_epik_Ionization_Penalty_Charging>
0

> <r_epik_Ionization_Penalty_Neutral>
0.105688

> <r_epik_State_Penalty>
0.0895745

> <r_epik_Charging_Adjusted_Penalty>
0.0895745

> <i_epik_Tot_Q>
0

> <i_epik_Tot_abs_Q>
0

> <r_epik_Metal_State_Penalty>
0.0765749

> <b_epik_Metal_Only>
0

> <s_lp_Force_Field>
OPLS_2005

> <r_lp_Energy>
35.482

> <b_lp_Chiralities_Consistent>
1

> <s_lp_Variant>
AV-unprocessed.smi:1940-2

> <Gold.Version>
5.8.1

> <Gold.Id.Protein>
6NUR|6NUR_protein|mol2

> <Gold.PLP.Fitness>
47.0810

> <Gold.PLP.PLP>
-41.1251

> <Gold.PLP.part.hbond>
-2.0000

> <Gold.PLP.part.metal>
0.0000

> <Gold.PLP.part.buried>
-5.0455

> <Gold.PLP.part.nonpolar>
-35.3099

> <Gold.PLP.part.repulsive>
0.1604

> <Gold.PLP.ligand.clash>
0.0000

> <Gold.PLP.ligand.torsion>
0.1057

> <Gold.PLP.Chemscore.Hbond>
2.0000

> <Gold.PLP.Chemscore.CHOScore>
0.0000

> <Gold.PLP.Chemscore.Metal>
0.0000

> <Gold.Chemscore.Hbonds>
donor molecule, donor type, donor heavy atom, donor atom, acceptor molecule, acceptor atom, score
      L1  H     3    28       P1  7948  1.00
      L1  H     6    29       P1  7948  1.00

> <Gold.PLP.Chemscore.Internal.Correction>
0.1673

> <Gold.Rescore>
     Score         DG    S(hbond)    S(metal)    S(lipo)     H(rot)  DE(clash)    DE(int)     intcor
     17.84     -19.45       1.76        0.00      98.40       1.34       0.01       1.60       ----

> <Gold.Chemscore.Fitness>
17.8411

> <Gold.Chemscore.DG>
-19.4489

> <Gold.Chemscore.ZeroCoef>
-5.4800

> <Gold.Chemscore.Hbond>
1.7594

> <Gold.Chemscore.Metal>
0.0000

> <Gold.Chemscore.Lipo>
98.3957

> <Gold.Chemscore.Internal_Hbond>
0.0000

> <Gold.Chemscore.DEClash>
0.0106

> <Gold.Chemscore.DEInternal>
1.5972

> <Gold.Chemscore.Rot>
1.3359

> <Gold.Chemscore.Internal.Correction>
   9.000000E+99

> <Gold.Chemscore.Hbonds>
donor molecule, donor type, donor heavy atom, donor atom, acceptor molecule, acceptor atom, score
      L1  H     3    28       P1  7948  0.35
      L1  H     6    29       P1  7948  0.54

> <Gold.Chemscore.Hbond.Weighted>
-5.8765

> <Gold.Chemscore.Metal.Weighted>
-0.0000

> <Gold.Chemscore.Lipo.Weighted>
-11.5123

> <Gold.Chemscore.Internal_Hbond.Weighted>
0.0000

> <Gold.Chemscore.DEClash.Weighted>
0.0106

> <Gold.Chemscore.DEInternal.Weighted>
1.5972

> <Gold.Chemscore.Rot.Weighted>
3.4199

> <Gold.Chemscore.Internal.Correction.Weighted>
   9.000000E+99

> <Gold.Protein.RotatedTorsions>
[ 6907 6896 6895 6894 ] final  138.93 input  -60.11 | X-H torsion
[ 7974 7965 7964 7962 ] final  -82.46 input  175.53 | X-H torsion
[ 8008 7997 7996 7995 ] final    4.38 input   59.86 | X-H torsion
[ 10167 10162 10161 10158 ] final   62.04 input  -65.29 | X-H torsion
[ 10718 10713 10712 10709 ] final  169.72 input   66.30 | X-H torsion
[ 10763 10752 10751 10750 ] final  -92.13 input  -60.55 | X-H torsion
[ 11005 11000 10999 10996 ] final -112.59 input  -57.11 | X-H torsion

> <Gold.Protein.ActiveResidues>
 VAL166  LYS551  ARG553  GLY616  TRP617  ASP618  TYR619  PRO620  LYS621  CYS622 
 ASP623  PHE694  ASN695  SER759  ASP760  ASP761  ALA762  ILE779  LEU786  VAL792 
 PHE793  MET794  SER795  GLU796  ALA797  LYS798  CYS799  TRP800  GLU811  SER814 

> <Gold.Protein.RotatedAtoms>
  152.2608  133.5296  159.5380 H   0  0  0  0  0  0  0  0  0  0  0  0  # atno 6907 bound_to 6896
  150.7124  134.0832  159.3914 H   0  0  0  0  0  0  0  0  0  0  0  0  # atno 6908 bound_to 6896
  151.8750  135.0475  160.0534 H   0  0  0  0  0  0  0  0  0  0  0  0  # atno 6909 bound_to 6896
  145.5331  140.9519  143.1592 H   0  0  0  0  0  0  0  0  0  0  0  0  # atno 7974 bound_to 7965
  154.7152  140.2700  155.6592 H   0  0  0  0  0  0  0  0  0  0  0  0  # atno 8008 bound_to 7997
  156.2807  140.2745  156.1730 H   0  0  0  0  0  0  0  0  0  0  0  0  # atno 8009 bound_to 7997
  155.0581  140.0371  157.2557 H   0  0  0  0  0  0  0  0  0  0  0  0  # atno 8010 bound_to 7997
  140.1482  144.4488  150.6773 H   0  0  0  0  0  0  0  0  0  0  0  0  # atno 10167 bound_to 10162
  157.0186  131.0225  151.2781 H   0  0  0  0  0  0  0  0  0  0  0  0  # atno 10718 bound_to 10713
  154.6830  135.5242  153.8289 H   0  0  0  0  0  0  0  0  0  0  0  0  # atno 10763 bound_to 10752
  153.0578  135.6557  154.0545 H   0  0  0  0  0  0  0  0  0  0  0  0  # atno 10764 bound_to 10752
  154.0429  135.2975  155.3332 H   0  0  0  0  0  0  0  0  0  0  0  0  # atno 10765 bound_to 10752
  141.0666  133.9449  157.2567 H   0  0  0  0  0  0  0  0  0  0  0  0  # atno 11005 bound_to 11000
  144.7616  139.6944  143.7232 LP  0  0  0  0  0  0  0  0  0  0  0  0  # atno 17320 bound_to 7965
  146.2031  139.5338  142.9730 LP  0  0  0  0  0  0  0  0  0  0  0  0  # atno 17321 bound_to 7965
  140.6718  143.2289  151.5605 LP  0  0  0  0  0  0  0  0  0  0  0  0  # atno 17342 bound_to 10162
  139.5438  144.2575  152.1403 LP  0  0  0  0  0  0  0  0  0  0  0  0  # atno 17343 bound_to 10162
  157.5267  130.8032  149.7870 LP  0  0  0  0  0  0  0  0  0  0  0  0  # atno 17370 bound_to 10713
  156.0110  130.3833  150.2264 LP  0  0  0  0  0  0  0  0  0  0  0  0  # atno 17371 bound_to 10713
  139.9482  135.0180  156.8915 LP  0  0  0  0  0  0  0  0  0  0  0  0  # atno 17394 bound_to 11000
  140.5761  134.0397  155.7447 LP  0  0  0  0  0  0  0  0  0  0  0  0  # atno 17395 bound_to 11000

$$$$
