#       Name:                AV-unprocessed.smi:3211
#       Creating user name   scv26
#       Creation time:       Fri Mar 27 18:11:08 2020


#       File generated by GOLD software.
#

@<TRIPOS>MOLECULE
AV-unprocessed.smi:3211
    37    38     1
SMALL
NO_CHARGES


@<TRIPOS>ATOM
      1 ****        -1.4400   5.4777  -1.2565 C.3            1 S1                 0.0000
      2 ****        -2.5160   4.4310  -1.5638 C.3            1 S1                 0.0000
      3 ****        -2.5623   3.3404  -0.5468 C.2            1 S1                 0.0000
      4 ****        -1.8023   2.2441  -0.6080 N.2            1 S1                 0.0000
      5 ****        -2.0088   1.3834   0.4745 C.2            1 S1                 0.0000
      6 ****        -1.2432   0.0986   0.5623 C.3            1 S1                 0.0000
      7 ****         0.1834   0.3065   1.0973 C.3            1 S1                 0.0000
      8 ****         0.9107  -0.9549   1.1851 N.am           1 S1                 0.0000
      9 ****         1.5331  -1.5578   0.1607 C.2            1 S1                 0.0000
     10 ****         1.5614  -1.0877  -0.9776 O.2            1 S1                 0.0000
     11 ****         2.1831  -2.8531   0.5239 C.3            1 S1                 0.0000
     12 ****         3.4711  -3.2163  -0.1872 C.3            1 S1                 0.0000
     13 ****         2.1965  -3.9520  -0.5225 C.3            1 S1                 0.0000
     14 ****         2.0020  -5.3969  -0.1167 C.3            1 S1                 0.0000
     15 ****        -2.9327   1.8561   1.3730 C.2            1 S1                 0.0000
     16 ****        -3.5766   3.4012   0.8902 S.3            1 S1                 0.0000
     17 ****        -1.4323   6.2606  -2.0149 H              1 S1                 0.0000
     18 ****        -0.4476   5.0263  -1.2338 H              1 S1                 0.0000
     19 ****        -1.6154   5.9509  -0.2899 H              1 S1                 0.0000
     20 ****        -3.4957   4.9076  -1.6094 H              1 S1                 0.0000
     21 ****        -2.3369   3.9907  -2.5454 H              1 S1                 0.0000
     22 ****        -1.7726  -0.6054   1.2057 H              1 S1                 0.0000
     23 ****        -1.2021  -0.3707  -0.4216 H              1 S1                 0.0000
     24 ****         0.7305   1.0119   0.4694 H              1 S1                 0.0000
     25 ****         0.1443   0.7454   2.0946 H              1 S1                 0.0000
     26 ****         0.9360  -1.4063   2.0880 H              1 S1                 0.0000
     27 ****         2.0968  -3.1636   1.5642 H              1 S1                 0.0000
     28 ****         3.8638  -2.5314  -0.9367 H              1 S1                 0.0000
     29 ****         4.2268  -3.7353   0.3990 H              1 S1                 0.0000
     30 ****         1.7580  -3.7184  -1.4915 H              1 S1                 0.0000
     31 ****         2.4582  -5.5924   0.8542 H              1 S1                 0.0000
     32 ****         2.4582  -6.0573  -0.8543 H              1 S1                 0.0000
     33 ****         0.9383  -5.6268  -0.0541 H              1 S1                 0.0000
     34 ****        -3.2691   1.3928   2.2885 H              1 S1                 0.0000
     35 ****        -1.1555   2.0588  -1.3478 LP             1 S1                 0.0000
     36 ****         1.1068  -0.2182  -1.1709 LP             1 S1                 0.0000
     37 ****         2.0390  -1.5755  -1.7083 LP             1 S1                 0.0000
@<TRIPOS>BOND
    1    1    2 1     
    2    1   17 1     
    3    1   18 1     
    4    1   19 1     
    5    2    3 1     
    6    2   20 1     
    7    2   21 1     
    8    3   16 1     
    9    3    4 2     
   10    4    5 1     
   11    5    6 1     
   12    5   15 2     
   13    6    7 1     
   14    6   22 1     
   15    6   23 1     
   16    7    8 1     
   17    7   24 1     
   18    7   25 1     
   19    8    9 am    
   20    8   26 1     
   21    9   10 2     
   22    9   11 1     
   23   11   13 1     
   24   11   12 1     
   25   11   27 1     
   26   12   13 1     
   27   12   28 1     
   28   12   29 1     
   29   13   14 1     
   30   13   30 1     
   31   14   31 1     
   32   14   32 1     
   33   14   33 1     
   34   15   16 1     
   35   15   34 1     
   36    4   35 1     
   37   10   36 1     
   38   10   37 1     
@<TRIPOS>SUBSTRUCTURE
      1 S1             1
@<TRIPOS>SET
LONE_PAIRS      STATIC     ATOMS    <user>   **** ""
3 35 36 37
DONOR_HYDROGENS      STATIC     ATOMS    <user>   **** ""
1 26
ATOM$BLUE        STATIC     ATOMS    COLORGROUP SYSTEM
3 35 36 37
ATOM$RED        STATIC     ATOMS    COLORGROUP SYSTEM
1 26
