AV-unprocessed.smi:52|AV-procd|sdf|512|dock2
  -GOLD-   2262016383D 1   1.00000     0.00000
 Structure written by MMmdl.
 26 27  0  0  0  0  0  0  0  0  2 V2000
  152.2063  136.0674  156.6599 O   0  0  0  0  0  0  0  0  0  0  0  0
  151.8105  136.9917  157.4045 C   0  0  0  0  0  0  0  0  0  0  0  0
  151.5027  136.7894  158.5999 O   0  5  0  0  0  0  0  0  0  0  0  0
  151.7038  138.3672  156.8517 C   0  0  0  0  0  0  0  0  0  0  0  0
  151.9534  138.7532  155.5587 C   0  0  0  0  0  0  0  0  0  0  0  0
  151.7471  140.1012  155.4432 O   0  0  0  0  0  0  0  0  0  0  0  0
  151.3736  140.4908  156.6922 C   0  0  0  0  0  0  0  0  0  0  0  0
  151.0766  141.9329  156.9408 C   0  0  0  0  0  0  0  0  0  0  0  0
  151.8949  142.5101  158.0020 N   0  0  0  0  0  0  0  0  0  0  0  0
  151.7154  143.9429  158.1726 C   0  0  0  0  0  0  0  0  0  0  0  0
  152.2148  144.2808  159.5844 C   0  0  0  0  0  0  0  0  0  0  0  0
  152.2827  142.9177  160.2926 C   0  0  1  0  0  0  0  0  0  0  0  0
  151.6472  142.9222  161.5534 O   0  0  0  0  0  0  0  0  0  0  0  0
  151.5974  141.9666  159.3103 C   0  0  0  0  0  0  0  0  0  0  0  0
  151.3292  139.4940  157.5734 N   0  0  0  0  0  0  0  0  0  0  0  0
  153.3257  142.6237  160.4190 H   0  0  0  0  0  0  0  0  0  0  0  0
  152.2642  138.2278  154.6678 H   0  0  0  0  0  0  0  0  0  0  0  0
  151.2110  142.4866  156.0105 H   0  0  0  0  0  0  0  0  0  0  0  0
  150.0221  142.0170  157.2062 H   0  0  0  0  0  0  0  0  0  0  0  0
  152.2432  144.5060  157.4021 H   0  0  0  0  0  0  0  0  0  0  0  0
  150.6565  144.1970  158.0992 H   0  0  0  0  0  0  0  0  0  0  0  0
  153.2011  144.7454  159.5541 H   0  0  0  0  0  0  0  0  0  0  0  0
  151.5334  144.9766  160.0758 H   0  0  0  0  0  0  0  0  0  0  0  0
  152.2287  143.3232  162.1812 H   0  0  0  0  0  0  0  0  0  0  0  0
  150.5185  141.9714  159.4765 H   0  0  0  0  0  0  0  0  0  0  0  0
  151.9482  140.9390  159.4109 H   0  0  0  0  0  0  0  0  0  0  0  0
  1  2  2  0  0  0  0
  2  3  1  0  0  0  0
  2  4  1  0  0  0  0
  4 15  1  0  0  0  0
  4  5  2  0  0  0  0
  5  6  1  0  0  0  0
  5 17  1  0  0  0  0
  6  7  1  0  0  0  0
  7  8  1  0  0  0  0
  7 15  2  0  0  0  0
  8  9  1  0  0  0  0
  8 18  1  0  0  0  0
  8 19  1  0  0  0  0
  9 14  1  0  0  0  0
  9 10  1  0  0  0  0
 10 11  1  0  0  0  0
 10 20  1  0  0  0  0
 10 21  1  0  0  0  0
 11 12  1  0  0  0  0
 11 22  1  0  0  0  0
 11 23  1  0  0  0  0
 12 16  1  0  0  0  0
 12 13  1  0  0  0  0
 12 14  1  0  0  0  0
 13 24  1  0  0  0  0
 14 25  1  0  0  0  0
 14 26  1  0  0  0  0
M  CHG  1   3  -1
M  END
> <s_m_source_file>
AV-unprocessed.smi

> <i_m_source_file_index>
52

> <i_lp_mmshare_version>
43012

> <i_f3d_flags>
0

> <s_epik_input>
Tz1DKFtPSF0pYzFbY0hdb2MobjEpW0NIMl1OMltDSDJdW0NIMl1bQ0BIXShbT0hdKVtDSDJdMg==

> <s_epik_cmdline>
J2VwaWtfcHl0aG9uJywgJy1waCcsICc3LjAnLCAnLXRuJywgJzgnLCAnLW1hJywgJzIwMCcsICctbWV0YWxfYmluZGluZycsICctaW1hZScsICc8aW5maWxlLm1hZT4nLCAnLW9tYWUnLCAnPG91dGZpbGUubWFlPic=

> <r_epik_Ionization_Penalty>
1.6537

> <r_epik_Ionization_Penalty_Charging>
0.000221913

> <r_epik_Ionization_Penalty_Neutral>
1.65348

> <r_epik_State_Penalty>
1.75577

> <r_epik_Charging_Adjusted_Penalty>
1.75599

> <i_epik_Tot_Q>
-1

> <i_epik_Tot_abs_Q>
1

> <r_epik_Metal_State_Penalty>
1.75577

> <b_epik_Metal_Only>
0

> <s_lp_Force_Field>
OPLS_2005

> <r_lp_Energy>
35.559

> <b_lp_Chiralities_Consistent>
1

> <s_lp_Variant>
AV-unprocessed.smi:52-6

> <Gold.Version>
5.8.1

> <Gold.Id.Protein>
6NUR|6NUR_protein|mol2

> <Gold.PLP.Fitness>
41.6847

> <Gold.PLP.PLP>
-27.6041

> <Gold.PLP.part.hbond>
-4.3523

> <Gold.PLP.part.metal>
0.0000

> <Gold.PLP.part.buried>
-4.7978

> <Gold.PLP.part.nonpolar>
-20.0466

> <Gold.PLP.part.repulsive>
0.0357

> <Gold.PLP.ligand.clash>
0.0000

> <Gold.PLP.ligand.torsion>
0.0355

> <Gold.PLP.Chemscore.Hbond>
4.7165

> <Gold.PLP.Chemscore.CHOScore>
0.0000

> <Gold.PLP.Chemscore.Metal>
0.0000

> <Gold.Chemscore.Hbonds>
donor molecule, donor type, donor heavy atom, donor atom, acceptor molecule, acceptor atom, score
      P1  H  6896  6907       L1     3  1.35
      P1  H  6933  6945       L1    13  0.50
      P1  H  7989  7998       L1     6  0.77
      P1  H 10752 10763       L1     1  2.00

> <Gold.PLP.Chemscore.Internal.Correction>
0.0021

> <Gold.Rescore>
     Score         DG    S(hbond)    S(metal)    S(lipo)     H(rot)  DE(clash)    DE(int)     intcor
     17.40     -17.47       2.92        0.00      61.80       1.95       0.00       0.07       ----

> <Gold.Chemscore.Fitness>
17.4001

> <Gold.Chemscore.DG>
-17.4710

> <Gold.Chemscore.ZeroCoef>
-5.4800

> <Gold.Chemscore.Hbond>
2.9198

> <Gold.Chemscore.Metal>
0.0000

> <Gold.Chemscore.Lipo>
61.7951

> <Gold.Chemscore.Internal_Hbond>
0.0000

> <Gold.Chemscore.DEClash>
0.0042

> <Gold.Chemscore.DEInternal>
0.0667

> <Gold.Chemscore.Rot>
1.9497

> <Gold.Chemscore.Internal.Correction>
   9.000000E+99

> <Gold.Chemscore.Hbonds>
donor molecule, donor type, donor heavy atom, donor atom, acceptor molecule, acceptor atom, score
      P1  H  6896  6907       L1     3  0.65
      P1  H  6933  6945       L1    13  0.47
      P1  H  7989  7998       L1     6  0.70
      P1  H 10752 10763       L1     1  0.99

> <Gold.Chemscore.Hbond.Weighted>
-9.7522

> <Gold.Chemscore.Metal.Weighted>
-0.0000

> <Gold.Chemscore.Lipo.Weighted>
-7.2300

> <Gold.Chemscore.Internal_Hbond.Weighted>
0.0000

> <Gold.Chemscore.DEClash.Weighted>
0.0042

> <Gold.Chemscore.DEInternal.Weighted>
0.0667

> <Gold.Chemscore.Rot.Weighted>
4.9912

> <Gold.Chemscore.Internal.Correction.Weighted>
   9.000000E+99

> <Gold.Protein.RotatedTorsions>
[ 6907 6896 6895 6894 ] final  -12.17 input  -60.11 | X-H torsion
[ 7974 7965 7964 7962 ] final -109.07 input  175.53 | X-H torsion
[ 8008 7997 7996 7995 ] final  102.30 input   59.86 | X-H torsion
[ 10167 10162 10161 10158 ] final   84.61 input  -65.29 | X-H torsion
[ 10718 10713 10712 10709 ] final   96.92 input   66.30 | X-H torsion
[ 10763 10752 10751 10750 ] final  107.74 input  -60.55 | X-H torsion
[ 11005 11000 10999 10996 ] final -109.60 input  -57.11 | X-H torsion

> <Gold.Protein.ActiveResidues>
 VAL166  LYS551  ARG553  GLY616  TRP617  ASP618  TYR619  PRO620  LYS621  CYS622 
 ASP623  PHE694  ASN695  SER759  ASP760  ASP761  ALA762  ILE779  LEU786  VAL792 
 PHE793  MET794  SER795  GLU796  ALA797  LYS798  CYS799  TRP800  GLU811  SER814 

> <Gold.Protein.RotatedAtoms>
  151.3746  135.0929  159.9476 H   0  0  0  0  0  0  0  0  0  0  0  0  # atno 6907 bound_to 6896
  152.5125  133.9131  159.7508 H   0  0  0  0  0  0  0  0  0  0  0  0  # atno 6908 bound_to 6896
  150.9552  133.6451  159.2793 H   0  0  0  0  0  0  0  0  0  0  0  0  # atno 6909 bound_to 6896
  145.1851  140.8989  143.3457 H   0  0  0  0  0  0  0  0  0  0  0  0  # atno 7974 bound_to 7965
  156.1380  140.3183  155.8451 H   0  0  0  0  0  0  0  0  0  0  0  0  # atno 8008 bound_to 7997
  155.4208  140.0512  157.3043 H   0  0  0  0  0  0  0  0  0  0  0  0  # atno 8009 bound_to 7997
  154.4953  140.2108  155.9474 H   0  0  0  0  0  0  0  0  0  0  0  0  # atno 8010 bound_to 7997
  139.9063  144.6299  150.8584 H   0  0  0  0  0  0  0  0  0  0  0  0  # atno 10167 bound_to 10162
  157.6920  131.0593  150.4564 H   0  0  0  0  0  0  0  0  0  0  0  0  # atno 10718 bound_to 10713
  153.4109  135.3834  155.2050 H   0  0  0  0  0  0  0  0  0  0  0  0  # atno 10763 bound_to 10752
  154.8737  135.3794  154.4502 H   0  0  0  0  0  0  0  0  0  0  0  0  # atno 10764 bound_to 10752
  153.5010  135.7088  153.5894 H   0  0  0  0  0  0  0  0  0  0  0  0  # atno 10765 bound_to 10752
  141.0838  133.9174  157.2230 H   0  0  0  0  0  0  0  0  0  0  0  0  # atno 11005 bound_to 11000
  145.0097  139.3521  143.6126 LP  0  0  0  0  0  0  0  0  0  0  0  0  # atno 17320 bound_to 7965
  146.3446  139.9355  142.8748 LP  0  0  0  0  0  0  0  0  0  0  0  0  # atno 17321 bound_to 7965
  140.7695  143.3399  151.2230 LP  0  0  0  0  0  0  0  0  0  0  0  0  # atno 17342 bound_to 10162
  139.6981  143.9578  152.2892 LP  0  0  0  0  0  0  0  0  0  0  0  0  # atno 17343 bound_to 10162
  156.4912  130.4095  149.6406 LP  0  0  0  0  0  0  0  0  0  0  0  0  # atno 17370 bound_to 10713
  156.3416  130.7385  151.2331 LP  0  0  0  0  0  0  0  0  0  0  0  0  # atno 17371 bound_to 10713
  139.9654  135.0143  156.9374 LP  0  0  0  0  0  0  0  0  0  0  0  0  # atno 17394 bound_to 11000
  140.5408  134.0721  155.7341 LP  0  0  0  0  0  0  0  0  0  0  0  0  # atno 17395 bound_to 11000

$$$$
