#       Name:                AV-unprocessed.smi:1692
#       Creating user name   scv26
#       Creation time:       Fri Mar 27 07:53:57 2020


#       File generated by GOLD software.
#

@<TRIPOS>MOLECULE
AV-unprocessed.smi:1692
    51    52     1
SMALL
NO_CHARGES


@<TRIPOS>ATOM
      1 ****        -5.6898   2.4316   1.7028 C.3            1 S1                 0.0000
      2 ****        -4.2268   2.2960   1.2664 C.3            1 S1                 0.0000
      3 ****        -3.7593   0.8284   1.2479 C.3            1 S1                 0.0000
      4 ****        -2.3666   0.7319   0.7503 N.4            1 S1                 1.0000
      5 ****        -1.8506  -0.6597   0.7765 C.3            1 S1                 0.0000
      6 ****        -0.3137  -0.7165   0.7808 C.3            1 S1                 0.0000
      7 ****         0.2156  -2.1558   0.8958 C.3            1 S1                 0.0000
      8 ****         1.6735  -2.1965   0.9092 N.am           1 S1                 0.0000
      9 ****         2.4543  -2.0965  -0.1767 C.2            1 S1                 0.0000
     10 ****         2.0114  -1.9437  -1.3157 O.2            1 S1                 0.0000
     11 ****         3.7563  -2.1814   0.1487 N.am           1 S1                 0.0000
     12 ****         4.8822  -2.1277  -0.7157 C.ar           1 S1                 0.0000
     13 ****         6.1359  -2.2461  -0.0741 C.ar           1 S1                 0.0000
     14 ****         7.3147  -2.2067  -0.8438 C.ar           1 S1                 0.0000
     15 ****         7.2094  -2.0514  -2.2374 C.ar           1 S1                 0.0000
     16 ****         5.9231  -1.9406  -2.7967 C.ar           1 S1                 0.0000
     17 ****         4.7921  -1.9763  -2.0608 N.ar           1 S1                 0.0000
     18 ****        -2.2490   1.3841  -0.5771 C.3            1 S1                 0.0000
     19 ****        -2.7571   2.8371  -0.5114 C.3            1 S1                 0.0000
     20 ****        -2.7269   3.5237  -1.8814 C.3            1 S1                 0.0000
     21 ****        -4.1014   2.8397  -0.0430 O.3            1 S1                 0.0000
     22 ****        -5.8384   2.0342   2.7071 H              1 S1                 0.0000
     23 ****        -6.3553   1.8933   1.0276 H              1 S1                 0.0000
     24 ****        -5.9989   3.4771   1.7105 H              1 S1                 0.0000
     25 ****        -3.6054   2.8714   1.9551 H              1 S1                 0.0000
     26 ****        -3.8203   0.4125   2.2544 H              1 S1                 0.0000
     27 ****        -4.4145   0.2298   0.6127 H              1 S1                 0.0000
     28 ****        -2.2084  -1.1535   1.6812 H              1 S1                 0.0000
     29 ****        -2.2575  -1.2241  -0.0640 H              1 S1                 0.0000
     30 ****         0.0793  -0.2643  -0.1294 H              1 S1                 0.0000
     31 ****         0.0697  -0.1224   1.6114 H              1 S1                 0.0000
     32 ****        -0.1426  -2.6116   1.8191 H              1 S1                 0.0000
     33 ****        -0.1656  -2.7705   0.0784 H              1 S1                 0.0000
     34 ****         2.1186  -2.3228   1.8067 H              1 S1                 0.0000
     35 ****         3.9677  -2.3032   1.1280 H              1 S1                 0.0000
     36 ****         6.1991  -2.3669   0.9976 H              1 S1                 0.0000
     37 ****         8.2824  -2.2949  -0.3727 H              1 S1                 0.0000
     38 ****         8.0905  -2.0182  -2.8611 H              1 S1                 0.0000
     39 ****         5.7981  -1.8206  -3.8626 H              1 S1                 0.0000
     40 ****        -1.2120   1.3817  -0.9107 H              1 S1                 0.0000
     41 ****        -2.8224   0.8176  -1.3131 H              1 S1                 0.0000
     42 ****        -2.1362   3.4125   0.1778 H              1 S1                 0.0000
     43 ****        -1.7136   3.5561  -2.2826 H              1 S1                 0.0000
     44 ****        -3.0883   4.5499  -1.8109 H              1 S1                 0.0000
     45 ****        -3.3553   2.9985  -2.6014 H              1 S1                 0.0000
     46 ****        -1.7984   1.2636   1.3943 H              1 S1                 0.0000
     47 ****         1.0242  -1.8884  -1.4650 LP             1 S1                 0.0000
     48 ****         2.6390  -1.8749  -2.0911 LP             1 S1                 0.0000
     49 ****         3.8986  -1.8921  -2.5018 LP             1 S1                 0.0000
     50 ****        -4.4345   3.7825  -0.0313 LP             1 S1                 0.0000
     51 ****        -4.6599   2.2966  -0.6699 LP             1 S1                 0.0000
@<TRIPOS>BOND
    1    1    2 1     
    2    1   22 1     
    3    1   23 1     
    4    1   24 1     
    5    2   21 1     
    6    2    3 1     
    7    2   25 1     
    8    3    4 1     
    9    3   26 1     
   10    3   27 1     
   11    4    5 1     
   12    4   18 1     
   13    4   46 1     
   14    5    6 1     
   15    5   28 1     
   16    5   29 1     
   17    6    7 1     
   18    6   30 1     
   19    6   31 1     
   20    7    8 1     
   21    7   32 1     
   22    7   33 1     
   23    8    9 am    
   24    8   34 1     
   25    9   10 2     
   26    9   11 am    
   27   11   12 1     
   28   11   35 1     
   29   12   17 ar    
   30   12   13 ar    
   31   13   14 ar    
   32   13   36 1     
   33   14   15 ar    
   34   14   37 1     
   35   15   16 ar    
   36   15   38 1     
   37   16   17 ar    
   38   16   39 1     
   39   18   19 1     
   40   18   40 1     
   41   18   41 1     
   42   19   20 1     
   43   19   21 1     
   44   19   42 1     
   45   20   43 1     
   46   20   44 1     
   47   20   45 1     
   48   10   47 1     
   49   10   48 1     
   50   17   49 1     
   51   21   50 1     
   52   21   51 1     
@<TRIPOS>SUBSTRUCTURE
      1 S1             1
@<TRIPOS>SET
LONE_PAIRS      STATIC     ATOMS    <user>   **** ""
5 47 48 49 50 51
DONOR_HYDROGENS      STATIC     ATOMS    <user>   **** ""
3 46 34 35
ATOM$BLUE        STATIC     ATOMS    COLORGROUP SYSTEM
5 47 48 49 50 51
ATOM$RED        STATIC     ATOMS    COLORGROUP SYSTEM
3 46 34 35
