AV-unprocessed.smi:47|AV-procd|sdf|446|dock6
  -GOLD-   2262016313D 1   1.00000     0.00000
 Structure written by MMmdl.
 30 32  0  0  0  0  0  0  0  0  2 V2000
  145.8311  141.8076  155.1344 O   0  0  0  0  0  0  0  0  0  0  0  0
  147.2335  141.7112  155.0011 C   0  0  2  0  0  0  0  0  0  0  0  0
  147.6808  141.6954  153.5455 C   0  0  0  0  0  0  0  0  0  0  0  0
  149.0200  141.1253  153.5843 N   0  0  0  0  0  0  0  0  0  0  0  0
  149.0650  140.1638  154.6921 C   0  0  1  0  0  0  0  0  0  0  0  0
  150.3210  140.2989  155.5341 C   0  0  0  0  0  0  0  0  0  0  0  0
  151.5666  139.9766  155.1290 N   0  0  0  0  0  0  0  0  0  0  0  0
  152.3695  140.2790  156.1318 N   0  5  0  0  0  0  0  0  0  0  0  0
  151.6153  140.7863  157.1187 C   0  0  0  0  0  0  0  0  0  0  0  0
  152.1937  141.2393  158.4008 C   0  0  0  0  0  0  0  0  0  0  0  0
  151.7652  142.4510  158.9910 C   0  0  0  0  0  0  0  0  0  0  0  0
  152.3074  142.8964  160.2125 C   0  0  0  0  0  0  0  0  0  0  0  0
  153.2912  142.1328  160.8660 C   0  0  0  0  0  0  0  0  0  0  0  0
  153.7298  140.9250  160.2939 C   0  0  0  0  0  0  0  0  0  0  0  0
  153.1844  140.4839  159.0723 C   0  0  0  0  0  0  0  0  0  0  0  0
  150.3362  140.8176  156.7719 N   0  0  0  0  0  0  0  0  0  0  0  0
  147.7911  140.3921  155.5263 C   0  0  0  0  0  0  0  0  0  0  0  0
  147.7058  142.5454  155.5223 H   0  0  0  0  0  0  0  0  0  0  0  0
  149.0433  139.1494  154.2919 H   0  0  0  0  0  0  0  0  0  0  0  0
  145.6153  141.7552  156.0529 H   0  0  0  0  0  0  0  0  0  0  0  0
  147.0244  141.0495  152.9605 H   0  0  0  0  0  0  0  0  0  0  0  0
  147.6710  142.6858  153.0899 H   0  0  0  0  0  0  0  0  0  0  0  0
  149.2037  140.6497  152.7072 H   0  0  0  0  0  0  0  0  0  0  0  0
  151.0102  143.0512  158.5047 H   0  0  0  0  0  0  0  0  0  0  0  0
  151.9669  143.8247  160.6465 H   0  0  0  0  0  0  0  0  0  0  0  0
  153.7081  142.4722  161.8027 H   0  0  0  0  0  0  0  0  0  0  0  0
  154.4853  140.3347  160.7911 H   0  0  0  0  0  0  0  0  0  0  0  0
  153.5363  139.5533  158.6521 H   0  0  0  0  0  0  0  0  0  0  0  0
  147.9695  140.4080  156.6024 H   0  0  0  0  0  0  0  0  0  0  0  0
  147.0872  139.5835  155.3235 H   0  0  0  0  0  0  0  0  0  0  0  0
  1  2  1  0  0  0  0
  1 20  1  0  0  0  0
  2 18  1  0  0  0  0
  2 17  1  0  0  0  0
  2  3  1  0  0  0  0
  3  4  1  0  0  0  0
  3 21  1  0  0  0  0
  3 22  1  0  0  0  0
  4  5  1  0  0  0  0
  4 23  1  0  0  0  0
  5 19  1  0  0  0  0
  5  6  1  0  0  0  0
  5 17  1  0  0  0  0
  6 16  1  0  0  0  0
  6  7  2  0  0  0  0
  7  8  1  0  0  0  0
  8  9  1  0  0  0  0
  9 10  1  0  0  0  0
  9 16  2  0  0  0  0
 10 15  1  0  0  0  0
 10 11  2  0  0  0  0
 11 12  1  0  0  0  0
 11 24  1  0  0  0  0
 12 13  2  0  0  0  0
 12 25  1  0  0  0  0
 13 14  1  0  0  0  0
 13 26  1  0  0  0  0
 14 15  2  0  0  0  0
 14 27  1  0  0  0  0
 15 28  1  0  0  0  0
 17 29  1  0  0  0  0
 17 30  1  0  0  0  0
M  CHG  1   8  -1
M  END
> <s_m_source_file>
AV-unprocessed.smi

> <i_m_source_file_index>
47

> <i_lp_mmshare_version>
43012

> <i_f3d_flags>
0

> <s_epik_input>
W09IXVtDQEhdMVtDSDJdW05IXVtDQEBIXShbQ0gyXTEpYzJuW25IXWMobjIpLWMzW2NIXVtjSF1bY0hdW2NIXVtjSF0z

> <s_epik_cmdline>
J2VwaWtfcHl0aG9uJywgJy1waCcsICc3LjAnLCAnLXRuJywgJzgnLCAnLW1hJywgJzIwMCcsICctbWV0YWxfYmluZGluZycsICctaW1hZScsICc8aW5maWxlLm1hZT4nLCAnLW9tYWUnLCAnPG91dGZpbGUubWFlPic=

> <r_epik_Ionization_Penalty>
16.1968

> <r_epik_Ionization_Penalty_Charging>
13.1522

> <r_epik_Ionization_Penalty_Neutral>
3.04463

> <r_epik_State_Penalty>
6.32428

> <r_epik_Charging_Adjusted_Penalty>
19.4764

> <i_epik_Tot_Q>
-1

> <i_epik_Tot_abs_Q>
1

> <r_epik_Metal_State_Penalty>
2.82187

> <b_epik_Metal_Only>
1

> <s_lp_Force_Field>
OPLS_2005

> <r_lp_Energy>
30.4729

> <b_lp_Chiralities_Consistent>
1

> <s_lp_Variant>
AV-unprocessed.smi:47-24

> <Gold.Version>
5.8.1

> <Gold.Id.Protein>
6NUR|6NUR_protein|mol2

> <Gold.PLP.Fitness>
43.2826

> <Gold.PLP.PLP>
-33.1326

> <Gold.PLP.part.hbond>
-4.8205

> <Gold.PLP.part.metal>
0.0000

> <Gold.PLP.part.buried>
-4.1122

> <Gold.PLP.part.nonpolar>
-24.4215

> <Gold.PLP.part.repulsive>
0.0631

> <Gold.PLP.ligand.clash>
0.0000

> <Gold.PLP.ligand.torsion>
0.9301

> <Gold.PLP.Chemscore.Hbond>
4.0000

> <Gold.PLP.Chemscore.CHOScore>
0.0000

> <Gold.PLP.Chemscore.Metal>
0.0000

> <Gold.Chemscore.Hbonds>
donor molecule, donor type, donor heavy atom, donor atom, acceptor molecule, acceptor atom, score
      L1  H     4    23       P1  7957  1.00
      P1  H  7989  7998       L1     7  1.00
      P1  H  7997  8008       L1     8  2.00

> <Gold.PLP.Chemscore.Internal.Correction>
0.0103

> <Gold.Rescore>
     Score         DG    S(hbond)    S(metal)    S(lipo)     H(rot)  DE(clash)    DE(int)     intcor
     17.14     -18.75       2.37        0.00      77.75       1.46       0.77       0.84       ----

> <Gold.Chemscore.Fitness>
17.1385

> <Gold.Chemscore.DG>
-18.7454

> <Gold.Chemscore.ZeroCoef>
-5.4800

> <Gold.Chemscore.Hbond>
2.3686

> <Gold.Chemscore.Metal>
0.0000

> <Gold.Chemscore.Lipo>
77.7521

> <Gold.Chemscore.Internal_Hbond>
0.0000

> <Gold.Chemscore.DEClash>
0.7652

> <Gold.Chemscore.DEInternal>
0.8418

> <Gold.Chemscore.Rot>
1.4621

> <Gold.Chemscore.Internal.Correction>
   9.000000E+99

> <Gold.Chemscore.Hbonds>
donor molecule, donor type, donor heavy atom, donor atom, acceptor molecule, acceptor atom, score
      L1  H     4    23       P1  7957  1.00
      P1  H  7989  7998       L1     7  0.29
      P1  H  7997  8008       L1     8  0.94

> <Gold.Chemscore.Hbond.Weighted>
-7.9113

> <Gold.Chemscore.Metal.Weighted>
-0.0000

> <Gold.Chemscore.Lipo.Weighted>
-9.0970

> <Gold.Chemscore.Internal_Hbond.Weighted>
0.0000

> <Gold.Chemscore.DEClash.Weighted>
0.7652

> <Gold.Chemscore.DEInternal.Weighted>
0.8418

> <Gold.Chemscore.Rot.Weighted>
3.7429

> <Gold.Chemscore.Internal.Correction.Weighted>
   9.000000E+99

> <Gold.Protein.RotatedTorsions>
[ 6907 6896 6895 6894 ] final  -16.06 input  -60.11 | X-H torsion
[ 7974 7965 7964 7962 ] final   87.31 input  175.53 | X-H torsion
[ 8008 7997 7996 7995 ] final  -41.11 input   59.86 | X-H torsion
[ 10167 10162 10161 10158 ] final   70.18 input  -65.29 | X-H torsion
[ 10718 10713 10712 10709 ] final  -56.44 input   66.30 | X-H torsion
[ 10763 10752 10751 10750 ] final  -76.62 input  -60.55 | X-H torsion
[ 11005 11000 10999 10996 ] final  -94.61 input  -57.11 | X-H torsion

> <Gold.Protein.ActiveResidues>
 VAL166  LYS551  ARG553  GLY616  TRP617  ASP618  TYR619  PRO620  LYS621  CYS622 
 ASP623  PHE694  ASN695  SER759  ASP760  ASP761  ALA762  ILE779  LEU786  VAL792 
 PHE793  MET794  SER795  GLU796  ALA797  LYS798  CYS799  TRP800  GLU811  SER814 

> <Gold.Protein.RotatedAtoms>
  151.3144  135.0802  159.9283 H   0  0  0  0  0  0  0  0  0  0  0  0  # atno 6907 bound_to 6896
  152.5270  133.9703  159.7769 H   0  0  0  0  0  0  0  0  0  0  0  0  # atno 6908 bound_to 6896
  151.0012  133.6002  159.2725 H   0  0  0  0  0  0  0  0  0  0  0  0  # atno 6909 bound_to 6896
  145.5607  139.2303  143.2461 H   0  0  0  0  0  0  0  0  0  0  0  0  # atno 7974 bound_to 7965
  154.4006  140.1508  156.3138 H   0  0  0  0  0  0  0  0  0  0  0  0  # atno 8008 bound_to 7997
  155.8591  140.3454  155.5723 H   0  0  0  0  0  0  0  0  0  0  0  0  # atno 8009 bound_to 7997
  155.7899  140.0855  157.2005 H   0  0  0  0  0  0  0  0  0  0  0  0  # atno 8010 bound_to 7997
  140.0597  144.5243  150.7303 H   0  0  0  0  0  0  0  0  0  0  0  0  # atno 10167 bound_to 10162
  156.1288  130.4161  150.0305 H   0  0  0  0  0  0  0  0  0  0  0  0  # atno 10718 bound_to 10713
  154.5022  135.5791  153.6540 H   0  0  0  0  0  0  0  0  0  0  0  0  # atno 10763 bound_to 10752
  152.9881  135.6138  154.2987 H   0  0  0  0  0  0  0  0  0  0  0  0  # atno 10764 bound_to 10752
  154.2896  135.2849  155.2640 H   0  0  0  0  0  0  0  0  0  0  0  0  # atno 10765 bound_to 10752
  141.1465  133.7968  157.0322 H   0  0  0  0  0  0  0  0  0  0  0  0  # atno 11005 bound_to 11000
  146.1853  140.6432  142.9170 LP  0  0  0  0  0  0  0  0  0  0  0  0  # atno 17320 bound_to 7965
  144.7484  140.5128  143.6819 LP  0  0  0  0  0  0  0  0  0  0  0  0  # atno 17321 bound_to 7965
  140.7178  143.2560  151.4379 LP  0  0  0  0  0  0  0  0  0  0  0  0  # atno 17342 bound_to 10162
  139.5901  144.1517  152.2078 LP  0  0  0  0  0  0  0  0  0  0  0  0  # atno 17343 bound_to 10162
  156.8223  130.9363  151.3640 LP  0  0  0  0  0  0  0  0  0  0  0  0  # atno 17370 bound_to 10713
  157.6468  130.8851  149.9554 LP  0  0  0  0  0  0  0  0  0  0  0  0  # atno 17371 bound_to 10713
  140.0747  134.9682  157.1525 LP  0  0  0  0  0  0  0  0  0  0  0  0  # atno 17394 bound_to 11000
  140.3661  134.2441  155.7182 LP  0  0  0  0  0  0  0  0  0  0  0  0  # atno 17395 bound_to 11000

$$$$
