AV-unprocessed.smi:460|AV-procd|sdf|2627|dock9
  -GOLD-   2262023 33D 1   1.00000     0.00000
 Structure written by MMmdl.
 46 48  0  0  0  0  0  0  0  0  1 V2000
  150.8866  136.3328  157.0935 C   0  0  0  0  0  0  0  0  0  0  0  0
  151.9290  137.1987  156.3684 C   0  0  0  0  0  0  0  0  0  0  0  0
  151.5793  137.5547  154.9072 C   0  0  1  0  0  0  0  0  0  0  0  0
  151.3377  136.3555  154.1966 O   0  0  0  0  0  0  0  0  0  0  0  0
  150.4439  138.5379  154.7838 C   0  0  0  0  0  0  0  0  0  0  0  0
  149.3587  138.2899  154.0454 N   0  0  0  0  0  0  0  0  0  0  0  0
  148.5971  139.4270  154.2240 C   0  0  0  0  0  0  0  0  0  0  0  0
  147.3373  139.7819  153.6907 C   0  0  0  0  0  0  0  0  0  0  0  0
  146.7486  141.0219  154.0150 C   0  0  0  0  0  0  0  0  0  0  0  0
  147.4082  141.9209  154.8777 C   0  0  0  0  0  0  0  0  0  0  0  0
  148.6616  141.5840  155.4230 C   0  0  0  0  0  0  0  0  0  0  0  0
  149.2472  140.3469  155.0929 C   0  0  0  0  0  0  0  0  0  0  0  0
  150.4461  139.7285  155.4376 N   0  0  0  0  0  0  0  0  0  0  0  0
  151.4736  140.2836  156.3095 C   0  0  0  0  0  0  0  0  0  0  0  0
  150.9441  140.5425  157.7278 C   0  0  0  0  0  0  0  0  0  0  0  0
  152.0349  140.9255  158.5527 O   0  0  0  0  0  0  0  0  0  0  0  0
  152.0490  142.1890  159.1010 C   0  0  0  0  0  0  0  0  0  0  0  0
  151.4525  143.3190  158.4884 C   0  0  0  0  0  0  0  0  0  0  0  0
  151.5126  144.5797  159.1099 C   0  0  0  0  0  0  0  0  0  0  0  0
  152.1664  144.7234  160.3459 C   0  0  0  0  0  0  0  0  0  0  0  0
  152.7605  143.6068  160.9620 C   0  0  0  0  0  0  0  0  0  0  0  0
  152.7066  142.3318  160.3441 C   0  0  0  0  0  0  0  0  0  0  0  0
  153.2627  141.1920  160.8879 O   0  0  0  0  0  0  0  0  0  0  0  0
  153.9495  141.3007  162.1253 C   0  0  0  0  0  0  0  0  0  0  0  0
  151.2245  136.0870  158.1004 H   0  0  0  0  0  0  0  0  0  0  0  0
  150.7125  135.3950  156.5656 H   0  0  0  0  0  0  0  0  0  0  0  0
  149.9312  136.8493  157.1872 H   0  0  0  0  0  0  0  0  0  0  0  0
  152.0628  138.1181  156.9385 H   0  0  0  0  0  0  0  0  0  0  0  0
  152.8946  136.6919  156.3939 H   0  0  0  0  0  0  0  0  0  0  0  0
  152.4616  137.9885  154.4373 H   0  0  0  0  0  0  0  0  0  0  0  0
  151.2382  136.5662  153.2809 H   0  0  0  0  0  0  0  0  0  0  0  0
  146.8250  139.1004  153.0279 H   0  0  0  0  0  0  0  0  0  0  0  0
  145.7871  141.2850  153.5989 H   0  0  0  0  0  0  0  0  0  0  0  0
  146.9532  142.8704  155.1189 H   0  0  0  0  0  0  0  0  0  0  0  0
  149.1720  142.2734  156.0789 H   0  0  0  0  0  0  0  0  0  0  0  0
  152.3069  139.5813  156.3485 H   0  0  0  0  0  0  0  0  0  0  0  0
  151.8728  141.1994  155.8759 H   0  0  0  0  0  0  0  0  0  0  0  0
  150.1931  141.3330  157.7013 H   0  0  0  0  0  0  0  0  0  0  0  0
  150.4727  139.6388  158.1169 H   0  0  0  0  0  0  0  0  0  0  0  0
  150.9456  143.2440  157.5384 H   0  0  0  0  0  0  0  0  0  0  0  0
  151.0573  145.4372  158.6368 H   0  0  0  0  0  0  0  0  0  0  0  0
  152.2134  145.6917  160.8224 H   0  0  0  0  0  0  0  0  0  0  0  0
  153.2543  143.7551  161.9100 H   0  0  0  0  0  0  0  0  0  0  0  0
  154.3036  140.3145  162.4256 H   0  0  0  0  0  0  0  0  0  0  0  0
  153.2932  141.6696  162.9146 H   0  0  0  0  0  0  0  0  0  0  0  0
  154.8200  141.9527  162.0422 H   0  0  0  0  0  0  0  0  0  0  0  0
  1  2  1  0  0  0  0
  1 25  1  0  0  0  0
  1 26  1  0  0  0  0
  1 27  1  0  0  0  0
  2  3  1  0  0  0  0
  2 28  1  0  0  0  0
  2 29  1  0  0  0  0
  3  4  1  0  0  0  0
  3  5  1  0  0  0  0
  3 30  1  0  0  0  0
  4 31  1  0  0  0  0
  5 13  1  0  0  0  0
  5  6  2  0  0  0  0
  6  7  1  0  0  0  0
  7 12  2  0  0  0  0
  7  8  1  0  0  0  0
  8  9  2  0  0  0  0
  8 32  1  0  0  0  0
  9 10  1  0  0  0  0
  9 33  1  0  0  0  0
 10 11  2  0  0  0  0
 10 34  1  0  0  0  0
 11 12  1  0  0  0  0
 11 35  1  0  0  0  0
 12 13  1  0  0  0  0
 13 14  1  0  0  0  0
 14 15  1  0  0  0  0
 14 36  1  0  0  0  0
 14 37  1  0  0  0  0
 15 16  1  0  0  0  0
 15 38  1  0  0  0  0
 15 39  1  0  0  0  0
 16 17  1  0  0  0  0
 17 22  1  0  0  0  0
 17 18  2  0  0  0  0
 18 19  1  0  0  0  0
 18 40  1  0  0  0  0
 19 20  2  0  0  0  0
 19 41  1  0  0  0  0
 20 21  1  0  0  0  0
 20 42  1  0  0  0  0
 21 22  2  0  0  0  0
 21 43  1  0  0  0  0
 22 23  1  0  0  0  0
 23 24  1  0  0  0  0
 24 44  1  0  0  0  0
 24 45  1  0  0  0  0
 24 46  1  0  0  0  0
M  END
> <s_m_source_file>
AV-unprocessed.smi

> <i_m_source_file_index>
460

> <i_lp_mmshare_version>
43012

> <i_f3d_flags>
0

> <s_epik_input>
W2NIXTFbY0hdW2NIXVtjSF1jKGMxMiluKGMobjIpW0NAQEhdKFtPSF0pW0NIMl1bQ0gzXSlbQ0gyXVtDSDJdT2MzW2NIXVtjSF1bY0hdW2NIXWMzT1tDSDNd

> <s_epik_cmdline>
J2VwaWtfcHl0aG9uJywgJy1waCcsICc3LjAnLCAnLXRuJywgJzgnLCAnLW1hJywgJzIwMCcsICctbWV0YWxfYmluZGluZycsICctaW1hZScsICc8aW5maWxlLm1hZT4nLCAnLW9tYWUnLCAnPG91dGZpbGUubWFlPic=

> <r_lp_tautomer_probability>
1

> <r_epik_Ionization_Penalty>
0.0507825

> <r_epik_Ionization_Penalty_Charging>
0

> <r_epik_Ionization_Penalty_Neutral>
0.0507825

> <r_epik_State_Penalty>
0.0434615

> <r_epik_Charging_Adjusted_Penalty>
0.0434615

> <i_epik_Tot_Q>
0

> <i_epik_Tot_abs_Q>
0

> <r_epik_Metal_State_Penalty>
4.50935e-05

> <b_epik_Metal_Only>
0

> <s_lp_Force_Field>
OPLS_2005

> <r_lp_Energy>
20.6013

> <b_lp_Chiralities_Consistent>
1

> <s_lp_Variant>
AV-unprocessed.smi:460-2

> <Gold.Version>
5.8.1

> <Gold.Id.Protein>
6NUR|6NUR_protein|mol2

> <Gold.PLP.Fitness>
57.1855

> <Gold.PLP.PLP>
-52.6991

> <Gold.PLP.part.hbond>
-2.0800

> <Gold.PLP.part.metal>
0.0000

> <Gold.PLP.part.buried>
-4.0214

> <Gold.PLP.part.nonpolar>
-49.1504

> <Gold.PLP.part.repulsive>
1.7334

> <Gold.PLP.ligand.clash>
0.0000

> <Gold.PLP.ligand.torsion>
0.8400

> <Gold.PLP.Chemscore.Hbond>
2.0000

> <Gold.PLP.Chemscore.CHOScore>
0.0000

> <Gold.PLP.Chemscore.Metal>
0.0000

> <Gold.Chemscore.Hbonds>
donor molecule, donor type, donor heavy atom, donor atom, acceptor molecule, acceptor atom, score
      L1  H     4    31       P1  7949  0.98
      P1  H 10752 10763       L1     4  0.90

> <Gold.PLP.Chemscore.Internal.Correction>
0.1664

> <Gold.Rescore>
     Score         DG    S(hbond)    S(metal)    S(lipo)     H(rot)  DE(clash)    DE(int)     intcor
     17.85     -19.98       1.10        0.00     144.20       2.36       1.27       0.87       ----

> <Gold.Chemscore.Fitness>
17.8452

> <Gold.Chemscore.DG>
-19.9847

> <Gold.Chemscore.ZeroCoef>
-5.4800

> <Gold.Chemscore.Hbond>
1.0995

> <Gold.Chemscore.Metal>
0.0000

> <Gold.Chemscore.Lipo>
144.1958

> <Gold.Chemscore.Internal_Hbond>
0.0000

> <Gold.Chemscore.DEClash>
1.2701

> <Gold.Chemscore.DEInternal>
0.8694

> <Gold.Chemscore.Rot>
2.3587

> <Gold.Chemscore.Internal.Correction>
   9.000000E+99

> <Gold.Chemscore.Hbonds>
donor molecule, donor type, donor heavy atom, donor atom, acceptor molecule, acceptor atom, score
      L1  H     4    31       P1  7949  0.56
      P1  H 10752 10763       L1     4  0.11

> <Gold.Chemscore.Hbond.Weighted>
-3.6722

> <Gold.Chemscore.Metal.Weighted>
-0.0000

> <Gold.Chemscore.Lipo.Weighted>
-16.8709

> <Gold.Chemscore.Internal_Hbond.Weighted>
0.0000

> <Gold.Chemscore.DEClash.Weighted>
1.2701

> <Gold.Chemscore.DEInternal.Weighted>
0.8694

> <Gold.Chemscore.Rot.Weighted>
6.0384

> <Gold.Chemscore.Internal.Correction.Weighted>
   9.000000E+99

> <Gold.Protein.RotatedTorsions>
[ 6907 6896 6895 6894 ] final   31.41 input  -60.11 | X-H torsion
[ 7974 7965 7964 7962 ] final   -2.63 input  175.53 | X-H torsion
[ 8008 7997 7996 7995 ] final  165.13 input   59.86 | X-H torsion
[ 10167 10162 10161 10158 ] final -172.75 input  -65.29 | X-H torsion
[ 10718 10713 10712 10709 ] final  135.41 input   66.30 | X-H torsion
[ 10763 10752 10751 10750 ] final   48.86 input  -60.55 | X-H torsion
[ 11005 11000 10999 10996 ] final  -87.49 input  -57.11 | X-H torsion

> <Gold.Protein.ActiveResidues>
 VAL166  LYS551  ARG553  GLY616  TRP617  ASP618  TYR619  PRO620  LYS621  CYS622 
 ASP623  PHE694  ASN695  SER759  ASP760  ASP761  ALA762  ILE779  LEU786  VAL792 
 PHE793  MET794  SER795  GLU796  ALA797  LYS798  CYS799  TRP800  GLU811  SER814 

> <Gold.Protein.RotatedAtoms>
  152.0599  134.9601  160.0574 H   0  0  0  0  0  0  0  0  0  0  0  0  # atno 6907 bound_to 6896
  152.0968  133.4224  159.4577 H   0  0  0  0  0  0  0  0  0  0  0  0  # atno 6908 bound_to 6896
  150.6838  134.2726  159.4638 H   0  0  0  0  0  0  0  0  0  0  0  0  # atno 6909 bound_to 6896
  146.2402  140.1599  142.8333 H   0  0  0  0  0  0  0  0  0  0  0  0  # atno 7974 bound_to 7965
  156.1825  140.1678  156.8247 H   0  0  0  0  0  0  0  0  0  0  0  0  # atno 8008 bound_to 7997
  154.5376  140.0743  156.8488 H   0  0  0  0  0  0  0  0  0  0  0  0  # atno 8009 bound_to 7997
  155.3279  140.3377  155.4242 H   0  0  0  0  0  0  0  0  0  0  0  0  # atno 8010 bound_to 7997
  139.5727  144.1604  152.1407 H   0  0  0  0  0  0  0  0  0  0  0  0  # atno 10167 bound_to 10162
  157.4574  131.1071  150.9961 H   0  0  0  0  0  0  0  0  0  0  0  0  # atno 10718 bound_to 10713
  152.9789  135.5930  154.3994 H   0  0  0  0  0  0  0  0  0  0  0  0  # atno 10763 bound_to 10752
  154.3641  135.2767  155.2305 H   0  0  0  0  0  0  0  0  0  0  0  0  # atno 10764 bound_to 10752
  154.4289  135.6041  153.6111 H   0  0  0  0  0  0  0  0  0  0  0  0  # atno 10765 bound_to 10752
  141.1616  133.7514  156.9314 H   0  0  0  0  0  0  0  0  0  0  0  0  # atno 11005 bound_to 11000
  145.0098  140.8704  143.5231 LP  0  0  0  0  0  0  0  0  0  0  0  0  # atno 17320 bound_to 7965
  145.1631  139.2447  143.5381 LP  0  0  0  0  0  0  0  0  0  0  0  0  # atno 17321 bound_to 7965
  140.1140  144.5432  150.6906 LP  0  0  0  0  0  0  0  0  0  0  0  0  # atno 17342 bound_to 10162
  140.7011  143.2435  151.4862 LP  0  0  0  0  0  0  0  0  0  0  0  0  # atno 17343 bound_to 10162
  157.0770  130.5887  149.5413 LP  0  0  0  0  0  0  0  0  0  0  0  0  # atno 17370 bound_to 10713
  156.0013  130.5093  150.7673 LP  0  0  0  0  0  0  0  0  0  0  0  0  # atno 17371 bound_to 10713
  140.1383  134.9310  157.2432 LP  0  0  0  0  0  0  0  0  0  0  0  0  # atno 17394 bound_to 11000
  140.2867  134.3287  155.7327 LP  0  0  0  0  0  0  0  0  0  0  0  0  # atno 17395 bound_to 11000

$$$$
