AV-unprocessed.smi:450|AV-procd|sdf|2608|dock1
  -GOLD-   2262023 03D 1   1.00000     0.00000
 Structure written by MMmdl.
 32 32  0  0  0  0  0  0  0  0  1 V2000
  151.2992  131.0138  155.8752 C   0  0  0  0  0  0  0  0  0  0  0  0
  150.3399  132.2133  155.8968 C   0  0  0  0  0  0  0  0  0  0  0  0
  149.8918  132.6751  154.4971 C   0  0  1  0  0  0  0  0  0  0  0  0
  148.8791  131.6999  153.8760 C   0  0  0  0  0  0  0  0  0  0  0  0
  149.3198  134.0162  154.5741 N   0  0  0  0  0  0  0  0  0  0  0  0
  149.9294  135.0990  155.0808 C   0  0  0  0  0  0  0  0  0  0  0  0
  151.0856  135.0956  155.5016 O   0  0  0  0  0  0  0  0  0  0  0  0
  149.1001  136.3827  155.1334 C   0  0  0  0  0  0  0  0  0  0  0  0
  149.9544  137.5453  155.3640 N   0  0  0  0  0  0  0  0  0  0  0  0
  150.2774  138.5304  154.5009 C   0  0  0  0  0  0  0  0  0  0  0  0
  149.8027  138.5268  153.1974 N   0  0  0  0  0  0  0  0  0  0  0  0
  151.0661  139.4719  155.0114 N   0  0  0  0  0  0  0  0  0  0  0  0
  151.2898  139.0821  156.3303 C   0  0  0  0  0  0  0  0  0  0  0  0
  152.0990  139.8493  157.2157 C   0  0  0  0  0  0  0  0  0  0  0  0
  152.7572  140.4702  157.9366 N   0  0  0  0  0  0  0  0  0  0  0  0
  150.6076  137.9032  156.5415 C   0  0  0  0  0  0  0  0  0  0  0  0
  150.5604  137.1676  157.7449 C   0  0  0  0  0  0  0  0  0  0  0  0
  150.5225  136.5645  158.7311 N   0  0  0  0  0  0  0  0  0  0  0  0
  151.5453  130.6982  156.8893 H   0  0  0  0  0  0  0  0  0  0  0  0
  152.2356  131.2548  155.3711 H   0  0  0  0  0  0  0  0  0  0  0  0
  150.8517  130.1621  155.3622 H   0  0  0  0  0  0  0  0  0  0  0  0
  149.4604  131.9441  156.4828 H   0  0  0  0  0  0  0  0  0  0  0  0
  150.8131  133.0417  156.4255 H   0  0  0  0  0  0  0  0  0  0  0  0
  150.7756  132.7040  153.8568 H   0  0  0  0  0  0  0  0  0  0  0  0
  149.2940  130.6937  153.8113 H   0  0  0  0  0  0  0  0  0  0  0  0
  148.6038  132.0040  152.8658 H   0  0  0  0  0  0  0  0  0  0  0  0
  147.9650  131.6455  154.4681 H   0  0  0  0  0  0  0  0  0  0  0  0
  148.3666  134.1175  154.2574 H   0  0  0  0  0  0  0  0  0  0  0  0
  148.5542  136.5153  154.1986 H   0  0  0  0  0  0  0  0  0  0  0  0
  148.3487  136.3116  155.9205 H   0  0  0  0  0  0  0  0  0  0  0  0
  149.2030  137.7867  152.8610 H   0  0  0  0  0  0  0  0  0  0  0  0
  149.9948  139.2859  152.5601 H   0  0  0  0  0  0  0  0  0  0  0  0
  1  2  1  0  0  0  0
  1 19  1  0  0  0  0
  1 20  1  0  0  0  0
  1 21  1  0  0  0  0
  2  3  1  0  0  0  0
  2 22  1  0  0  0  0
  2 23  1  0  0  0  0
  3  4  1  0  0  0  0
  3  5  1  0  0  0  0
  3 24  1  0  0  0  0
  4 25  1  0  0  0  0
  4 26  1  0  0  0  0
  4 27  1  0  0  0  0
  5  6  1  0  0  0  0
  5 28  1  0  0  0  0
  6  7  2  0  0  0  0
  6  8  1  0  0  0  0
  8  9  1  0  0  0  0
  8 29  1  0  0  0  0
  8 30  1  0  0  0  0
  9 16  1  0  0  0  0
  9 10  1  0  0  0  0
 10 11  1  0  0  0  0
 10 12  2  0  0  0  0
 11 31  1  0  0  0  0
 11 32  1  0  0  0  0
 12 13  1  0  0  0  0
 13 14  1  0  0  0  0
 13 16  2  0  0  0  0
 14 15  3  0  0  0  0
 16 17  1  0  0  0  0
 17 18  3  0  0  0  0
M  END
> <s_m_source_file>
AV-unprocessed.smi

> <i_m_source_file_index>
450

> <i_lp_mmshare_version>
43012

> <i_f3d_flags>
0

> <s_epik_input>
W0NIM11bQ0gyXVtDQEhdKFtDSDNdKVtOSF1DKD1PKVtDSDJdbjFjKFtOSDJdKW5jKEMjTiljMUMjTg==

> <s_epik_cmdline>
J2VwaWtfcHl0aG9uJywgJy1waCcsICc3LjAnLCAnLXRuJywgJzgnLCAnLW1hJywgJzIwMCcsICctbWV0YWxfYmluZGluZycsICctaW1hZScsICc8aW5maWxlLm1hZT4nLCAnLW9tYWUnLCAnPG91dGZpbGUubWFlPic=

> <r_epik_Ionization_Penalty>
0.000482749

> <r_epik_Ionization_Penalty_Charging>
7.71074e-10

> <r_epik_Ionization_Penalty_Neutral>
0.000482748

> <r_epik_State_Penalty>
0.000433536

> <r_epik_Charging_Adjusted_Penalty>
0.000433537

> <i_epik_Tot_Q>
0

> <i_epik_Tot_abs_Q>
0

> <r_epik_Metal_State_Penalty>
-0

> <b_epik_Metal_Only>
0

> <s_lp_Force_Field>
OPLS_2005

> <r_lp_Energy>
5.27204

> <b_lp_Chiralities_Consistent>
1

> <s_lp_Variant>
AV-unprocessed.smi:450-2

> <Gold.Version>
5.8.1

> <Gold.Id.Protein>
6NUR|6NUR_protein|mol2

> <Gold.PLP.Fitness>
38.5916

> <Gold.PLP.PLP>
-23.3828

> <Gold.PLP.part.hbond>
-5.7259

> <Gold.PLP.part.metal>
0.0000

> <Gold.PLP.part.buried>
-0.8943

> <Gold.PLP.part.nonpolar>
-15.7783

> <Gold.PLP.part.repulsive>
0.2445

> <Gold.PLP.ligand.clash>
0.0000

> <Gold.PLP.ligand.torsion>
0.4355

> <Gold.PLP.Chemscore.Hbond>
5.3483

> <Gold.PLP.Chemscore.CHOScore>
0.0000

> <Gold.PLP.Chemscore.Metal>
0.0000

> <Gold.Chemscore.Hbonds>
donor molecule, donor type, donor heavy atom, donor atom, acceptor molecule, acceptor atom, score
      L1  H    11    31       P1  7948  0.98
      L1  H    11    32       P1  7957  0.94
      P1  H  6896  6908       L1    18  1.00
      P1  H  7989  7998       L1    12  0.75
      P1  H  7997  8008       L1    15  0.59
      P1  H 10752 10763       L1     7  0.86

> <Gold.PLP.Chemscore.Internal.Correction>
0.0350

> <Gold.Rescore>
     Score         DG    S(hbond)    S(metal)    S(lipo)     H(rot)  DE(clash)    DE(int)     intcor
     15.49     -18.37       4.37        0.00      33.73       2.21       0.13       2.76       ----

> <Gold.Chemscore.Fitness>
15.4863

> <Gold.Chemscore.DG>
-18.3746

> <Gold.Chemscore.ZeroCoef>
-5.4800

> <Gold.Chemscore.Hbond>
4.3744

> <Gold.Chemscore.Metal>
0.0000

> <Gold.Chemscore.Lipo>
33.7337

> <Gold.Chemscore.Internal_Hbond>
0.0000

> <Gold.Chemscore.DEClash>
0.1287

> <Gold.Chemscore.DEInternal>
2.7596

> <Gold.Chemscore.Rot>
2.2121

> <Gold.Chemscore.Internal.Correction>
   9.000000E+99

> <Gold.Chemscore.Hbonds>
donor molecule, donor type, donor heavy atom, donor atom, acceptor molecule, acceptor atom, score
      L1  H    11    31       P1  7948  0.91
      L1  H    11    32       P1  7957  0.77
      P1  H  6896  6908       L1    18  0.93
      P1  H  7989  7998       L1    12  0.54
      P1  H  7997  8008       L1    15  0.08
      P1  H 10752 10763       L1     7  0.80

> <Gold.Chemscore.Hbond.Weighted>
-14.6106

> <Gold.Chemscore.Metal.Weighted>
-0.0000

> <Gold.Chemscore.Lipo.Weighted>
-3.9468

> <Gold.Chemscore.Internal_Hbond.Weighted>
0.0000

> <Gold.Chemscore.DEClash.Weighted>
0.1287

> <Gold.Chemscore.DEInternal.Weighted>
2.7596

> <Gold.Chemscore.Rot.Weighted>
5.6629

> <Gold.Chemscore.Internal.Correction.Weighted>
   9.000000E+99

> <Gold.Protein.RotatedTorsions>
[ 6907 6896 6895 6894 ] final -145.30 input  -60.11 | X-H torsion
[ 7974 7965 7964 7962 ] final   88.32 input  175.53 | X-H torsion
[ 8008 7997 7996 7995 ] final  -81.87 input   59.86 | X-H torsion
[ 10167 10162 10161 10158 ] final  138.97 input  -65.29 | X-H torsion
[ 10718 10713 10712 10709 ] final -115.27 input   66.30 | X-H torsion
[ 10763 10752 10751 10750 ] final   77.31 input  -60.55 | X-H torsion
[ 11005 11000 10999 10996 ] final  132.52 input  -57.11 | X-H torsion

> <Gold.Protein.ActiveResidues>
 VAL166  LYS551  ARG553  GLY616  TRP617  ASP618  TYR619  PRO620  LYS621  CYS622 
 ASP623  PHE694  ASN695  SER759  ASP760  ASP761  ALA762  ILE779  LEU786  VAL792 
 PHE793  MET794  SER795  GLU796  ALA797  LYS798  CYS799  TRP800  GLU811  SER814 

> <Gold.Protein.RotatedAtoms>
  151.1258  133.5071  159.2600 H   0  0  0  0  0  0  0  0  0  0  0  0  # atno 6907 bound_to 6896
  151.1811  135.0361  159.8803 H   0  0  0  0  0  0  0  0  0  0  0  0  # atno 6908 bound_to 6896
  152.5458  134.1110  159.8412 H   0  0  0  0  0  0  0  0  0  0  0  0  # atno 6909 bound_to 6896
  145.5472  139.2293  143.2532 H   0  0  0  0  0  0  0  0  0  0  0  0  # atno 7974 bound_to 7965
  154.6028  140.0641  156.9390 H   0  0  0  0  0  0  0  0  0  0  0  0  # atno 8008 bound_to 7997
  155.2104  140.3322  155.4311 H   0  0  0  0  0  0  0  0  0  0  0  0  # atno 8009 bound_to 7997
  156.2328  140.1849  156.7181 H   0  0  0  0  0  0  0  0  0  0  0  0  # atno 8010 bound_to 7997
  139.5093  144.6322  151.5788 H   0  0  0  0  0  0  0  0  0  0  0  0  # atno 10167 bound_to 10162
  156.0884  130.6071  150.8884 H   0  0  0  0  0  0  0  0  0  0  0  0  # atno 10718 bound_to 10713
  153.0789  135.4919  154.8461 H   0  0  0  0  0  0  0  0  0  0  0  0  # atno 10763 bound_to 10752
  154.7124  135.3022  154.9178 H   0  0  0  0  0  0  0  0  0  0  0  0  # atno 10764 bound_to 10752
  153.9868  135.6783  153.4805 H   0  0  0  0  0  0  0  0  0  0  0  0  # atno 10765 bound_to 10752
  139.9795  134.9552  156.9594 H   0  0  0  0  0  0  0  0  0  0  0  0  # atno 11005 bound_to 11000
  146.1941  140.6294  142.9132 LP  0  0  0  0  0  0  0  0  0  0  0  0  # atno 17320 bound_to 7965
  144.7547  140.5278  143.6777 LP  0  0  0  0  0  0  0  0  0  0  0  0  # atno 17321 bound_to 7965
  140.6059  143.9525  150.6418 LP  0  0  0  0  0  0  0  0  0  0  0  0  # atno 17342 bound_to 10162
  140.2752  143.3428  152.1202 LP  0  0  0  0  0  0  0  0  0  0  0  0  # atno 17343 bound_to 10162
  157.6026  131.0940  150.8934 LP  0  0  0  0  0  0  0  0  0  0  0  0  # atno 17370 bound_to 10713
  156.9088  130.5273  149.5281 LP  0  0  0  0  0  0  0  0  0  0  0  0  # atno 17371 bound_to 10713
  140.5125  134.0988  155.7273 LP  0  0  0  0  0  0  0  0  0  0  0  0  # atno 17394 bound_to 11000
  141.1469  133.9039  157.2194 LP  0  0  0  0  0  0  0  0  0  0  0  0  # atno 17395 bound_to 11000

$$$$
