#       Name:                AV-unprocessed.smi:34
#       Creating user name   scv26
#       Creation time:       Thu Mar 26 15:55:32 2020


#       File generated by GOLD software.
#

@<TRIPOS>MOLECULE
AV-unprocessed.smi:34
    66    70     1
SMALL
NO_CHARGES


@<TRIPOS>ATOM
      1 ****        -4.4027   1.2622   0.5534 O.2            1 S1                 0.0000
      2 ****        -4.5116   0.0367   0.5019 C.2            1 S1                 0.0000
      3 ****        -3.3558  -0.8396   0.4375 N.am           1 S1                 0.0000
      4 ****        -2.0470  -0.5066   0.5277 C.ar           1 S1                 0.0000
      5 ****        -1.6253   0.7821   0.6185 N.ar           1 S1                 0.0000
      6 ****        -0.3214   1.0567   0.7135 C.ar           1 S1                 0.0000
      7 ****         0.7079   0.2083   0.7388 N.ar           1 S1                 0.0000
      8 ****         0.2957  -1.0877   0.6442 C.ar           1 S1                 0.0000
      9 ****        -1.0550  -1.5215   0.5335 C.ar           1 S1                 0.0000
     10 ****        -1.1000  -2.9072   0.4575 N.2            1 S1                 0.0000
     11 ****         0.1536  -3.2665   0.5224 C.2            1 S1                 0.0000
     12 ****         1.0609  -2.2371   0.6408 N.pl3          1 S1                 0.0000
     13 ****         2.5469  -2.3566   0.7489 C.3            1 S1                 0.0000
     14 ****         3.1368  -1.3678  -0.0411 O.3            1 S1                 0.0000
     15 ****         4.2550  -0.7803   0.6341 C.3            1 S1                 0.0000
     16 ****         3.9579   0.6937   0.9415 C.3            1 S1                 0.0000
     17 ****         3.8416   1.4108  -0.2768 O.3            1 S1                 0.0000
     18 ****         3.2193   2.6058  -0.3045 C.2            1 S1                 0.0000
     19 ****         2.7410   3.1511   0.6924 O.2            1 S1                 0.0000
     20 ****         3.1651   3.1993  -1.6713 C.ar           1 S1                 0.0000
     21 ****         2.5148   4.4409  -1.8617 C.ar           1 S1                 0.0000
     22 ****         2.4463   5.0258  -3.1410 C.ar           1 S1                 0.0000
     23 ****         3.0280   4.3770  -4.2455 C.ar           1 S1                 0.0000
     24 ****         3.6779   3.1414  -4.0694 C.ar           1 S1                 0.0000
     25 ****         3.7468   2.5544  -2.7908 C.ar           1 S1                 0.0000
     26 ****         4.4309  -1.6112   1.9084 C.3            1 S1                 0.0000
     27 ****         5.2468  -2.6299   1.6216 F              1 S1                 0.0000
     28 ****         3.0214  -2.1109   2.1781 C.3            1 S1                 0.0000
     29 ****         3.0538  -3.2752   2.9790 O.3            1 S1                 0.0000
     30 ****        -5.8524  -0.6342   0.4195 C.ar           1 S1                 0.0000
     31 ****        -6.9589   0.0597  -0.1200 C.ar           1 S1                 0.0000
     32 ****        -8.2252  -0.5544  -0.1806 C.ar           1 S1                 0.0000
     33 ****        -8.3974  -1.8649   0.3033 C.ar           1 S1                 0.0000
     34 ****        -7.3032  -2.5599   0.8516 C.ar           1 S1                 0.0000
     35 ****        -6.0367  -1.9467   0.9138 C.ar           1 S1                 0.0000
     36 ****        -3.5546  -1.8257   0.3531 H              1 S1                 0.0000
     37 ****        -0.0662   2.1043   0.7787 H              1 S1                 0.0000
     38 ****         0.4538  -4.3038   0.4929 H              1 S1                 0.0000
     39 ****         2.7982  -3.3458   0.3625 H              1 S1                 0.0000
     40 ****         5.1443  -0.8452   0.0056 H              1 S1                 0.0000
     41 ****         3.0556   0.7807   1.5458 H              1 S1                 0.0000
     42 ****         4.7722   1.1266   1.5231 H              1 S1                 0.0000
     43 ****         2.0602   4.9578  -1.0289 H              1 S1                 0.0000
     44 ****         1.9460   5.9735  -3.2744 H              1 S1                 0.0000
     45 ****         2.9752   4.8258  -5.2263 H              1 S1                 0.0000
     46 ****         4.1244   2.6422  -4.9166 H              1 S1                 0.0000
     47 ****         4.2531   1.6056  -2.6907 H              1 S1                 0.0000
     48 ****         4.8693  -1.0607   2.7414 H              1 S1                 0.0000
     49 ****         2.4182  -1.3308   2.6448 H              1 S1                 0.0000
     50 ****         3.6250  -3.9055   2.5671 H              1 S1                 0.0000
     51 ****        -6.8443   1.0671  -0.4938 H              1 S1                 0.0000
     52 ****        -9.0656  -0.0188  -0.5971 H              1 S1                 0.0000
     53 ****        -9.3687  -2.3351   0.2578 H              1 S1                 0.0000
     54 ****        -7.4354  -3.5632   1.2289 H              1 S1                 0.0000
     55 ****        -5.2139  -2.4952   1.3489 H              1 S1                 0.0000
     56 ****        -3.4961   1.6841   0.5517 LP             1 S1                 0.0000
     57 ****        -5.2209   1.8355   0.5969 LP             1 S1                 0.0000
     58 ****        -2.2928   1.5267   0.6142 LP             1 S1                 0.0000
     59 ****         1.6645   0.4887   0.8175 LP             1 S1                 0.0000
     60 ****        -1.9055  -3.4938   0.3727 LP             1 S1                 0.0000
     61 ****         2.4609  -0.6572  -0.2365 LP             1 S1                 0.0000
     62 ****         3.4488  -1.7759  -0.8991 LP             1 S1                 0.0000
     63 ****         2.8036   2.7046   1.5850 LP             1 S1                 0.0000
     64 ****         2.2903   4.0398   0.6084 LP             1 S1                 0.0000
     65 ****         2.1325  -3.6559   3.0586 LP             1 S1                 0.0000
     66 ****         3.4009  -3.0493   3.8892 LP             1 S1                 0.0000
@<TRIPOS>BOND
    1    1    2 2     
    2    2    3 am    
    3    2   30 1     
    4    3    4 1     
    5    3   36 1     
    6    4    9 ar    
    7    4    5 ar    
    8    5    6 ar    
    9    6    7 ar    
   10    6   37 1     
   11    7    8 ar    
   12    8   12 1     
   13    8    9 ar    
   14    9   10 1     
   15   10   11 2     
   16   11   12 1     
   17   11   38 1     
   18   12   13 1     
   19   13   28 1     
   20   13   14 1     
   21   13   39 1     
   22   14   15 1     
   23   15   16 1     
   24   15   26 1     
   25   15   40 1     
   26   16   17 1     
   27   16   41 1     
   28   16   42 1     
   29   17   18 1     
   30   18   19 2     
   31   18   20 1     
   32   20   25 ar    
   33   20   21 ar    
   34   21   22 ar    
   35   21   43 1     
   36   22   23 ar    
   37   22   44 1     
   38   23   24 ar    
   39   23   45 1     
   40   24   25 ar    
   41   24   46 1     
   42   25   47 1     
   43   26   27 1     
   44   26   28 1     
   45   26   48 1     
   46   28   29 1     
   47   28   49 1     
   48   29   50 1     
   49   30   35 ar    
   50   30   31 ar    
   51   31   32 ar    
   52   31   51 1     
   53   32   33 ar    
   54   32   52 1     
   55   33   34 ar    
   56   33   53 1     
   57   34   35 ar    
   58   34   54 1     
   59   35   55 1     
   60    1   56 1     
   61    1   57 1     
   62    5   58 1     
   63    7   59 1     
   64   10   60 1     
   65   14   61 1     
   66   14   62 1     
   67   19   63 1     
   68   19   64 1     
   69   29   65 1     
   70   29   66 1     
@<TRIPOS>SUBSTRUCTURE
      1 S1             1
@<TRIPOS>SET
LONE_PAIRS      STATIC     ATOMS    <user>   **** ""
11 56 57 58 59 60 61 62 63 64 65 66
DONOR_HYDROGENS      STATIC     ATOMS    <user>   **** ""
2 36 50
ATOM$BLUE        STATIC     ATOMS    COLORGROUP SYSTEM
11 56 57 58 59 60 61 62 63 64 65 66
ATOM$RED        STATIC     ATOMS    COLORGROUP SYSTEM
2 36 50
