AV-unprocessed.smi:673|AV-procd|sdf|3298|dock7
  -GOLD-   22720 0263D 1   1.00000     0.00000
 Structure written by MMmdl.
 45 46  0  0  0  0  0  0  0  0  1 V2000
  156.6026  138.5764  160.9713 C   0  0  0  0  0  0  0  0  0  0  0  0
  156.7742  140.0786  160.6956 C   0  0  1  0  0  0  0  0  0  0  0  0
  157.4402  140.3750  159.3308 C   0  0  0  0  0  0  0  0  0  0  0  0
  158.5812  141.2708  159.4205 N   0  0  0  0  0  0  0  0  0  0  0  0
  159.2755  141.8922  158.4655 C   0  0  0  0  0  0  0  0  0  0  0  0
  160.2663  142.6429  158.9260 N   0  0  0  0  0  0  0  0  0  0  0  0
  160.1191  142.4183  160.2656 C   0  0  0  0  0  0  0  0  0  0  0  0
  159.1252  141.6021  160.6154 N   0  0  0  0  0  0  0  0  0  0  0  0
  155.4748  140.7370  160.8055 N   0  0  0  0  0  0  0  0  0  0  0  0
  154.4043  140.5081  160.0246 C   0  0  0  0  0  0  0  0  0  0  0  0
  154.4318  139.6909  159.1024 O   0  0  0  0  0  0  0  0  0  0  0  0
  153.2860  141.1957  160.3785 N   0  0  0  0  0  0  0  0  0  0  0  0
  153.1714  142.0011  161.6117 C   0  0  0  0  0  0  0  0  0  0  0  0
  152.2788  143.2525  161.4930 C   0  0  0  0  0  0  0  0  0  0  0  0
  152.5454  144.1189  160.2430 C   0  0  0  0  0  0  0  0  0  0  0  0
  151.7914  143.7176  158.9455 C   0  0  0  0  0  0  0  0  0  0  0  0
  150.2613  143.8300  159.1333 C   0  0  0  0  0  0  0  0  0  0  0  0
  152.1886  144.7217  157.8439 C   0  0  0  0  0  0  0  0  0  0  0  0
  152.1709  142.2993  158.4478 C   0  0  0  0  0  0  0  0  0  0  0  0
  152.1057  141.1772  159.5022 C   0  0  0  0  0  0  0  0  0  0  0  0
  157.5543  138.0517  160.8829 H   0  0  0  0  0  0  0  0  0  0  0  0
  155.9001  138.1142  160.2769 H   0  0  0  0  0  0  0  0  0  0  0  0
  156.2261  138.4059  161.9806 H   0  0  0  0  0  0  0  0  0  0  0  0
  157.4235  140.4783  161.4763 H   0  0  0  0  0  0  0  0  0  0  0  0
  157.7579  139.4512  158.8449 H   0  0  0  0  0  0  0  0  0  0  0  0
  156.7096  140.8307  158.6615 H   0  0  0  0  0  0  0  0  0  0  0  0
  159.0482  141.7978  157.4137 H   0  0  0  0  0  0  0  0  0  0  0  0
  160.7640  142.8692  161.0052 H   0  0  0  0  0  0  0  0  0  0  0  0
  155.3684  141.4027  161.5570 H   0  0  0  0  0  0  0  0  0  0  0  0
  152.8085  141.3623  162.4177 H   0  0  0  0  0  0  0  0  0  0  0  0
  154.1510  142.3635  161.9267 H   0  0  0  0  0  0  0  0  0  0  0  0
  151.2280  142.9809  161.5709 H   0  0  0  0  0  0  0  0  0  0  0  0
  152.4659  143.8650  162.3758 H   0  0  0  0  0  0  0  0  0  0  0  0
  152.2677  145.1446  160.4899 H   0  0  0  0  0  0  0  0  0  0  0  0
  153.6197  144.1517  160.0557 H   0  0  0  0  0  0  0  0  0  0  0  0
  149.7368  143.6719  158.1902 H   0  0  0  0  0  0  0  0  0  0  0  0
  149.9789  144.8181  159.4983 H   0  0  0  0  0  0  0  0  0  0  0  0
  149.8661  143.0984  159.8359 H   0  0  0  0  0  0  0  0  0  0  0  0
  151.6917  144.4958  156.8995 H   0  0  0  0  0  0  0  0  0  0  0  0
  153.2632  144.7067  157.6575 H   0  0  0  0  0  0  0  0  0  0  0  0
  151.9205  145.7428  158.1176 H   0  0  0  0  0  0  0  0  0  0  0  0
  151.5111  142.0328  157.6212 H   0  0  0  0  0  0  0  0  0  0  0  0
  153.1718  142.3156  158.0141 H   0  0  0  0  0  0  0  0  0  0  0  0
  152.0405  140.2155  158.9901 H   0  0  0  0  0  0  0  0  0  0  0  0
  151.1866  141.2250  160.0847 H   0  0  0  0  0  0  0  0  0  0  0  0
  1  2  1  0  0  0  0
  1 21  1  0  0  0  0
  1 22  1  0  0  0  0
  1 23  1  0  0  0  0
  2  3  1  0  0  0  0
  2  9  1  0  0  0  0
  2 24  1  0  0  0  0
  3  4  1  0  0  0  0
  3 25  1  0  0  0  0
  3 26  1  0  0  0  0
  4  8  1  0  0  0  0
  4  5  1  0  0  0  0
  5  6  2  0  0  0  0
  5 27  1  0  0  0  0
  6  7  1  0  0  0  0
  7  8  2  0  0  0  0
  7 28  1  0  0  0  0
  9 10  1  0  0  0  0
  9 29  1  0  0  0  0
 10 11  2  0  0  0  0
 10 12  1  0  0  0  0
 12 20  1  0  0  0  0
 12 13  1  0  0  0  0
 13 14  1  0  0  0  0
 13 30  1  0  0  0  0
 13 31  1  0  0  0  0
 14 15  1  0  0  0  0
 14 32  1  0  0  0  0
 14 33  1  0  0  0  0
 15 16  1  0  0  0  0
 15 34  1  0  0  0  0
 15 35  1  0  0  0  0
 16 17  1  0  0  0  0
 16 18  1  0  0  0  0
 16 19  1  0  0  0  0
 17 36  1  0  0  0  0
 17 37  1  0  0  0  0
 17 38  1  0  0  0  0
 18 39  1  0  0  0  0
 18 40  1  0  0  0  0
 18 41  1  0  0  0  0
 19 20  1  0  0  0  0
 19 42  1  0  0  0  0
 19 43  1  0  0  0  0
 20 44  1  0  0  0  0
 20 45  1  0  0  0  0
M  END
> <s_m_source_file>
AV-unprocessed.smi

> <i_m_source_file_index>
673

> <i_lp_mmshare_version>
43012

> <i_f3d_flags>
0

> <s_epik_input>
bjFbY0hdbltjSF1uMVtDSDJdW0NAQEhdKFtDSDNdKVtOSF1DKD1PKU4oW0NIMl1bQ0gyXTIpW0NIMl1bQ0gyXVtDSDJdQzIoW0NIM10pW0NIM10=

> <s_epik_cmdline>
J2VwaWtfcHl0aG9uJywgJy1waCcsICc3LjAnLCAnLXRuJywgJzgnLCAnLW1hJywgJzIwMCcsICctbWV0YWxfYmluZGluZycsICctaW1hZScsICc8aW5maWxlLm1hZT4nLCAnLW9tYWUnLCAnPG91dGZpbGUubWFlPic=

> <r_lp_tautomer_probability>
1

> <r_epik_Ionization_Penalty>
0.000118908

> <r_epik_Ionization_Penalty_Charging>
0

> <r_epik_Ionization_Penalty_Neutral>
0.000118908

> <r_epik_State_Penalty>
-0

> <r_epik_Charging_Adjusted_Penalty>
0

> <i_epik_Tot_Q>
0

> <i_epik_Tot_abs_Q>
0

> <r_epik_Metal_State_Penalty>
-0

> <b_epik_Metal_Only>
0

> <s_lp_Force_Field>
OPLS_2005

> <r_lp_Energy>
39.1702

> <b_lp_Chiralities_Consistent>
1

> <s_lp_Variant>
AV-unprocessed.smi:673-2

> <Gold.Version>
5.8.1

> <Gold.Id.Protein>
6NUR|6NUR_protein|mol2

> <Gold.PLP.Fitness>
49.8642

> <Gold.PLP.PLP>
-48.5497

> <Gold.PLP.part.hbond>
-4.8192

> <Gold.PLP.part.metal>
0.0000

> <Gold.PLP.part.buried>
-6.3410

> <Gold.PLP.part.nonpolar>
-38.3206

> <Gold.PLP.part.repulsive>
0.1788

> <Gold.PLP.ligand.clash>
0.0607

> <Gold.PLP.ligand.torsion>
0.8556

> <Gold.PLP.Chemscore.Hbond>
1.0000

> <Gold.PLP.Chemscore.CHOScore>
0.0000

> <Gold.PLP.Chemscore.Metal>
0.0000

> <Gold.Chemscore.Hbonds>
donor molecule, donor type, donor heavy atom, donor atom, acceptor molecule, acceptor atom, score
      P1  H  7997  8008       L1    11  1.00

> <Gold.PLP.Chemscore.Internal.Correction>
0.0864

> <Gold.Rescore>
     Score         DG    S(hbond)    S(metal)    S(lipo)     H(rot)  DE(clash)    DE(int)     intcor
     13.80     -16.43       0.98        0.00     106.32       1.86       0.70       1.94       ----

> <Gold.Chemscore.Fitness>
13.7979

> <Gold.Chemscore.DG>
-16.4302

> <Gold.Chemscore.ZeroCoef>
-5.4800

> <Gold.Chemscore.Hbond>
0.9807

> <Gold.Chemscore.Metal>
0.0000

> <Gold.Chemscore.Lipo>
106.3248

> <Gold.Chemscore.Internal_Hbond>
0.0000

> <Gold.Chemscore.DEClash>
0.6966

> <Gold.Chemscore.DEInternal>
1.9357

> <Gold.Chemscore.Rot>
1.8614

> <Gold.Chemscore.Internal.Correction>
   9.000000E+99

> <Gold.Chemscore.Hbonds>
donor molecule, donor type, donor heavy atom, donor atom, acceptor molecule, acceptor atom, score
      P1  H  7997  8008       L1    11  0.99

> <Gold.Chemscore.Hbond.Weighted>
-3.2755

> <Gold.Chemscore.Metal.Weighted>
-0.0000

> <Gold.Chemscore.Lipo.Weighted>
-12.4400

> <Gold.Chemscore.Internal_Hbond.Weighted>
0.0000

> <Gold.Chemscore.DEClash.Weighted>
0.6966

> <Gold.Chemscore.DEInternal.Weighted>
1.9357

> <Gold.Chemscore.Rot.Weighted>
4.7653

> <Gold.Chemscore.Internal.Correction.Weighted>
   9.000000E+99

> <Gold.Protein.RotatedTorsions>
[ 6907 6896 6895 6894 ] final -144.39 input  -60.11 | X-H torsion
[ 7974 7965 7964 7962 ] final  129.99 input  175.53 | X-H torsion
[ 8008 7997 7996 7995 ] final -114.43 input   59.86 | X-H torsion
[ 10167 10162 10161 10158 ] final -103.19 input  -65.29 | X-H torsion
[ 10718 10713 10712 10709 ] final  -17.06 input   66.30 | X-H torsion
[ 10763 10752 10751 10750 ] final  -38.75 input  -60.55 | X-H torsion
[ 11005 11000 10999 10996 ] final  167.60 input  -57.11 | X-H torsion

> <Gold.Protein.ActiveResidues>
 VAL166  LYS551  ARG553  GLY616  TRP617  ASP618  TYR619  PRO620  LYS621  CYS622 
 ASP623  PHE694  ASN695  SER759  ASP760  ASP761  ALA762  ILE779  LEU786  VAL792 
 PHE793  MET794  SER795  GLU796  ALA797  LYS798  CYS799  TRP800  GLU811  SER814 

> <Gold.Protein.RotatedAtoms>
  151.1135  133.5156  159.2604 H   0  0  0  0  0  0  0  0  0  0  0  0  # atno 6907 bound_to 6896
  151.1941  135.0414  159.8855 H   0  0  0  0  0  0  0  0  0  0  0  0  # atno 6908 bound_to 6896
  152.5451  134.0971  159.8355 H   0  0  0  0  0  0  0  0  0  0  0  0  # atno 6909 bound_to 6896
  145.0227  139.4117  143.5189 H   0  0  0  0  0  0  0  0  0  0  0  0  # atno 7974 bound_to 7965
  155.0362  140.0392  157.2493 H   0  0  0  0  0  0  0  0  0  0  0  0  # atno 8008 bound_to 7997
  154.7254  140.2720  155.6479 H   0  0  0  0  0  0  0  0  0  0  0  0  # atno 8009 bound_to 7997
  156.2828  140.2694  156.1939 H   0  0  0  0  0  0  0  0  0  0  0  0  # atno 8010 bound_to 7997
  140.2226  143.3665  152.0956 H   0  0  0  0  0  0  0  0  0  0  0  0  # atno 10167 bound_to 10162
  156.5788  130.4769  149.6329 H   0  0  0  0  0  0  0  0  0  0  0  0  # atno 10718 bound_to 10713
  153.9179  135.6785  153.4748 H   0  0  0  0  0  0  0  0  0  0  0  0  # atno 10763 bound_to 10752
  153.1044  135.4813  154.8921 H   0  0  0  0  0  0  0  0  0  0  0  0  # atno 10764 bound_to 10752
  154.7493  135.3180  154.8543 H   0  0  0  0  0  0  0  0  0  0  0  0  # atno 10765 bound_to 10752
  140.2785  134.7769  157.3737 H   0  0  0  0  0  0  0  0  0  0  0  0  # atno 11005 bound_to 11000
  146.3488  139.9734  142.8704 LP  0  0  0  0  0  0  0  0  0  0  0  0  # atno 17320 bound_to 7965
  145.1874  140.9796  143.4231 LP  0  0  0  0  0  0  0  0  0  0  0  0  # atno 17321 bound_to 7965
  139.5139  144.6939  151.5684 LP  0  0  0  0  0  0  0  0  0  0  0  0  # atno 17342 bound_to 10162
  140.6244  143.9197  150.6552 LP  0  0  0  0  0  0  0  0  0  0  0  0  # atno 17343 bound_to 10162
  156.2650  130.6984  151.1764 LP  0  0  0  0  0  0  0  0  0  0  0  0  # atno 17370 bound_to 10713
  157.7331  131.0594  150.5593 LP  0  0  0  0  0  0  0  0  0  0  0  0  # atno 17371 bound_to 10713
  140.1306  134.5100  155.8109 LP  0  0  0  0  0  0  0  0  0  0  0  0  # atno 17394 bound_to 11000
  141.2166  133.6788  156.7032 LP  0  0  0  0  0  0  0  0  0  0  0  0  # atno 17395 bound_to 11000

$$$$
