AV-unprocessed.smi:3239|AV-procd|sdf|12380|dock8
  -GOLD-   2272018243D 1   1.00000     0.00000
 Structure written by MMmdl.
 35 35  0  0  0  0  0  0  0  0  1 V2000
  152.3849  144.9104  158.6141 C   0  0  0  0  0  0  0  0  0  0  0  0
  152.3095  143.6987  158.7456 C   0  0  0  0  0  0  0  0  0  0  0  0
  152.2220  142.2354  158.8858 C   0  0  0  0  0  0  0  0  0  0  0  0
  151.4759  141.6111  157.7991 N   0  0  0  0  0  0  0  0  0  0  0  0
  151.8115  140.4637  157.1851 C   0  0  0  0  0  0  0  0  0  0  0  0
  152.7974  139.7920  157.4904 O   0  0  0  0  0  0  0  0  0  0  0  0
  150.8584  139.9915  156.1253 C   0  0  0  0  0  0  0  0  0  0  0  0
  149.9773  140.8788  155.4671 C   0  0  0  0  0  0  0  0  0  0  0  0
  149.1231  140.3783  154.4655 C   0  0  0  0  0  0  0  0  0  0  0  0
  149.1792  139.0064  154.1445 C   0  0  0  0  0  0  0  0  0  0  0  0
  148.3275  138.5186  153.1418 N   0  0  0  0  0  0  0  0  0  0  0  0
  146.9573  138.9973  152.9864 C   0  0  1  0  0  0  0  0  0  0  0  0
  146.8130  139.8407  151.7072 C   0  0  0  0  0  0  0  0  0  0  0  0
  145.9840  137.8080  152.9892 C   0  0  0  0  0  0  0  0  0  0  0  0
  145.9823  137.1958  151.7101 O   0  0  0  0  0  0  0  0  0  0  0  0
  145.2229  136.0002  151.6802 C   0  0  0  0  0  0  0  0  0  0  0  0
  150.0299  138.1537  154.7621 N   0  0  0  0  0  0  0  0  0  0  0  0
  150.8466  138.6383  155.7219 C   0  0  0  0  0  0  0  0  0  0  0  0
  152.4496  145.9686  158.4956 H   0  0  0  0  0  0  0  0  0  0  0  0
  153.2367  141.8375  158.8912 H   0  0  0  0  0  0  0  0  0  0  0  0
  151.7808  142.0019  159.8560 H   0  0  0  0  0  0  0  0  0  0  0  0
  150.6338  142.0801  157.4991 H   0  0  0  0  0  0  0  0  0  0  0  0
  149.9498  141.9298  155.7155 H   0  0  0  0  0  0  0  0  0  0  0  0
  148.4405  141.0403  153.9527 H   0  0  0  0  0  0  0  0  0  0  0  0
  148.7017  137.9032  152.4343 H   0  0  0  0  0  0  0  0  0  0  0  0
  146.7089  139.6189  153.8473 H   0  0  0  0  0  0  0  0  0  0  0  0
  145.7971  140.2217  151.6003 H   0  0  0  0  0  0  0  0  0  0  0  0
  147.0421  139.2540  150.8172 H   0  0  0  0  0  0  0  0  0  0  0  0
  147.4813  140.7020  151.7173 H   0  0  0  0  0  0  0  0  0  0  0  0
  146.2644  137.0851  153.7576 H   0  0  0  0  0  0  0  0  0  0  0  0
  144.9750  138.1549  153.2194 H   0  0  0  0  0  0  0  0  0  0  0  0
  145.2519  135.5728  150.6779 H   0  0  0  0  0  0  0  0  0  0  0  0
  144.1794  136.1889  151.9354 H   0  0  0  0  0  0  0  0  0  0  0  0
  145.6253  135.2603  152.3733 H   0  0  0  0  0  0  0  0  0  0  0  0
  151.5058  137.9161  156.1814 H   0  0  0  0  0  0  0  0  0  0  0  0
  1  2  3  0  0  0  0
  1 19  1  0  0  0  0
  2  3  1  0  0  0  0
  3  4  1  0  0  0  0
  3 20  1  0  0  0  0
  3 21  1  0  0  0  0
  4  5  1  0  0  0  0
  4 22  1  0  0  0  0
  5  6  2  0  0  0  0
  5  7  1  0  0  0  0
  7 18  1  0  0  0  0
  7  8  2  0  0  0  0
  8  9  1  0  0  0  0
  8 23  1  0  0  0  0
  9 10  2  0  0  0  0
  9 24  1  0  0  0  0
 10 11  1  0  0  0  0
 10 17  1  0  0  0  0
 11 12  1  0  0  0  0
 11 25  1  0  0  0  0
 12 13  1  0  0  0  0
 12 14  1  0  0  0  0
 12 26  1  0  0  0  0
 13 27  1  0  0  0  0
 13 28  1  0  0  0  0
 13 29  1  0  0  0  0
 14 15  1  0  0  0  0
 14 30  1  0  0  0  0
 14 31  1  0  0  0  0
 15 16  1  0  0  0  0
 16 32  1  0  0  0  0
 16 33  1  0  0  0  0
 16 34  1  0  0  0  0
 17 18  2  0  0  0  0
 18 35  1  0  0  0  0
M  END
> <s_m_source_file>
AV-unprocessed.smi

> <i_m_source_file_index>
3239

> <i_lp_mmshare_version>
43012

> <i_f3d_flags>
0

> <s_epik_input>
W0NIXSNDW0NIMl1bTkhdQyg9TyljMVtjSF1bY0hdYyhuW2NIXTEpW05IXVtDQEhdKFtDSDNdKVtDSDJdT1tDSDNd

> <s_epik_cmdline>
J2VwaWtfcHl0aG9uJywgJy1waCcsICc3LjAnLCAnLXRuJywgJzgnLCAnLW1hJywgJzIwMCcsICctbWV0YWxfYmluZGluZycsICctaW1hZScsICc8aW5maWxlLm1hZT4nLCAnLW9tYWUnLCAnPG91dGZpbGUubWFlPic=

> <r_lp_tautomer_probability>
1

> <r_epik_Ionization_Penalty>
0.00321854

> <r_epik_Ionization_Penalty_Charging>
0

> <r_epik_Ionization_Penalty_Neutral>
0.00321854

> <r_epik_State_Penalty>
0.00226446

> <r_epik_Charging_Adjusted_Penalty>
0.00226446

> <i_epik_Tot_Q>
0

> <i_epik_Tot_abs_Q>
0

> <r_epik_Metal_State_Penalty>
-0

> <b_epik_Metal_Only>
0

> <s_lp_Force_Field>
OPLS_2005

> <r_lp_Energy>
6.06936

> <b_lp_Chiralities_Consistent>
1

> <s_lp_Variant>
AV-unprocessed.smi:3239-2

> <Gold.Version>
5.8.1

> <Gold.Id.Protein>
6NUR|6NUR_protein|mol2

> <Gold.PLP.Fitness>
40.6305

> <Gold.PLP.PLP>
-36.2001

> <Gold.PLP.part.hbond>
-3.0000

> <Gold.PLP.part.metal>
0.0000

> <Gold.PLP.part.buried>
-1.9797

> <Gold.PLP.part.nonpolar>
-32.9500

> <Gold.PLP.part.repulsive>
0.5769

> <Gold.PLP.ligand.clash>
0.0000

> <Gold.PLP.ligand.torsion>
0.8306

> <Gold.PLP.Chemscore.Hbond>
2.0000

> <Gold.PLP.Chemscore.CHOScore>
0.0000

> <Gold.PLP.Chemscore.Metal>
0.0000

> <Gold.Chemscore.Hbonds>
donor molecule, donor type, donor heavy atom, donor atom, acceptor molecule, acceptor atom, score
      L1  H    11    25       P1  7948  0.99
      P1  H  7997  8008       L1     6  1.00

> <Gold.PLP.Chemscore.Internal.Correction>
0.0916

> <Gold.Rescore>
     Score         DG    S(hbond)    S(metal)    S(lipo)     H(rot)  DE(clash)    DE(int)     intcor
     17.51     -18.60       1.99        0.00      90.73       1.62       0.50       0.60       ----

> <Gold.Chemscore.Fitness>
17.5062

> <Gold.Chemscore.DG>
-18.5975

> <Gold.Chemscore.ZeroCoef>
-5.4800

> <Gold.Chemscore.Hbond>
1.9899

> <Gold.Chemscore.Metal>
0.0000

> <Gold.Chemscore.Lipo>
90.7340

> <Gold.Chemscore.Internal_Hbond>
0.0000

> <Gold.Chemscore.DEClash>
0.4957

> <Gold.Chemscore.DEInternal>
0.5956

> <Gold.Chemscore.Rot>
1.6190

> <Gold.Chemscore.Internal.Correction>
   9.000000E+99

> <Gold.Chemscore.Hbonds>
donor molecule, donor type, donor heavy atom, donor atom, acceptor molecule, acceptor atom, score
      L1  H    11    25       P1  7948  0.94
      P1  H  7997  8008       L1     6  0.97

> <Gold.Chemscore.Hbond.Weighted>
-6.6463

> <Gold.Chemscore.Metal.Weighted>
-0.0000

> <Gold.Chemscore.Lipo.Weighted>
-10.6159

> <Gold.Chemscore.Internal_Hbond.Weighted>
0.0000

> <Gold.Chemscore.DEClash.Weighted>
0.4957

> <Gold.Chemscore.DEInternal.Weighted>
0.5956

> <Gold.Chemscore.Rot.Weighted>
4.1447

> <Gold.Chemscore.Internal.Correction.Weighted>
   9.000000E+99

> <Gold.Protein.RotatedTorsions>
[ 6907 6896 6895 6894 ] final  -82.65 input  -60.11 | X-H torsion
[ 7974 7965 7964 7962 ] final  -30.81 input  175.53 | X-H torsion
[ 8008 7997 7996 7995 ] final  -60.37 input   59.86 | X-H torsion
[ 10167 10162 10161 10158 ] final  -98.75 input  -65.29 | X-H torsion
[ 10718 10713 10712 10709 ] final   10.57 input   66.30 | X-H torsion
[ 10763 10752 10751 10750 ] final -101.82 input  -60.55 | X-H torsion
[ 11005 11000 10999 10996 ] final  -68.28 input  -57.11 | X-H torsion

> <Gold.Protein.ActiveResidues>
 VAL166  LYS551  ARG553  GLY616  TRP617  ASP618  TYR619  PRO620  LYS621  CYS622 
 ASP623  PHE694  ASN695  SER759  ASP760  ASP761  ALA762  ILE779  LEU786  VAL792 
 PHE793  MET794  SER795  GLU796  ALA797  LYS798  CYS799  TRP800  GLU811  SER814 

> <Gold.Protein.RotatedAtoms>
  150.6895  134.3633  159.4959 H   0  0  0  0  0  0  0  0  0  0  0  0  # atno 6907 bound_to 6896
  152.1458  134.9024  160.0560 H   0  0  0  0  0  0  0  0  0  0  0  0  # atno 6908 bound_to 6896
  152.0140  133.3838  159.4268 H   0  0  0  0  0  0  0  0  0  0  0  0  # atno 6909 bound_to 6896
  146.1115  140.5588  142.8776 H   0  0  0  0  0  0  0  0  0  0  0  0  # atno 7974 bound_to 7965
  154.4396  140.1041  156.6263 H   0  0  0  0  0  0  0  0  0  0  0  0  # atno 8008 bound_to 7997
  155.5652  140.3488  155.4483 H   0  0  0  0  0  0  0  0  0  0  0  0  # atno 8009 bound_to 7997
  156.0430  140.1286  157.0124 H   0  0  0  0  0  0  0  0  0  0  0  0  # atno 8010 bound_to 7997
  140.2696  143.3352  152.0547 H   0  0  0  0  0  0  0  0  0  0  0  0  # atno 10167 bound_to 10162
  156.9829  130.6012  149.5678 H   0  0  0  0  0  0  0  0  0  0  0  0  # atno 10718 bound_to 10713
  154.7687  135.4884  153.9605 H   0  0  0  0  0  0  0  0  0  0  0  0  # atno 10763 bound_to 10752
  153.1340  135.6759  153.9140 H   0  0  0  0  0  0  0  0  0  0  0  0  # atno 10764 bound_to 10752
  153.8835  135.3129  155.3424 H   0  0  0  0  0  0  0  0  0  0  0  0  # atno 10765 bound_to 10752
  141.1528  133.6737  156.6422 H   0  0  0  0  0  0  0  0  0  0  0  0  # atno 11005 bound_to 11000
  144.7515  140.5203  143.6798 LP  0  0  0  0  0  0  0  0  0  0  0  0  # atno 17320 bound_to 7965
  145.5655  139.1481  143.3318 LP  0  0  0  0  0  0  0  0  0  0  0  0  # atno 17321 bound_to 7965
  139.4992  144.6665  151.6344 LP  0  0  0  0  0  0  0  0  0  0  0  0  # atno 17342 bound_to 10162
  140.5900  143.9796  150.6319 LP  0  0  0  0  0  0  0  0  0  0  0  0  # atno 17343 bound_to 10162
  156.0237  130.5332  150.8348 LP  0  0  0  0  0  0  0  0  0  0  0  0  # atno 17370 bound_to 10713
  157.5513  131.0944  150.9691 LP  0  0  0  0  0  0  0  0  0  0  0  0  # atno 17371 bound_to 10713
  140.3385  134.7869  157.4379 LP  0  0  0  0  0  0  0  0  0  0  0  0  # atno 17394 bound_to 11000
  140.0958  134.5539  155.8400 LP  0  0  0  0  0  0  0  0  0  0  0  0  # atno 17395 bound_to 11000

$$$$
