AV-unprocessed.smi:1629|AV-procd|sdf|6523|dock2
  -GOLD-   22720 7203D 1   1.00000     0.00000
 Structure written by MMmdl.
 43 44  0  0  0  0  0  0  0  0  2 V2000
  149.3156  133.1262  155.8873 C   0  0  0  0  0  0  0  0  0  0  0  0
  148.7636  133.5564  157.5855 S   0  0  0  0  0  0  0  0  0  0  0  0
  147.2925  133.5285  157.5471 O   0  0  0  0  0  0  0  0  0  0  0  0
  149.4316  132.5962  158.4788 O   0  0  0  0  0  0  0  0  0  0  0  0
  149.3603  135.0586  157.7203 N   0  5  0  0  0  0  0  0  0  0  0  0
  149.5036  135.8923  156.5354 C   0  0  0  0  0  0  0  0  0  0  0  0
  150.9999  136.1408  156.2033 C   0  0  0  0  0  0  0  0  0  0  0  0
  151.2128  137.2152  155.1014 C   0  0  0  0  0  0  0  0  0  0  0  0
  150.5706  138.4937  155.4811 N   0  0  0  0  0  0  0  0  0  0  0  0
  151.1910  139.6622  155.7806 C   0  0  0  0  0  0  0  0  0  0  0  0
  152.3581  139.9086  155.4738 O   0  0  0  0  0  0  0  0  0  0  0  0
  150.4266  140.5453  156.4405 N   0  0  0  0  0  0  0  0  0  0  0  0
  150.8564  141.8658  156.8830 C   0  0  0  0  0  0  0  0  0  0  0  0
  151.7021  141.7784  158.1650 C   0  0  0  0  0  0  0  0  0  0  0  0
  151.8028  143.0979  158.9121 C   0  0  0  0  0  0  0  0  0  0  0  0
  152.1292  144.2903  158.2303 C   0  0  0  0  0  0  0  0  0  0  0  0
  152.1931  145.4885  158.9673 C   0  0  0  0  0  0  0  0  0  0  0  0
  151.9309  145.4487  160.3503 C   0  0  0  0  0  0  0  0  0  0  0  0
  151.6135  144.2075  160.9371 C   0  0  0  0  0  0  0  0  0  0  0  0
  151.5475  143.0532  160.2390 N   0  0  0  0  0  0  0  0  0  0  0  0
  149.1177  138.2983  155.6404 C   0  0  0  0  0  0  0  0  0  0  0  0
  148.8195  137.2658  156.7636 C   0  0  0  0  0  0  0  0  0  0  0  0
  148.9827  132.1176  155.6449 H   0  0  0  0  0  0  0  0  0  0  0  0
  150.4028  133.1725  155.8356 H   0  0  0  0  0  0  0  0  0  0  0  0
  148.8864  133.8315  155.1763 H   0  0  0  0  0  0  0  0  0  0  0  0
  149.0340  135.4349  155.6635 H   0  0  0  0  0  0  0  0  0  0  0  0
  151.5279  136.4586  157.1040 H   0  0  0  0  0  0  0  0  0  0  0  0
  151.4700  135.2088  155.8890 H   0  0  0  0  0  0  0  0  0  0  0  0
  152.2802  137.3077  154.9028 H   0  0  0  0  0  0  0  0  0  0  0  0
  150.7878  136.8794  154.1529 H   0  0  0  0  0  0  0  0  0  0  0  0
  149.4775  140.2774  156.6573 H   0  0  0  0  0  0  0  0  0  0  0  0
  151.4390  142.3274  156.0846 H   0  0  0  0  0  0  0  0  0  0  0  0
  149.9891  142.5046  157.0565 H   0  0  0  0  0  0  0  0  0  0  0  0
  151.2825  141.0234  158.8309 H   0  0  0  0  0  0  0  0  0  0  0  0
  152.7070  141.4347  157.9162 H   0  0  0  0  0  0  0  0  0  0  0  0
  152.3200  144.2896  157.1669 H   0  0  0  0  0  0  0  0  0  0  0  0
  152.4374  146.4210  158.4802 H   0  0  0  0  0  0  0  0  0  0  0  0
  151.9712  146.3476  160.9474 H   0  0  0  0  0  0  0  0  0  0  0  0
  151.4060  144.1402  161.9947 H   0  0  0  0  0  0  0  0  0  0  0  0
  148.6011  139.2304  155.8721 H   0  0  0  0  0  0  0  0  0  0  0  0
  148.6959  137.9688  154.6885 H   0  0  0  0  0  0  0  0  0  0  0  0
  147.7415  137.1281  156.8546 H   0  0  0  0  0  0  0  0  0  0  0  0
  149.1521  137.6869  157.7139 H   0  0  0  0  0  0  0  0  0  0  0  0
  1  2  1  0  0  0  0
  1 23  1  0  0  0  0
  1 24  1  0  0  0  0
  1 25  1  0  0  0  0
  2  3  2  0  0  0  0
  2  4  2  0  0  0  0
  2  5  1  0  0  0  0
  5  6  1  0  0  0  0
  6 22  1  0  0  0  0
  6  7  1  0  0  0  0
  6 26  1  0  0  0  0
  7  8  1  0  0  0  0
  7 27  1  0  0  0  0
  7 28  1  0  0  0  0
  8  9  1  0  0  0  0
  8 29  1  0  0  0  0
  8 30  1  0  0  0  0
  9 10  1  0  0  0  0
  9 21  1  0  0  0  0
 10 11  2  0  0  0  0
 10 12  1  0  0  0  0
 12 13  1  0  0  0  0
 12 31  1  0  0  0  0
 13 14  1  0  0  0  0
 13 32  1  0  0  0  0
 13 33  1  0  0  0  0
 14 15  1  0  0  0  0
 14 34  1  0  0  0  0
 14 35  1  0  0  0  0
 15 20  1  0  0  0  0
 15 16  2  0  0  0  0
 16 17  1  0  0  0  0
 16 36  1  0  0  0  0
 17 18  2  0  0  0  0
 17 37  1  0  0  0  0
 18 19  1  0  0  0  0
 18 38  1  0  0  0  0
 19 20  2  0  0  0  0
 19 39  1  0  0  0  0
 21 22  1  0  0  0  0
 21 40  1  0  0  0  0
 21 41  1  0  0  0  0
 22 42  1  0  0  0  0
 22 43  1  0  0  0  0
M  CHG  1   5  -1
M  END
> <s_m_source_file>
AV-unprocessed.smi

> <i_m_source_file_index>
1629

> <i_lp_mmshare_version>
43012

> <i_f3d_flags>
0

> <s_epik_input>
W0NIM11TKD1PKSg9TylbTkhdW0NIXTFbQ0gyXVtDSDJdTihbQ0gyXVtDSDJdMSlDKD1PKVtOSF1bQ0gyXVtDSDJdYzJbY0hdW2NIXVtjSF1bY0hdbjI=

> <s_epik_cmdline>
J2VwaWtfcHl0aG9uJywgJy1waCcsICc3LjAnLCAnLXRuJywgJzgnLCAnLW1hJywgJzIwMCcsICctbWV0YWxfYmluZGluZycsICctaW1hZScsICc8aW5maWxlLm1hZT4nLCAnLW9tYWUnLCAnPG91dGZpbGUubWFlPic=

> <r_epik_Ionization_Penalty>
6.75298

> <r_epik_Ionization_Penalty_Charging>
6.70803

> <r_epik_Ionization_Penalty_Neutral>
0.0449518

> <r_epik_State_Penalty>
6.74601

> <r_epik_Charging_Adjusted_Penalty>
13.454

> <i_epik_Tot_Q>
-1

> <i_epik_Tot_abs_Q>
1

> <r_epik_Metal_State_Penalty>
2.70902

> <b_epik_Metal_Only>
1

> <s_lp_Force_Field>
OPLS_2005

> <r_lp_Energy>
26.8071

> <b_lp_Chiralities_Consistent>
1

> <s_lp_Variant>
AV-unprocessed.smi:1629-3

> <Gold.Version>
5.8.1

> <Gold.Id.Protein>
6NUR|6NUR_protein|mol2

> <Gold.PLP.Fitness>
43.5801

> <Gold.PLP.PLP>
-39.2946

> <Gold.PLP.part.hbond>
-3.5641

> <Gold.PLP.part.metal>
0.0000

> <Gold.PLP.part.buried>
-3.5271

> <Gold.PLP.part.nonpolar>
-32.3923

> <Gold.PLP.part.repulsive>
0.1085

> <Gold.PLP.ligand.clash>
1.0583

> <Gold.PLP.ligand.torsion>
1.0862

> <Gold.PLP.Chemscore.Hbond>
2.1549

> <Gold.PLP.Chemscore.CHOScore>
0.0000

> <Gold.PLP.Chemscore.Metal>
0.0000

> <Gold.Chemscore.Hbonds>
donor molecule, donor type, donor heavy atom, donor atom, acceptor molecule, acceptor atom, score
      P1  H  6896  6907       L1     4  1.00
      P1  H  7989  7998       L1    11  0.13
      P1  H  7997  8009       L1    11  0.75

> <Gold.PLP.Chemscore.Internal.Correction>
1.0516

> <Gold.Rescore>
     Score         DG    S(hbond)    S(metal)    S(lipo)     H(rot)  DE(clash)    DE(int)     intcor
     17.45     -18.58       1.64        0.00     101.87       1.68       0.03       1.10       ----

> <Gold.Chemscore.Fitness>
17.4459

> <Gold.Chemscore.DG>
-18.5808

> <Gold.Chemscore.ZeroCoef>
-5.4800

> <Gold.Chemscore.Hbond>
1.6426

> <Gold.Chemscore.Metal>
0.0000

> <Gold.Chemscore.Lipo>
101.8689

> <Gold.Chemscore.Internal_Hbond>
0.0000

> <Gold.Chemscore.DEClash>
0.0311

> <Gold.Chemscore.DEInternal>
1.1038

> <Gold.Chemscore.Rot>
1.6813

> <Gold.Chemscore.Internal.Correction>
   9.000000E+99

> <Gold.Chemscore.Hbonds>
donor molecule, donor type, donor heavy atom, donor atom, acceptor molecule, acceptor atom, score
      P1  H  6896  6907       L1     4  0.54
      P1  H  7989  7998       L1    11  0.01
      P1  H  7997  8009       L1    11  0.75

> <Gold.Chemscore.Hbond.Weighted>
-5.4864

> <Gold.Chemscore.Metal.Weighted>
-0.0000

> <Gold.Chemscore.Lipo.Weighted>
-11.9187

> <Gold.Chemscore.Internal_Hbond.Weighted>
0.0000

> <Gold.Chemscore.DEClash.Weighted>
0.0311

> <Gold.Chemscore.DEInternal.Weighted>
1.1038

> <Gold.Chemscore.Rot.Weighted>
4.3042

> <Gold.Chemscore.Internal.Correction.Weighted>
   9.000000E+99

> <Gold.Protein.RotatedTorsions>
[ 6907 6896 6895 6894 ] final -136.63 input  -60.11 | X-H torsion
[ 7974 7965 7964 7962 ] final   54.64 input  175.53 | X-H torsion
[ 8008 7997 7996 7995 ] final -140.01 input   59.86 | X-H torsion
[ 10167 10162 10161 10158 ] final  108.28 input  -65.29 | X-H torsion
[ 10718 10713 10712 10709 ] final   51.26 input   66.30 | X-H torsion
[ 10763 10752 10751 10750 ] final  -81.65 input  -60.55 | X-H torsion
[ 11005 11000 10999 10996 ] final -118.01 input  -57.11 | X-H torsion

> <Gold.Protein.ActiveResidues>
 VAL166  LYS551  ARG553  GLY616  TRP617  ASP618  TYR619  PRO620  LYS621  CYS622 
 ASP623  PHE694  ASN695  SER759  ASP760  ASP761  ALA762  ILE779  LEU786  VAL792 
 PHE793  MET794  SER795  GLU796  ALA797  LYS798  CYS799  TRP800  GLU811  SER814 

> <Gold.Protein.RotatedAtoms>
  151.0124  133.5952  159.2680 H   0  0  0  0  0  0  0  0  0  0  0  0  # atno 6907 bound_to 6896
  151.3099  135.0790  159.9278 H   0  0  0  0  0  0  0  0  0  0  0  0  # atno 6908 bound_to 6896
  152.5303  133.9791  159.7852 H   0  0  0  0  0  0  0  0  0  0  0  0  # atno 6909 bound_to 6896
  145.9588  139.4039  143.0261 H   0  0  0  0  0  0  0  0  0  0  0  0  # atno 7974 bound_to 7965
  155.4543  140.0541  157.2998 H   0  0  0  0  0  0  0  0  0  0  0  0  # atno 8008 bound_to 7997
  154.4764  140.2063  155.9824 H   0  0  0  0  0  0  0  0  0  0  0  0  # atno 8009 bound_to 7997
  156.1138  140.3199  155.8115 H   0  0  0  0  0  0  0  0  0  0  0  0  # atno 8010 bound_to 7997
  139.6859  144.7113  151.1433 H   0  0  0  0  0  0  0  0  0  0  0  0  # atno 10167 bound_to 10162
  157.4964  130.8409  149.8263 H   0  0  0  0  0  0  0  0  0  0  0  0  # atno 10718 bound_to 10713
  154.5661  135.5619  153.7052 H   0  0  0  0  0  0  0  0  0  0  0  0  # atno 10763 bound_to 10752
  153.0033  135.6286  154.2178 H   0  0  0  0  0  0  0  0  0  0  0  0  # atno 10764 bound_to 10752
  154.2116  135.2873  155.2936 H   0  0  0  0  0  0  0  0  0  0  0  0  # atno 10765 bound_to 10752
  141.0315  133.9974  157.3135 H   0  0  0  0  0  0  0  0  0  0  0  0  # atno 11005 bound_to 11000
  145.8069  140.9744  143.0969 LP  0  0  0  0  0  0  0  0  0  0  0  0  # atno 17320 bound_to 7965
  144.6810  139.9872  143.7484 LP  0  0  0  0  0  0  0  0  0  0  0  0  # atno 17321 bound_to 7965
  140.7667  143.5630  150.9078 LP  0  0  0  0  0  0  0  0  0  0  0  0  # atno 17342 bound_to 10162
  139.9305  143.6499  152.3077 LP  0  0  0  0  0  0  0  0  0  0  0  0  # atno 17343 bound_to 10162
  156.0203  130.3798  150.1983 LP  0  0  0  0  0  0  0  0  0  0  0  0  # atno 17370 bound_to 10713
  157.0173  130.9969  151.3349 LP  0  0  0  0  0  0  0  0  0  0  0  0  # atno 17371 bound_to 10713
  139.9211  135.0200  156.8068 LP  0  0  0  0  0  0  0  0  0  0  0  0  # atno 17394 bound_to 11000
  140.6398  133.9829  155.7702 LP  0  0  0  0  0  0  0  0  0  0  0  0  # atno 17395 bound_to 11000

$$$$
