AV-unprocessed.smi:2973|AV-procd|sdf|11350|dock9
  -GOLD-   2272016263D 1   1.00000     0.00000
 Structure written by MMmdl.
 49 51  0  0  0  0  0  0  0  0  3 V2000
  146.6592  137.3294  162.0276 C   0  0  0  0  0  0  0  0  0  0  0  0
  147.0320  135.8508  161.7831 C   0  0  1  0  0  0  0  0  0  0  0  0
  146.1431  134.9140  162.6298 C   0  0  0  0  0  0  0  0  0  0  0  0
  146.5656  133.4442  162.4892 C   0  0  0  0  0  0  0  0  0  0  0  0
  146.5499  133.0021  161.0202 C   0  0  0  0  0  0  0  0  0  0  0  0
  147.4363  133.9146  160.1553 C   0  0  0  0  0  0  0  0  0  0  0  0
  147.0573  135.4136  160.2821 C   0  0  1  0  0  0  0  0  0  0  0  0
  145.7869  135.6660  159.6203 N   0  5  0  0  0  0  0  0  0  0  0  0
  145.9918  136.4991  158.5741 C   0  0  0  0  0  0  0  0  0  0  0  0
  145.1438  136.9067  157.7815 O   0  0  0  0  0  0  0  0  0  0  0  0
  147.2903  136.8429  158.4781 N   0  0  0  0  0  0  0  0  0  0  0  0
  147.8668  137.6944  157.4257 C   0  0  0  0  0  0  0  0  0  0  0  0
  147.8025  139.2044  157.7173 C   0  0  0  0  0  0  0  0  0  0  0  0
  146.7186  139.7152  157.9984 O   0  0  0  0  0  0  0  0  0  0  0  0
  148.9451  139.9104  157.6673 N   0  0  0  0  0  0  0  0  0  0  0  0
  149.0736  141.3320  157.9555 C   0  0  0  0  0  0  0  0  0  0  0  0
  150.3796  141.9015  157.3783 C   0  0  0  0  0  0  0  0  0  0  0  0
  150.9386  143.0283  158.2238 C   0  0  0  0  0  0  0  0  0  0  0  0
  151.8378  142.7956  159.2868 C   0  0  0  0  0  0  0  0  0  0  0  0
  152.3226  143.8914  160.0311 C   0  0  0  0  0  0  0  0  0  0  0  0
  151.9002  145.1946  159.6960 C   0  0  0  0  0  0  0  0  0  0  0  0
  151.0011  145.3693  158.6241 C   0  0  0  0  0  0  0  0  0  0  0  0
  150.5586  144.2942  157.9358 N   0  3  0  0  0  0  0  0  0  0  0  0
  148.0072  136.2559  159.4432 C   0  0  0  0  0  0  0  0  0  0  0  0
  149.2211  136.3439  159.6338 O   0  0  0  0  0  0  0  0  0  0  0  0
  145.6457  137.5489  161.6907 H   0  0  0  0  0  0  0  0  0  0  0  0
  147.3363  138.0109  161.5130 H   0  0  0  0  0  0  0  0  0  0  0  0
  146.7090  137.5712  163.0894 H   0  0  0  0  0  0  0  0  0  0  0  0
  148.0481  135.7317  162.1636 H   0  0  0  0  0  0  0  0  0  0  0  0
  146.1944  135.2022  163.6802 H   0  0  0  0  0  0  0  0  0  0  0  0
  145.0990  135.0242  162.3342 H   0  0  0  0  0  0  0  0  0  0  0  0
  147.5662  133.3095  162.9015 H   0  0  0  0  0  0  0  0  0  0  0  0
  145.9007  132.8089  163.0746 H   0  0  0  0  0  0  0  0  0  0  0  0
  146.8920  131.9702  160.9398 H   0  0  0  0  0  0  0  0  0  0  0  0
  145.5263  133.0158  160.6439 H   0  0  0  0  0  0  0  0  0  0  0  0
  148.4741  133.7737  160.4613 H   0  0  0  0  0  0  0  0  0  0  0  0
  147.3861  133.5900  159.1144 H   0  0  0  0  0  0  0  0  0  0  0  0
  148.9087  137.4221  157.2512 H   0  0  0  0  0  0  0  0  0  0  0  0
  147.3552  137.5046  156.4807 H   0  0  0  0  0  0  0  0  0  0  0  0
  149.7904  139.4150  157.4195 H   0  0  0  0  0  0  0  0  0  0  0  0
  148.2177  141.8434  157.5141 H   0  0  0  0  0  0  0  0  0  0  0  0
  149.0175  141.5013  159.0321 H   0  0  0  0  0  0  0  0  0  0  0  0
  151.1339  141.1171  157.2992 H   0  0  0  0  0  0  0  0  0  0  0  0
  150.2095  142.2658  156.3641 H   0  0  0  0  0  0  0  0  0  0  0  0
  152.1539  141.7911  159.5292 H   0  0  0  0  0  0  0  0  0  0  0  0
  153.0109  143.7344  160.8488 H   0  0  0  0  0  0  0  0  0  0  0  0
  152.2600  146.0472  160.2535 H   0  0  0  0  0  0  0  0  0  0  0  0
  150.6252  146.3286  158.2992 H   0  0  0  0  0  0  0  0  0  0  0  0
  149.9089  144.4429  157.1631 H   0  0  0  0  0  0  0  0  0  0  0  0
  1  2  1  0  0  0  0
  1 26  1  0  0  0  0
  1 27  1  0  0  0  0
  1 28  1  0  0  0  0
  2  7  1  0  0  0  0
  2  3  1  0  0  0  0
  2 29  1  0  0  0  0
  3  4  1  0  0  0  0
  3 30  1  0  0  0  0
  3 31  1  0  0  0  0
  4  5  1  0  0  0  0
  4 32  1  0  0  0  0
  4 33  1  0  0  0  0
  5  6  1  0  0  0  0
  5 34  1  0  0  0  0
  5 35  1  0  0  0  0
  6  7  1  0  0  0  0
  6 36  1  0  0  0  0
  6 37  1  0  0  0  0
  7 24  1  0  0  0  0
  7  8  1  0  0  0  0
  8  9  1  0  0  0  0
  9 10  2  0  0  0  0
  9 11  1  0  0  0  0
 11 12  1  0  0  0  0
 11 24  1  0  0  0  0
 12 13  1  0  0  0  0
 12 38  1  0  0  0  0
 12 39  1  0  0  0  0
 13 14  2  0  0  0  0
 13 15  1  0  0  0  0
 15 16  1  0  0  0  0
 15 40  1  0  0  0  0
 16 17  1  0  0  0  0
 16 41  1  0  0  0  0
 16 42  1  0  0  0  0
 17 18  1  0  0  0  0
 17 43  1  0  0  0  0
 17 44  1  0  0  0  0
 18 23  1  0  0  0  0
 18 19  2  0  0  0  0
 19 20  1  0  0  0  0
 19 45  1  0  0  0  0
 20 21  2  0  0  0  0
 20 46  1  0  0  0  0
 21 22  1  0  0  0  0
 21 47  1  0  0  0  0
 22 23  2  0  0  0  0
 22 48  1  0  0  0  0
 23 49  1  0  0  0  0
 24 25  2  0  0  0  0
M  CHG  1   8  -1
M  CHG  1  23   1
M  END
> <s_m_source_file>
AV-unprocessed.smi

> <i_m_source_file_index>
2973

> <i_lp_mmshare_version>
43012

> <i_f3d_flags>
0

> <s_epik_input>
W0NIMl0xW0NIMl1bQ0gyXVtDSDJdW0NAQEhdKFtDSDNdKVtDQF0xMltOSF1DKD1PKU4oQzI9TylbQ0gyXUMoPU8pW05IXVtDSDJdW0NIMl1jM1tjSF1bY0hdW2NIXVtjSF1uMw==

> <s_epik_cmdline>
J2VwaWtfcHl0aG9uJywgJy1waCcsICc3LjAnLCAnLXRuJywgJzgnLCAnLW1hJywgJzIwMCcsICctbWV0YWxfYmluZGluZycsICctaW1hZScsICc8aW5maWxlLm1hZT4nLCAnLW9tYWUnLCAnPG91dGZpbGUubWFlPic=

> <r_lp_tautomer_probability>
1

> <r_epik_Ionization_Penalty>
7.89073

> <r_epik_Ionization_Penalty_Charging>
7.89073

> <r_epik_Ionization_Penalty_Neutral>
1.56557e-07

> <r_epik_State_Penalty>
8.01193

> <r_epik_Charging_Adjusted_Penalty>
15.9027

> <i_epik_Tot_Q>
0

> <i_epik_Tot_abs_Q>
2

> <r_epik_Metal_State_Penalty>
3.98737

> <b_epik_Metal_Only>
1

> <s_lp_Force_Field>
OPLS_2005

> <r_lp_Energy>
20.3817

> <b_lp_Chiralities_Consistent>
1

> <s_lp_Variant>
AV-unprocessed.smi:2973-14

> <Gold.Version>
5.8.1

> <Gold.Id.Protein>
6NUR|6NUR_protein|mol2

> <Gold.PLP.Fitness>
48.4934

> <Gold.PLP.PLP>
-41.6388

> <Gold.PLP.part.hbond>
-3.4580

> <Gold.PLP.part.metal>
0.0000

> <Gold.PLP.part.buried>
-3.9907

> <Gold.PLP.part.nonpolar>
-33.7857

> <Gold.PLP.part.repulsive>
0.1850

> <Gold.PLP.ligand.clash>
0.0000

> <Gold.PLP.ligand.torsion>
1.0913

> <Gold.PLP.Chemscore.Hbond>
3.0000

> <Gold.PLP.Chemscore.CHOScore>
0.0000

> <Gold.PLP.Chemscore.Metal>
0.0000

> <Gold.Chemscore.Hbonds>
donor molecule, donor type, donor heavy atom, donor atom, acceptor molecule, acceptor atom, score
      L1  H    23    49       P1  8028  2.00
      P1  H  6896  6908       L1    25  0.47

> <Gold.PLP.Chemscore.Internal.Correction>
0.0373

> <Gold.Rescore>
     Score         DG    S(hbond)    S(metal)    S(lipo)     H(rot)  DE(clash)    DE(int)     intcor
     19.48     -20.55       1.97        0.00     114.56       1.92       0.08       1.00       ----

> <Gold.Chemscore.Fitness>
19.4772

> <Gold.Chemscore.DG>
-20.5535

> <Gold.Chemscore.ZeroCoef>
-5.4800

> <Gold.Chemscore.Hbond>
1.9697

> <Gold.Chemscore.Metal>
0.0000

> <Gold.Chemscore.Lipo>
114.5604

> <Gold.Chemscore.Internal_Hbond>
0.0000

> <Gold.Chemscore.DEClash>
0.0800

> <Gold.Chemscore.DEInternal>
0.9963

> <Gold.Chemscore.Rot>
1.9175

> <Gold.Chemscore.Internal.Correction>
   9.000000E+99

> <Gold.Chemscore.Hbonds>
donor molecule, donor type, donor heavy atom, donor atom, acceptor molecule, acceptor atom, score
      L1  H    23    49       P1  8028  0.45
      P1  H  6896  6908       L1    25  0.47

> <Gold.Chemscore.Hbond.Weighted>
-6.5787

> <Gold.Chemscore.Metal.Weighted>
-0.0000

> <Gold.Chemscore.Lipo.Weighted>
-13.4036

> <Gold.Chemscore.Internal_Hbond.Weighted>
0.0000

> <Gold.Chemscore.DEClash.Weighted>
0.0800

> <Gold.Chemscore.DEInternal.Weighted>
0.9963

> <Gold.Chemscore.Rot.Weighted>
4.9087

> <Gold.Chemscore.Internal.Correction.Weighted>
   9.000000E+99

> <Gold.Protein.RotatedTorsions>
[ 6907 6896 6895 6894 ] final  174.01 input  -60.11 | X-H torsion
[ 7974 7965 7964 7962 ] final   59.90 input  175.53 | X-H torsion
[ 8008 7997 7996 7995 ] final  106.66 input   59.86 | X-H torsion
[ 10167 10162 10161 10158 ] final   81.93 input  -65.29 | X-H torsion
[ 10718 10713 10712 10709 ] final  -70.52 input   66.30 | X-H torsion
[ 10763 10752 10751 10750 ] final   44.04 input  -60.55 | X-H torsion
[ 11005 11000 10999 10996 ] final -108.51 input  -57.11 | X-H torsion

> <Gold.Protein.ActiveResidues>
 VAL166  LYS551  ARG553  GLY616  TRP617  ASP618  TYR619  PRO620  LYS621  CYS622 
 ASP623  PHE694  ASN695  SER759  ASP760  ASP761  ALA762  ILE779  LEU786  VAL792 
 PHE793  MET794  SER795  GLU796  ALA797  LYS798  CYS799  TRP800  GLU811  SER814 

> <Gold.Protein.RotatedAtoms>
  151.7591  133.3332  159.3412 H   0  0  0  0  0  0  0  0  0  0  0  0  # atno 6907 bound_to 6896
  150.7505  134.6122  159.6101 H   0  0  0  0  0  0  0  0  0  0  0  0  # atno 6908 bound_to 6896
  152.3417  134.7127  160.0313 H   0  0  0  0  0  0  0  0  0  0  0  0  # atno 6909 bound_to 6896
  145.9020  139.3589  143.0586 H   0  0  0  0  0  0  0  0  0  0  0  0  # atno 7974 bound_to 7965
  156.1761  140.3109  155.9061 H   0  0  0  0  0  0  0  0  0  0  0  0  # atno 8008 bound_to 7997
  155.3485  140.0469  157.3063 H   0  0  0  0  0  0  0  0  0  0  0  0  # atno 8009 bound_to 7997
  154.5292  140.2224  155.8846 H   0  0  0  0  0  0  0  0  0  0  0  0  # atno 8010 bound_to 7997
  139.9341  144.6132  150.8315 H   0  0  0  0  0  0  0  0  0  0  0  0  # atno 10167 bound_to 10162
  156.0404  130.4333  150.2308 H   0  0  0  0  0  0  0  0  0  0  0  0  # atno 10718 bound_to 10713
  152.9849  135.6083  154.3209 H   0  0  0  0  0  0  0  0  0  0  0  0  # atno 10763 bound_to 10752
  154.2919  135.2774  155.2653 H   0  0  0  0  0  0  0  0  0  0  0  0  # atno 10764 bound_to 10752
  154.4944  135.5883  153.6540 H   0  0  0  0  0  0  0  0  0  0  0  0  # atno 10765 bound_to 10752
  141.0897  133.9076  157.2103 H   0  0  0  0  0  0  0  0  0  0  0  0  # atno 11005 bound_to 11000
  145.8778  140.9381  143.0617 LP  0  0  0  0  0  0  0  0  0  0  0  0  # atno 17320 bound_to 7965
  144.6736  140.0740  143.7472 LP  0  0  0  0  0  0  0  0  0  0  0  0  # atno 17321 bound_to 7965
  140.7629  143.3210  151.2622 LP  0  0  0  0  0  0  0  0  0  0  0  0  # atno 17342 bound_to 10162
  139.6758  143.9941  152.2780 LP  0  0  0  0  0  0  0  0  0  0  0  0  # atno 17343 bound_to 10162
  157.0404  131.0033  151.3285 LP  0  0  0  0  0  0  0  0  0  0  0  0  # atno 17370 bound_to 10713
  157.5214  130.8000  149.7813 LP  0  0  0  0  0  0  0  0  0  0  0  0  # atno 17371 bound_to 10713
  139.9721  135.0125  156.9539 LP  0  0  0  0  0  0  0  0  0  0  0  0  # atno 17394 bound_to 11000
  140.5280  134.0842  155.7308 LP  0  0  0  0  0  0  0  0  0  0  0  0  # atno 17395 bound_to 11000

$$$$
