AV-unprocessed.smi:1703|AV-procd|sdf|6856|dock6
  -GOLD-   22720 8 43D 1   1.00000     0.00000
 Structure written by MMmdl.
 48 50  0  0  0  0  0  0  0  0  1 V2000
  156.0021  139.8784  162.9612 C   0  0  0  0  0  0  0  0  0  0  0  0
  155.6319  138.6112  162.1840 C   0  0  2  0  0  0  0  0  0  0  0  0
  154.4618  138.8451  161.2089 C   0  0  0  0  0  0  0  0  0  0  0  0
  154.0646  137.6142  160.5283 N   0  0  0  0  0  0  0  0  0  0  0  0
  152.9433  137.8087  159.6069 C   0  0  0  0  0  0  0  0  0  0  0  0
  152.9312  139.1512  158.8489 C   0  0  1  0  0  0  0  0  0  0  0  0
  153.8012  139.0463  157.7392 O   0  0  0  0  0  0  0  0  0  0  0  0
  151.5164  139.5070  158.3527 C   0  0  0  0  0  0  0  0  0  0  0  0
  151.3708  140.9208  158.0285 N   0  0  0  0  0  0  0  0  0  0  0  0
  150.8447  141.4736  156.9060 C   0  0  0  0  0  0  0  0  0  0  0  0
  150.3091  140.6257  155.7869 C   0  0  0  0  0  0  0  0  0  0  0  0
  151.3064  140.1462  154.9080 O   0  0  0  0  0  0  0  0  0  0  0  0
  150.8260  142.8083  156.8750 N   0  0  0  0  0  0  0  0  0  0  0  0
  151.3983  143.1515  158.0839 C   0  0  0  0  0  0  0  0  0  0  0  0
  151.6638  144.4206  158.6466 C   0  0  0  0  0  0  0  0  0  0  0  0
  152.2626  144.5257  159.9191 C   0  0  0  0  0  0  0  0  0  0  0  0
  152.6025  143.3663  160.6458 C   0  0  0  0  0  0  0  0  0  0  0  0
  152.3467  142.0924  160.1028 C   0  0  0  0  0  0  0  0  0  0  0  0
  151.7505  141.9927  158.8313 C   0  0  0  0  0  0  0  0  0  0  0  0
  153.7442  136.6052  161.5318 C   0  0  0  0  0  0  0  0  0  0  0  0
  154.9145  136.3654  162.5047 C   0  0  2  0  0  0  0  0  0  0  0  0
  154.5584  135.3635  163.6079 C   0  0  0  0  0  0  0  0  0  0  0  0
  155.2656  137.6015  163.1200 O   0  0  0  0  0  0  0  0  0  0  0  0
  156.3121  140.6760  162.2858 H   0  0  0  0  0  0  0  0  0  0  0  0
  156.8260  139.6867  163.6492 H   0  0  0  0  0  0  0  0  0  0  0  0
  155.1576  140.2438  163.5465 H   0  0  0  0  0  0  0  0  0  0  0  0
  156.5081  138.2744  161.6272 H   0  0  0  0  0  0  0  0  0  0  0  0
  153.6101  139.2566  161.7534 H   0  0  0  0  0  0  0  0  0  0  0  0
  154.7640  139.6004  160.4851 H   0  0  0  0  0  0  0  0  0  0  0  0
  152.9429  137.0065  158.8670 H   0  0  0  0  0  0  0  0  0  0  0  0
  152.0079  137.6997  160.1582 H   0  0  0  0  0  0  0  0  0  0  0  0
  153.2867  139.9572  159.4883 H   0  0  0  0  0  0  0  0  0  0  0  0
  154.0468  138.1389  157.6392 H   0  0  0  0  0  0  0  0  0  0  0  0
  151.2702  138.9207  157.4666 H   0  0  0  0  0  0  0  0  0  0  0  0
  150.7729  139.2367  159.1018 H   0  0  0  0  0  0  0  0  0  0  0  0
  149.7863  139.7632  156.1992 H   0  0  0  0  0  0  0  0  0  0  0  0
  149.5868  141.2061  155.2131 H   0  0  0  0  0  0  0  0  0  0  0  0
  151.1705  139.2195  154.7822 H   0  0  0  0  0  0  0  0  0  0  0  0
  151.4056  145.3145  158.0983 H   0  0  0  0  0  0  0  0  0  0  0  0
  152.4605  145.5005  160.3402 H   0  0  0  0  0  0  0  0  0  0  0  0
  153.0587  143.4551  161.6208 H   0  0  0  0  0  0  0  0  0  0  0  0
  152.6016  141.2027  160.6593 H   0  0  0  0  0  0  0  0  0  0  0  0
  152.8605  136.9122  162.0940 H   0  0  0  0  0  0  0  0  0  0  0  0
  153.4885  135.6660  161.0399 H   0  0  0  0  0  0  0  0  0  0  0  0
  155.7766  135.9871  161.9527 H   0  0  0  0  0  0  0  0  0  0  0  0
  154.2869  134.3954  163.1867 H   0  0  0  0  0  0  0  0  0  0  0  0
  153.7180  135.7168  164.2058 H   0  0  0  0  0  0  0  0  0  0  0  0
  155.4033  135.2084  164.2792 H   0  0  0  0  0  0  0  0  0  0  0  0
  1  2  1  0  0  0  0
  1 24  1  0  0  0  0
  1 25  1  0  0  0  0
  1 26  1  0  0  0  0
  2 23  1  0  0  0  0
  2  3  1  0  0  0  0
  2 27  1  0  0  0  0
  3  4  1  0  0  0  0
  3 28  1  0  0  0  0
  3 29  1  0  0  0  0
  4  5  1  0  0  0  0
  4 20  1  0  0  0  0
  5  6  1  0  0  0  0
  5 30  1  0  0  0  0
  5 31  1  0  0  0  0
  6  7  1  0  0  0  0
  6  8  1  0  0  0  0
  6 32  1  0  0  0  0
  7 33  1  0  0  0  0
  8  9  1  0  0  0  0
  8 34  1  0  0  0  0
  8 35  1  0  0  0  0
  9 19  1  0  0  0  0
  9 10  1  0  0  0  0
 10 11  1  0  0  0  0
 10 13  2  0  0  0  0
 11 12  1  0  0  0  0
 11 36  1  0  0  0  0
 11 37  1  0  0  0  0
 12 38  1  0  0  0  0
 13 14  1  0  0  0  0
 14 19  2  0  0  0  0
 14 15  1  0  0  0  0
 15 16  2  0  0  0  0
 15 39  1  0  0  0  0
 16 17  1  0  0  0  0
 16 40  1  0  0  0  0
 17 18  2  0  0  0  0
 17 41  1  0  0  0  0
 18 19  1  0  0  0  0
 18 42  1  0  0  0  0
 20 21  1  0  0  0  0
 20 43  1  0  0  0  0
 20 44  1  0  0  0  0
 21 22  1  0  0  0  0
 21 23  1  0  0  0  0
 21 45  1  0  0  0  0
 22 46  1  0  0  0  0
 22 47  1  0  0  0  0
 22 48  1  0  0  0  0
M  END
> <s_m_source_file>
AV-unprocessed.smi

> <i_m_source_file_index>
1703

> <i_lp_mmshare_version>
43012

> <i_f3d_flags>
0

> <s_epik_input>
W0NIM11bQ0BASF0xW0NIMl1OKFtDSDJdW0NASF0oTzEpW0NIM10pW0NIMl1bQ0BIXShbT0hdKVtDSDJdbihjKG4yKVtDSDJdW09IXSljKGMyMylbY0hdW2NIXVtjSF1bY0hdMw==

> <s_epik_cmdline>
J2VwaWtfcHl0aG9uJywgJy1waCcsICc3LjAnLCAnLXRuJywgJzgnLCAnLW1hJywgJzIwMCcsICctbWV0YWxfYmluZGluZycsICctaW1hZScsICc8aW5maWxlLm1hZT4nLCAnLW9tYWUnLCAnPG91dGZpbGUubWFlPic=

> <r_epik_Ionization_Penalty>
0.307685

> <r_epik_Ionization_Penalty_Charging>
0

> <r_epik_Ionization_Penalty_Neutral>
0.307685

> <r_epik_State_Penalty>
0.277856

> <r_epik_Charging_Adjusted_Penalty>
0.277856

> <i_epik_Tot_Q>
0

> <i_epik_Tot_abs_Q>
0

> <r_epik_Metal_State_Penalty>
0.238959

> <b_epik_Metal_Only>
0

> <s_lp_Force_Field>
OPLS_2005

> <r_lp_Energy>
30.3815

> <b_lp_Chiralities_Consistent>
1

> <s_lp_Variant>
AV-unprocessed.smi:1703-4

> <Gold.Version>
5.8.1

> <Gold.Id.Protein>
6NUR|6NUR_protein|mol2

> <Gold.PLP.Fitness>
52.4129

> <Gold.PLP.PLP>
-48.4269

> <Gold.PLP.part.hbond>
-2.0000

> <Gold.PLP.part.metal>
0.0000

> <Gold.PLP.part.buried>
-5.5486

> <Gold.PLP.part.nonpolar>
-41.6774

> <Gold.PLP.part.repulsive>
0.4887

> <Gold.PLP.ligand.clash>
0.0000

> <Gold.PLP.ligand.torsion>
1.0400

> <Gold.PLP.Chemscore.Hbond>
2.0000

> <Gold.PLP.Chemscore.CHOScore>
0.0000

> <Gold.PLP.Chemscore.Metal>
0.0000

> <Gold.Chemscore.Hbonds>
donor molecule, donor type, donor heavy atom, donor atom, acceptor molecule, acceptor atom, score
      P1  H  7989  7998       L1    12  1.00
      P1  H  7997  8010       L1     7  0.83

> <Gold.PLP.Chemscore.Internal.Correction>
0.0659

> <Gold.Rescore>
     Score         DG    S(hbond)    S(metal)    S(lipo)     H(rot)  DE(clash)    DE(int)     intcor
     18.51     -20.42       1.97        0.00     134.44       2.88       0.70       1.20       ----

> <Gold.Chemscore.Fitness>
18.5131

> <Gold.Chemscore.DG>
-20.4168

> <Gold.Chemscore.ZeroCoef>
-5.4800

> <Gold.Chemscore.Hbond>
1.9684

> <Gold.Chemscore.Metal>
0.0000

> <Gold.Chemscore.Lipo>
134.4391

> <Gold.Chemscore.Internal_Hbond>
0.0000

> <Gold.Chemscore.DEClash>
0.7033

> <Gold.Chemscore.DEInternal>
1.2004

> <Gold.Chemscore.Rot>
2.8778

> <Gold.Chemscore.Internal.Correction>
   9.000000E+99

> <Gold.Chemscore.Hbonds>
donor molecule, donor type, donor heavy atom, donor atom, acceptor molecule, acceptor atom, score
      P1  H  7989  7998       L1    12  0.76
      P1  H  7997  8010       L1     7  0.77

> <Gold.Chemscore.Hbond.Weighted>
-6.5745

> <Gold.Chemscore.Metal.Weighted>
-0.0000

> <Gold.Chemscore.Lipo.Weighted>
-15.7294

> <Gold.Chemscore.Internal_Hbond.Weighted>
0.0000

> <Gold.Chemscore.DEClash.Weighted>
0.7033

> <Gold.Chemscore.DEInternal.Weighted>
1.2004

> <Gold.Chemscore.Rot.Weighted>
7.3671

> <Gold.Chemscore.Internal.Correction.Weighted>
   9.000000E+99

> <Gold.Protein.RotatedTorsions>
[ 6907 6896 6895 6894 ] final  -23.64 input  -60.11 | X-H torsion
[ 7974 7965 7964 7962 ] final -144.31 input  175.53 | X-H torsion
[ 8008 7997 7996 7995 ] final   41.76 input   59.86 | X-H torsion
[ 10167 10162 10161 10158 ] final  128.08 input  -65.29 | X-H torsion
[ 10718 10713 10712 10709 ] final -159.52 input   66.30 | X-H torsion
[ 10763 10752 10751 10750 ] final  135.92 input  -60.55 | X-H torsion
[ 11005 11000 10999 10996 ] final  126.39 input  -57.11 | X-H torsion

> <Gold.Protein.ActiveResidues>
 VAL166  LYS551  ARG553  GLY616  TRP617  ASP618  TYR619  PRO620  LYS621  CYS622 
 ASP623  PHE694  ASN695  SER759  ASP760  ASP761  ALA762  ILE779  LEU786  VAL792 
 PHE793  MET794  SER795  GLU796  ALA797  LYS798  CYS799  TRP800  GLU811  SER814 

> <Gold.Protein.RotatedAtoms>
  151.2011  135.0443  159.8872 H   0  0  0  0  0  0  0  0  0  0  0  0  # atno 6907 bound_to 6896
  152.5432  134.0849  159.8262 H   0  0  0  0  0  0  0  0  0  0  0  0  # atno 6908 bound_to 6896
  151.0990  133.5211  159.2643 H   0  0  0  0  0  0  0  0  0  0  0  0  # atno 6909 bound_to 6896
  144.8306  140.5725  143.5517 H   0  0  0  0  0  0  0  0  0  0  0  0  # atno 7974 bound_to 7965
  155.2750  140.3368  155.4262 H   0  0  0  0  0  0  0  0  0  0  0  0  # atno 8008 bound_to 7997
  156.2116  140.1772  156.7724 H   0  0  0  0  0  0  0  0  0  0  0  0  # atno 8009 bound_to 7997
  154.5694  140.0673  156.8925 H   0  0  0  0  0  0  0  0  0  0  0  0  # atno 8010 bound_to 7997
  139.5545  144.6838  151.4223 H   0  0  0  0  0  0  0  0  0  0  0  0  # atno 10167 bound_to 10162
  156.5692  130.8681  151.2833 H   0  0  0  0  0  0  0  0  0  0  0  0  # atno 10718 bound_to 10713
  153.8481  135.3083  155.3430 H   0  0  0  0  0  0  0  0  0  0  0  0  # atno 10763 bound_to 10752
  154.7903  135.4786  154.0042 H   0  0  0  0  0  0  0  0  0  0  0  0  # atno 10764 bound_to 10752
  153.1535  135.6847  153.8939 H   0  0  0  0  0  0  0  0  0  0  0  0  # atno 10765 bound_to 10752
  139.9454  134.9630  156.8699 H   0  0  0  0  0  0  0  0  0  0  0  0  # atno 11005 bound_to 11000
  145.4903  139.1489  143.3713 LP  0  0  0  0  0  0  0  0  0  0  0  0  # atno 17320 bound_to 7965
  146.2609  140.5041  142.8854 LP  0  0  0  0  0  0  0  0  0  0  0  0  # atno 17321 bound_to 7965
  140.6815  143.8070  150.7128 LP  0  0  0  0  0  0  0  0  0  0  0  0  # atno 17342 bound_to 10162
  140.1525  143.4345  152.2121 LP  0  0  0  0  0  0  0  0  0  0  0  0  # atno 17343 bound_to 10162
  157.7352  130.9758  150.2068 LP  0  0  0  0  0  0  0  0  0  0  0  0  # atno 17370 bound_to 10713
  156.2730  130.3724  149.8012 LP  0  0  0  0  0  0  0  0  0  0  0  0  # atno 17371 bound_to 10713
  140.5849  134.0317  155.7477 LP  0  0  0  0  0  0  0  0  0  0  0  0  # atno 17394 bound_to 11000
  141.1102  133.9629  157.2924 LP  0  0  0  0  0  0  0  0  0  0  0  0  # atno 17395 bound_to 11000

$$$$
