#       Name:                AV-unprocessed.smi:1737
#       Creating user name   scv26
#       Creation time:       Fri Mar 27 08:20:55 2020


#       File generated by GOLD software.
#

@<TRIPOS>MOLECULE
AV-unprocessed.smi:1737
    48    49     1
SMALL
NO_CHARGES


@<TRIPOS>ATOM
      1 ****        -5.0846  -0.9477  -0.8481 C.3            1 S1                 0.0000
      2 ****        -4.8175   0.5476  -0.7865 C.ar           1 S1                 0.0000
      3 ****        -5.9078   1.4427  -0.7486 C.ar           1 S1                 0.0000
      4 ****        -5.6589   2.8244  -0.6883 C.ar           1 S1                 0.0000
      5 ****        -4.3215   3.2552  -0.6679 C.ar           1 S1                 0.0000
      6 ****        -3.2737   2.4071  -0.7053 N.ar           1 S1                 0.0000
      7 ****        -3.4964   1.0700  -0.7646 C.ar           1 S1                 0.0000
      8 ****        -2.4394   0.1174  -0.8088 N.am           1 S1                 0.0000
      9 ****        -1.1127   0.3379  -0.8024 C.2            1 S1                 0.0000
     10 ****        -0.5721   1.4431  -0.7495 O.2            1 S1                 0.0000
     11 ****        -0.4302  -0.8147  -0.8593 N.am           1 S1                 0.0000
     12 ****         1.0261  -0.9273  -0.8608 C.3            1 S1                 0.0000
     13 ****         1.6698  -0.6991   0.5382 C.3            1 S1                 0.0000
     14 ****         1.0265  -1.6799   1.5514 C.3            1 S1                 0.0000
     15 ****         3.1492  -0.7820   0.5186 N.3            1 S1                 0.0000
     16 ****         3.7440  -0.5881   1.8462 C.3            1 S1                 0.0000
     17 ****         5.2810  -0.6482   1.8270 C.3            1 S1                 0.0000
     18 ****         5.7858   0.3250   0.9236 O.3            1 S1                 0.0000
     19 ****         5.2962   0.1306  -0.3958 C.3            1 S1                 0.0000
     20 ****         3.7586   0.1920  -0.3950 C.3            1 S1                 0.0000
     21 ****        -6.1539  -1.1603  -0.8678 H              1 S1                 0.0000
     22 ****        -4.6594  -1.4462   0.0236 H              1 S1                 0.0000
     23 ****        -4.6405  -1.3790  -1.7456 H              1 S1                 0.0000
     24 ****        -6.9246   1.0782  -0.7654 H              1 S1                 0.0000
     25 ****        -6.4712   3.5354  -0.6580 H              1 S1                 0.0000
     26 ****        -4.0854   4.3079  -0.6200 H              1 S1                 0.0000
     27 ****        -2.7310  -0.8475  -0.8539 H              1 S1                 0.0000
     28 ****        -0.9522  -1.6775  -0.9017 H              1 S1                 0.0000
     29 ****         1.2874  -1.9192  -1.2307 H              1 S1                 0.0000
     30 ****         1.3930  -0.2182  -1.6015 H              1 S1                 0.0000
     31 ****         1.3979   0.3079   0.8579 H              1 S1                 0.0000
     32 ****        -0.0622  -1.6534   1.5248 H              1 S1                 0.0000
     33 ****         1.2886  -1.4384   2.5807 H              1 S1                 0.0000
     34 ****         1.3348  -2.7073   1.3559 H              1 S1                 0.0000
     35 ****         3.4236   0.3694   2.2597 H              1 S1                 0.0000
     36 ****         3.4056  -1.3602   2.5348 H              1 S1                 0.0000
     37 ****         5.6797  -0.4503   2.8220 H              1 S1                 0.0000
     38 ****         5.6262  -1.6416   1.5358 H              1 S1                 0.0000
     39 ****         5.7057   0.9051  -1.0443 H              1 S1                 0.0000
     40 ****         5.6437  -0.8281  -0.7837 H              1 S1                 0.0000
     41 ****         3.4372   0.0167  -1.4193 H              1 S1                 0.0000
     42 ****         3.4365   1.2001  -0.1292 H              1 S1                 0.0000
     43 ****        -2.3387   2.7614  -0.6894 LP             1 S1                 0.0000
     44 ****        -1.1308   2.2714  -0.7065 LP             1 S1                 0.0000
     45 ****         0.4255   1.5123  -0.7494 LP             1 S1                 0.0000
     46 ****         3.3428  -1.7089   0.1971 LP             1 S1                 0.0000
     47 ****         6.7839   0.2657   0.9097 LP             1 S1                 0.0000
     48 ****         5.5102   1.2328   1.2398 LP             1 S1                 0.0000
@<TRIPOS>BOND
    1    1    2 1     
    2    1   21 1     
    3    1   22 1     
    4    1   23 1     
    5    2    7 ar    
    6    2    3 ar    
    7    3    4 ar    
    8    3   24 1     
    9    4    5 ar    
   10    4   25 1     
   11    5    6 ar    
   12    5   26 1     
   13    6    7 ar    
   14    7    8 1     
   15    8    9 am    
   16    8   27 1     
   17    9   10 2     
   18    9   11 am    
   19   11   12 1     
   20   11   28 1     
   21   12   13 1     
   22   12   29 1     
   23   12   30 1     
   24   13   14 1     
   25   13   15 1     
   26   13   31 1     
   27   14   32 1     
   28   14   33 1     
   29   14   34 1     
   30   15   20 1     
   31   15   16 1     
   32   16   17 1     
   33   16   35 1     
   34   16   36 1     
   35   17   18 1     
   36   17   37 1     
   37   17   38 1     
   38   18   19 1     
   39   19   20 1     
   40   19   39 1     
   41   19   40 1     
   42   20   41 1     
   43   20   42 1     
   44    6   43 1     
   45   10   44 1     
   46   10   45 1     
   47   15   46 1     
   48   18   47 1     
   49   18   48 1     
@<TRIPOS>SUBSTRUCTURE
      1 S1             1
@<TRIPOS>SET
LONE_PAIRS      STATIC     ATOMS    <user>   **** ""
6 43 44 45 46 47 48
DONOR_HYDROGENS      STATIC     ATOMS    <user>   **** ""
2 27 28
ATOM$BLUE        STATIC     ATOMS    COLORGROUP SYSTEM
6 43 44 45 46 47 48
ATOM$RED        STATIC     ATOMS    COLORGROUP SYSTEM
2 27 28
