#       Name:                AV-unprocessed.smi:2489
#       Creating user name   scv26
#       Creation time:       Fri Mar 27 13:43:56 2020


#       File generated by GOLD software.
#

@<TRIPOS>MOLECULE
AV-unprocessed.smi:2489
    40    41     1
SMALL
NO_CHARGES


@<TRIPOS>ATOM
      1 ****        -4.1046   2.5915   0.4570 C.3            1 S1                 0.0000
      2 ****        -4.6511   1.3048   0.2064 O.3            1 S1                 0.0000
      3 ****        -3.7870   0.2325   0.1523 C.ar           1 S1                 0.0000
      4 ****        -4.3464  -1.0359  -0.1069 C.ar           1 S1                 0.0000
      5 ****        -3.5090  -2.1642  -0.1881 C.ar           1 S1                 0.0000
      6 ****        -2.1784  -2.0268  -0.0104 N.pl3          1 S1                 1.0000
      7 ****        -1.5814  -0.8441   0.2590 C.ar           1 S1                 0.0000
      8 ****        -0.1691  -0.8457   0.4051 N.am           1 S1                 0.0000
      9 ****         0.5953   0.0040   1.1171 C.2            1 S1                 0.0000
     10 ****         0.1467   0.9066   1.8243 O.2            1 S1                 0.0000
     11 ****         2.1128  -0.2333   1.0626 C.3            1 S1                 0.0000
     12 ****         2.9515   1.0544   0.9457 C.3            1 S1                 0.0000
     13 ****         3.5566   0.9649  -0.4411 C.3            1 S1                 0.0000
     14 ****         3.6564  -0.5415  -0.6471 C.3            1 S1                 0.0000
     15 ****         3.7789  -0.9666  -2.1139 C.3            1 S1                 0.0000
     16 ****         2.4385  -1.0118  -0.0914 O.3            1 S1                 0.0000
     17 ****        -2.3820   0.3237   0.3329 C.ar           1 S1                 0.0000
     18 ****        -4.9082   3.3278   0.4676 H              1 S1                 0.0000
     19 ****        -3.4001   2.8846  -0.3225 H              1 S1                 0.0000
     20 ****        -3.6077   2.6319   1.4272 H              1 S1                 0.0000
     21 ****        -5.4123  -1.1410  -0.2496 H              1 S1                 0.0000
     22 ****        -3.8612  -3.1655  -0.3893 H              1 S1                 0.0000
     23 ****         0.3191  -1.6106  -0.0382 H              1 S1                 0.0000
     24 ****         2.4100  -0.7862   1.9546 H              1 S1                 0.0000
     25 ****         2.3868   1.9783   1.0764 H              1 S1                 0.0000
     26 ****         3.7411   1.0471   1.6982 H              1 S1                 0.0000
     27 ****         2.8762   1.4054  -1.1711 H              1 S1                 0.0000
     28 ****         4.5186   1.4716  -0.5209 H              1 S1                 0.0000
     29 ****         4.4875  -0.9439  -0.0653 H              1 S1                 0.0000
     30 ****         4.6929  -0.5737  -2.5596 H              1 S1                 0.0000
     31 ****         2.9359  -0.6040  -2.7025 H              1 S1                 0.0000
     32 ****         3.8051  -2.0527  -2.2032 H              1 S1                 0.0000
     33 ****        -1.9161   1.2796   0.5120 H              1 S1                 0.0000
     34 ****        -1.5965  -2.8625  -0.0764 H              1 S1                 0.0000
     35 ****        -5.1246   1.3494  -0.6733 LP             1 S1                 0.0000
     36 ****        -5.3129   1.1167   0.9321 LP             1 S1                 0.0000
     37 ****        -0.8415   1.0424   1.8947 LP             1 S1                 0.0000
     38 ****         0.7706   1.5040   2.3282 LP             1 S1                 0.0000
     39 ****         1.7077  -0.9267  -0.7687 LP             1 S1                 0.0000
     40 ****         2.5398  -1.9714   0.1709 LP             1 S1                 0.0000
@<TRIPOS>BOND
    1    1    2 1     
    2    1   18 1     
    3    1   19 1     
    4    1   20 1     
    5    2    3 1     
    6    3   17 ar    
    7    3    4 ar    
    8    4    5 ar    
    9    4   21 1     
   10    5    6 ar    
   11    5   22 1     
   12    6    7 ar    
   13    6   34 1     
   14    7    8 1     
   15    7   17 ar    
   16    8    9 am    
   17    8   23 1     
   18    9   10 2     
   19    9   11 1     
   20   11   16 1     
   21   11   12 1     
   22   11   24 1     
   23   12   13 1     
   24   12   25 1     
   25   12   26 1     
   26   13   14 1     
   27   13   27 1     
   28   13   28 1     
   29   14   15 1     
   30   14   16 1     
   31   14   29 1     
   32   15   30 1     
   33   15   31 1     
   34   15   32 1     
   35   17   33 1     
   36    2   35 1     
   37    2   36 1     
   38   10   37 1     
   39   10   38 1     
   40   16   39 1     
   41   16   40 1     
@<TRIPOS>SUBSTRUCTURE
      1 S1             1
@<TRIPOS>SET
LONE_PAIRS      STATIC     ATOMS    <user>   **** ""
6 35 36 37 38 39 40
DONOR_HYDROGENS      STATIC     ATOMS    <user>   **** ""
2 34 23
ATOM$BLUE        STATIC     ATOMS    COLORGROUP SYSTEM
6 35 36 37 38 39 40
ATOM$RED        STATIC     ATOMS    COLORGROUP SYSTEM
2 34 23
