AV-unprocessed.smi:3124|AV-procd|sdf|11905|dock2
  -GOLD-   2272017293D 1   1.00000     0.00000
 Structure written by MMmdl.
 24 24  0  0  0  0  0  0  0  0  2 V2000
  155.3708  140.2715  160.5975 C   0  0  0  0  0  0  0  0  0  0  0  0
  154.1575  140.6177  159.7851 C   0  0  0  0  0  0  0  0  0  0  0  0
  153.2922  141.7412  159.9304 C   0  0  0  0  0  0  0  0  0  0  0  0
  152.3516  141.5769  158.9500 C   0  0  0  0  0  0  0  0  0  0  0  0
  151.1658  142.3957  158.5400 C   0  0  0  0  0  0  0  0  0  0  0  0
  151.2710  143.9003  158.8593 C   0  0  1  0  0  0  0  0  0  0  0  0
  152.5045  144.5337  158.2012 C   0  0  0  0  0  0  0  0  0  0  0  0
  150.0507  144.6150  158.4398 N   0  3  0  0  0  0  0  0  0  0  0  0
  152.6935  140.4192  158.2886 N   0  0  0  0  0  0  0  0  0  0  0  0
  153.7882  139.8218  158.7936 N   0  0  0  0  0  0  0  0  0  0  0  0
  152.1948  140.0279  157.5017 H   0  0  0  0  0  0  0  0  0  0  0  0
  155.7609  141.1484  161.1146 H   0  0  0  0  0  0  0  0  0  0  0  0
  156.1703  139.8763  159.9701 H   0  0  0  0  0  0  0  0  0  0  0  0
  155.1347  139.5194  161.3505 H   0  0  0  0  0  0  0  0  0  0  0  0
  153.3596  142.5451  160.6485 H   0  0  0  0  0  0  0  0  0  0  0  0
  151.0221  142.2715  157.4661 H   0  0  0  0  0  0  0  0  0  0  0  0
  150.2680  141.9881  159.0072 H   0  0  0  0  0  0  0  0  0  0  0  0
  151.3684  144.0250  159.9384 H   0  0  0  0  0  0  0  0  0  0  0  0
  153.4211  144.0458  158.5344 H   0  0  0  0  0  0  0  0  0  0  0  0
  152.5868  145.5914  158.4541 H   0  0  0  0  0  0  0  0  0  0  0  0
  152.4619  144.4532  157.1144 H   0  0  0  0  0  0  0  0  0  0  0  0
  150.1784  145.6084  158.5694 H   0  0  0  0  0  0  0  0  0  0  0  0
  149.2673  144.3011  158.9948 H   0  0  0  0  0  0  0  0  0  0  0  0
  149.8693  144.4249  157.4642 H   0  0  0  0  0  0  0  0  0  0  0  0
  1  2  1  0  0  0  0
  1 12  1  0  0  0  0
  1 13  1  0  0  0  0
  1 14  1  0  0  0  0
  2 10  2  0  0  0  0
  2  3  1  0  0  0  0
  3  4  2  0  0  0  0
  3 15  1  0  0  0  0
  4  5  1  0  0  0  0
  4  9  1  0  0  0  0
  5  6  1  0  0  0  0
  5 16  1  0  0  0  0
  5 17  1  0  0  0  0
  6  7  1  0  0  0  0
  6  8  1  0  0  0  0
  6 18  1  0  0  0  0
  7 19  1  0  0  0  0
  7 20  1  0  0  0  0
  7 21  1  0  0  0  0
  8 22  1  0  0  0  0
  8 23  1  0  0  0  0
  8 24  1  0  0  0  0
  9 11  1  0  0  0  0
  9 10  1  0  0  0  0
M  CHG  1   8   1
M  END
> <s_m_source_file>
AV-unprocessed.smi

> <i_m_source_file_index>
3124

> <i_lp_mmshare_version>
43012

> <i_f3d_flags>
0

> <s_epik_input>
W0NIM11jMVtjSF1jKFtuSF1uMSlbQ0gyXVtDQEhdKFtDSDNdKVtOSDJd

> <s_epik_cmdline>
J2VwaWtfcHl0aG9uJywgJy1waCcsICc3LjAnLCAnLXRuJywgJzgnLCAnLW1hJywgJzIwMCcsICctbWV0YWxfYmluZGluZycsICctaW1hZScsICc8aW5maWxlLm1hZT4nLCAnLW9tYWUnLCAnPG91dGZpbGUubWFlPic=

> <r_lp_tautomer_probability>
0.5

> <r_epik_Ionization_Penalty>
0.00227197

> <r_epik_Ionization_Penalty_Charging>
0.00223142

> <r_epik_Ionization_Penalty_Neutral>
4.05538e-05

> <r_epik_State_Penalty>
0.446108

> <r_epik_Charging_Adjusted_Penalty>
0.448339

> <i_epik_Tot_Q>
1

> <i_epik_Tot_abs_Q>
1

> <r_epik_Metal_State_Penalty>
0.444886

> <b_epik_Metal_Only>
0

> <s_lp_Force_Field>
OPLS_2005

> <r_lp_Energy>
4.61405

> <b_lp_Chiralities_Consistent>
1

> <s_lp_Variant>
AV-unprocessed.smi:3124-4

> <Gold.Version>
5.8.1

> <Gold.Id.Protein>
6NUR|6NUR_protein|mol2

> <Gold.PLP.Fitness>
31.3716

> <Gold.PLP.PLP>
-23.1066

> <Gold.PLP.part.hbond>
-3.0000

> <Gold.PLP.part.metal>
0.0000

> <Gold.PLP.part.buried>
-2.3464

> <Gold.PLP.part.nonpolar>
-19.0533

> <Gold.PLP.part.repulsive>
0.2481

> <Gold.PLP.ligand.clash>
0.0000

> <Gold.PLP.ligand.torsion>
0.3691

> <Gold.PLP.Chemscore.Hbond>
3.0000

> <Gold.PLP.Chemscore.CHOScore>
0.0000

> <Gold.PLP.Chemscore.Metal>
0.0000

> <Gold.Chemscore.Hbonds>
donor molecule, donor type, donor heavy atom, donor atom, acceptor molecule, acceptor atom, score
      L1  H     8    24       P1  8028  1.85
      P1  H  7997  8009       L1    10  1.00

> <Gold.PLP.Chemscore.Internal.Correction>
0.0033

> <Gold.Rescore>
     Score         DG    S(hbond)    S(metal)    S(lipo)     H(rot)  DE(clash)    DE(int)     intcor
     11.82     -12.27       0.56        0.00      70.53       1.30       0.08       0.37       ----

> <Gold.Chemscore.Fitness>
11.8205

> <Gold.Chemscore.DG>
-12.2687

> <Gold.Chemscore.ZeroCoef>
-5.4800

> <Gold.Chemscore.Hbond>
0.5572

> <Gold.Chemscore.Metal>
0.0000

> <Gold.Chemscore.Lipo>
70.5332

> <Gold.Chemscore.Internal_Hbond>
0.0000

> <Gold.Chemscore.DEClash>
0.0760

> <Gold.Chemscore.DEInternal>
0.3722

> <Gold.Chemscore.Rot>
1.2987

> <Gold.Chemscore.Internal.Correction>
   9.000000E+99

> <Gold.Chemscore.Hbonds>
donor molecule, donor type, donor heavy atom, donor atom, acceptor molecule, acceptor atom, score
      L1  H     8    24       P1  8028  0.19
      P1  H  7997  8009       L1    10  0.18

> <Gold.Chemscore.Hbond.Weighted>
-1.8610

> <Gold.Chemscore.Metal.Weighted>
-0.0000

> <Gold.Chemscore.Lipo.Weighted>
-8.2524

> <Gold.Chemscore.Internal_Hbond.Weighted>
0.0000

> <Gold.Chemscore.DEClash.Weighted>
0.0760

> <Gold.Chemscore.DEInternal.Weighted>
0.3722

> <Gold.Chemscore.Rot.Weighted>
3.3246

> <Gold.Chemscore.Internal.Correction.Weighted>
   9.000000E+99

> <Gold.Protein.RotatedTorsions>
[ 6907 6896 6895 6894 ] final  141.73 input  -60.11 | X-H torsion
[ 7974 7965 7964 7962 ] final   68.61 input  175.53 | X-H torsion
[ 8008 7997 7996 7995 ] final  125.23 input   59.86 | X-H torsion
[ 10167 10162 10161 10158 ] final  146.80 input  -65.29 | X-H torsion
[ 10718 10713 10712 10709 ] final  119.12 input   66.30 | X-H torsion
[ 10763 10752 10751 10750 ] final  132.23 input  -60.55 | X-H torsion
[ 11005 11000 10999 10996 ] final    7.61 input  -57.11 | X-H torsion

> <Gold.Protein.ActiveResidues>
 VAL166  LYS551  ARG553  GLY616  TRP617  ASP618  TYR619  PRO620  LYS621  CYS622 
 ASP623  PHE694  ASN695  SER759  ASP760  ASP761  ALA762  ILE779  LEU786  VAL792 
 PHE793  MET794  SER795  GLU796  ALA797  LYS798  CYS799  TRP800  GLU811  SER814 

> <Gold.Protein.RotatedAtoms>
  152.2274  133.5031  159.5196 H   0  0  0  0  0  0  0  0  0  0  0  0  # atno 6907 bound_to 6896
  150.7028  134.1262  159.4062 H   0  0  0  0  0  0  0  0  0  0  0  0  # atno 6908 bound_to 6896
  151.9183  135.0309  160.0571 H   0  0  0  0  0  0  0  0  0  0  0  0  # atno 6909 bound_to 6896
  145.8005  139.2980  143.1157 H   0  0  0  0  0  0  0  0  0  0  0  0  # atno 7974 bound_to 7965
  156.2827  140.2721  156.1915 H   0  0  0  0  0  0  0  0  0  0  0  0  # atno 8008 bound_to 7997
  155.0453  140.0386  157.2542 H   0  0  0  0  0  0  0  0  0  0  0  0  # atno 8009 bound_to 7997
  154.7240  140.2693  155.6521 H   0  0  0  0  0  0  0  0  0  0  0  0  # atno 8010 bound_to 7997
  139.4901  144.5803  151.6885 H   0  0  0  0  0  0  0  0  0  0  0  0  # atno 10167 bound_to 10162
  157.5984  131.1054  150.7851 H   0  0  0  0  0  0  0  0  0  0  0  0  # atno 10718 bound_to 10713
  153.7874  135.3160  155.3374 H   0  0  0  0  0  0  0  0  0  0  0  0  # atno 10763 bound_to 10752
  154.8139  135.4649  154.0592 H   0  0  0  0  0  0  0  0  0  0  0  0  # atno 10764 bound_to 10752
  153.1900  135.6907  153.8451 H   0  0  0  0  0  0  0  0  0  0  0  0  # atno 10765 bound_to 10752
  140.5463  134.0326  155.7921 H   0  0  0  0  0  0  0  0  0  0  0  0  # atno 11005 bound_to 11000
  145.9882  140.8625  143.0079 LP  0  0  0  0  0  0  0  0  0  0  0  0  # atno 17320 bound_to 7965
  144.6769  140.2178  143.7370 LP  0  0  0  0  0  0  0  0  0  0  0  0  # atno 17321 bound_to 7965
  140.5407  144.0583  150.6087 LP  0  0  0  0  0  0  0  0  0  0  0  0  # atno 17342 bound_to 10162
  140.3604  143.2911  152.0389 LP  0  0  0  0  0  0  0  0  0  0  0  0  # atno 17343 bound_to 10162
  156.8256  130.4998  149.5337 LP  0  0  0  0  0  0  0  0  0  0  0  0  # atno 17370 bound_to 10713
  156.1051  130.5998  150.9958 LP  0  0  0  0  0  0  0  0  0  0  0  0  # atno 17371 bound_to 10713
  141.1198  133.9480  157.2752 LP  0  0  0  0  0  0  0  0  0  0  0  0  # atno 17394 bound_to 11000
  139.9478  135.0181  156.8904 LP  0  0  0  0  0  0  0  0  0  0  0  0  # atno 17395 bound_to 11000

$$$$
