AV-unprocessed.smi:1496|AV-procd|sdf|6057|dock8
  -GOLD-   22720 6173D 1   1.00000     0.00000
 Structure written by MMmdl.
 43 44  0  0  0  0  0  0  0  0  2 V2000
  146.9896  133.4228  155.5807 C   0  0  0  0  0  0  0  0  0  0  0  0
  148.1996  134.1224  154.9409 C   0  0  0  0  0  0  0  0  0  0  0  0
  148.3314  133.6616  153.4733 C   0  0  0  0  0  0  0  0  0  0  0  0
  148.0377  135.6569  155.0535 C   0  0  0  0  0  0  0  0  0  0  0  0
  149.2920  136.3667  154.7055 N   0  3  1  0  0  0  0  0  0  0  0  0
  149.1340  137.8418  154.7374 C   0  0  0  0  0  0  0  0  0  0  0  0
  150.4452  138.5801  154.4060 C   0  0  0  0  0  0  0  0  0  0  0  0
  150.4544  139.9284  154.9618 N   0  0  0  0  0  0  0  0  0  0  0  0
  151.1089  140.2929  156.0737 C   0  0  0  0  0  0  0  0  0  0  0  0
  151.7792  139.5118  156.7486 O   0  0  0  0  0  0  0  0  0  0  0  0
  150.9450  141.6022  156.3294 N   0  0  0  0  0  0  0  0  0  0  0  0
  151.4629  142.3634  157.4121 C   0  0  0  0  0  0  0  0  0  0  0  0
  152.0499  141.8029  158.5727 C   0  0  0  0  0  0  0  0  0  0  0  0
  152.5084  142.6656  159.5870 C   0  0  0  0  0  0  0  0  0  0  0  0
  152.3582  144.0544  159.4080 C   0  0  0  0  0  0  0  0  0  0  0  0
  151.7890  144.6019  158.3136 N   0  0  0  0  0  0  0  0  0  0  0  0
  151.3506  143.7686  157.3460 C   0  0  0  0  0  0  0  0  0  0  0  0
  150.4075  135.8744  155.5483 C   0  0  0  0  0  0  0  0  0  0  0  0
  150.5568  134.3540  155.3984 C   0  0  0  0  0  0  0  0  0  0  0  0
  149.3279  133.7072  155.7154 O   0  0  0  0  0  0  0  0  0  0  0  0
  146.0632  133.6830  155.0678 H   0  0  0  0  0  0  0  0  0  0  0  0
  146.8775  133.7039  156.6285 H   0  0  0  0  0  0  0  0  0  0  0  0
  147.0954  132.3380  155.5431 H   0  0  0  0  0  0  0  0  0  0  0  0
  147.4221  133.8813  152.9131 H   0  0  0  0  0  0  0  0  0  0  0  0
  148.5017  132.5861  153.4129 H   0  0  0  0  0  0  0  0  0  0  0  0
  149.1507  134.1554  152.9515 H   0  0  0  0  0  0  0  0  0  0  0  0
  147.2279  135.9907  154.4029 H   0  0  0  0  0  0  0  0  0  0  0  0
  147.7553  135.9317  156.0713 H   0  0  0  0  0  0  0  0  0  0  0  0
  148.3861  138.1378  154.0001 H   0  0  0  0  0  0  0  0  0  0  0  0
  148.7437  138.1458  155.7099 H   0  0  0  0  0  0  0  0  0  0  0  0
  151.3155  138.0371  154.7754 H   0  0  0  0  0  0  0  0  0  0  0  0
  150.5643  138.6577  153.3250 H   0  0  0  0  0  0  0  0  0  0  0  0
  149.9314  140.6336  154.4627 H   0  0  0  0  0  0  0  0  0  0  0  0
  150.4334  142.1301  155.6374 H   0  0  0  0  0  0  0  0  0  0  0  0
  152.1438  140.7373  158.7124 H   0  0  0  0  0  0  0  0  0  0  0  0
  152.9613  142.2709  160.4844 H   0  0  0  0  0  0  0  0  0  0  0  0
  152.6992  144.7433  160.1666 H   0  0  0  0  0  0  0  0  0  0  0  0
  150.8985  144.2417  156.4864 H   0  0  0  0  0  0  0  0  0  0  0  0
  151.3441  136.3547  155.2683 H   0  0  0  0  0  0  0  0  0  0  0  0
  150.2190  136.1291  156.5926 H   0  0  0  0  0  0  0  0  0  0  0  0
  150.8876  134.0896  154.3941 H   0  0  0  0  0  0  0  0  0  0  0  0
  151.3252  133.9887  156.0799 H   0  0  0  0  0  0  0  0  0  0  0  0
  149.5042  136.1170  153.7500 H   0  0  0  0  0  0  0  0  0  0  0  0
  1  2  1  0  0  0  0
  1 21  1  0  0  0  0
  1 22  1  0  0  0  0
  1 23  1  0  0  0  0
  2 20  1  0  0  0  0
  2  3  1  0  0  0  0
  2  4  1  0  0  0  0
  3 24  1  0  0  0  0
  3 25  1  0  0  0  0
  3 26  1  0  0  0  0
  4  5  1  0  0  0  0
  4 27  1  0  0  0  0
  4 28  1  0  0  0  0
  5  6  1  0  0  0  0
  5 18  1  0  0  0  0
  5 43  1  0  0  0  0
  6  7  1  0  0  0  0
  6 29  1  0  0  0  0
  6 30  1  0  0  0  0
  7  8  1  0  0  0  0
  7 31  1  0  0  0  0
  7 32  1  0  0  0  0
  8  9  1  0  0  0  0
  8 33  1  0  0  0  0
  9 10  2  0  0  0  0
  9 11  1  0  0  0  0
 11 12  1  0  0  0  0
 11 34  1  0  0  0  0
 12 17  1  0  0  0  0
 12 13  2  0  0  0  0
 13 14  1  0  0  0  0
 13 35  1  0  0  0  0
 14 15  2  0  0  0  0
 14 36  1  0  0  0  0
 15 16  1  0  0  0  0
 15 37  1  0  0  0  0
 16 17  2  0  0  0  0
 17 38  1  0  0  0  0
 18 19  1  0  0  0  0
 18 39  1  0  0  0  0
 18 40  1  0  0  0  0
 19 20  1  0  0  0  0
 19 41  1  0  0  0  0
 19 42  1  0  0  0  0
M  CHG  1   5   1
M  END
> <s_m_source_file>
AV-unprocessed.smi

> <i_m_source_file_index>
1496

> <i_lp_mmshare_version>
43012

> <i_f3d_flags>
0

> <s_epik_input>
W0NIM11DMShbQ0gzXSlbQ0gyXU4oW0NIMl1bQ0gyXU8xKVtDSDJdW0NIMl1bTkhdQyg9TylbTkhdYzJbY0hdW2NIXVtjSF1uW2NIXTI=

> <s_epik_cmdline>
J2VwaWtfcHl0aG9uJywgJy1waCcsICc3LjAnLCAnLXRuJywgJzgnLCAnLW1hJywgJzIwMCcsICctbWV0YWxfYmluZGluZycsICctaW1hZScsICc8aW5maWxlLm1hZT4nLCAnLW9tYWUnLCAnPG91dGZpbGUubWFlPic=

> <r_epik_Ionization_Penalty>
0.606681

> <r_epik_Ionization_Penalty_Charging>
0.602531

> <r_epik_Ionization_Penalty_Neutral>
0.00415082

> <r_epik_State_Penalty>
0.607427

> <r_epik_Charging_Adjusted_Penalty>
1.20996

> <i_epik_Tot_Q>
1

> <i_epik_Tot_abs_Q>
1

> <r_epik_Metal_State_Penalty>
0.604583

> <b_epik_Metal_Only>
0

> <s_lp_Force_Field>
OPLS_2005

> <r_lp_Energy>
21.2927

> <b_lp_Chiralities_Consistent>
1

> <s_lp_Variant>
AV-unprocessed.smi:1496-3

> <Gold.Version>
5.8.1

> <Gold.Id.Protein>
6NUR|6NUR_protein|mol2

> <Gold.PLP.Fitness>
38.9636

> <Gold.PLP.PLP>
-30.5403

> <Gold.PLP.part.hbond>
-1.0000

> <Gold.PLP.part.metal>
0.0000

> <Gold.PLP.part.buried>
-4.8620

> <Gold.PLP.part.nonpolar>
-25.0575

> <Gold.PLP.part.repulsive>
0.3457

> <Gold.PLP.ligand.clash>
0.0000

> <Gold.PLP.ligand.torsion>
0.2959

> <Gold.PLP.Chemscore.Hbond>
2.0000

> <Gold.PLP.Chemscore.CHOScore>
1.0000

> <Gold.PLP.Chemscore.Metal>
0.0000

> <Gold.Chemscore.Hbonds>
donor molecule, donor type, donor heavy atom, donor atom, acceptor molecule, acceptor atom, score
      L1  H     5    43       P1  7948  1.92
      L1  C    17    38       P1  8028  1.00

> <Gold.PLP.Chemscore.Internal.Correction>
0.0151

> <Gold.Rescore>
     Score         DG    S(hbond)    S(metal)    S(lipo)     H(rot)  DE(clash)    DE(int)     intcor
     13.27     -14.83       1.00        0.00      84.37       1.50       0.07       1.49       ----

> <Gold.Chemscore.Fitness>
13.2743

> <Gold.Chemscore.DG>
-14.8327

> <Gold.Chemscore.ZeroCoef>
-5.4800

> <Gold.Chemscore.Hbond>
0.9953

> <Gold.Chemscore.Metal>
0.0000

> <Gold.Chemscore.Lipo>
84.3680

> <Gold.Chemscore.Internal_Hbond>
0.0000

> <Gold.Chemscore.DEClash>
0.0691

> <Gold.Chemscore.DEInternal>
1.4893

> <Gold.Chemscore.Rot>
1.5010

> <Gold.Chemscore.Internal.Correction>
   9.000000E+99

> <Gold.Chemscore.Hbonds>
donor molecule, donor type, donor heavy atom, donor atom, acceptor molecule, acceptor atom, score
      L1  H     5    43       P1  7948  0.55

> <Gold.Chemscore.Hbond.Weighted>
-3.3242

> <Gold.Chemscore.Metal.Weighted>
-0.0000

> <Gold.Chemscore.Lipo.Weighted>
-9.8711

> <Gold.Chemscore.Internal_Hbond.Weighted>
0.0000

> <Gold.Chemscore.DEClash.Weighted>
0.0691

> <Gold.Chemscore.DEInternal.Weighted>
1.4893

> <Gold.Chemscore.Rot.Weighted>
3.8426

> <Gold.Chemscore.Internal.Correction.Weighted>
   9.000000E+99

> <Gold.Protein.RotatedTorsions>
[ 6907 6896 6895 6894 ] final  -37.83 input  -60.11 | X-H torsion
[ 7974 7965 7964 7962 ] final   49.37 input  175.53 | X-H torsion
[ 8008 7997 7996 7995 ] final -157.58 input   59.86 | X-H torsion
[ 10167 10162 10161 10158 ] final  147.67 input  -65.29 | X-H torsion
[ 10718 10713 10712 10709 ] final   38.83 input   66.30 | X-H torsion
[ 10763 10752 10751 10750 ] final   40.90 input  -60.55 | X-H torsion
[ 11005 11000 10999 10996 ] final   42.90 input  -57.11 | X-H torsion

> <Gold.Protein.ActiveResidues>
 VAL166  LYS551  ARG553  GLY616  TRP617  ASP618  TYR619  PRO620  LYS621  CYS622 
 ASP623  PHE694  ASN695  SER759  ASP760  ASP761  ALA762  ILE779  LEU786  VAL792 
 PHE793  MET794  SER795  GLU796  ALA797  LYS798  CYS799  TRP800  GLU811  SER814 

> <Gold.Protein.RotatedAtoms>
  151.0099  134.9388  159.8000 H   0  0  0  0  0  0  0  0  0  0  0  0  # atno 6907 bound_to 6896
  152.5300  134.3042  159.9099 H   0  0  0  0  0  0  0  0  0  0  0  0  # atno 6908 bound_to 6896
  151.3048  133.4064  159.2676 H   0  0  0  0  0  0  0  0  0  0  0  0  # atno 6909 bound_to 6896
  146.0115  139.4549  142.9953 H   0  0  0  0  0  0  0  0  0  0  0  0  # atno 7974 bound_to 7965
  155.7345  140.0806  157.2274 H   0  0  0  0  0  0  0  0  0  0  0  0  # atno 8008 bound_to 7997
  154.4029  140.1589  156.2601 H   0  0  0  0  0  0  0  0  0  0  0  0  # atno 8009 bound_to 7997
  155.9078  140.3406  155.6078 H   0  0  0  0  0  0  0  0  0  0  0  0  # atno 8010 bound_to 7997
  139.4886  144.5738  151.7004 H   0  0  0  0  0  0  0  0  0  0  0  0  # atno 10167 bound_to 10162
  157.3634  130.7662  149.7065 H   0  0  0  0  0  0  0  0  0  0  0  0  # atno 10718 bound_to 10713
  152.9923  135.6178  154.2700 H   0  0  0  0  0  0  0  0  0  0  0  0  # atno 10763 bound_to 10752
  154.2433  135.2788  155.2847 H   0  0  0  0  0  0  0  0  0  0  0  0  # atno 10764 bound_to 10752
  154.5350  135.5777  153.6849 H   0  0  0  0  0  0  0  0  0  0  0  0  # atno 10765 bound_to 10752
  140.1696  134.4239  155.8266 H   0  0  0  0  0  0  0  0  0  0  0  0  # atno 11005 bound_to 11000
  145.7334  141.0034  143.1339 LP  0  0  0  0  0  0  0  0  0  0  0  0  # atno 17320 bound_to 7965
  144.6955  139.9012  143.7458 LP  0  0  0  0  0  0  0  0  0  0  0  0  # atno 17321 bound_to 7965
  140.5330  144.0700  150.6060 LP  0  0  0  0  0  0  0  0  0  0  0  0  # atno 17342 bound_to 10162
  140.3696  143.2862  152.0292 LP  0  0  0  0  0  0  0  0  0  0  0  0  # atno 17343 bound_to 10162
  155.9741  130.4107  150.3945 LP  0  0  0  0  0  0  0  0  0  0  0  0  # atno 17370 bound_to 10713
  157.2025  131.0441  151.2642 LP  0  0  0  0  0  0  0  0  0  0  0  0  # atno 17371 bound_to 10713
  141.2216  133.6950  156.7739 LP  0  0  0  0  0  0  0  0  0  0  0  0  # atno 17394 bound_to 11000
  140.2393  134.8626  157.3557 LP  0  0  0  0  0  0  0  0  0  0  0  0  # atno 17395 bound_to 11000

$$$$
