AV-unprocessed.smi:234|AV-procd|sdf|1791|dock9
  -GOLD-   2262020353D 1   1.00000     0.00000
 Structure written by MMmdl.
 59 62  0  0  0  0  0  0  0  0  1 V2000
  154.0597  141.1440  160.0339 C   0  0  0  0  0  0  0  0  0  0  0  0
  153.9715  139.6753  159.5986 C   0  0  0  0  0  0  0  0  0  0  0  0
  153.4480  139.5320  158.2858 O   0  0  0  0  0  0  0  0  0  0  0  0
  152.1206  139.0268  158.2249 C   0  0  2  0  0  0  0  0  0  0  0  0
  152.0781  137.6132  157.6450 C   0  0  0  0  0  0  0  0  0  0  0  0
  150.7792  138.0526  156.9586 C   0  0  2  0  0  0  0  0  0  0  0  0
  150.5843  137.4972  155.6171 N   0  0  0  0  0  0  0  0  0  0  0  0
  149.7419  138.2594  154.7040 C   0  0  0  0  0  0  0  0  0  0  0  0
  150.3056  136.1749  155.5436 C   0  0  0  0  0  0  0  0  0  0  0  0
  151.2948  135.3172  155.8986 N   0  0  0  0  0  0  0  0  0  0  0  0
  151.0894  133.9979  155.8456 C   0  0  0  0  0  0  0  0  0  0  0  0
  149.9931  133.3381  155.4663 N   0  0  0  0  0  0  0  0  0  0  0  0
  149.0011  134.1971  155.0939 C   0  0  0  0  0  0  0  0  0  0  0  0
  149.0699  135.6190  155.1020 C   0  0  0  0  0  0  0  0  0  0  0  0
  147.8677  136.1510  154.6494 N   0  0  0  0  0  0  0  0  0  0  0  0
  147.1290  135.1053  154.3984 C   0  0  0  0  0  0  0  0  0  0  0  0
  147.7344  133.8909  154.6281 N   0  0  0  0  0  0  0  0  0  0  0  0
  147.1520  132.5741  154.4228 C   0  0  0  0  0  0  0  0  0  0  0  0
  146.9394  132.2216  152.9313 C   0  0  2  0  0  0  0  0  0  0  0  0
  148.2062  132.1499  152.2970 O   0  0  0  0  0  0  0  0  0  0  0  0
  146.0792  133.2222  152.1732 C   0  0  0  0  0  0  0  0  0  0  0  0
  145.5403  132.3870  151.0186 C   0  0  0  0  0  0  0  0  0  0  0  0
  145.3274  131.0961  151.5743 O   0  0  0  0  0  0  0  0  0  0  0  0
  146.1487  130.9101  152.7265 C   0  0  1  0  0  0  0  0  0  0  0  0
  146.9755  129.6197  152.6072 C   0  0  0  0  0  0  0  0  0  0  0  0
  151.3104  139.5122  156.9932 C   0  0  0  0  0  0  0  0  0  0  0  0
  150.2643  140.5928  157.2698 C   0  0  0  0  0  0  0  0  0  0  0  0
  152.1520  139.9903  155.7963 C   0  0  0  0  0  0  0  0  0  0  0  0
  154.5736  141.2315  160.9911 H   0  0  0  0  0  0  0  0  0  0  0  0
  153.0715  141.5861  160.1549 H   0  0  0  0  0  0  0  0  0  0  0  0
  154.6105  141.7370  159.3036 H   0  0  0  0  0  0  0  0  0  0  0  0
  154.9729  139.2449  159.5995 H   0  0  0  0  0  0  0  0  0  0  0  0
  153.3835  139.0923  160.3089 H   0  0  0  0  0  0  0  0  0  0  0  0
  151.5641  139.0849  159.1638 H   0  0  0  0  0  0  0  0  0  0  0  0
  152.8977  137.4019  156.9557 H   0  0  0  0  0  0  0  0  0  0  0  0
  151.9587  136.8217  158.3849 H   0  0  0  0  0  0  0  0  0  0  0  0
  149.9143  137.9302  157.6134 H   0  0  0  0  0  0  0  0  0  0  0  0
  149.7378  137.8192  153.7061 H   0  0  0  0  0  0  0  0  0  0  0  0
  150.0976  139.2836  154.6072 H   0  0  0  0  0  0  0  0  0  0  0  0
  148.7146  138.2906  155.0684 H   0  0  0  0  0  0  0  0  0  0  0  0
  151.9234  133.3826  156.1493 H   0  0  0  0  0  0  0  0  0  0  0  0
  146.1179  135.1919  154.0283 H   0  0  0  0  0  0  0  0  0  0  0  0
  147.7948  131.8321  154.8983 H   0  0  0  0  0  0  0  0  0  0  0  0
  146.2022  132.5414  154.9582 H   0  0  0  0  0  0  0  0  0  0  0  0
  148.0934  131.7500  151.4483 H   0  0  0  0  0  0  0  0  0  0  0  0
  145.2466  133.5509  152.7964 H   0  0  0  0  0  0  0  0  0  0  0  0
  146.6217  134.1093  151.8436 H   0  0  0  0  0  0  0  0  0  0  0  0
  144.6234  132.7965  150.5948 H   0  0  0  0  0  0  0  0  0  0  0  0
  146.2801  132.3117  150.2208 H   0  0  0  0  0  0  0  0  0  0  0  0
  145.4535  130.7903  153.5587 H   0  0  0  0  0  0  0  0  0  0  0  0
  147.6147  129.4822  153.4793 H   0  0  0  0  0  0  0  0  0  0  0  0
  147.6097  129.6274  151.7205 H   0  0  0  0  0  0  0  0  0  0  0  0
  146.3233  128.7495  152.5337 H   0  0  0  0  0  0  0  0  0  0  0  0
  149.5638  140.6955  156.4416 H   0  0  0  0  0  0  0  0  0  0  0  0
  150.7241  141.5683  157.4267 H   0  0  0  0  0  0  0  0  0  0  0  0
  149.6782  140.3632  158.1599 H   0  0  0  0  0  0  0  0  0  0  0  0
  151.5338  140.2033  154.9246 H   0  0  0  0  0  0  0  0  0  0  0  0
  152.8920  139.2503  155.4911 H   0  0  0  0  0  0  0  0  0  0  0  0
  152.6961  140.9046  156.0350 H   0  0  0  0  0  0  0  0  0  0  0  0
  1  2  1  0  0  0  0
  1 29  1  0  0  0  0
  1 30  1  0  0  0  0
  1 31  1  0  0  0  0
  2  3  1  0  0  0  0
  2 32  1  0  0  0  0
  2 33  1  0  0  0  0
  3  4  1  0  0  0  0
  4 26  1  0  0  0  0
  4  5  1  0  0  0  0
  4 34  1  0  0  0  0
  5  6  1  0  0  0  0
  5 35  1  0  0  0  0
  5 36  1  0  0  0  0
  6  7  1  0  0  0  0
  6 26  1  0  0  0  0
  6 37  1  0  0  0  0
  7  8  1  0  0  0  0
  7  9  1  0  0  0  0
  8 38  1  0  0  0  0
  8 39  1  0  0  0  0
  8 40  1  0  0  0  0
  9 14  1  0  0  0  0
  9 10  2  0  0  0  0
 10 11  1  0  0  0  0
 11 12  2  0  0  0  0
 11 41  1  0  0  0  0
 12 13  1  0  0  0  0
 13 17  1  0  0  0  0
 13 14  2  0  0  0  0
 14 15  1  0  0  0  0
 15 16  2  0  0  0  0
 16 17  1  0  0  0  0
 16 42  1  0  0  0  0
 17 18  1  0  0  0  0
 18 19  1  0  0  0  0
 18 43  1  0  0  0  0
 18 44  1  0  0  0  0
 19 24  1  0  0  0  0
 19 20  1  0  0  0  0
 19 21  1  0  0  0  0
 20 45  1  0  0  0  0
 21 22  1  0  0  0  0
 21 46  1  0  0  0  0
 21 47  1  0  0  0  0
 22 23  1  0  0  0  0
 22 48  1  0  0  0  0
 22 49  1  0  0  0  0
 23 24  1  0  0  0  0
 24 25  1  0  0  0  0
 24 50  1  0  0  0  0
 25 51  1  0  0  0  0
 25 52  1  0  0  0  0
 25 53  1  0  0  0  0
 26 27  1  0  0  0  0
 26 28  1  0  0  0  0
 27 54  1  0  0  0  0
 27 55  1  0  0  0  0
 27 56  1  0  0  0  0
 28 57  1  0  0  0  0
 28 58  1  0  0  0  0
 28 59  1  0  0  0  0
M  END
> <s_m_source_file>
AV-unprocessed.smi

> <i_m_source_file_index>
234

> <i_lp_mmshare_version>
43012

> <i_f3d_flags>
0

> <s_epik_input>
W0NIM11bQ0gyXU9bQ0BASF0oQzEoW0NIM10pW0NIM10pW0NIMl1bQ0BIXTFOKFtDSDNdKWMobltjSF1uMiljKGMyMyluW2NIXW4zW0NIMl1bQ0BAXTQoW09IXSlbQ0gyXVtDSDJdT1tDQEhdNFtDSDNd

> <s_epik_cmdline>
J2VwaWtfcHl0aG9uJywgJy1waCcsICc3LjAnLCAnLXRuJywgJzgnLCAnLW1hJywgJzIwMCcsICctbWV0YWxfYmluZGluZycsICctaW1hZScsICc8aW5maWxlLm1hZT4nLCAnLW9tYWUnLCAnPG91dGZpbGUubWFlPic=

> <r_lp_tautomer_probability>
1

> <r_epik_Ionization_Penalty>
0.00349132

> <r_epik_Ionization_Penalty_Charging>
0

> <r_epik_Ionization_Penalty_Neutral>
0.00349132

> <r_epik_State_Penalty>
0.00242418

> <r_epik_Charging_Adjusted_Penalty>
0.00242418

> <i_epik_Tot_Q>
0

> <i_epik_Tot_abs_Q>
0

> <r_epik_Metal_State_Penalty>
-0

> <b_epik_Metal_Only>
0

> <s_lp_Force_Field>
OPLS_2005

> <r_lp_Energy>
50.4374

> <b_lp_Chiralities_Consistent>
1

> <s_lp_Variant>
AV-unprocessed.smi:234-7

> <Gold.Version>
5.8.1

> <Gold.Id.Protein>
6NUR|6NUR_protein|mol2

> <Gold.PLP.Fitness>
40.0773

> <Gold.PLP.PLP>
-33.7342

> <Gold.PLP.part.hbond>
-2.8159

> <Gold.PLP.part.metal>
0.0000

> <Gold.PLP.part.buried>
-5.7052

> <Gold.PLP.part.nonpolar>
-25.4720

> <Gold.PLP.part.repulsive>
1.5743

> <Gold.PLP.ligand.clash>
0.0000

> <Gold.PLP.ligand.torsion>
1.5692

> <Gold.PLP.Chemscore.Hbond>
2.8873

> <Gold.PLP.Chemscore.CHOScore>
0.0000

> <Gold.PLP.Chemscore.Metal>
0.0000

> <Gold.Chemscore.Hbonds>
donor molecule, donor type, donor heavy atom, donor atom, acceptor molecule, acceptor atom, score
      L1  H    20    45       P1 10747  0.80
      P1  H  7997  8010       L1     3  1.00
      P1  H 10752 10764       L1    10  1.00

> <Gold.PLP.Chemscore.Internal.Correction>
0.8197

> <Gold.Rescore>
     Score         DG    S(hbond)    S(metal)    S(lipo)     H(rot)  DE(clash)    DE(int)     intcor
     12.98     -16.94       2.40        0.00      86.78       2.62       0.06       3.91       ----

> <Gold.Chemscore.Fitness>
12.9777

> <Gold.Chemscore.DG>
-16.9438

> <Gold.Chemscore.ZeroCoef>
-5.4800

> <Gold.Chemscore.Hbond>
2.4018

> <Gold.Chemscore.Metal>
0.0000

> <Gold.Chemscore.Lipo>
86.7849

> <Gold.Chemscore.Internal_Hbond>
0.0000

> <Gold.Chemscore.DEClash>
0.0607

> <Gold.Chemscore.DEInternal>
3.9054

> <Gold.Chemscore.Rot>
2.6219

> <Gold.Chemscore.Internal.Correction>
   9.000000E+99

> <Gold.Chemscore.Hbonds>
donor molecule, donor type, donor heavy atom, donor atom, acceptor molecule, acceptor atom, score
      L1  H    20    45       P1 10747  0.80
      P1  H  7997  8010       L1     3  0.90
      P1  H 10752 10764       L1    10  0.25

> <Gold.Chemscore.Hbond.Weighted>
-8.0221

> <Gold.Chemscore.Metal.Weighted>
-0.0000

> <Gold.Chemscore.Lipo.Weighted>
-10.1538

> <Gold.Chemscore.Internal_Hbond.Weighted>
0.0000

> <Gold.Chemscore.DEClash.Weighted>
0.0607

> <Gold.Chemscore.DEInternal.Weighted>
3.9054

> <Gold.Chemscore.Rot.Weighted>
6.7121

> <Gold.Chemscore.Internal.Correction.Weighted>
   9.000000E+99

> <Gold.Protein.RotatedTorsions>
[ 6907 6896 6895 6894 ] final -135.34 input  -60.11 | X-H torsion
[ 7974 7965 7964 7962 ] final -122.42 input  175.53 | X-H torsion
[ 8008 7997 7996 7995 ] final   40.33 input   59.86 | X-H torsion
[ 10167 10162 10161 10158 ] final  120.36 input  -65.29 | X-H torsion
[ 10718 10713 10712 10709 ] final  115.16 input   66.30 | X-H torsion
[ 10763 10752 10751 10750 ] final  -44.22 input  -60.55 | X-H torsion
[ 11005 11000 10999 10996 ] final   36.28 input  -57.11 | X-H torsion

> <Gold.Protein.ActiveResidues>
 VAL166  LYS551  ARG553  GLY616  TRP617  ASP618  TYR619  PRO620  LYS621  CYS622 
 ASP623  PHE694  ASN695  SER759  ASP760  ASP761  ALA762  ILE779  LEU786  VAL792 
 PHE793  MET794  SER795  GLU796  ALA797  LYS798  CYS799  TRP800  GLU811  SER814 

> <Gold.Protein.RotatedAtoms>
  150.9966  133.6097  159.2700 H   0  0  0  0  0  0  0  0  0  0  0  0  # atno 6907 bound_to 6896
  151.3298  135.0838  159.9344 H   0  0  0  0  0  0  0  0  0  0  0  0  # atno 6908 bound_to 6896
  152.5262  133.9598  159.7766 H   0  0  0  0  0  0  0  0  0  0  0  0  # atno 6909 bound_to 6896
  145.0296  140.8056  143.4331 H   0  0  0  0  0  0  0  0  0  0  0  0  # atno 7974 bound_to 7965
  155.2513  140.3352  155.4282 H   0  0  0  0  0  0  0  0  0  0  0  0  # atno 8008 bound_to 7997
  156.2214  140.1811  156.7511 H   0  0  0  0  0  0  0  0  0  0  0  0  # atno 8009 bound_to 7997
  154.5831  140.0650  156.9118 H   0  0  0  0  0  0  0  0  0  0  0  0  # atno 8010 bound_to 7997
  139.5987  144.7050  151.3114 H   0  0  0  0  0  0  0  0  0  0  0  0  # atno 10167 bound_to 10162
  157.6238  131.1008  150.7290 H   0  0  0  0  0  0  0  0  0  0  0  0  # atno 10718 bound_to 10713
  154.0085  135.6684  153.4763 H   0  0  0  0  0  0  0  0  0  0  0  0  # atno 10763 bound_to 10752
  153.0631  135.5016  154.8135 H   0  0  0  0  0  0  0  0  0  0  0  0  # atno 10764 bound_to 10752
  154.7010  135.3079  154.9305 H   0  0  0  0  0  0  0  0  0  0  0  0  # atno 10765 bound_to 10752
  140.2342  134.3492  155.7951 H   0  0  0  0  0  0  0  0  0  0  0  0  # atno 11005 bound_to 11000
  145.1788  139.2363  143.5303 LP  0  0  0  0  0  0  0  0  0  0  0  0  # atno 17320 bound_to 7965
  146.3497  140.1557  142.8591 LP  0  0  0  0  0  0  0  0  0  0  0  0  # atno 17321 bound_to 7965
  140.7233  143.7076  150.7795 LP  0  0  0  0  0  0  0  0  0  0  0  0  # atno 17342 bound_to 10162
  140.0648  143.5119  152.2610 LP  0  0  0  0  0  0  0  0  0  0  0  0  # atno 17343 bound_to 10162
  156.7642  130.4808  149.5431 LP  0  0  0  0  0  0  0  0  0  0  0  0  # atno 17370 bound_to 10713
  156.1399  130.6237  151.0452 LP  0  0  0  0  0  0  0  0  0  0  0  0  # atno 17371 bound_to 10713
  141.2215  133.7262  156.8780 LP  0  0  0  0  0  0  0  0  0  0  0  0  # atno 17394 bound_to 11000
  140.1719  134.9093  157.2844 LP  0  0  0  0  0  0  0  0  0  0  0  0  # atno 17395 bound_to 11000

$$$$
