AV-unprocessed.smi:3162|AV-procd|sdf|12064|dock10
  -GOLD-   2272017493D 1   1.00000     0.00000
 Structure written by MMmdl.
 37 37  0  0  0  0  0  0  0  0  2 V2000
  147.1582  141.3644  153.4238 C   0  0  0  0  0  0  0  0  0  0  0  0
  147.9728  141.4621  154.7234 C   0  0  0  0  0  0  0  0  0  0  0  0
  149.2810  140.6412  154.7260 C   0  0  1  0  0  0  0  0  0  0  0  0
  149.9215  140.7526  156.0590 N   0  3  0  0  0  0  0  0  0  0  0  0
  151.4036  140.7482  156.0780 C   0  0  2  0  0  0  0  0  0  0  0  0
  151.9134  139.4324  155.4674 C   0  0  0  0  0  0  0  0  0  0  0  0
  151.9363  140.9759  157.5114 C   0  0  0  0  0  0  0  0  0  0  0  0
  151.5064  142.2406  158.0789 N   0  0  0  0  0  0  0  0  0  0  0  0
  152.2719  143.2221  158.6724 C   0  0  0  0  0  0  0  0  0  0  0  0
  151.4270  144.2232  159.0599 C   0  0  0  0  0  0  0  0  0  0  0  0
  151.7571  145.5177  159.7453 C   0  0  0  0  0  0  0  0  0  0  0  0
  150.1458  143.7492  158.6584 C   0  0  0  0  0  0  0  0  0  0  0  0
  150.1959  142.5624  158.0757 N   0  0  0  0  0  0  0  0  0  0  0  0
  149.0182  139.1688  154.3698 C   0  0  0  0  0  0  0  0  0  0  0  0
  149.3659  138.7628  153.1458 N   0  0  0  0  0  0  0  0  0  0  0  0
  148.5022  138.4100  155.1885 O   0  0  0  0  0  0  0  0  0  0  0  0
  146.2918  142.0252  153.4625 H   0  0  0  0  0  0  0  0  0  0  0  0
  146.7878  140.3533  153.2530 H   0  0  0  0  0  0  0  0  0  0  0  0
  147.7573  141.6547  152.5602 H   0  0  0  0  0  0  0  0  0  0  0  0
  148.2162  142.5128  154.8868 H   0  0  0  0  0  0  0  0  0  0  0  0
  147.3444  141.1681  155.5657 H   0  0  0  0  0  0  0  0  0  0  0  0
  149.9491  141.0737  153.9804 H   0  0  0  0  0  0  0  0  0  0  0  0
  149.6080  141.6044  156.5013 H   0  0  0  0  0  0  0  0  0  0  0  0
  151.7596  141.5557  155.4368 H   0  0  0  0  0  0  0  0  0  0  0  0
  152.9999  139.4260  155.3774 H   0  0  0  0  0  0  0  0  0  0  0  0
  151.5081  139.2833  154.4662 H   0  0  0  0  0  0  0  0  0  0  0  0
  151.6245  138.5739  156.0747 H   0  0  0  0  0  0  0  0  0  0  0  0
  151.6086  140.1834  158.1842 H   0  0  0  0  0  0  0  0  0  0  0  0
  153.0270  140.9517  157.5146 H   0  0  0  0  0  0  0  0  0  0  0  0
  153.3440  143.1300  158.7671 H   0  0  0  0  0  0  0  0  0  0  0  0
  150.9127  145.8976  160.3207 H   0  0  0  0  0  0  0  0  0  0  0  0
  152.0326  146.2918  159.0290 H   0  0  0  0  0  0  0  0  0  0  0  0
  152.5921  145.4072  160.4375 H   0  0  0  0  0  0  0  0  0  0  0  0
  149.1855  144.2301  158.7742 H   0  0  0  0  0  0  0  0  0  0  0  0
  149.2167  137.8040  152.8658 H   0  0  0  0  0  0  0  0  0  0  0  0
  149.7830  139.4192  152.5010 H   0  0  0  0  0  0  0  0  0  0  0  0
  149.5950  139.9696  156.6076 H   0  0  0  0  0  0  0  0  0  0  0  0
  1  2  1  0  0  0  0
  1 17  1  0  0  0  0
  1 18  1  0  0  0  0
  1 19  1  0  0  0  0
  2  3  1  0  0  0  0
  2 20  1  0  0  0  0
  2 21  1  0  0  0  0
  3  4  1  0  0  0  0
  3 14  1  0  0  0  0
  3 22  1  0  0  0  0
  4  5  1  0  0  0  0
  4 23  1  0  0  0  0
  4 37  1  0  0  0  0
  5  6  1  0  0  0  0
  5  7  1  0  0  0  0
  5 24  1  0  0  0  0
  6 25  1  0  0  0  0
  6 26  1  0  0  0  0
  6 27  1  0  0  0  0
  7  8  1  0  0  0  0
  7 28  1  0  0  0  0
  7 29  1  0  0  0  0
  8 13  1  0  0  0  0
  8  9  1  0  0  0  0
  9 10  2  0  0  0  0
  9 30  1  0  0  0  0
 10 11  1  0  0  0  0
 10 12  1  0  0  0  0
 11 31  1  0  0  0  0
 11 32  1  0  0  0  0
 11 33  1  0  0  0  0
 12 13  2  0  0  0  0
 12 34  1  0  0  0  0
 14 15  1  0  0  0  0
 14 16  2  0  0  0  0
 15 35  1  0  0  0  0
 15 36  1  0  0  0  0
M  CHG  1   4   1
M  END
> <s_m_source_file>
AV-unprocessed.smi

> <i_m_source_file_index>
3162

> <i_lp_mmshare_version>
43012

> <i_f3d_flags>
0

> <s_epik_input>
W0NIM11bQ0gyXVtDQEBIXShDKD1PKVtOSDJdKVtOSF1bQ0BIXShbQ0gzXSlbQ0gyXW4xW2NIXWMoW0NIM10pW2NIXW4x

> <s_epik_cmdline>
J2VwaWtfcHl0aG9uJywgJy1waCcsICc3LjAnLCAnLXRuJywgJzgnLCAnLW1hJywgJzIwMCcsICctbWV0YWxfYmluZGluZycsICctaW1hZScsICc8aW5maWxlLm1hZT4nLCAnLW9tYWUnLCAnPG91dGZpbGUubWFlPic=

> <r_lp_tautomer_probability>
1

> <r_epik_Ionization_Penalty>
0.112112

> <r_epik_Ionization_Penalty_Charging>
0.112102

> <r_epik_Ionization_Penalty_Neutral>
9.73799e-06

> <r_epik_State_Penalty>
0.101811

> <r_epik_Charging_Adjusted_Penalty>
0.213914

> <i_epik_Tot_Q>
1

> <i_epik_Tot_abs_Q>
1

> <r_epik_Metal_State_Penalty>
0.101821

> <b_epik_Metal_Only>
0

> <s_lp_Force_Field>
OPLS_2005

> <r_lp_Energy>
4.43066

> <b_lp_Chiralities_Consistent>
1

> <s_lp_Variant>
AV-unprocessed.smi:3162-2

> <Gold.Version>
5.8.1

> <Gold.Id.Protein>
6NUR|6NUR_protein|mol2

> <Gold.PLP.Fitness>
42.9946

> <Gold.PLP.PLP>
-35.6972

> <Gold.PLP.part.hbond>
-1.7490

> <Gold.PLP.part.metal>
0.0000

> <Gold.PLP.part.buried>
-5.1452

> <Gold.PLP.part.nonpolar>
-28.9776

> <Gold.PLP.part.repulsive>
0.3616

> <Gold.PLP.ligand.clash>
0.0000

> <Gold.PLP.ligand.torsion>
0.8521

> <Gold.PLP.Chemscore.Hbond>
1.9760

> <Gold.PLP.Chemscore.CHOScore>
0.9978

> <Gold.PLP.Chemscore.Metal>
0.0000

> <Gold.Chemscore.Hbonds>
donor molecule, donor type, donor heavy atom, donor atom, acceptor molecule, acceptor atom, score
      L1  H    15    35       P1  7948  1.00
      L1  H    15    36       P1  7957  0.76
      L1  C    12    34       P1  8029  0.79

> <Gold.PLP.Chemscore.Internal.Correction>
0.0803

> <Gold.Rescore>
     Score         DG    S(hbond)    S(metal)    S(lipo)     H(rot)  DE(clash)    DE(int)     intcor
     13.33     -15.64       1.90        0.00      87.57       2.51       0.00       2.31       ----

> <Gold.Chemscore.Fitness>
13.3342

> <Gold.Chemscore.DG>
-15.6415

> <Gold.Chemscore.ZeroCoef>
-5.4800

> <Gold.Chemscore.Hbond>
1.8957

> <Gold.Chemscore.Metal>
0.0000

> <Gold.Chemscore.Lipo>
87.5701

> <Gold.Chemscore.Internal_Hbond>
0.0000

> <Gold.Chemscore.DEClash>
0.0000

> <Gold.Chemscore.DEInternal>
2.3074

> <Gold.Chemscore.Rot>
2.5062

> <Gold.Chemscore.Internal.Correction>
   9.000000E+99

> <Gold.Chemscore.Hbonds>
donor molecule, donor type, donor heavy atom, donor atom, acceptor molecule, acceptor atom, score
      L1  H    15    35       P1  7948  0.98
      L1  H    15    36       P1  7957  0.71

> <Gold.Chemscore.Hbond.Weighted>
-6.3317

> <Gold.Chemscore.Metal.Weighted>
-0.0000

> <Gold.Chemscore.Lipo.Weighted>
-10.2457

> <Gold.Chemscore.Internal_Hbond.Weighted>
0.0000

> <Gold.Chemscore.DEClash.Weighted>
0.0000

> <Gold.Chemscore.DEInternal.Weighted>
2.3074

> <Gold.Chemscore.Rot.Weighted>
6.4159

> <Gold.Chemscore.Internal.Correction.Weighted>
   9.000000E+99

> <Gold.Protein.RotatedTorsions>
[ 6907 6896 6895 6894 ] final   61.38 input  -60.11 | X-H torsion
[ 7974 7965 7964 7962 ] final -112.45 input  175.53 | X-H torsion
[ 8008 7997 7996 7995 ] final  178.62 input   59.86 | X-H torsion
[ 10167 10162 10161 10158 ] final   74.06 input  -65.29 | X-H torsion
[ 10718 10713 10712 10709 ] final  151.05 input   66.30 | X-H torsion
[ 10763 10752 10751 10750 ] final  126.91 input  -60.55 | X-H torsion
[ 11005 11000 10999 10996 ] final   32.36 input  -57.11 | X-H torsion

> <Gold.Protein.ActiveResidues>
 VAL166  LYS551  ARG553  GLY616  TRP617  ASP618  TYR619  PRO620  LYS621  CYS622 
 ASP623  PHE694  ASN695  SER759  ASP760  ASP761  ALA762  ILE779  LEU786  VAL792 
 PHE793  MET794  SER795  GLU796  ALA797  LYS798  CYS799  TRP800  GLU811  SER814 

> <Gold.Protein.RotatedAtoms>
  152.4084  134.6167  160.0039 H   0  0  0  0  0  0  0  0  0  0  0  0  # atno 6907 bound_to 6896
  151.6351  133.3324  159.3125 H   0  0  0  0  0  0  0  0  0  0  0  0  # atno 6908 bound_to 6896
  150.7977  134.7089  159.6637 H   0  0  0  0  0  0  0  0  0  0  0  0  # atno 6909 bound_to 6896
  145.1438  140.8792  143.3686 H   0  0  0  0  0  0  0  0  0  0  0  0  # atno 7974 bound_to 7965
  156.0526  140.1329  157.0033 H   0  0  0  0  0  0  0  0  0  0  0  0  # atno 8008 bound_to 7997
  154.4442  140.1008  156.6469 H   0  0  0  0  0  0  0  0  0  0  0  0  # atno 8009 bound_to 7997
  155.5501  140.3462  155.4468 H   0  0  0  0  0  0  0  0  0  0  0  0  # atno 8010 bound_to 7997
  140.0178  144.5564  150.7606 H   0  0  0  0  0  0  0  0  0  0  0  0  # atno 10167 bound_to 10162
  157.2756  131.0825  151.1568 H   0  0  0  0  0  0  0  0  0  0  0  0  # atno 10718 bound_to 10713
  153.7009  135.3283  155.3224 H   0  0  0  0  0  0  0  0  0  0  0  0  # atno 10763 bound_to 10752
  154.8413  135.4454  154.1412 H   0  0  0  0  0  0  0  0  0  0  0  0  # atno 10764 bound_to 10752
  153.2479  135.6978  153.7789 H   0  0  0  0  0  0  0  0  0  0  0  0  # atno 10765 bound_to 10752
  140.2743  134.3046  155.7818 H   0  0  0  0  0  0  0  0  0  0  0  0  # atno 11005 bound_to 11000
  145.0503  139.3187  143.5932 LP  0  0  0  0  0  0  0  0  0  0  0  0  # atno 17320 bound_to 7965
  146.3502  139.9909  142.8686 LP  0  0  0  0  0  0  0  0  0  0  0  0  # atno 17321 bound_to 7965
  140.7355  143.2742  151.3795 LP  0  0  0  0  0  0  0  0  0  0  0  0  # atno 17342 bound_to 10162
  139.6161  144.1001  152.2346 LP  0  0  0  0  0  0  0  0  0  0  0  0  # atno 17343 bound_to 10162
  157.3023  130.6848  149.6170 LP  0  0  0  0  0  0  0  0  0  0  0  0  # atno 17370 bound_to 10713
  155.9663  130.4388  150.5234 LP  0  0  0  0  0  0  0  0  0  0  0  0  # atno 17371 bound_to 10713
  141.2173  133.7486  156.9383 LP  0  0  0  0  0  0  0  0  0  0  0  0  # atno 17394 bound_to 11000
  140.1343  134.9335  157.2380 LP  0  0  0  0  0  0  0  0  0  0  0  0  # atno 17395 bound_to 11000

$$$$
