AV-unprocessed.smi:1867|AV-procd|sdf|7562|dock2
  -GOLD-   22720 9283D 1   1.00000     0.00000
 Structure written by MMmdl.
 52 55  0  0  0  0  0  0  0  0  2 V2000
  149.4318  135.2481  156.1219 O   0  0  0  0  0  0  0  0  0  0  0  0
  149.3834  135.5216  154.9248 C   0  0  0  0  0  0  0  0  0  0  0  0
  149.6639  136.7324  154.4048 N   0  0  0  0  0  0  0  0  0  0  0  0
  150.1740  137.8771  155.0724 C   0  0  0  0  0  0  0  0  0  0  0  0
  150.4796  137.7698  156.4427 C   0  0  0  0  0  0  0  0  0  0  0  0
  150.9631  138.8990  157.1303 C   0  0  0  0  0  0  0  0  0  0  0  0
  151.1202  140.1167  156.4269 C   0  0  0  0  0  0  0  0  0  0  0  0
  151.5946  141.2726  157.0782 N   0  0  0  0  0  0  0  0  0  0  0  0
  152.2320  141.2067  158.3844 C   0  0  0  0  0  0  0  0  0  0  0  0
  152.4419  142.6657  158.7849 C   0  0  0  0  0  0  0  0  0  0  0  0
  151.2455  143.3731  158.1487 C   0  0  0  0  0  0  0  0  0  0  0  0
  150.9762  142.5745  156.8676 C   0  0  0  0  0  0  0  0  0  0  0  0
  150.8050  140.2260  155.1144 N   0  0  0  0  0  0  0  0  0  0  0  0
  150.3468  139.1396  154.4577 C   0  0  0  0  0  0  0  0  0  0  0  0
  148.9798  134.6117  154.0208 N   0  0  0  0  0  0  0  0  0  0  0  0
  148.6019  133.2171  154.2518 C   0  0  2  0  0  0  0  0  0  0  0  0
  149.7743  132.2861  154.5513 C   0  0  0  0  0  0  0  0  0  0  0  0
  149.1843  130.9125  154.2259 C   0  0  0  0  0  0  0  0  0  0  0  0
  148.2517  131.1289  153.0967 N   0  3  1  0  0  0  0  0  0  0  0  0
  147.0574  130.2490  153.0979 C   0  0  0  0  0  0  0  0  0  0  0  0
  146.1564  130.5564  151.8872 C   0  0  0  0  0  0  0  0  0  0  0  0
  145.8173  132.0560  151.7497 C   0  0  0  0  0  0  0  0  0  0  0  0
  146.4691  132.9096  152.8491 C   0  0  0  0  0  0  0  0  0  0  0  0
  147.9733  132.5897  152.9984 C   0  0  1  0  0  0  0  0  0  0  0  0
  149.4593  136.8563  153.4244 H   0  0  0  0  0  0  0  0  0  0  0  0
  150.3488  136.8329  156.9645 H   0  0  0  0  0  0  0  0  0  0  0  0
  151.1955  138.8194  158.1818 H   0  0  0  0  0  0  0  0  0  0  0  0
  151.5677  140.7058  159.0898 H   0  0  0  0  0  0  0  0  0  0  0  0
  153.1741  140.6588  158.3464 H   0  0  0  0  0  0  0  0  0  0  0  0
  152.4981  142.8054  159.8647 H   0  0  0  0  0  0  0  0  0  0  0  0
  153.3675  143.0404  158.3460 H   0  0  0  0  0  0  0  0  0  0  0  0
  150.3841  143.2967  158.8135 H   0  0  0  0  0  0  0  0  0  0  0  0
  151.4282  144.4307  157.9580 H   0  0  0  0  0  0  0  0  0  0  0  0
  151.4466  143.0527  156.0079 H   0  0  0  0  0  0  0  0  0  0  0  0
  149.9056  142.4965  156.6749 H   0  0  0  0  0  0  0  0  0  0  0  0
  150.0942  139.3088  153.4225 H   0  0  0  0  0  0  0  0  0  0  0  0
  148.8524  134.9502  153.0778 H   0  0  0  0  0  0  0  0  0  0  0  0
  147.8862  133.1555  155.0743 H   0  0  0  0  0  0  0  0  0  0  0  0
  150.6131  132.5012  153.8873 H   0  0  0  0  0  0  0  0  0  0  0  0
  150.1277  132.3592  155.5802 H   0  0  0  0  0  0  0  0  0  0  0  0
  149.9489  130.1764  153.9770 H   0  0  0  0  0  0  0  0  0  0  0  0
  148.6361  130.5432  155.0941 H   0  0  0  0  0  0  0  0  0  0  0  0
  147.3756  129.2063  153.0720 H   0  0  0  0  0  0  0  0  0  0  0  0
  146.4986  130.3842  154.0255 H   0  0  0  0  0  0  0  0  0  0  0  0
  146.6542  130.2205  150.9767 H   0  0  0  0  0  0  0  0  0  0  0  0
  145.2380  129.9728  151.9579 H   0  0  0  0  0  0  0  0  0  0  0  0
  146.1533  132.4098  150.7742 H   0  0  0  0  0  0  0  0  0  0  0  0
  144.7363  132.1998  151.7659 H   0  0  0  0  0  0  0  0  0  0  0  0
  146.3311  133.9691  152.6311 H   0  0  0  0  0  0  0  0  0  0  0  0
  145.9523  132.7281  153.7926 H   0  0  0  0  0  0  0  0  0  0  0  0
  148.5035  132.9365  152.1096 H   0  0  0  0  0  0  0  0  0  0  0  0
  148.7655  130.9005  152.2574 H   0  0  0  0  0  0  0  0  0  0  0  0
  1  2  2  0  0  0  0
  2  3  1  0  0  0  0
  2 15  1  0  0  0  0
  3  4  1  0  0  0  0
  3 25  1  0  0  0  0
  4 14  1  0  0  0  0
  4  5  2  0  0  0  0
  5  6  1  0  0  0  0
  5 26  1  0  0  0  0
  6  7  2  0  0  0  0
  6 27  1  0  0  0  0
  7  8  1  0  0  0  0
  7 13  1  0  0  0  0
  8 12  1  0  0  0  0
  8  9  1  0  0  0  0
  9 10  1  0  0  0  0
  9 28  1  0  0  0  0
  9 29  1  0  0  0  0
 10 11  1  0  0  0  0
 10 30  1  0  0  0  0
 10 31  1  0  0  0  0
 11 12  1  0  0  0  0
 11 32  1  0  0  0  0
 11 33  1  0  0  0  0
 12 34  1  0  0  0  0
 12 35  1  0  0  0  0
 13 14  2  0  0  0  0
 14 36  1  0  0  0  0
 15 16  1  0  0  0  0
 15 37  1  0  0  0  0
 16 24  1  0  0  0  0
 16 17  1  0  0  0  0
 16 38  1  0  0  0  0
 17 18  1  0  0  0  0
 17 39  1  0  0  0  0
 17 40  1  0  0  0  0
 18 19  1  0  0  0  0
 18 41  1  0  0  0  0
 18 42  1  0  0  0  0
 19 24  1  0  0  0  0
 19 20  1  0  0  0  0
 19 52  1  0  0  0  0
 20 21  1  0  0  0  0
 20 43  1  0  0  0  0
 20 44  1  0  0  0  0
 21 22  1  0  0  0  0
 21 45  1  0  0  0  0
 21 46  1  0  0  0  0
 22 23  1  0  0  0  0
 22 47  1  0  0  0  0
 22 48  1  0  0  0  0
 23 24  1  0  0  0  0
 23 49  1  0  0  0  0
 23 50  1  0  0  0  0
 24 51  1  0  0  0  0
M  CHG  1  19   1
M  END
> <s_m_source_file>
AV-unprocessed.smi

> <i_m_source_file_index>
1867

> <i_lp_mmshare_version>
43012

> <i_f3d_flags>
0

> <s_epik_input>
W0NIMl0xW0NIMl1bQ0gyXVtDSDJdW0NASF0oTjEyKVtDQEBIXShbQ0gyXVtDSDJdMilbTkhdQyg9TylbTkhdYzNbY0hdW2NIXWMobltjSF0zKU40W0NIMl1bQ0gyXVtDSDJdW0NIMl00

> <s_epik_cmdline>
J2VwaWtfcHl0aG9uJywgJy1waCcsICc3LjAnLCAnLXRuJywgJzgnLCAnLW1hJywgJzIwMCcsICctbWV0YWxfYmluZGluZycsICctaW1hZScsICc8aW5maWxlLm1hZT4nLCAnLW9tYWUnLCAnPG91dGZpbGUubWFlPic=

> <r_lp_tautomer_probability>
1

> <r_epik_Ionization_Penalty>
0.0751123

> <r_epik_Ionization_Penalty_Charging>
0.000974069

> <r_epik_Ionization_Penalty_Neutral>
0.0741382

> <r_epik_State_Penalty>
0.0647261

> <r_epik_Charging_Adjusted_Penalty>
0.0657002

> <i_epik_Tot_Q>
1

> <i_epik_Tot_abs_Q>
1

> <r_epik_Metal_State_Penalty>
0.0580571

> <b_epik_Metal_Only>
0

> <s_lp_Force_Field>
OPLS_2005

> <r_lp_Energy>
77.3858

> <b_lp_Chiralities_Consistent>
1

> <s_lp_Variant>
AV-unprocessed.smi:1867-3

> <Gold.Version>
5.8.1

> <Gold.Id.Protein>
6NUR|6NUR_protein|mol2

> <Gold.PLP.Fitness>
53.8398

> <Gold.PLP.PLP>
-41.0521

> <Gold.PLP.part.hbond>
-4.0000

> <Gold.PLP.part.metal>
0.0000

> <Gold.PLP.part.buried>
-4.5169

> <Gold.PLP.part.nonpolar>
-32.8424

> <Gold.PLP.part.repulsive>
0.1063

> <Gold.PLP.ligand.clash>
0.0177

> <Gold.PLP.ligand.torsion>
0.5280

> <Gold.PLP.Chemscore.Hbond>
3.5500

> <Gold.PLP.Chemscore.CHOScore>
1.0000

> <Gold.PLP.Chemscore.Metal>
0.0000

> <Gold.Chemscore.Hbonds>
donor molecule, donor type, donor heavy atom, donor atom, acceptor molecule, acceptor atom, score
      L1  H     3    25       P1  7948  1.00
      L1  H    15    37       P1  7948  1.00
      L1  H    19    52       P1 10747  1.00
      P1  H  7989  7998       L1    13  0.55
      L1  C    14    36       P1  7957  1.00

> <Gold.PLP.Chemscore.Internal.Correction>
0.2114

> <Gold.Rescore>
     Score         DG    S(hbond)    S(metal)    S(lipo)     H(rot)  DE(clash)    DE(int)     intcor
     22.21     -24.13       2.62        0.00     106.48       1.00       0.05       1.87       ----

> <Gold.Chemscore.Fitness>
22.2063

> <Gold.Chemscore.DG>
-24.1287

> <Gold.Chemscore.ZeroCoef>
-5.4800

> <Gold.Chemscore.Hbond>
2.6200

> <Gold.Chemscore.Metal>
0.0000

> <Gold.Chemscore.Lipo>
106.4780

> <Gold.Chemscore.Internal_Hbond>
0.0000

> <Gold.Chemscore.DEClash>
0.0474

> <Gold.Chemscore.DEInternal>
1.8750

> <Gold.Chemscore.Rot>
1.0000

> <Gold.Chemscore.Internal.Correction>
   9.000000E+99

> <Gold.Chemscore.Hbonds>
donor molecule, donor type, donor heavy atom, donor atom, acceptor molecule, acceptor atom, score
      L1  H     3    25       P1  7948  0.82
      L1  H    15    37       P1  7948  0.25
      L1  H    19    52       P1 10747  0.71
      P1  H  7989  7998       L1    13  0.03

> <Gold.Chemscore.Hbond.Weighted>
-8.7507

> <Gold.Chemscore.Metal.Weighted>
-0.0000

> <Gold.Chemscore.Lipo.Weighted>
-12.4579

> <Gold.Chemscore.Internal_Hbond.Weighted>
0.0000

> <Gold.Chemscore.DEClash.Weighted>
0.0474

> <Gold.Chemscore.DEInternal.Weighted>
1.8750

> <Gold.Chemscore.Rot.Weighted>
2.5600

> <Gold.Chemscore.Internal.Correction.Weighted>
   9.000000E+99

> <Gold.Protein.RotatedTorsions>
[ 6907 6896 6895 6894 ] final  149.32 input  -60.11 | X-H torsion
[ 7974 7965 7964 7962 ] final -101.57 input  175.53 | X-H torsion
[ 8008 7997 7996 7995 ] final  -70.83 input   59.86 | X-H torsion
[ 10167 10162 10161 10158 ] final   52.73 input  -65.29 | X-H torsion
[ 10718 10713 10712 10709 ] final   69.10 input   66.30 | X-H torsion
[ 10763 10752 10751 10750 ] final   15.26 input  -60.55 | X-H torsion
[ 11005 11000 10999 10996 ] final  164.86 input  -57.11 | X-H torsion

> <Gold.Protein.ActiveResidues>
 VAL166  LYS551  ARG553  GLY616  TRP617  ASP618  TYR619  PRO620  LYS621  CYS622 
 ASP623  PHE694  ASN695  SER759  ASP760  ASP761  ALA762  ILE779  LEU786  VAL792 
 PHE793  MET794  SER795  GLU796  ALA797  LYS798  CYS799  TRP800  GLU811  SER814 

> <Gold.Protein.RotatedAtoms>
  152.1297  133.4400  159.4714 H   0  0  0  0  0  0  0  0  0  0  0  0  # atno 6907 bound_to 6896
  150.6877  134.2436  159.4491 H   0  0  0  0  0  0  0  0  0  0  0  0  # atno 6908 bound_to 6896
  152.0319  134.9762  160.0623 H   0  0  0  0  0  0  0  0  0  0  0  0  # atno 6909 bound_to 6896
  145.2799  140.9323  143.2938 H   0  0  0  0  0  0  0  0  0  0  0  0  # atno 7974 bound_to 7965
  154.5042  140.0827  156.7859 H   0  0  0  0  0  0  0  0  0  0  0  0  # atno 8008 bound_to 7997
  155.3933  140.3433  155.4234 H   0  0  0  0  0  0  0  0  0  0  0  0  # atno 8009 bound_to 7997
  156.1494  140.1554  156.8781 H   0  0  0  0  0  0  0  0  0  0  0  0  # atno 8010 bound_to 7997
  140.2482  144.3508  150.6357 H   0  0  0  0  0  0  0  0  0  0  0  0  # atno 10167 bound_to 10162
  157.6327  130.9408  150.0468 H   0  0  0  0  0  0  0  0  0  0  0  0  # atno 10718 bound_to 10713
  153.1542  135.6784  153.8836 H   0  0  0  0  0  0  0  0  0  0  0  0  # atno 10763 bound_to 10752
  153.8253  135.3125  155.3415 H   0  0  0  0  0  0  0  0  0  0  0  0  # atno 10764 bound_to 10752
  154.7885  135.4848  154.0087 H   0  0  0  0  0  0  0  0  0  0  0  0  # atno 10765 bound_to 10752
  140.2502  134.7983  157.3494 H   0  0  0  0  0  0  0  0  0  0  0  0  # atno 11005 bound_to 11000
  144.9262  139.4353  143.6517 LP  0  0  0  0  0  0  0  0  0  0  0  0  # atno 17320 bound_to 7965
  146.3219  139.8149  142.8938 LP  0  0  0  0  0  0  0  0  0  0  0  0  # atno 17321 bound_to 7965
  140.6061  143.2168  151.6979 LP  0  0  0  0  0  0  0  0  0  0  0  0  # atno 17342 bound_to 10162
  139.5055  144.3717  152.0464 LP  0  0  0  0  0  0  0  0  0  0  0  0  # atno 17343 bound_to 10162
  156.1542  130.3643  149.9393 LP  0  0  0  0  0  0  0  0  0  0  0  0  # atno 17370 bound_to 10713
  156.7406  130.9078  151.3632 LP  0  0  0  0  0  0  0  0  0  0  0  0  # atno 17371 bound_to 10713
  140.1566  134.4782  155.7924 LP  0  0  0  0  0  0  0  0  0  0  0  0  # atno 17394 bound_to 11000
  141.2202  133.6884  156.7471 LP  0  0  0  0  0  0  0  0  0  0  0  0  # atno 17395 bound_to 11000

$$$$
