AV-unprocessed.smi:1420|AV-procd|sdf|5787|dock6
  -GOLD-   22720 5433D 1   1.00000     0.00000
 Structure written by MMmdl.
 38 39  0  0  0  0  0  0  0  0  1 V2000
  148.9255  141.3899  154.5108 C   0  0  0  0  0  0  0  0  0  0  0  0
  150.2528  141.3153  155.3081 C   0  0  1  0  0  0  0  0  0  0  0  0
  150.0244  141.9299  156.7201 C   0  0  0  0  0  0  0  0  0  0  0  0
  151.2591  142.3486  157.3776 N   0  0  0  0  0  0  0  0  0  0  0  0
  151.8651  141.6866  158.3757 C   0  0  0  0  0  0  0  0  0  0  0  0
  151.4344  140.6376  158.8541 O   0  0  0  0  0  0  0  0  0  0  0  0
  153.1601  142.2971  158.9132 C   0  0  0  0  0  0  0  0  0  0  0  0
  153.0189  142.6920  160.3034 N   0  0  0  0  0  0  0  0  0  0  0  0
  153.6669  142.1816  161.4092 C   0  0  0  0  0  0  0  0  0  0  0  0
  153.2091  142.8641  162.4998 C   0  0  0  0  0  0  0  0  0  0  0  0
  152.2709  143.7841  161.9537 C   0  0  0  0  0  0  0  0  0  0  0  0
  152.1587  143.6788  160.6392 N   0  0  0  0  0  0  0  0  0  0  0  0
  150.8212  139.9475  155.3482 N   0  0  0  0  0  0  0  0  0  0  0  0
  150.6772  139.2419  154.0693 C   0  0  0  0  0  0  0  0  0  0  0  0
  151.2900  137.8309  154.0914 C   0  0  0  0  0  0  0  0  0  0  0  0
  152.6625  137.9117  154.4491 O   0  0  0  0  0  0  0  0  0  0  0  0
  152.8465  138.5190  155.7200 C   0  0  0  0  0  0  0  0  0  0  0  0
  152.2430  139.9345  155.7123 C   0  0  0  0  0  0  0  0  0  0  0  0
  148.4835  142.3852  154.5295 H   0  0  0  0  0  0  0  0  0  0  0  0
  148.1858  140.6956  154.9111 H   0  0  0  0  0  0  0  0  0  0  0  0
  149.0649  141.1630  153.4548 H   0  0  0  0  0  0  0  0  0  0  0  0
  150.9684  141.9562  154.7908 H   0  0  0  0  0  0  0  0  0  0  0  0
  149.3696  142.7986  156.6446 H   0  0  0  0  0  0  0  0  0  0  0  0
  149.5325  141.2334  157.3974 H   0  0  0  0  0  0  0  0  0  0  0  0
  151.6835  143.2049  157.0506 H   0  0  0  0  0  0  0  0  0  0  0  0
  153.9736  141.5744  158.8369 H   0  0  0  0  0  0  0  0  0  0  0  0
  153.4424  143.1623  158.3109 H   0  0  0  0  0  0  0  0  0  0  0  0
  154.3903  141.3835  161.3278 H   0  0  0  0  0  0  0  0  0  0  0  0
  153.5002  142.7271  163.5307 H   0  0  0  0  0  0  0  0  0  0  0  0
  151.6723  144.5201  162.4700 H   0  0  0  0  0  0  0  0  0  0  0  0
  149.6265  139.1278  153.8100 H   0  0  0  0  0  0  0  0  0  0  0  0
  151.1402  139.8244  153.2714 H   0  0  0  0  0  0  0  0  0  0  0  0
  150.7585  137.1891  154.7957 H   0  0  0  0  0  0  0  0  0  0  0  0
  151.2056  137.3665  153.1088 H   0  0  0  0  0  0  0  0  0  0  0  0
  152.3847  137.9062  156.4959 H   0  0  0  0  0  0  0  0  0  0  0  0
  153.9130  138.5640  155.9408 H   0  0  0  0  0  0  0  0  0  0  0  0
  152.8074  140.5651  155.0235 H   0  0  0  0  0  0  0  0  0  0  0  0
  152.3910  140.3427  156.7097 H   0  0  0  0  0  0  0  0  0  0  0  0
  1  2  1  0  0  0  0
  1 19  1  0  0  0  0
  1 20  1  0  0  0  0
  1 21  1  0  0  0  0
  2  3  1  0  0  0  0
  2 13  1  0  0  0  0
  2 22  1  0  0  0  0
  3  4  1  0  0  0  0
  3 23  1  0  0  0  0
  3 24  1  0  0  0  0
  4  5  1  0  0  0  0
  4 25  1  0  0  0  0
  5  6  2  0  0  0  0
  5  7  1  0  0  0  0
  7  8  1  0  0  0  0
  7 26  1  0  0  0  0
  7 27  1  0  0  0  0
  8 12  1  0  0  0  0
  8  9  1  0  0  0  0
  9 10  2  0  0  0  0
  9 28  1  0  0  0  0
 10 11  1  0  0  0  0
 10 29  1  0  0  0  0
 11 12  2  0  0  0  0
 11 30  1  0  0  0  0
 13 18  1  0  0  0  0
 13 14  1  0  0  0  0
 14 15  1  0  0  0  0
 14 31  1  0  0  0  0
 14 32  1  0  0  0  0
 15 16  1  0  0  0  0
 15 33  1  0  0  0  0
 15 34  1  0  0  0  0
 16 17  1  0  0  0  0
 17 18  1  0  0  0  0
 17 35  1  0  0  0  0
 17 36  1  0  0  0  0
 18 37  1  0  0  0  0
 18 38  1  0  0  0  0
M  END
> <s_m_source_file>
AV-unprocessed.smi

> <i_m_source_file_index>
1420

> <i_lp_mmshare_version>
43012

> <i_f3d_flags>
0

> <s_epik_input>
W0NIMl0xW0NIMl1PW0NIMl1bQ0gyXU4xW0NASF0oW0NIM10pW0NIMl1bTkhdQyg9TylbQ0gyXW4yW2NIXVtjSF1bY0hdbjI=

> <s_epik_cmdline>
J2VwaWtfcHl0aG9uJywgJy1waCcsICc3LjAnLCAnLXRuJywgJzgnLCAnLW1hJywgJzIwMCcsICctbWV0YWxfYmluZGluZycsICctaW1hZScsICc8aW5maWxlLm1hZT4nLCAnLW9tYWUnLCAnPG91dGZpbGUubWFlPic=

> <r_lp_tautomer_probability>
1

> <r_epik_Ionization_Penalty>
0.196927

> <r_epik_Ionization_Penalty_Charging>
0

> <r_epik_Ionization_Penalty_Neutral>
0.196927

> <r_epik_State_Penalty>
0.186684

> <r_epik_Charging_Adjusted_Penalty>
0.186684

> <i_epik_Tot_Q>
0

> <i_epik_Tot_abs_Q>
0

> <r_epik_Metal_State_Penalty>
0.186682

> <b_epik_Metal_Only>
0

> <s_lp_Force_Field>
OPLS_2005

> <r_lp_Energy>
28.9216

> <b_lp_Chiralities_Consistent>
1

> <s_lp_Variant>
AV-unprocessed.smi:1420-2

> <Gold.Version>
5.8.1

> <Gold.Id.Protein>
6NUR|6NUR_protein|mol2

> <Gold.PLP.Fitness>
42.5863

> <Gold.PLP.PLP>
-41.5765

> <Gold.PLP.part.hbond>
-1.0000

> <Gold.PLP.part.metal>
0.0000

> <Gold.PLP.part.buried>
-4.7039

> <Gold.PLP.part.nonpolar>
-35.7819

> <Gold.PLP.part.repulsive>
0.2326

> <Gold.PLP.ligand.clash>
0.0000

> <Gold.PLP.ligand.torsion>
0.5784

> <Gold.PLP.Chemscore.Hbond>
0.7040

> <Gold.PLP.Chemscore.CHOScore>
0.0000

> <Gold.PLP.Chemscore.Metal>
0.0000

> <Gold.Chemscore.Hbonds>
donor molecule, donor type, donor heavy atom, donor atom, acceptor molecule, acceptor atom, score
      P1  H 10752 10764       L1    16  0.15

> <Gold.PLP.Chemscore.Internal.Correction>
0.0547

> <Gold.Rescore>
     Score         DG    S(hbond)    S(metal)    S(lipo)     H(rot)  DE(clash)    DE(int)     intcor
     14.23     -14.83       0.87        0.00      96.08       1.87       0.06       0.54       ----

> <Gold.Chemscore.Fitness>
14.2340

> <Gold.Chemscore.DG>
-14.8327

> <Gold.Chemscore.ZeroCoef>
-5.4800

> <Gold.Chemscore.Hbond>
0.8654

> <Gold.Chemscore.Metal>
0.0000

> <Gold.Chemscore.Lipo>
96.0818

> <Gold.Chemscore.Internal_Hbond>
0.0000

> <Gold.Chemscore.DEClash>
0.0605

> <Gold.Chemscore.DEInternal>
0.5382

> <Gold.Chemscore.Rot>
1.8669

> <Gold.Chemscore.Internal.Correction>
   9.000000E+99

> <Gold.Chemscore.Hbonds>
donor molecule, donor type, donor heavy atom, donor atom, acceptor molecule, acceptor atom, score
      P1  H 10752 10764       L1    16  0.01

> <Gold.Chemscore.Hbond.Weighted>
-2.8903

> <Gold.Chemscore.Metal.Weighted>
-0.0000

> <Gold.Chemscore.Lipo.Weighted>
-11.2416

> <Gold.Chemscore.Internal_Hbond.Weighted>
0.0000

> <Gold.Chemscore.DEClash.Weighted>
0.0605

> <Gold.Chemscore.DEInternal.Weighted>
0.5382

> <Gold.Chemscore.Rot.Weighted>
4.7792

> <Gold.Chemscore.Internal.Correction.Weighted>
   9.000000E+99

> <Gold.Protein.RotatedTorsions>
[ 6907 6896 6895 6894 ] final   -4.79 input  -60.11 | X-H torsion
[ 7974 7965 7964 7962 ] final  -33.51 input  175.53 | X-H torsion
[ 8008 7997 7996 7995 ] final  172.33 input   59.86 | X-H torsion
[ 10167 10162 10161 10158 ] final -165.19 input  -65.29 | X-H torsion
[ 10718 10713 10712 10709 ] final   91.15 input   66.30 | X-H torsion
[ 10763 10752 10751 10750 ] final  -80.83 input  -60.55 | X-H torsion
[ 11005 11000 10999 10996 ] final  122.31 input  -57.11 | X-H torsion

> <Gold.Protein.ActiveResidues>
 VAL166  LYS551  ARG553  GLY616  TRP617  ASP618  TYR619  PRO620  LYS621  CYS622 
 ASP623  PHE694  ASN695  SER759  ASP760  ASP761  ALA762  ILE779  LEU786  VAL792 
 PHE793  MET794  SER795  GLU796  ALA797  LYS798  CYS799  TRP800  GLU811  SER814 

> <Gold.Protein.RotatedAtoms>
  151.4920  135.1058  159.9805 H   0  0  0  0  0  0  0  0  0  0  0  0  # atno 6907 bound_to 6896
  152.4737  133.8084  159.7001 H   0  0  0  0  0  0  0  0  0  0  0  0  # atno 6908 bound_to 6896
  150.8761  133.7374  159.2972 H   0  0  0  0  0  0  0  0  0  0  0  0  # atno 6909 bound_to 6896
  146.0905  140.5925  142.8867 H   0  0  0  0  0  0  0  0  0  0  0  0  # atno 7974 bound_to 7965
  156.1185  140.1489  156.9238 H   0  0  0  0  0  0  0  0  0  0  0  0  # atno 8008 bound_to 7997
  154.4818  140.0877  156.7437 H   0  0  0  0  0  0  0  0  0  0  0  0  # atno 8009 bound_to 7997
  155.4471  140.3433  155.4298 H   0  0  0  0  0  0  0  0  0  0  0  0  # atno 8010 bound_to 7997
  139.6199  144.0646  152.1922 H   0  0  0  0  0  0  0  0  0  0  0  0  # atno 10167 bound_to 10162
  157.6960  131.0397  150.3686 H   0  0  0  0  0  0  0  0  0  0  0  0  # atno 10718 bound_to 10713
  154.5561  135.5647  153.6965 H   0  0  0  0  0  0  0  0  0  0  0  0  # atno 10763 bound_to 10752
  153.0004  135.6262  154.2309 H   0  0  0  0  0  0  0  0  0  0  0  0  # atno 10764 bound_to 10752
  154.2245  135.2868  155.2892 H   0  0  0  0  0  0  0  0  0  0  0  0  # atno 10765 bound_to 10752
  139.9263  134.9641  156.8090 H   0  0  0  0  0  0  0  0  0  0  0  0  # atno 11005 bound_to 11000
  144.7356  140.4799  143.6906 LP  0  0  0  0  0  0  0  0  0  0  0  0  # atno 17320 bound_to 7965
  145.6049  139.1507  143.3108 LP  0  0  0  0  0  0  0  0  0  0  0  0  # atno 17321 bound_to 7965
  140.0285  144.6099  150.7507 LP  0  0  0  0  0  0  0  0  0  0  0  0  # atno 17342 bound_to 10162
  140.7375  143.2766  151.3723 LP  0  0  0  0  0  0  0  0  0  0  0  0  # atno 17343 bound_to 10162
  156.4113  130.3935  149.6889 LP  0  0  0  0  0  0  0  0  0  0  0  0  # atno 17370 bound_to 10713
  156.4172  130.7751  151.2767 LP  0  0  0  0  0  0  0  0  0  0  0  0  # atno 17371 bound_to 10713
  140.6327  133.9890  155.7670 LP  0  0  0  0  0  0  0  0  0  0  0  0  # atno 17394 bound_to 11000
  141.0822  134.0044  157.3368 LP  0  0  0  0  0  0  0  0  0  0  0  0  # atno 17395 bound_to 11000

$$$$
