AV-unprocessed.smi:1934|AV-procd|sdf|7823|dock1
  -GOLD-   22720 9573D 1   1.00000     0.00000
 Structure written by MMmdl.
 46 47  0  0  0  0  0  0  0  0  2 V2000
  150.4351  142.6100  158.0718 C   0  0  0  0  0  0  0  0  0  0  0  0
  150.3752  141.7027  156.8786 C   0  0  0  0  0  0  0  0  0  0  0  0
  149.2750  141.4787  156.0008 C   0  0  0  0  0  0  0  0  0  0  0  0
  149.7805  140.5725  155.1091 C   0  0  0  0  0  0  0  0  0  0  0  0
  149.1717  139.9934  154.0400 N   0  0  0  0  0  0  0  0  0  0  0  0
  147.9029  139.5628  153.9289 C   0  0  0  0  0  0  0  0  0  0  0  0
  147.0508  139.6087  154.8166 O   0  0  0  0  0  0  0  0  0  0  0  0
  147.6637  139.0615  152.7085 N   0  0  0  0  0  0  0  0  0  0  0  0
  146.3787  138.5316  152.2674 C   0  0  0  0  0  0  0  0  0  0  0  0
  145.8758  137.4134  153.2011 C   0  0  0  0  0  0  0  0  0  0  0  0
  146.3156  136.0682  152.7539 N   0  3  1  0  0  0  0  0  0  0  0  0
  146.7674  135.2174  153.8850 C   0  0  0  0  0  0  0  0  0  0  0  0
  147.3460  133.8861  153.3795 C   0  0  0  0  0  0  0  0  0  0  0  0
  146.3288  133.1400  152.5066 C   0  0  0  0  0  0  0  0  0  0  0  0
  145.8460  134.0434  151.3591 C   0  0  1  0  0  0  0  0  0  0  0  0
  144.8052  133.3317  150.4832 C   0  0  0  0  0  0  0  0  0  0  0  0
  145.2986  135.3707  151.9210 C   0  0  0  0  0  0  0  0  0  0  0  0
  151.0850  140.2924  155.4509 N   0  0  0  0  0  0  0  0  0  0  0  0
  152.0324  139.3967  154.8165 C   0  0  0  0  0  0  0  0  0  0  0  0
  151.4481  140.9931  156.5469 N   0  0  0  0  0  0  0  0  0  0  0  0
  149.4945  143.1440  158.2083 H   0  0  0  0  0  0  0  0  0  0  0  0
  151.2247  143.3536  157.9607 H   0  0  0  0  0  0  0  0  0  0  0  0
  150.6319  142.0465  158.9840 H   0  0  0  0  0  0  0  0  0  0  0  0
  148.2906  141.9202  156.0387 H   0  0  0  0  0  0  0  0  0  0  0  0
  149.7529  139.8866  153.2217 H   0  0  0  0  0  0  0  0  0  0  0  0
  148.4163  139.0612  152.0350 H   0  0  0  0  0  0  0  0  0  0  0  0
  145.6625  139.3506  152.1978 H   0  0  0  0  0  0  0  0  0  0  0  0
  146.5018  138.1427  151.2564 H   0  0  0  0  0  0  0  0  0  0  0  0
  146.2688  137.6102  154.1998 H   0  0  0  0  0  0  0  0  0  0  0  0
  144.7884  137.4294  153.2917 H   0  0  0  0  0  0  0  0  0  0  0  0
  147.5318  135.7413  154.4605 H   0  0  0  0  0  0  0  0  0  0  0  0
  145.9309  135.0334  154.5610 H   0  0  0  0  0  0  0  0  0  0  0  0
  148.2535  134.0751  152.8046 H   0  0  0  0  0  0  0  0  0  0  0  0
  147.6395  133.2622  154.2245 H   0  0  0  0  0  0  0  0  0  0  0  0
  146.7788  132.2295  152.1093 H   0  0  0  0  0  0  0  0  0  0  0  0
  145.4806  132.8276  153.1179 H   0  0  0  0  0  0  0  0  0  0  0  0
  146.7041  134.2743  150.7259 H   0  0  0  0  0  0  0  0  0  0  0  0
  143.9161  133.0676  151.0568 H   0  0  0  0  0  0  0  0  0  0  0  0
  145.2118  132.4136  150.0583 H   0  0  0  0  0  0  0  0  0  0  0  0
  144.4898  133.9659  149.6539 H   0  0  0  0  0  0  0  0  0  0  0  0
  144.4041  135.1870  152.5187 H   0  0  0  0  0  0  0  0  0  0  0  0
  144.9934  136.0071  151.0911 H   0  0  0  0  0  0  0  0  0  0  0  0
  152.0496  139.5796  153.7417 H   0  0  0  0  0  0  0  0  0  0  0  0
  151.7355  138.3636  154.9985 H   0  0  0  0  0  0  0  0  0  0  0  0
  153.0354  139.5543  155.2157 H   0  0  0  0  0  0  0  0  0  0  0  0
  147.1275  136.2121  152.1706 H   0  0  0  0  0  0  0  0  0  0  0  0
  1  2  1  0  0  0  0
  1 21  1  0  0  0  0
  1 22  1  0  0  0  0
  1 23  1  0  0  0  0
  2 20  2  0  0  0  0
  2  3  1  0  0  0  0
  3  4  2  0  0  0  0
  3 24  1  0  0  0  0
  4  5  1  0  0  0  0
  4 18  1  0  0  0  0
  5  6  1  0  0  0  0
  5 25  1  0  0  0  0
  6  7  2  0  0  0  0
  6  8  1  0  0  0  0
  8  9  1  0  0  0  0
  8 26  1  0  0  0  0
  9 10  1  0  0  0  0
  9 27  1  0  0  0  0
  9 28  1  0  0  0  0
 10 11  1  0  0  0  0
 10 29  1  0  0  0  0
 10 30  1  0  0  0  0
 11 17  1  0  0  0  0
 11 12  1  0  0  0  0
 11 46  1  0  0  0  0
 12 13  1  0  0  0  0
 12 31  1  0  0  0  0
 12 32  1  0  0  0  0
 13 14  1  0  0  0  0
 13 33  1  0  0  0  0
 13 34  1  0  0  0  0
 14 15  1  0  0  0  0
 14 35  1  0  0  0  0
 14 36  1  0  0  0  0
 15 16  1  0  0  0  0
 15 17  1  0  0  0  0
 15 37  1  0  0  0  0
 16 38  1  0  0  0  0
 16 39  1  0  0  0  0
 16 40  1  0  0  0  0
 17 41  1  0  0  0  0
 17 42  1  0  0  0  0
 18 19  1  0  0  0  0
 18 20  1  0  0  0  0
 19 43  1  0  0  0  0
 19 44  1  0  0  0  0
 19 45  1  0  0  0  0
M  CHG  1  11   1
M  END
> <s_m_source_file>
AV-unprocessed.smi

> <i_m_source_file_index>
1934

> <i_lp_mmshare_version>
43012

> <i_f3d_flags>
0

> <s_epik_input>
W0NIM11jMVtjSF1jKG4objEpW0NIM10pW05IXUMoPU8pW05IXVtDSDJdW0NIMl1OMltDSDJdW0NIMl1bQ0gyXVtDQEBIXShbQ0gzXSlbQ0gyXTI=

> <s_epik_cmdline>
J2VwaWtfcHl0aG9uJywgJy1waCcsICc3LjAnLCAnLXRuJywgJzgnLCAnLW1hJywgJzIwMCcsICctbWV0YWxfYmluZGluZycsICctaW1hZScsICc8aW5maWxlLm1hZT4nLCAnLW9tYWUnLCAnPG91dGZpbGUubWFlPic=

> <r_lp_tautomer_probability>
1

> <r_epik_Ionization_Penalty>
0.00202955

> <r_epik_Ionization_Penalty_Charging>
0.00195276

> <r_epik_Ionization_Penalty_Neutral>
7.67968e-05

> <r_epik_State_Penalty>
0.00133177

> <r_epik_Charging_Adjusted_Penalty>
0.00328452

> <i_epik_Tot_Q>
1

> <i_epik_Tot_abs_Q>
1

> <r_epik_Metal_State_Penalty>
-0

> <b_epik_Metal_Only>
0

> <s_lp_Force_Field>
OPLS_2005

> <r_lp_Energy>
17.7582

> <b_lp_Chiralities_Consistent>
1

> <s_lp_Variant>
AV-unprocessed.smi:1934-1

> <Gold.Version>
5.8.1

> <Gold.Id.Protein>
6NUR|6NUR_protein|mol2

> <Gold.PLP.Fitness>
44.1988

> <Gold.PLP.PLP>
-36.9404

> <Gold.PLP.part.hbond>
-3.3235

> <Gold.PLP.part.metal>
0.0000

> <Gold.PLP.part.buried>
-1.4277

> <Gold.PLP.part.nonpolar>
-32.5373

> <Gold.PLP.part.repulsive>
0.3639

> <Gold.PLP.ligand.clash>
0.0000

> <Gold.PLP.ligand.torsion>
1.0397

> <Gold.PLP.Chemscore.Hbond>
3.0880

> <Gold.PLP.Chemscore.CHOScore>
0.0000

> <Gold.PLP.Chemscore.Metal>
0.0000

> <Gold.Chemscore.Hbonds>
donor molecule, donor type, donor heavy atom, donor atom, acceptor molecule, acceptor atom, score
      L1  H     5    25       P1  7957  0.73
      L1  H     8    26       P1  7957  0.94
      L1  H    11    46       P1  7948  2.00

> <Gold.PLP.Chemscore.Internal.Correction>
0.0738

> <Gold.Rescore>
     Score         DG    S(hbond)    S(metal)    S(lipo)     H(rot)  DE(clash)    DE(int)     intcor
     14.85     -17.24       2.27        0.00      68.10       1.48       0.35       2.04       ----

> <Gold.Chemscore.Fitness>
14.8506

> <Gold.Chemscore.DG>
-17.2375

> <Gold.Chemscore.ZeroCoef>
-5.4800

> <Gold.Chemscore.Hbond>
2.2718

> <Gold.Chemscore.Metal>
0.0000

> <Gold.Chemscore.Lipo>
68.1027

> <Gold.Chemscore.Internal_Hbond>
0.0000

> <Gold.Chemscore.DEClash>
0.3469

> <Gold.Chemscore.DEInternal>
2.0400

> <Gold.Chemscore.Rot>
1.4838

> <Gold.Chemscore.Internal.Correction>
   9.000000E+99

> <Gold.Chemscore.Hbonds>
donor molecule, donor type, donor heavy atom, donor atom, acceptor molecule, acceptor atom, score
      L1  H     5    25       P1  7957  0.69
      L1  H     8    26       P1  7957  0.89
      L1  H    11    46       P1  7948  0.98

> <Gold.Chemscore.Hbond.Weighted>
-7.5879

> <Gold.Chemscore.Metal.Weighted>
-0.0000

> <Gold.Chemscore.Lipo.Weighted>
-7.9680

> <Gold.Chemscore.Internal_Hbond.Weighted>
0.0000

> <Gold.Chemscore.DEClash.Weighted>
0.3469

> <Gold.Chemscore.DEInternal.Weighted>
2.0400

> <Gold.Chemscore.Rot.Weighted>
3.7985

> <Gold.Chemscore.Internal.Correction.Weighted>
   9.000000E+99

> <Gold.Protein.RotatedTorsions>
[ 6907 6896 6895 6894 ] final   10.78 input  -60.11 | X-H torsion
[ 7974 7965 7964 7962 ] final   59.63 input  175.53 | X-H torsion
[ 8008 7997 7996 7995 ] final   83.81 input   59.86 | X-H torsion
[ 10167 10162 10161 10158 ] final -132.09 input  -65.29 | X-H torsion
[ 10718 10713 10712 10709 ] final -151.32 input   66.30 | X-H torsion
[ 10763 10752 10751 10750 ] final  152.34 input  -60.55 | X-H torsion
[ 11005 11000 10999 10996 ] final  -63.40 input  -57.11 | X-H torsion

> <Gold.Protein.ActiveResidues>
 VAL166  LYS551  ARG553  GLY616  TRP617  ASP618  TYR619  PRO620  LYS621  CYS622 
 ASP623  PHE694  ASN695  SER759  ASP760  ASP761  ALA762  ILE779  LEU786  VAL792 
 PHE793  MET794  SER795  GLU796  ALA797  LYS798  CYS799  TRP800  GLU811  SER814 

> <Gold.Protein.RotatedAtoms>
  151.7437  135.0848  160.0319 H   0  0  0  0  0  0  0  0  0  0  0  0  # atno 6907 bound_to 6896
  152.3462  133.6121  159.5920 H   0  0  0  0  0  0  0  0  0  0  0  0  # atno 6908 bound_to 6896
  150.7510  133.9561  159.3542 H   0  0  0  0  0  0  0  0  0  0  0  0  # atno 6909 bound_to 6896
  145.9050  139.3610  143.0569 H   0  0  0  0  0  0  0  0  0  0  0  0  # atno 7974 bound_to 7965
  155.9288  140.3416  155.6232 H   0  0  0  0  0  0  0  0  0  0  0  0  # atno 8008 bound_to 7997
  155.7182  140.0780  157.2360 H   0  0  0  0  0  0  0  0  0  0  0  0  # atno 8009 bound_to 7997
  154.4081  140.1610  156.2360 H   0  0  0  0  0  0  0  0  0  0  0  0  # atno 8010 bound_to 7997
  139.9121  143.6481  152.2573 H   0  0  0  0  0  0  0  0  0  0  0  0  # atno 10167 bound_to 10162
  156.4577  130.8198  151.2429 H   0  0  0  0  0  0  0  0  0  0  0  0  # atno 10718 bound_to 10713
  154.1185  135.2834  155.3214 H   0  0  0  0  0  0  0  0  0  0  0  0  # atno 10763 bound_to 10752
  154.6440  135.5392  153.7826 H   0  0  0  0  0  0  0  0  0  0  0  0  # atno 10764 bound_to 10752
  153.0321  135.6493  154.1340 H   0  0  0  0  0  0  0  0  0  0  0  0  # atno 10765 bound_to 10752
  141.1392  133.6651  156.5675 H   0  0  0  0  0  0  0  0  0  0  0  0  # atno 11005 bound_to 11000
  145.8743  140.9401  143.0634 LP  0  0  0  0  0  0  0  0  0  0  0  0  # atno 17320 bound_to 7965
  144.6738  140.0696  143.7473 LP  0  0  0  0  0  0  0  0  0  0  0  0  # atno 17321 bound_to 7965
  139.6933  144.7644  151.1400 LP  0  0  0  0  0  0  0  0  0  0  0  0  # atno 17342 bound_to 10162
  140.7683  143.5558  150.9153 LP  0  0  0  0  0  0  0  0  0  0  0  0  # atno 17343 bound_to 10162
  157.7499  131.0117  150.3357 LP  0  0  0  0  0  0  0  0  0  0  0  0  # atno 17370 bound_to 10713
  156.3749  130.3870  149.7146 LP  0  0  0  0  0  0  0  0  0  0  0  0  # atno 17371 bound_to 10713
  140.3939  134.7416  157.4738 LP  0  0  0  0  0  0  0  0  0  0  0  0  # atno 17394 bound_to 11000
  140.0546  134.6082  155.8821 LP  0  0  0  0  0  0  0  0  0  0  0  0  # atno 17395 bound_to 11000

$$$$
