AV-unprocessed.smi:17|AV-procd|sdf|104|dock10
  -GOLD-   2262015263D 1   1.00000     0.00000
 Structure written by MMmdl.
 57 59  0  0  0  0  0  0  0  0  1 V2000
  149.6936  130.2493  158.1055 C   0  0  0  0  0  0  0  0  0  0  0  0
  150.9260  129.5886  157.4654 C   0  0  0  0  0  0  0  0  0  0  0  0
  151.2315  130.0912  156.1239 N   0  0  0  0  0  0  0  0  0  0  0  0
  150.1926  130.0855  155.2493 C   0  0  0  0  0  0  0  0  0  0  0  0
  149.6342  128.8853  154.9527 N   0  0  0  0  0  0  0  0  0  0  0  0
  148.6159  128.8090  154.0920 C   0  0  0  0  0  0  0  0  0  0  0  0
  148.0138  129.7936  153.4228 N   0  0  0  0  0  0  0  0  0  0  0  0
  148.5768  131.0023  153.7086 C   0  0  0  0  0  0  0  0  0  0  0  0
  149.6627  131.2383  154.5988 C   0  0  0  0  0  0  0  0  0  0  0  0
  149.9592  132.5963  154.6282 N   0  0  0  0  0  0  0  0  0  0  0  0
  149.0997  133.1312  153.8055 C   0  0  0  0  0  0  0  0  0  0  0  0
  148.2181  132.2486  153.2249 N   0  0  0  0  0  0  0  0  0  0  0  0
  147.1674  132.5729  152.2761 C   0  0  0  0  0  0  0  0  0  0  0  0
  145.7624  132.7558  152.9130 C   0  0  1  0  0  0  0  0  0  0  0  0
  145.8177  133.9086  153.9443 C   0  0  0  0  0  0  0  0  0  0  0  0
  144.5319  134.2113  154.4458 O   0  0  0  0  0  0  0  0  0  0  0  0
  144.6439  132.9956  151.8548 C   0  0  2  0  0  0  0  0  0  0  0  0
  144.4620  131.8723  150.8437 C   0  0  0  0  0  0  0  0  0  0  0  0
  143.7024  132.5641  149.7221 C   0  0  0  0  0  0  0  0  0  0  0  0
  144.2901  133.8523  149.6482 O   0  0  0  0  0  0  0  0  0  0  0  0
  144.8576  134.1920  150.9101 C   0  0  0  0  0  0  0  0  0  0  0  0
  152.5458  129.7222  155.5734 C   0  0  1  0  0  0  0  0  0  0  0  0
  153.7194  130.3823  156.3223 C   0  0  0  0  0  0  0  0  0  0  0  0
  152.7604  128.1993  155.4309 C   0  0  0  0  0  0  0  0  0  0  0  0
  154.5535  127.7664  155.3416 S   0  0  0  0  0  0  0  0  0  0  0  0
  155.1700  128.9756  154.1018 C   0  0  0  0  0  0  0  0  0  0  0  0
  155.1866  128.0668  156.6344 O   0  0  0  0  0  0  0  0  0  0  0  0
  154.6738  126.4143  154.7750 O   0  0  0  0  0  0  0  0  0  0  0  0
  149.5612  129.9004  159.1296 H   0  0  0  0  0  0  0  0  0  0  0  0
  148.7768  130.0179  157.5628 H   0  0  0  0  0  0  0  0  0  0  0  0
  149.8022  131.3339  158.1365 H   0  0  0  0  0  0  0  0  0  0  0  0
  151.7872  129.7813  158.1056 H   0  0  0  0  0  0  0  0  0  0  0  0
  150.8031  128.5065  157.4476 H   0  0  0  0  0  0  0  0  0  0  0  0
  148.2288  127.8164  153.9146 H   0  0  0  0  0  0  0  0  0  0  0  0
  149.0780  134.1927  153.6055 H   0  0  0  0  0  0  0  0  0  0  0  0
  147.4815  133.4853  151.7694 H   0  0  0  0  0  0  0  0  0  0  0  0
  147.1308  131.8006  151.5072 H   0  0  0  0  0  0  0  0  0  0  0  0
  145.5084  131.8483  153.4631 H   0  0  0  0  0  0  0  0  0  0  0  0
  146.4797  133.6567  154.7735 H   0  0  0  0  0  0  0  0  0  0  0  0
  146.1970  134.8274  153.4992 H   0  0  0  0  0  0  0  0  0  0  0  0
  144.0900  133.4008  154.6483 H   0  0  0  0  0  0  0  0  0  0  0  0
  143.6920  133.1326  152.3705 H   0  0  0  0  0  0  0  0  0  0  0  0
  145.4287  131.5214  150.4799 H   0  0  0  0  0  0  0  0  0  0  0  0
  143.9121  131.0185  151.2408 H   0  0  0  0  0  0  0  0  0  0  0  0
  143.7735  132.0337  148.7722 H   0  0  0  0  0  0  0  0  0  0  0  0
  142.6474  132.6670  149.9804 H   0  0  0  0  0  0  0  0  0  0  0  0
  144.3909  135.0993  151.2921 H   0  0  0  0  0  0  0  0  0  0  0  0
  145.9175  134.3947  150.7547 H   0  0  0  0  0  0  0  0  0  0  0  0
  152.5743  130.1274  154.5613 H   0  0  0  0  0  0  0  0  0  0  0  0
  154.6622  130.1926  155.8092 H   0  0  0  0  0  0  0  0  0  0  0  0
  153.8193  129.9958  157.3368 H   0  0  0  0  0  0  0  0  0  0  0  0
  153.5990  131.4641  156.3835 H   0  0  0  0  0  0  0  0  0  0  0  0
  152.3634  127.6874  156.3076 H   0  0  0  0  0  0  0  0  0  0  0  0
  152.2445  127.7798  154.5683 H   0  0  0  0  0  0  0  0  0  0  0  0
  156.2370  128.8198  153.9451 H   0  0  0  0  0  0  0  0  0  0  0  0
  155.0027  129.9886  154.4672 H   0  0  0  0  0  0  0  0  0  0  0  0
  154.6411  128.8353  153.1595 H   0  0  0  0  0  0  0  0  0  0  0  0
  1  2  1  0  0  0  0
  1 29  1  0  0  0  0
  1 30  1  0  0  0  0
  1 31  1  0  0  0  0
  2  3  1  0  0  0  0
  2 32  1  0  0  0  0
  2 33  1  0  0  0  0
  3  4  1  0  0  0  0
  3 22  1  0  0  0  0
  4  9  1  0  0  0  0
  4  5  2  0  0  0  0
  5  6  1  0  0  0  0
  6  7  2  0  0  0  0
  6 34  1  0  0  0  0
  7  8  1  0  0  0  0
  8 12  1  0  0  0  0
  8  9  2  0  0  0  0
  9 10  1  0  0  0  0
 10 11  2  0  0  0  0
 11 12  1  0  0  0  0
 11 35  1  0  0  0  0
 12 13  1  0  0  0  0
 13 14  1  0  0  0  0
 13 36  1  0  0  0  0
 13 37  1  0  0  0  0
 14 15  1  0  0  0  0
 14 17  1  0  0  0  0
 14 38  1  0  0  0  0
 15 16  1  0  0  0  0
 15 39  1  0  0  0  0
 15 40  1  0  0  0  0
 16 41  1  0  0  0  0
 17 21  1  0  0  0  0
 17 18  1  0  0  0  0
 17 42  1  0  0  0  0
 18 19  1  0  0  0  0
 18 43  1  0  0  0  0
 18 44  1  0  0  0  0
 19 20  1  0  0  0  0
 19 45  1  0  0  0  0
 19 46  1  0  0  0  0
 20 21  1  0  0  0  0
 21 47  1  0  0  0  0
 21 48  1  0  0  0  0
 22 23  1  0  0  0  0
 22 24  1  0  0  0  0
 22 49  1  0  0  0  0
 23 50  1  0  0  0  0
 23 51  1  0  0  0  0
 23 52  1  0  0  0  0
 24 25  1  0  0  0  0
 24 53  1  0  0  0  0
 24 54  1  0  0  0  0
 25 26  1  0  0  0  0
 25 27  2  0  0  0  0
 25 28  2  0  0  0  0
 26 55  1  0  0  0  0
 26 56  1  0  0  0  0
 26 57  1  0  0  0  0
M  END
> <s_m_source_file>
AV-unprocessed.smi

> <i_m_source_file_index>
17

> <i_lp_mmshare_version>
43012

> <i_f3d_flags>
0

> <s_epik_input>
W0NIM11TKD1PKSg9TylbQ0gyXVtDQEBIXShbQ0gzXSlOKFtDSDJdW0NIM10pYyhuW2NIXW4xKWMoYzEyKW5bY0hdbjJbQ0gyXVtDQEhdKFtDSDJdW09IXSlbQ0BASF0zW0NIMl1bQ0gyXU9bQ0gyXTM=

> <s_epik_cmdline>
J2VwaWtfcHl0aG9uJywgJy1waCcsICc3LjAnLCAnLXRuJywgJzgnLCAnLW1hJywgJzIwMCcsICctbWV0YWxfYmluZGluZycsICctaW1hZScsICc8aW5maWxlLm1hZT4nLCAnLW9tYWUnLCAnPG91dGZpbGUubWFlPic=

> <r_lp_tautomer_probability>
1

> <r_epik_Ionization_Penalty>
0.00119955

> <r_epik_Ionization_Penalty_Charging>
0

> <r_epik_Ionization_Penalty_Neutral>
0.00119955

> <r_epik_State_Penalty>
0.000665399

> <r_epik_Charging_Adjusted_Penalty>
0.000665399

> <i_epik_Tot_Q>
0

> <i_epik_Tot_abs_Q>
0

> <r_epik_Metal_State_Penalty>
-0

> <b_epik_Metal_Only>
0

> <s_lp_Force_Field>
OPLS_2005

> <r_lp_Energy>
33.8653

> <b_lp_Chiralities_Consistent>
1

> <s_lp_Variant>
AV-unprocessed.smi:17-6

> <Gold.Version>
5.8.1

> <Gold.Id.Protein>
6NUR|6NUR_protein|mol2

> <Gold.PLP.Fitness>
45.3497

> <Gold.PLP.PLP>
-41.2636

> <Gold.PLP.part.hbond>
-1.0000

> <Gold.PLP.part.metal>
0.0000

> <Gold.PLP.part.buried>
-7.1657

> <Gold.PLP.part.nonpolar>
-35.3371

> <Gold.PLP.part.repulsive>
1.4712

> <Gold.PLP.ligand.clash>
0.0000

> <Gold.PLP.ligand.torsion>
1.5528

> <Gold.PLP.Chemscore.Hbond>
1.0000

> <Gold.PLP.Chemscore.CHOScore>
1.0000

> <Gold.PLP.Chemscore.Metal>
0.0000

> <Gold.Chemscore.Hbonds>
donor molecule, donor type, donor heavy atom, donor atom, acceptor molecule, acceptor atom, score
      L1  H    16    41       P1 10957  0.65
      L1  C    11    35       P1  7948  0.47

> <Gold.PLP.Chemscore.Internal.Correction>
1.1917

> <Gold.Rescore>
     Score         DG    S(hbond)    S(metal)    S(lipo)     H(rot)  DE(clash)    DE(int)     intcor
      4.96      -8.22       0.99        0.00      78.15       3.79       0.25       3.01       ----

> <Gold.Chemscore.Fitness>
4.9599

> <Gold.Chemscore.DG>
-8.2224

> <Gold.Chemscore.ZeroCoef>
-5.4800

> <Gold.Chemscore.Hbond>
0.9881

> <Gold.Chemscore.Metal>
0.0000

> <Gold.Chemscore.Lipo>
78.1471

> <Gold.Chemscore.Internal_Hbond>
0.0000

> <Gold.Chemscore.DEClash>
0.2538

> <Gold.Chemscore.DEInternal>
3.0087

> <Gold.Chemscore.Rot>
3.7894

> <Gold.Chemscore.Internal.Correction>
   9.000000E+99

> <Gold.Chemscore.Hbonds>
donor molecule, donor type, donor heavy atom, donor atom, acceptor molecule, acceptor atom, score
      L1  H    16    41       P1 10957  0.65

> <Gold.Chemscore.Hbond.Weighted>
-3.3001

> <Gold.Chemscore.Metal.Weighted>
-0.0000

> <Gold.Chemscore.Lipo.Weighted>
-9.1432

> <Gold.Chemscore.Internal_Hbond.Weighted>
0.0000

> <Gold.Chemscore.DEClash.Weighted>
0.2538

> <Gold.Chemscore.DEInternal.Weighted>
3.0087

> <Gold.Chemscore.Rot.Weighted>
9.7010

> <Gold.Chemscore.Internal.Correction.Weighted>
   9.000000E+99

> <Gold.Protein.RotatedTorsions>
[ 6907 6896 6895 6894 ] final   98.78 input  -60.11 | X-H torsion
[ 7974 7965 7964 7962 ] final -175.27 input  175.53 | X-H torsion
[ 8008 7997 7996 7995 ] final  121.91 input   59.86 | X-H torsion
[ 10167 10162 10161 10158 ] final  -62.79 input  -65.29 | X-H torsion
[ 10718 10713 10712 10709 ] final  -90.06 input   66.30 | X-H torsion
[ 10763 10752 10751 10750 ] final   84.36 input  -60.55 | X-H torsion
[ 11005 11000 10999 10996 ] final   89.92 input  -57.11 | X-H torsion

> <Gold.Protein.ActiveResidues>
 VAL166  LYS551  ARG553  GLY616  TRP617  ASP618  TYR619  PRO620  LYS621  CYS622 
 ASP623  PHE694  ASN695  SER759  ASP760  ASP761  ALA762  ILE779  LEU786  VAL792 
 PHE793  MET794  SER795  GLU796  ALA797  LYS798  CYS799  TRP800  GLU811  SER814 

> <Gold.Protein.RotatedAtoms>
  152.5403  134.0528  159.8117 H   0  0  0  0  0  0  0  0  0  0  0  0  # atno 6907 bound_to 6896
  151.0667  133.5492  159.2637 H   0  0  0  0  0  0  0  0  0  0  0  0  # atno 6908 bound_to 6896
  151.2370  135.0583  159.9064 H   0  0  0  0  0  0  0  0  0  0  0  0  # atno 6909 bound_to 6896
  144.7128  140.1345  143.6396 H   0  0  0  0  0  0  0  0  0  0  0  0  # atno 7974 bound_to 7965
  156.2706  140.2797  156.1384 H   0  0  0  0  0  0  0  0  0  0  0  0  # atno 8008 bound_to 7997
  155.0980  140.0389  157.2706 H   0  0  0  0  0  0  0  0  0  0  0  0  # atno 8009 bound_to 7997
  154.6838  140.2614  155.6887 H   0  0  0  0  0  0  0  0  0  0  0  0  # atno 8010 bound_to 7997
  140.5915  143.2342  151.6129 H   0  0  0  0  0  0  0  0  0  0  0  0  # atno 10167 bound_to 10162
  155.9986  130.4896  150.5266 H   0  0  0  0  0  0  0  0  0  0  0  0  # atno 10718 bound_to 10713
  153.1374  135.4657  154.9444 H   0  0  0  0  0  0  0  0  0  0  0  0  # atno 10763 bound_to 10752
  154.7718  135.3161  154.8176 H   0  0  0  0  0  0  0  0  0  0  0  0  # atno 10764 bound_to 10752
  153.8706  135.6904  153.4829 H   0  0  0  0  0  0  0  0  0  0  0  0  # atno 10765 bound_to 10752
  139.8866  134.8582  156.3211 H   0  0  0  0  0  0  0  0  0  0  0  0  # atno 11005 bound_to 11000
  145.9257  139.2574  143.1355 LP  0  0  0  0  0  0  0  0  0  0  0  0  # atno 17320 bound_to 7965
  145.9575  140.8861  143.0228 LP  0  0  0  0  0  0  0  0  0  0  0  0  # atno 17321 bound_to 7965
  139.5230  144.3144  152.0965 LP  0  0  0  0  0  0  0  0  0  0  0  0  # atno 17342 bound_to 10162
  140.2310  144.4369  150.6300 LP  0  0  0  0  0  0  0  0  0  0  0  0  # atno 17343 bound_to 10162
  157.3221  131.0684  151.1924 LP  0  0  0  0  0  0  0  0  0  0  0  0  # atno 17370 bound_to 10713
  157.2834  130.6761  149.6077 LP  0  0  0  0  0  0  0  0  0  0  0  0  # atno 17371 bound_to 10713
  140.9786  133.7282  156.0638 LP  0  0  0  0  0  0  0  0  0  0  0  0  # atno 17394 bound_to 11000
  140.7779  134.3759  157.5494 LP  0  0  0  0  0  0  0  0  0  0  0  0  # atno 17395 bound_to 11000

$$$$
