AV-unprocessed.smi:1856|AV-procd|sdf|7533|dock1
  -GOLD-   22720 9243D 1   1.00000     0.00000
 Structure written by MMmdl.
 44 45  0  0  0  0  0  0  0  0  1 V2000
  147.5066  136.6015  161.9302 C   0  0  0  0  0  0  0  0  0  0  0  0
  147.3951  136.0459  160.5013 C   0  0  0  0  0  0  0  0  0  0  0  0
  147.8063  137.0492  159.4058 C   0  0  0  0  0  0  0  0  0  0  0  0
  149.3181  137.0866  159.1684 C   0  0  0  0  0  0  0  0  0  0  0  0
  149.9461  136.0385  159.0188 O   0  0  0  0  0  0  0  0  0  0  0  0
  149.8835  138.3026  159.1112 N   0  0  0  0  0  0  0  0  0  0  0  0
  151.2755  138.5670  158.7575 C   0  0  2  0  0  0  0  0  0  0  0  0
  152.2186  137.8120  159.7053 C   0  0  0  0  0  0  0  0  0  0  0  0
  151.4858  140.0613  158.8047 C   0  0  0  0  0  0  0  0  0  0  0  0
  152.3222  140.6160  159.6872 N   0  0  0  0  0  0  0  0  0  0  0  0
  152.2001  141.9647  159.4255 C   0  0  0  0  0  0  0  0  0  0  0  0
  152.8348  143.0769  160.0233 C   0  0  0  0  0  0  0  0  0  0  0  0
  152.5448  144.3851  159.5836 C   0  0  0  0  0  0  0  0  0  0  0  0
  151.6184  144.5986  158.5427 C   0  0  0  0  0  0  0  0  0  0  0  0
  150.9750  143.5036  157.9346 C   0  0  0  0  0  0  0  0  0  0  0  0
  151.2677  142.1995  158.3774 C   0  0  0  0  0  0  0  0  0  0  0  0
  150.8162  140.9365  158.0062 N   0  0  0  0  0  0  0  0  0  0  0  0
  149.8221  140.6738  156.9721 C   0  0  0  0  0  0  0  0  0  0  0  0
  150.3431  140.9799  155.5555 C   0  0  2  0  0  0  0  0  0  0  0  0
  149.2011  141.1407  154.5447 C   0  0  0  0  0  0  0  0  0  0  0  0
  151.1959  139.9462  155.1072 O   0  0  0  0  0  0  0  0  0  0  0  0
  147.2620  135.8330  162.6635 H   0  0  0  0  0  0  0  0  0  0  0  0
  146.8249  137.4372  162.0929 H   0  0  0  0  0  0  0  0  0  0  0  0
  148.5184  136.9497  162.1390 H   0  0  0  0  0  0  0  0  0  0  0  0
  148.0275  135.1616  160.4190 H   0  0  0  0  0  0  0  0  0  0  0  0
  146.3757  135.6993  160.3258 H   0  0  0  0  0  0  0  0  0  0  0  0
  147.2864  136.8126  158.4762 H   0  0  0  0  0  0  0  0  0  0  0  0
  147.4850  138.0514  159.6907 H   0  0  0  0  0  0  0  0  0  0  0  0
  149.2897  139.1079  159.2455 H   0  0  0  0  0  0  0  0  0  0  0  0
  151.4633  138.1809  157.7576 H   0  0  0  0  0  0  0  0  0  0  0  0
  153.2618  138.0057  159.4542 H   0  0  0  0  0  0  0  0  0  0  0  0
  152.0582  136.7354  159.6402 H   0  0  0  0  0  0  0  0  0  0  0  0
  152.0668  138.1080  160.7438 H   0  0  0  0  0  0  0  0  0  0  0  0
  153.5452  142.9230  160.8218 H   0  0  0  0  0  0  0  0  0  0  0  0
  153.0347  145.2285  160.0477 H   0  0  0  0  0  0  0  0  0  0  0  0
  151.4008  145.6037  158.2121 H   0  0  0  0  0  0  0  0  0  0  0  0
  150.2644  143.6644  157.1377 H   0  0  0  0  0  0  0  0  0  0  0  0
  149.4601  139.6499  157.0484 H   0  0  0  0  0  0  0  0  0  0  0  0
  148.9522  141.2978  157.1798 H   0  0  0  0  0  0  0  0  0  0  0  0
  150.9245  141.9024  155.5794 H   0  0  0  0  0  0  0  0  0  0  0  0
  148.5349  141.9533  154.8349 H   0  0  0  0  0  0  0  0  0  0  0  0
  148.6039  140.2308  154.4725 H   0  0  0  0  0  0  0  0  0  0  0  0
  149.5841  141.3688  153.5494 H   0  0  0  0  0  0  0  0  0  0  0  0
  150.6678  139.1900  154.9016 H   0  0  0  0  0  0  0  0  0  0  0  0
  1  2  1  0  0  0  0
  1 22  1  0  0  0  0
  1 23  1  0  0  0  0
  1 24  1  0  0  0  0
  2  3  1  0  0  0  0
  2 25  1  0  0  0  0
  2 26  1  0  0  0  0
  3  4  1  0  0  0  0
  3 27  1  0  0  0  0
  3 28  1  0  0  0  0
  4  5  2  0  0  0  0
  4  6  1  0  0  0  0
  6  7  1  0  0  0  0
  6 29  1  0  0  0  0
  7  8  1  0  0  0  0
  7  9  1  0  0  0  0
  7 30  1  0  0  0  0
  8 31  1  0  0  0  0
  8 32  1  0  0  0  0
  8 33  1  0  0  0  0
  9 17  1  0  0  0  0
  9 10  2  0  0  0  0
 10 11  1  0  0  0  0
 11 16  2  0  0  0  0
 11 12  1  0  0  0  0
 12 13  2  0  0  0  0
 12 34  1  0  0  0  0
 13 14  1  0  0  0  0
 13 35  1  0  0  0  0
 14 15  2  0  0  0  0
 14 36  1  0  0  0  0
 15 16  1  0  0  0  0
 15 37  1  0  0  0  0
 16 17  1  0  0  0  0
 17 18  1  0  0  0  0
 18 19  1  0  0  0  0
 18 38  1  0  0  0  0
 18 39  1  0  0  0  0
 19 20  1  0  0  0  0
 19 21  1  0  0  0  0
 19 40  1  0  0  0  0
 20 41  1  0  0  0  0
 20 42  1  0  0  0  0
 20 43  1  0  0  0  0
 21 44  1  0  0  0  0
M  END
> <s_m_source_file>
AV-unprocessed.smi

> <i_m_source_file_index>
1856

> <i_lp_mmshare_version>
43012

> <i_f3d_flags>
0

> <s_epik_input>
W0NIM11bQ0gyXVtDSDJdQyg9TylbTkhdW0NASF0oW0NIM10pYyhuMSluKFtDSDJdW0NASF0oW0NIM10pW09IXSljKGMxMilbY0hdW2NIXVtjSF1bY0hdMg==

> <s_epik_cmdline>
J2VwaWtfcHl0aG9uJywgJy1waCcsICc3LjAnLCAnLXRuJywgJzgnLCAnLW1hJywgJzIwMCcsICctbWV0YWxfYmluZGluZycsICctaW1hZScsICc8aW5maWxlLm1hZT4nLCAnLW9tYWUnLCAnPG91dGZpbGUubWFlPic=

> <r_epik_Ionization_Penalty>
0.134222

> <r_epik_Ionization_Penalty_Charging>
0

> <r_epik_Ionization_Penalty_Neutral>
0.134222

> <r_epik_State_Penalty>
0.123585

> <r_epik_Charging_Adjusted_Penalty>
0.123585

> <i_epik_Tot_Q>
0

> <i_epik_Tot_abs_Q>
0

> <r_epik_Metal_State_Penalty>
0.100548

> <b_epik_Metal_Only>
0

> <s_lp_Force_Field>
OPLS_2005

> <r_lp_Energy>
0.748352

> <b_lp_Chiralities_Consistent>
1

> <s_lp_Variant>
AV-unprocessed.smi:1856-1

> <Gold.Version>
5.8.1

> <Gold.Id.Protein>
6NUR|6NUR_protein|mol2

> <Gold.PLP.Fitness>
49.1365

> <Gold.PLP.PLP>
-43.7559

> <Gold.PLP.part.hbond>
-2.0000

> <Gold.PLP.part.metal>
0.0000

> <Gold.PLP.part.buried>
-6.1094

> <Gold.PLP.part.nonpolar>
-35.9450

> <Gold.PLP.part.repulsive>
0.2146

> <Gold.PLP.ligand.clash>
0.0000

> <Gold.PLP.ligand.torsion>
0.5217

> <Gold.PLP.Chemscore.Hbond>
1.9760

> <Gold.PLP.Chemscore.CHOScore>
0.0000

> <Gold.PLP.Chemscore.Metal>
0.0000

> <Gold.Chemscore.Hbonds>
donor molecule, donor type, donor heavy atom, donor atom, acceptor molecule, acceptor atom, score
      P1  H  6896  6908       L1     5  1.00
      P1  H  7989  7998       L1    21  0.65

> <Gold.PLP.Chemscore.Internal.Correction>
0.4962

> <Gold.Rescore>
     Score         DG    S(hbond)    S(metal)    S(lipo)     H(rot)  DE(clash)    DE(int)     intcor
     17.03     -18.55       1.87        0.00     111.86       2.45       0.06       1.47       ----

> <Gold.Chemscore.Fitness>
17.0256

> <Gold.Chemscore.DG>
-18.5542

> <Gold.Chemscore.ZeroCoef>
-5.4800

> <Gold.Chemscore.Hbond>
1.8708

> <Gold.Chemscore.Metal>
0.0000

> <Gold.Chemscore.Lipo>
111.8554

> <Gold.Chemscore.Internal_Hbond>
0.0000

> <Gold.Chemscore.DEClash>
0.0585

> <Gold.Chemscore.DEInternal>
1.4701

> <Gold.Chemscore.Rot>
2.4459

> <Gold.Chemscore.Internal.Correction>
   9.000000E+99

> <Gold.Chemscore.Hbonds>
donor molecule, donor type, donor heavy atom, donor atom, acceptor molecule, acceptor atom, score
      P1  H  6896  6908       L1     5  0.99
      P1  H  7989  7998       L1    21  0.04

> <Gold.Chemscore.Hbond.Weighted>
-6.2486

> <Gold.Chemscore.Metal.Weighted>
-0.0000

> <Gold.Chemscore.Lipo.Weighted>
-13.0871

> <Gold.Chemscore.Internal_Hbond.Weighted>
0.0000

> <Gold.Chemscore.DEClash.Weighted>
0.0585

> <Gold.Chemscore.DEInternal.Weighted>
1.4701

> <Gold.Chemscore.Rot.Weighted>
6.2614

> <Gold.Chemscore.Internal.Correction.Weighted>
   9.000000E+99

> <Gold.Protein.RotatedTorsions>
[ 6907 6896 6895 6894 ] final  176.31 input  -60.11 | X-H torsion
[ 7974 7965 7964 7962 ] final  -49.05 input  175.53 | X-H torsion
[ 8008 7997 7996 7995 ] final   71.51 input   59.86 | X-H torsion
[ 10167 10162 10161 10158 ] final  131.93 input  -65.29 | X-H torsion
[ 10718 10713 10712 10709 ] final  -51.03 input   66.30 | X-H torsion
[ 10763 10752 10751 10750 ] final   24.95 input  -60.55 | X-H torsion
[ 11005 11000 10999 10996 ] final   35.39 input  -57.11 | X-H torsion

> <Gold.Protein.ActiveResidues>
 VAL166  LYS551  ARG553  GLY616  TRP617  ASP618  TYR619  PRO620  LYS621  CYS622 
 ASP623  PHE694  ASN695  SER759  ASP760  ASP761  ALA762  ILE779  LEU786  VAL792 
 PHE793  MET794  SER795  GLU796  ALA797  LYS798  CYS799  TRP800  GLU811  SER814 

> <Gold.Protein.RotatedAtoms>
  151.7222  133.3315  159.3318 H   0  0  0  0  0  0  0  0  0  0  0  0  # atno 6907 bound_to 6896
  150.7648  134.6437  159.6260 H   0  0  0  0  0  0  0  0  0  0  0  0  # atno 6908 bound_to 6896
  152.3644  134.6827  160.0248 H   0  0  0  0  0  0  0  0  0  0  0  0  # atno 6909 bound_to 6896
  145.9447  140.7629  142.9534 H   0  0  0  0  0  0  0  0  0  0  0  0  # atno 7974 bound_to 7965
  155.7550  140.3488  155.5169 H   0  0  0  0  0  0  0  0  0  0  0  0  # atno 8008 bound_to 7997
  155.8969  140.1027  157.1399 H   0  0  0  0  0  0  0  0  0  0  0  0  # atno 8009 bound_to 7997
  154.4039  140.1293  156.4373 H   0  0  0  0  0  0  0  0  0  0  0  0  # atno 8010 bound_to 7997
  139.5362  144.6684  151.4779 H   0  0  0  0  0  0  0  0  0  0  0  0  # atno 10167 bound_to 10162
  156.1747  130.4149  149.9595 H   0  0  0  0  0  0  0  0  0  0  0  0  # atno 10718 bound_to 10713
  153.0727  135.6594  154.0213 H   0  0  0  0  0  0  0  0  0  0  0  0  # atno 10763 bound_to 10752
  153.9854  135.2951  155.3418 H   0  0  0  0  0  0  0  0  0  0  0  0  # atno 10764 bound_to 10752
  154.7106  135.5207  153.8731 H   0  0  0  0  0  0  0  0  0  0  0  0  # atno 10765 bound_to 10752
  140.2431  134.3391  155.7918 H   0  0  0  0  0  0  0  0  0  0  0  0  # atno 11005 bound_to 11000
  144.6785  140.2337  143.7352 LP  0  0  0  0  0  0  0  0  0  0  0  0  # atno 17320 bound_to 7965
  145.8252  139.2061  143.1914 LP  0  0  0  0  0  0  0  0  0  0  0  0  # atno 17321 bound_to 7965
  140.6569  143.8581  150.6845 LP  0  0  0  0  0  0  0  0  0  0  0  0  # atno 17342 bound_to 10162
  140.1963  143.3995  152.1825 LP  0  0  0  0  0  0  0  0  0  0  0  0  # atno 17343 bound_to 10162
  156.7385  130.9070  151.3630 LP  0  0  0  0  0  0  0  0  0  0  0  0  # atno 17370 bound_to 10713
  157.6827  130.9155  150.0307 LP  0  0  0  0  0  0  0  0  0  0  0  0  # atno 17371 bound_to 10713
  141.2208  133.7310  156.8918 LP  0  0  0  0  0  0  0  0  0  0  0  0  # atno 17394 bound_to 11000
  140.1633  134.9150  157.2742 LP  0  0  0  0  0  0  0  0  0  0  0  0  # atno 17395 bound_to 11000

$$$$
