AV-unprocessed.smi:1239|AV-procd|sdf|5185|dock6
  -GOLD-   22720 4263D 1   1.00000     0.00000
 Structure written by MMmdl.
 48 49  0  0  0  0  0  0  0  0  2 V2000
  144.0638  137.3931  152.8300 C   0  0  0  0  0  0  0  0  0  0  0  0
  145.5020  136.9749  152.4472 C   0  0  2  0  0  0  0  0  0  0  0  0
  146.1900  138.1888  151.7730 C   0  0  0  0  0  0  0  0  0  0  0  0
  147.4917  138.4741  152.3724 N   0  0  0  0  0  0  0  0  0  0  0  0
  147.7192  139.3641  153.3480 C   0  0  0  0  0  0  0  0  0  0  0  0
  146.8353  140.0464  153.8649 O   0  0  0  0  0  0  0  0  0  0  0  0
  149.0252  139.4144  153.6637 N   0  0  0  0  0  0  0  0  0  0  0  0
  149.6795  140.2281  154.6301 C   0  0  0  0  0  0  0  0  0  0  0  0
  150.7561  139.6604  155.3433 C   0  0  0  0  0  0  0  0  0  0  0  0
  151.4347  140.4216  156.3173 C   0  0  0  0  0  0  0  0  0  0  0  0
  151.0282  141.7528  156.5805 C   0  0  0  0  0  0  0  0  0  0  0  0
  151.6563  142.5791  157.5372 N   0  0  0  0  0  0  0  0  0  0  0  0
  152.2374  141.9869  158.7370 C   0  0  0  0  0  0  0  0  0  0  0  0
  151.6997  144.0213  157.3333 C   0  0  0  0  0  0  0  0  0  0  0  0
  149.9821  142.2511  155.8777 N   0  3  0  0  0  0  0  0  0  0  0  0
  149.3045  141.5581  154.9373 C   0  0  0  0  0  0  0  0  0  0  0  0
  145.5629  135.7262  151.6558 N   0  0  0  0  0  0  0  0  0  0  0  0
  145.7367  134.5364  152.4947 C   0  0  0  0  0  0  0  0  0  0  0  0
  145.7758  133.2348  151.6755 C   0  0  0  0  0  0  0  0  0  0  0  0
  144.5890  133.1204  150.9017 O   0  0  0  0  0  0  0  0  0  0  0  0
  144.4138  134.2222  150.0208 C   0  0  0  0  0  0  0  0  0  0  0  0
  144.3678  135.5300  150.8296 C   0  0  0  0  0  0  0  0  0  0  0  0
  144.0518  138.3698  153.3146 H   0  0  0  0  0  0  0  0  0  0  0  0
  143.6085  136.6998  153.5364 H   0  0  0  0  0  0  0  0  0  0  0  0
  143.4180  137.4540  151.9535 H   0  0  0  0  0  0  0  0  0  0  0  0
  146.0344  136.8028  153.3840 H   0  0  0  0  0  0  0  0  0  0  0  0
  146.2915  137.9901  150.7047 H   0  0  0  0  0  0  0  0  0  0  0  0
  145.5709  139.0835  151.8306 H   0  0  0  0  0  0  0  0  0  0  0  0
  148.2776  137.9602  152.0010 H   0  0  0  0  0  0  0  0  0  0  0  0
  149.6325  138.8257  153.1123 H   0  0  0  0  0  0  0  0  0  0  0  0
  151.0676  138.6452  155.1448 H   0  0  0  0  0  0  0  0  0  0  0  0
  152.2593  139.9689  156.8471 H   0  0  0  0  0  0  0  0  0  0  0  0
  153.0325  141.2887  158.4732 H   0  0  0  0  0  0  0  0  0  0  0  0
  151.4780  141.4496  159.3061 H   0  0  0  0  0  0  0  0  0  0  0  0
  152.6659  142.7484  159.3889 H   0  0  0  0  0  0  0  0  0  0  0  0
  150.6908  144.4336  157.2957 H   0  0  0  0  0  0  0  0  0  0  0  0
  152.2108  144.2617  156.4007 H   0  0  0  0  0  0  0  0  0  0  0  0
  152.2338  144.5202  158.1422 H   0  0  0  0  0  0  0  0  0  0  0  0
  148.4896  142.0999  154.4826 H   0  0  0  0  0  0  0  0  0  0  0  0
  146.6682  134.5958  153.0552 H   0  0  0  0  0  0  0  0  0  0  0  0
  144.9299  134.4790  153.2270 H   0  0  0  0  0  0  0  0  0  0  0  0
  146.6495  133.2155  151.0222 H   0  0  0  0  0  0  0  0  0  0  0  0
  145.8523  132.3725  152.3380 H   0  0  0  0  0  0  0  0  0  0  0  0
  145.2244  134.2471  149.2907 H   0  0  0  0  0  0  0  0  0  0  0  0
  143.4861  134.0884  149.4644 H   0  0  0  0  0  0  0  0  0  0  0  0
  143.4777  135.5329  151.4607 H   0  0  0  0  0  0  0  0  0  0  0  0
  144.2544  136.3487  150.1205 H   0  0  0  0  0  0  0  0  0  0  0  0
  149.6856  143.2078  156.0713 H   0  0  0  0  0  0  0  0  0  0  0  0
  1  2  1  0  0  0  0
  1 23  1  0  0  0  0
  1 24  1  0  0  0  0
  1 25  1  0  0  0  0
  2  3  1  0  0  0  0
  2 17  1  0  0  0  0
  2 26  1  0  0  0  0
  3  4  1  0  0  0  0
  3 27  1  0  0  0  0
  3 28  1  0  0  0  0
  4  5  1  0  0  0  0
  4 29  1  0  0  0  0
  5  6  2  0  0  0  0
  5  7  1  0  0  0  0
  7  8  1  0  0  0  0
  7 30  1  0  0  0  0
  8 16  1  0  0  0  0
  8  9  2  0  0  0  0
  9 10  1  0  0  0  0
  9 31  1  0  0  0  0
 10 11  2  0  0  0  0
 10 32  1  0  0  0  0
 11 12  1  0  0  0  0
 11 15  1  0  0  0  0
 12 13  1  0  0  0  0
 12 14  1  0  0  0  0
 13 33  1  0  0  0  0
 13 34  1  0  0  0  0
 13 35  1  0  0  0  0
 14 36  1  0  0  0  0
 14 37  1  0  0  0  0
 14 38  1  0  0  0  0
 15 16  2  0  0  0  0
 15 48  1  0  0  0  0
 16 39  1  0  0  0  0
 17 22  1  0  0  0  0
 17 18  1  0  0  0  0
 18 19  1  0  0  0  0
 18 40  1  0  0  0  0
 18 41  1  0  0  0  0
 19 20  1  0  0  0  0
 19 42  1  0  0  0  0
 19 43  1  0  0  0  0
 20 21  1  0  0  0  0
 21 22  1  0  0  0  0
 21 44  1  0  0  0  0
 21 45  1  0  0  0  0
 22 46  1  0  0  0  0
 22 47  1  0  0  0  0
M  CHG  1  15   1
M  END
> <s_m_source_file>
AV-unprocessed.smi

> <i_m_source_file_index>
1239

> <i_lp_mmshare_version>
43012

> <i_f3d_flags>
0

> <s_epik_input>
W0NIMl0xW0NIMl1PW0NIMl1bQ0gyXU4xW0NASF0oW0NIM10pW0NIMl1bTkhdQyg9TylbTkhdYzJbY0hdW2NIXWMoTihbQ0gzXSlbQ0gzXSluW2NIXTI=

> <s_epik_cmdline>
J2VwaWtfcHl0aG9uJywgJy1waCcsICc3LjAnLCAnLXRuJywgJzgnLCAnLW1hJywgJzIwMCcsICctbWV0YWxfYmluZGluZycsICctaW1hZScsICc8aW5maWxlLm1hZT4nLCAnLW9tYWUnLCAnPG91dGZpbGUubWFlPic=

> <r_lp_tautomer_probability>
0.999994

> <r_epik_Ionization_Penalty>
0.528791

> <r_epik_Ionization_Penalty_Charging>
0.26278

> <r_epik_Ionization_Penalty_Neutral>
0.26601

> <r_epik_State_Penalty>
0.520375

> <r_epik_Charging_Adjusted_Penalty>
0.783156

> <i_epik_Tot_Q>
1

> <i_epik_Tot_abs_Q>
1

> <r_epik_Metal_State_Penalty>
0.806531

> <b_epik_Metal_Only>
0

> <s_lp_Force_Field>
OPLS_2005

> <r_lp_Energy>
44.5879

> <b_lp_Chiralities_Consistent>
1

> <s_lp_Variant>
AV-unprocessed.smi:1239-1

> <Gold.Version>
5.8.1

> <Gold.Id.Protein>
6NUR|6NUR_protein|mol2

> <Gold.PLP.Fitness>
45.2059

> <Gold.PLP.PLP>
-41.3964

> <Gold.PLP.part.hbond>
-4.0000

> <Gold.PLP.part.metal>
0.0000

> <Gold.PLP.part.buried>
-2.7020

> <Gold.PLP.part.nonpolar>
-36.0169

> <Gold.PLP.part.repulsive>
0.7443

> <Gold.PLP.ligand.clash>
0.0000

> <Gold.PLP.ligand.torsion>
2.3891

> <Gold.PLP.Chemscore.Hbond>
2.8316

> <Gold.PLP.Chemscore.CHOScore>
0.0000

> <Gold.PLP.Chemscore.Metal>
0.0000

> <Gold.Chemscore.Hbonds>
donor molecule, donor type, donor heavy atom, donor atom, acceptor molecule, acceptor atom, score
      L1  H     4    29       P1  7948  0.86
      L1  H    15    48       P1  8028  2.00

> <Gold.PLP.Chemscore.Internal.Correction>
0.0928

> <Gold.Rescore>
     Score         DG    S(hbond)    S(metal)    S(lipo)     H(rot)  DE(clash)    DE(int)     intcor
     16.59     -18.21       1.92        0.00      85.87       1.46       0.14       1.48       ----

> <Gold.Chemscore.Fitness>
16.5932

> <Gold.Chemscore.DG>
-18.2139

> <Gold.Chemscore.ZeroCoef>
-5.4800

> <Gold.Chemscore.Hbond>
1.9239

> <Gold.Chemscore.Metal>
0.0000

> <Gold.Chemscore.Lipo>
85.8692

> <Gold.Chemscore.Internal_Hbond>
0.0000

> <Gold.Chemscore.DEClash>
0.1381

> <Gold.Chemscore.DEInternal>
1.4826

> <Gold.Chemscore.Rot>
1.4604

> <Gold.Chemscore.Internal.Correction>
   9.000000E+99

> <Gold.Chemscore.Hbonds>
donor molecule, donor type, donor heavy atom, donor atom, acceptor molecule, acceptor atom, score
      L1  H     4    29       P1  7948  0.85
      L1  H     7    30       P1  7957  0.02
      L1  H    15    48       P1  8028  0.97

> <Gold.Chemscore.Hbond.Weighted>
-6.4257

> <Gold.Chemscore.Metal.Weighted>
-0.0000

> <Gold.Chemscore.Lipo.Weighted>
-10.0467

> <Gold.Chemscore.Internal_Hbond.Weighted>
0.0000

> <Gold.Chemscore.DEClash.Weighted>
0.1381

> <Gold.Chemscore.DEInternal.Weighted>
1.4826

> <Gold.Chemscore.Rot.Weighted>
3.7385

> <Gold.Chemscore.Internal.Correction.Weighted>
   9.000000E+99

> <Gold.Protein.RotatedTorsions>
[ 6907 6896 6895 6894 ] final -151.01 input  -60.11 | X-H torsion
[ 7974 7965 7964 7962 ] final  106.75 input  175.53 | X-H torsion
[ 8008 7997 7996 7995 ] final   70.51 input   59.86 | X-H torsion
[ 10167 10162 10161 10158 ] final -137.85 input  -65.29 | X-H torsion
[ 10718 10713 10712 10709 ] final -132.52 input   66.30 | X-H torsion
[ 10763 10752 10751 10750 ] final  -25.03 input  -60.55 | X-H torsion
[ 11005 11000 10999 10996 ] final   58.14 input  -57.11 | X-H torsion

> <Gold.Protein.ActiveResidues>
 VAL166  LYS551  ARG553  GLY616  TRP617  ASP618  TYR619  PRO620  LYS621  CYS622 
 ASP623  PHE694  ASN695  SER759  ASP760  ASP761  ALA762  ILE779  LEU786  VAL792 
 PHE793  MET794  SER795  GLU796  ALA797  LYS798  CYS799  TRP800  GLU811  SER814 

> <Gold.Protein.RotatedAtoms>
  151.2068  133.4579  159.2597 H   0  0  0  0  0  0  0  0  0  0  0  0  # atno 6907 bound_to 6896
  151.1015  134.9975  159.8461 H   0  0  0  0  0  0  0  0  0  0  0  0  # atno 6908 bound_to 6896
  152.5443  134.1994  159.8759 H   0  0  0  0  0  0  0  0  0  0  0  0  # atno 6909 bound_to 6896
  145.3026  139.2565  143.3806 H   0  0  0  0  0  0  0  0  0  0  0  0  # atno 7974 bound_to 7965
  155.7400  140.3490  155.5099 H   0  0  0  0  0  0  0  0  0  0  0  0  # atno 8008 bound_to 7997
  155.9103  140.1049  157.1305 H   0  0  0  0  0  0  0  0  0  0  0  0  # atno 8009 bound_to 7997
  154.4055  140.1269  156.4536 H   0  0  0  0  0  0  0  0  0  0  0  0  # atno 8010 bound_to 7997
  139.8536  143.7167  152.2656 H   0  0  0  0  0  0  0  0  0  0  0  0  # atno 10167 bound_to 10162
  156.2355  130.7063  151.0903 H   0  0  0  0  0  0  0  0  0  0  0  0  # atno 10718 bound_to 10713
  153.6933  135.6960  153.5084 H   0  0  0  0  0  0  0  0  0  0  0  0  # atno 10763 bound_to 10752
  153.2397  135.4310  155.0683 H   0  0  0  0  0  0  0  0  0  0  0  0  # atno 10764 bound_to 10752
  154.8366  135.3504  154.6474 H   0  0  0  0  0  0  0  0  0  0  0  0  # atno 10765 bound_to 10752
  140.0400  134.5887  155.9394 H   0  0  0  0  0  0  0  0  0  0  0  0  # atno 11005 bound_to 11000
  146.3147  140.3543  142.8659 LP  0  0  0  0  0  0  0  0  0  0  0  0  # atno 17320 bound_to 7965
  144.9081  140.7724  143.5824 LP  0  0  0  0  0  0  0  0  0  0  0  0  # atno 17321 bound_to 7965
  139.7441  144.7552  151.0607 LP  0  0  0  0  0  0  0  0  0  0  0  0  # atno 17342 bound_to 10162
  140.7784  143.4937  150.9860 LP  0  0  0  0  0  0  0  0  0  0  0  0  # atno 17343 bound_to 10162
  157.7152  131.0713  150.6353 LP  0  0  0  0  0  0  0  0  0  0  0  0  # atno 17370 bound_to 10713
  156.6423  130.4462  149.5748 LP  0  0  0  0  0  0  0  0  0  0  0  0  # atno 17371 bound_to 10713
  141.1878  133.6561  156.5296 LP  0  0  0  0  0  0  0  0  0  0  0  0  # atno 17394 bound_to 11000
  140.4085  134.7294  157.4822 LP  0  0  0  0  0  0  0  0  0  0  0  0  # atno 17395 bound_to 11000

$$$$
