AV-unprocessed.smi:1163|AV-procd|sdf|4925|dock7
  -GOLD-   22720 3503D 1   1.00000     0.00000
 Structure written by MMmdl.
 40 41  0  0  0  0  0  0  0  0  2 V2000
  153.9248  141.0816  160.6216 C   0  0  0  0  0  0  0  0  0  0  0  0
  153.6465  142.2266  159.8231 O   0  0  0  0  0  0  0  0  0  0  0  0
  152.5797  142.1727  158.9495 C   0  0  0  0  0  0  0  0  0  0  0  0
  152.0240  140.9155  158.6404 C   0  0  0  0  0  0  0  0  0  0  0  0
  150.9382  140.8504  157.7464 C   0  0  0  0  0  0  0  0  0  0  0  0
  150.4351  142.0518  157.1908 C   0  0  0  0  0  0  0  0  0  0  0  0
  149.3572  142.1327  156.2658 N   0  0  0  0  0  0  0  0  0  0  0  0
  148.7097  141.1448  155.6240 C   0  0  0  0  0  0  0  0  0  0  0  0
  148.9233  139.9404  155.7567 O   0  0  0  0  0  0  0  0  0  0  0  0
  147.7713  141.6358  154.8023 N   0  0  0  0  0  0  0  0  0  0  0  0
  146.8997  140.8258  153.9572 C   0  0  1  0  0  0  0  0  0  0  0  0
  147.6554  139.9717  152.9400 C   0  0  0  0  0  0  0  0  0  0  0  0
  146.7511  138.7469  152.7162 C   0  0  0  0  0  0  0  0  0  0  0  0
  145.6693  138.8169  153.7287 N   0  3  1  0  0  0  0  0  0  0  0  0
  145.2229  137.5144  154.2793 C   0  0  0  0  0  0  0  0  0  0  0  0
  144.2470  136.7777  153.3454 C   0  0  0  0  0  0  0  0  0  0  0  0
  144.8841  136.4511  152.2221 F   0  0  0  0  0  0  0  0  0  0  0  0
  143.8090  135.6624  153.9290 F   0  0  0  0  0  0  0  0  0  0  0  0
  143.2061  137.5480  153.0317 F   0  0  0  0  0  0  0  0  0  0  0  0
  146.1154  139.7806  154.7499 C   0  0  0  0  0  0  0  0  0  0  0  0
  151.0667  143.2573  157.5620 C   0  0  0  0  0  0  0  0  0  0  0  0
  152.1080  143.3267  158.4173 N   0  0  0  0  0  0  0  0  0  0  0  0
  154.7882  141.2849  161.2550 H   0  0  0  0  0  0  0  0  0  0  0  0
  154.1633  140.2134  160.0057 H   0  0  0  0  0  0  0  0  0  0  0  0
  153.0858  140.8379  161.2748 H   0  0  0  0  0  0  0  0  0  0  0  0
  152.4273  140.0143  159.0780 H   0  0  0  0  0  0  0  0  0  0  0  0
  150.5303  139.8824  157.5045 H   0  0  0  0  0  0  0  0  0  0  0  0
  149.0233  143.0680  156.0835 H   0  0  0  0  0  0  0  0  0  0  0  0
  147.6527  142.6376  154.7577 H   0  0  0  0  0  0  0  0  0  0  0  0
  146.2011  141.4726  153.4223 H   0  0  0  0  0  0  0  0  0  0  0  0
  147.8605  140.5137  152.0164 H   0  0  0  0  0  0  0  0  0  0  0  0
  148.6120  139.6456  153.3515 H   0  0  0  0  0  0  0  0  0  0  0  0
  146.3113  138.7536  151.7183 H   0  0  0  0  0  0  0  0  0  0  0  0
  147.3355  137.8307  152.8157 H   0  0  0  0  0  0  0  0  0  0  0  0
  146.0851  136.8875  154.5118 H   0  0  0  0  0  0  0  0  0  0  0  0
  144.7144  137.7037  155.2260 H   0  0  0  0  0  0  0  0  0  0  0  0
  146.7649  139.2805  155.4714 H   0  0  0  0  0  0  0  0  0  0  0  0
  145.2705  140.2088  155.2904 H   0  0  0  0  0  0  0  0  0  0  0  0
  150.7261  144.2003  157.1592 H   0  0  0  0  0  0  0  0  0  0  0  0
  144.8731  139.2425  153.2749 H   0  0  0  0  0  0  0  0  0  0  0  0
  1  2  1  0  0  0  0
  1 23  1  0  0  0  0
  1 24  1  0  0  0  0
  1 25  1  0  0  0  0
  2  3  1  0  0  0  0
  3 22  1  0  0  0  0
  3  4  2  0  0  0  0
  4  5  1  0  0  0  0
  4 26  1  0  0  0  0
  5  6  2  0  0  0  0
  5 27  1  0  0  0  0
  6  7  1  0  0  0  0
  6 21  1  0  0  0  0
  7  8  1  0  0  0  0
  7 28  1  0  0  0  0
  8  9  2  0  0  0  0
  8 10  1  0  0  0  0
 10 11  1  0  0  0  0
 10 29  1  0  0  0  0
 11 20  1  0  0  0  0
 11 12  1  0  0  0  0
 11 30  1  0  0  0  0
 12 13  1  0  0  0  0
 12 31  1  0  0  0  0
 12 32  1  0  0  0  0
 13 14  1  0  0  0  0
 13 33  1  0  0  0  0
 13 34  1  0  0  0  0
 14 15  1  0  0  0  0
 14 20  1  0  0  0  0
 14 40  1  0  0  0  0
 15 16  1  0  0  0  0
 15 35  1  0  0  0  0
 15 36  1  0  0  0  0
 16 17  1  0  0  0  0
 16 18  1  0  0  0  0
 16 19  1  0  0  0  0
 20 37  1  0  0  0  0
 20 38  1  0  0  0  0
 21 22  2  0  0  0  0
 21 39  1  0  0  0  0
M  CHG  1  14   1
M  END
> <s_m_source_file>
AV-unprocessed.smi

> <i_m_source_file_index>
1163

> <i_lp_mmshare_version>
43012

> <i_f3d_flags>
0

> <s_epik_input>
W0NIM11PYzFbY0hdW2NIXWMoW2NIXW4xKVtOSF1DKD1PKVtOSF1bQ0BASF0yW0NIMl1bQ0gyXU4oW0NIMl0yKVtDSDJdQyhGKShGKUY=

> <s_epik_cmdline>
J2VwaWtfcHl0aG9uJywgJy1waCcsICc3LjAnLCAnLXRuJywgJzgnLCAnLW1hJywgJzIwMCcsICctbWV0YWxfYmluZGluZycsICctaW1hZScsICc8aW5maWxlLm1hZT4nLCAnLW9tYWUnLCAnPG91dGZpbGUubWFlPic=

> <r_lp_tautomer_probability>
1

> <r_epik_Ionization_Penalty>
1.12054

> <r_epik_Ionization_Penalty_Charging>
1.12047

> <r_epik_Ionization_Penalty_Neutral>
7.20346e-05

> <r_epik_State_Penalty>
1.17927

> <r_epik_Charging_Adjusted_Penalty>
2.29974

> <i_epik_Tot_Q>
1

> <i_epik_Tot_abs_Q>
1

> <r_epik_Metal_State_Penalty>
1.17928

> <b_epik_Metal_Only>
0

> <s_lp_Force_Field>
OPLS_2005

> <r_lp_Energy>
29.7576

> <b_lp_Chiralities_Consistent>
1

> <s_lp_Variant>
AV-unprocessed.smi:1163-6

> <Gold.Version>
5.8.1

> <Gold.Id.Protein>
6NUR|6NUR_protein|mol2

> <Gold.PLP.Fitness>
42.4436

> <Gold.PLP.PLP>
-30.9131

> <Gold.PLP.part.hbond>
-2.0000

> <Gold.PLP.part.metal>
0.0000

> <Gold.PLP.part.buried>
-1.5892

> <Gold.PLP.part.nonpolar>
-28.3233

> <Gold.PLP.part.repulsive>
0.1970

> <Gold.PLP.ligand.clash>
0.0000

> <Gold.PLP.ligand.torsion>
0.4665

> <Gold.PLP.Chemscore.Hbond>
3.0000

> <Gold.PLP.Chemscore.CHOScore>
1.0000

> <Gold.PLP.Chemscore.Metal>
0.0000

> <Gold.Chemscore.Hbonds>
donor molecule, donor type, donor heavy atom, donor atom, acceptor molecule, acceptor atom, score
      L1  H     7    28       P1  8028  1.00
      L1  H    14    40       P1 10175  2.00
      L1  C    21    39       P1  8028  1.00

> <Gold.PLP.Chemscore.Internal.Correction>
0.4636

> <Gold.Rescore>
     Score         DG    S(hbond)    S(metal)    S(lipo)     H(rot)  DE(clash)    DE(int)     intcor
     13.70     -19.08       2.92        0.00      69.48       1.68       2.58       2.80       ----

> <Gold.Chemscore.Fitness>
13.7007

> <Gold.Chemscore.DG>
-19.0771

> <Gold.Chemscore.ZeroCoef>
-5.4800

> <Gold.Chemscore.Hbond>
2.9230

> <Gold.Chemscore.Metal>
0.0000

> <Gold.Chemscore.Lipo>
69.4810

> <Gold.Chemscore.Internal_Hbond>
0.0000

> <Gold.Chemscore.DEClash>
2.5766

> <Gold.Chemscore.DEInternal>
2.7998

> <Gold.Chemscore.Rot>
1.6778

> <Gold.Chemscore.Internal.Correction>
   9.000000E+99

> <Gold.Chemscore.Hbonds>
donor molecule, donor type, donor heavy atom, donor atom, acceptor molecule, acceptor atom, score
      L1  H     7    28       P1  8028  1.00
      L1  H    14    40       P1 10175  1.00

> <Gold.Chemscore.Hbond.Weighted>
-9.7629

> <Gold.Chemscore.Metal.Weighted>
-0.0000

> <Gold.Chemscore.Lipo.Weighted>
-8.1293

> <Gold.Chemscore.Internal_Hbond.Weighted>
0.0000

> <Gold.Chemscore.DEClash.Weighted>
2.5766

> <Gold.Chemscore.DEInternal.Weighted>
2.7998

> <Gold.Chemscore.Rot.Weighted>
4.2951

> <Gold.Chemscore.Internal.Correction.Weighted>
   9.000000E+99

> <Gold.Protein.RotatedTorsions>
[ 6907 6896 6895 6894 ] final   -2.21 input  -60.11 | X-H torsion
[ 7974 7965 7964 7962 ] final  179.70 input  175.53 | X-H torsion
[ 8008 7997 7996 7995 ] final  -21.36 input   59.86 | X-H torsion
[ 10167 10162 10161 10158 ] final   74.95 input  -65.29 | X-H torsion
[ 10718 10713 10712 10709 ] final  -75.11 input   66.30 | X-H torsion
[ 10763 10752 10751 10750 ] final -164.89 input  -60.55 | X-H torsion
[ 11005 11000 10999 10996 ] final   13.89 input  -57.11 | X-H torsion

> <Gold.Protein.ActiveResidues>
 VAL166  LYS551  ARG553  GLY616  TRP617  ASP618  TYR619  PRO620  LYS621  CYS622 
 ASP623  PHE694  ASN695  SER759  ASP760  ASP761  ALA762  ILE779  LEU786  VAL792 
 PHE793  MET794  SER795  GLU796  ALA797  LYS798  CYS799  TRP800  GLU811  SER814 

> <Gold.Protein.RotatedAtoms>
  151.5336  135.1068  159.9908 H   0  0  0  0  0  0  0  0  0  0  0  0  # atno 6907 bound_to 6896
  152.4567  133.7733  159.6821 H   0  0  0  0  0  0  0  0  0  0  0  0  # atno 6908 bound_to 6896
  150.8513  133.7717  159.3049 H   0  0  0  0  0  0  0  0  0  0  0  0  # atno 6909 bound_to 6896
  144.7143  140.0587  143.6433 H   0  0  0  0  0  0  0  0  0  0  0  0  # atno 7974 bound_to 7965
  154.4710  140.2037  155.9994 H   0  0  0  0  0  0  0  0  0  0  0  0  # atno 8008 bound_to 7997
  156.1011  140.3243  155.7914 H   0  0  0  0  0  0  0  0  0  0  0  0  # atno 8009 bound_to 7997
  155.4795  140.0537  157.2960 H   0  0  0  0  0  0  0  0  0  0  0  0  # atno 8010 bound_to 7997
  140.0082  144.5634  150.7680 H   0  0  0  0  0  0  0  0  0  0  0  0  # atno 10167 bound_to 10162
  156.0219  130.4433  150.2994 H   0  0  0  0  0  0  0  0  0  0  0  0  # atno 10718 bound_to 10713
  154.6985  135.2983  154.9375 H   0  0  0  0  0  0  0  0  0  0  0  0  # atno 10763 bound_to 10752
  154.0315  135.6669  153.4785 H   0  0  0  0  0  0  0  0  0  0  0  0  # atno 10764 bound_to 10752
  153.0664  135.5086  154.8116 H   0  0  0  0  0  0  0  0  0  0  0  0  # atno 10765 bound_to 10752
  140.4756  134.0987  155.7741 H   0  0  0  0  0  0  0  0  0  0  0  0  # atno 11005 bound_to 11000
  145.9882  139.2994  143.1001 LP  0  0  0  0  0  0  0  0  0  0  0  0  # atno 17320 bound_to 7965
  145.8933  140.9290  143.0541 LP  0  0  0  0  0  0  0  0  0  0  0  0  # atno 17321 bound_to 7965
  140.7392  143.2788  151.3661 LP  0  0  0  0  0  0  0  0  0  0  0  0  # atno 17342 bound_to 10162
  139.6224  144.0881  152.2403 LP  0  0  0  0  0  0  0  0  0  0  0  0  # atno 17343 bound_to 10162
  157.1097  131.0218  151.3053 LP  0  0  0  0  0  0  0  0  0  0  0  0  # atno 17370 bound_to 10713
  157.4715  130.7711  149.7327 LP  0  0  0  0  0  0  0  0  0  0  0  0  # atno 17371 bound_to 10713
  141.1556  133.8889  157.1986 LP  0  0  0  0  0  0  0  0  0  0  0  0  # atno 17394 bound_to 11000
  139.9858  135.0082  156.9858 LP  0  0  0  0  0  0  0  0  0  0  0  0  # atno 17395 bound_to 11000

$$$$
