AV-unprocessed.smi:97|AV-procd|sdf|861|dock1
  -GOLD-   2262017303D 1   1.00000     0.00000
 Structure written by MMmdl.
 46 49  0  0  0  0  0  0  0  0  1 V2000
  150.9694  137.6575  157.7553 O   0  0  0  0  0  0  0  0  0  0  0  0
  151.6294  136.6402  157.5375 C   0  0  0  0  0  0  0  0  0  0  0  0
  153.1046  136.5466  157.9554 C   0  0  0  0  0  0  0  0  0  0  0  0
  153.4581  137.4541  159.0689 N   0  0  0  0  0  0  0  0  0  0  0  0
  153.9251  136.8861  160.2805 C   0  0  0  0  0  0  0  0  0  0  0  0
  154.0163  135.6653  160.4200 O   0  0  0  0  0  0  0  0  0  0  0  0
  154.2935  137.8387  161.3215 C   0  0  0  0  0  0  0  0  0  0  0  0
  154.7623  137.3912  162.4987 F   0  0  0  0  0  0  0  0  0  0  0  0
  154.1751  139.1671  161.1198 C   0  0  0  0  0  0  0  0  0  0  0  0
  153.6971  139.7076  159.9422 N   0  0  0  0  0  0  0  0  0  0  0  0
  153.6459  141.2101  159.7875 C   0  0  2  0  0  0  0  0  0  0  0  0
  154.0539  141.9756  161.0604 C   0  0  0  0  0  0  0  0  0  0  0  0
  152.8239  142.8164  161.3609 C   0  0  0  0  0  0  0  0  0  0  0  0
  152.1126  142.8709  160.0135 C   0  0  0  0  0  0  0  0  0  0  0  0
  152.3396  141.5799  159.4699 O   0  0  0  0  0  0  0  0  0  0  0  0
  153.3558  138.8518  158.8695 C   0  0  0  0  0  0  0  0  0  0  0  0
  152.9865  139.3084  157.7864 O   0  0  0  0  0  0  0  0  0  0  0  0
  151.1246  135.5563  156.9297 N   0  0  0  0  0  0  0  0  0  0  0  0
  149.7639  135.4494  156.4136 C   0  0  0  0  0  0  0  0  0  0  0  0
  149.4128  134.0679  155.8776 C   0  0  0  0  0  0  0  0  0  0  0  0
  148.3823  133.9388  154.9097 C   0  0  0  0  0  0  0  0  0  0  0  0
  148.0284  132.6728  154.3901 C   0  0  0  0  0  0  0  0  0  0  0  0
  148.7263  131.5516  154.8668 C   0  0  0  0  0  0  0  0  0  0  0  0
  149.7244  131.6688  155.8115 C   0  0  0  0  0  0  0  0  0  0  0  0
  150.0938  132.9144  156.3436 C   0  0  0  0  0  0  0  0  0  0  0  0
  150.2289  130.4411  156.0951 O   0  0  0  0  0  0  0  0  0  0  0  0
  149.5145  129.5377  155.2919 C   0  0  0  0  0  0  0  0  0  0  0  0
  148.5731  130.2463  154.5272 O   0  0  0  0  0  0  0  0  0  0  0  0
  153.3257  135.5069  158.2016 H   0  0  0  0  0  0  0  0  0  0  0  0
  153.7300  136.7498  157.0842 H   0  0  0  0  0  0  0  0  0  0  0  0
  154.4672  139.8298  161.9212 H   0  0  0  0  0  0  0  0  0  0  0  0
  154.3002  141.4487  158.9477 H   0  0  0  0  0  0  0  0  0  0  0  0
  154.3275  141.3111  161.8805 H   0  0  0  0  0  0  0  0  0  0  0  0
  154.9123  142.6058  160.8258 H   0  0  0  0  0  0  0  0  0  0  0  0
  152.1934  142.3123  162.0936 H   0  0  0  0  0  0  0  0  0  0  0  0
  153.0686  143.8046  161.7509 H   0  0  0  0  0  0  0  0  0  0  0  0
  151.0480  143.0862  160.1067 H   0  0  0  0  0  0  0  0  0  0  0  0
  152.5630  143.6250  159.3658 H   0  0  0  0  0  0  0  0  0  0  0  0
  151.7301  134.7598  156.7938 H   0  0  0  0  0  0  0  0  0  0  0  0
  149.0736  135.6879  157.2227 H   0  0  0  0  0  0  0  0  0  0  0  0
  149.6053  136.2035  155.6406 H   0  0  0  0  0  0  0  0  0  0  0  0
  147.8605  134.8169  154.5584 H   0  0  0  0  0  0  0  0  0  0  0  0
  147.2474  132.5709  153.6513 H   0  0  0  0  0  0  0  0  0  0  0  0
  150.8766  132.9800  157.0848 H   0  0  0  0  0  0  0  0  0  0  0  0
  150.2040  129.0139  154.6291 H   0  0  0  0  0  0  0  0  0  0  0  0
  149.0008  128.8136  155.9250 H   0  0  0  0  0  0  0  0  0  0  0  0
  1  2  2  0  0  0  0
  2  3  1  0  0  0  0
  2 18  1  0  0  0  0
  3  4  1  0  0  0  0
  3 29  1  0  0  0  0
  3 30  1  0  0  0  0
  4 16  1  0  0  0  0
  4  5  1  0  0  0  0
  5  6  2  0  0  0  0
  5  7  1  0  0  0  0
  7  8  1  0  0  0  0
  7  9  2  0  0  0  0
  9 10  1  0  0  0  0
  9 31  1  0  0  0  0
 10 11  1  0  0  0  0
 10 16  1  0  0  0  0
 11 15  1  0  0  0  0
 11 12  1  0  0  0  0
 11 32  1  0  0  0  0
 12 13  1  0  0  0  0
 12 33  1  0  0  0  0
 12 34  1  0  0  0  0
 13 14  1  0  0  0  0
 13 35  1  0  0  0  0
 13 36  1  0  0  0  0
 14 15  1  0  0  0  0
 14 37  1  0  0  0  0
 14 38  1  0  0  0  0
 16 17  2  0  0  0  0
 18 19  1  0  0  0  0
 18 39  1  0  0  0  0
 19 20  1  0  0  0  0
 19 40  1  0  0  0  0
 19 41  1  0  0  0  0
 20 25  1  0  0  0  0
 20 21  2  0  0  0  0
 21 22  1  0  0  0  0
 21 42  1  0  0  0  0
 22 23  2  0  0  0  0
 22 43  1  0  0  0  0
 23 28  1  0  0  0  0
 23 24  1  0  0  0  0
 24 25  2  0  0  0  0
 24 26  1  0  0  0  0
 25 44  1  0  0  0  0
 26 27  1  0  0  0  0
 27 28  1  0  0  0  0
 27 45  1  0  0  0  0
 27 46  1  0  0  0  0
M  END
> <s_m_source_file>
AV-unprocessed.smi

> <i_m_source_file_index>
97

> <i_lp_mmshare_version>
43012

> <i_f3d_flags>
0

> <s_epik_input>
TzFbQ0gyXU9jKGMxMilbY0hdYyhbY0hdW2NIXTIpW0NIMl1bTkhdQyg9TylbQ0gyXW4zYyg9TyljKEYpW2NIXW4oYzM9TylbQ0BASF00W0NIMl1bQ0gyXVtDSDJdTzQ=

> <s_epik_cmdline>
J2VwaWtfcHl0aG9uJywgJy1waCcsICc3LjAnLCAnLXRuJywgJzgnLCAnLW1hJywgJzIwMCcsICctbWV0YWxfYmluZGluZycsICctaW1hZScsICc8aW5maWxlLm1hZT4nLCAnLW9tYWUnLCAnPG91dGZpbGUubWFlPic=

> <r_lp_tautomer_probability>
1

> <r_epik_Ionization_Penalty>
3.79042e-08

> <r_epik_Ionization_Penalty_Charging>
3.81036e-09

> <r_epik_Ionization_Penalty_Neutral>
3.40938e-08

> <r_epik_State_Penalty>
-0

> <r_epik_Charging_Adjusted_Penalty>
3.81036e-09

> <i_epik_Tot_Q>
0

> <i_epik_Tot_abs_Q>
0

> <r_epik_Metal_State_Penalty>
-0

> <b_epik_Metal_Only>
0

> <s_epik_Chemistry_Notes>
This compound contains an acetal/aminal-like group ( X-CH(R)-Y where X, Y are N, S, or O) that may be acid/base labile, releasing an aldehyde.

> <s_lp_Force_Field>
OPLS_2005

> <r_lp_Energy>
33.0069

> <b_lp_Chiralities_Consistent>
1

> <s_lp_Variant>
AV-unprocessed.smi:97-1

> <Gold.Version>
5.8.1

> <Gold.Id.Protein>
6NUR|6NUR_protein|mol2

> <Gold.PLP.Fitness>
51.8817

> <Gold.PLP.PLP>
-47.2669

> <Gold.PLP.part.hbond>
-2.0000

> <Gold.PLP.part.metal>
0.0000

> <Gold.PLP.part.buried>
-5.5432

> <Gold.PLP.part.nonpolar>
-38.9152

> <Gold.PLP.part.repulsive>
0.2971

> <Gold.PLP.ligand.clash>
0.0000

> <Gold.PLP.ligand.torsion>
0.7271

> <Gold.PLP.Chemscore.Hbond>
2.0000

> <Gold.PLP.Chemscore.CHOScore>
0.0000

> <Gold.PLP.Chemscore.Metal>
0.0000

> <Gold.Chemscore.Hbonds>
donor molecule, donor type, donor heavy atom, donor atom, acceptor molecule, acceptor atom, score
      P1  H  6896  6908       L1     6  1.00
      P1  H  7997  8008       L1    17  1.00

> <Gold.PLP.Chemscore.Internal.Correction>
0.0689

> <Gold.Rescore>
     Score         DG    S(hbond)    S(metal)    S(lipo)     H(rot)  DE(clash)    DE(int)     intcor
     11.88     -15.51       1.86        0.00      89.12       2.58       0.15       3.48       ----

> <Gold.Chemscore.Fitness>
11.8786

> <Gold.Chemscore.DG>
-15.5087

> <Gold.Chemscore.ZeroCoef>
-5.4800

> <Gold.Chemscore.Hbond>
1.8582

> <Gold.Chemscore.Metal>
0.0000

> <Gold.Chemscore.Lipo>
89.1226

> <Gold.Chemscore.Internal_Hbond>
0.0000

> <Gold.Chemscore.DEClash>
0.1504

> <Gold.Chemscore.DEInternal>
3.4797

> <Gold.Chemscore.Rot>
2.5801

> <Gold.Chemscore.Internal.Correction>
   9.000000E+99

> <Gold.Chemscore.Hbonds>
donor molecule, donor type, donor heavy atom, donor atom, acceptor molecule, acceptor atom, score
      P1  H  6896  6908       L1     6  0.97
      P1  H  7997  8008       L1    17  0.89

> <Gold.Chemscore.Hbond.Weighted>
-6.2063

> <Gold.Chemscore.Metal.Weighted>
-0.0000

> <Gold.Chemscore.Lipo.Weighted>
-10.4273

> <Gold.Chemscore.Internal_Hbond.Weighted>
0.0000

> <Gold.Chemscore.DEClash.Weighted>
0.1504

> <Gold.Chemscore.DEInternal.Weighted>
3.4797

> <Gold.Chemscore.Rot.Weighted>
6.6050

> <Gold.Chemscore.Internal.Correction.Weighted>
   9.000000E+99

> <Gold.Protein.RotatedTorsions>
[ 6907 6896 6895 6894 ] final  -52.94 input  -60.11 | X-H torsion
[ 7974 7965 7964 7962 ] final  -63.20 input  175.53 | X-H torsion
[ 8008 7997 7996 7995 ] final  -57.35 input   59.86 | X-H torsion
[ 10167 10162 10161 10158 ] final -139.16 input  -65.29 | X-H torsion
[ 10718 10713 10712 10709 ] final  156.49 input   66.30 | X-H torsion
[ 10763 10752 10751 10750 ] final -126.95 input  -60.55 | X-H torsion
[ 11005 11000 10999 10996 ] final  -25.05 input  -57.11 | X-H torsion

> <Gold.Protein.ActiveResidues>
 VAL166  LYS551  ARG553  GLY616  TRP617  ASP618  TYR619  PRO620  LYS621  CYS622 
 ASP623  PHE694  ASN695  SER759  ASP760  ASP761  ALA762  ILE779  LEU786  VAL792 
 PHE793  MET794  SER795  GLU796  ALA797  LYS798  CYS799  TRP800  GLU811  SER814 

> <Gold.Protein.RotatedAtoms>
  150.8472  134.7784  159.6979 H   0  0  0  0  0  0  0  0  0  0  0  0  # atno 6907 bound_to 6896
  152.4546  134.5317  159.9823 H   0  0  0  0  0  0  0  0  0  0  0  0  # atno 6908 bound_to 6896
  151.5445  133.3389  159.2977 H   0  0  0  0  0  0  0  0  0  0  0  0  # atno 6909 bound_to 6896
  145.7820  140.8757  143.0325 H   0  0  0  0  0  0  0  0  0  0  0  0  # atno 7974 bound_to 7965
  154.4265  140.1109  156.5783 H   0  0  0  0  0  0  0  0  0  0  0  0  # atno 8008 bound_to 7997
  155.6139  140.3494  155.4612 H   0  0  0  0  0  0  0  0  0  0  0  0  # atno 8009 bound_to 7997
  156.0078  140.1212  157.0474 H   0  0  0  0  0  0  0  0  0  0  0  0  # atno 8010 bound_to 7997
  139.8407  143.7326  152.2663 H   0  0  0  0  0  0  0  0  0  0  0  0  # atno 10167 bound_to 10162
  157.2042  131.0683  151.2007 H   0  0  0  0  0  0  0  0  0  0  0  0  # atno 10718 bound_to 10713
  154.8749  135.3978  154.3515 H   0  0  0  0  0  0  0  0  0  0  0  0  # atno 10763 bound_to 10752
  153.4300  135.7025  153.6242 H   0  0  0  0  0  0  0  0  0  0  0  0  # atno 10764 bound_to 10752
  153.4868  135.3757  155.2441 H   0  0  0  0  0  0  0  0  0  0  0  0  # atno 10765 bound_to 10752
  140.8902  133.7593  156.0412 H   0  0  0  0  0  0  0  0  0  0  0  0  # atno 11005 bound_to 11000
  144.6795  140.0002  143.7484 LP  0  0  0  0  0  0  0  0  0  0  0  0  # atno 17320 bound_to 7965
  146.0064  139.3133  143.0896 LP  0  0  0  0  0  0  0  0  0  0  0  0  # atno 17321 bound_to 7965
  139.7562  144.7520  151.0432 LP  0  0  0  0  0  0  0  0  0  0  0  0  # atno 17342 bound_to 10162
  140.7798  143.4803  151.0027 LP  0  0  0  0  0  0  0  0  0  0  0  0  # atno 17343 bound_to 10162
  157.3737  130.7194  149.6582 LP  0  0  0  0  0  0  0  0  0  0  0  0  # atno 17370 bound_to 10713
  155.9697  130.4192  150.4362 LP  0  0  0  0  0  0  0  0  0  0  0  0  # atno 17371 bound_to 10713
  140.8356  134.3127  157.5333 LP  0  0  0  0  0  0  0  0  0  0  0  0  # atno 17394 bound_to 11000
  139.8729  134.9387  156.3723 LP  0  0  0  0  0  0  0  0  0  0  0  0  # atno 17395 bound_to 11000

$$$$
