AV-unprocessed.smi:3287|AV-procd|sdf|12599|dock4
  -GOLD-   2272018523D 1   1.00000     0.00000
 Structure written by MMmdl.
 43 44  0  0  0  0  0  0  0  0  2 V2000
  152.6148  138.7529  154.6949 C   0  0  0  0  0  0  0  0  0  0  0  0
  151.1270  138.8233  155.0826 C   0  0  1  0  0  0  0  0  0  0  0  0
  150.4557  140.0068  154.3573 C   0  0  0  0  0  0  0  0  0  0  0  0
  148.9662  140.1370  154.7122 C   0  0  0  0  0  0  0  0  0  0  0  0
  148.1903  138.8389  154.4337 C   0  0  1  0  0  0  0  0  0  0  0  0
  148.0544  138.6169  152.9750 N   0  3  0  0  0  0  0  0  0  0  0  0
  146.6690  138.6203  152.4574 C   0  0  0  0  0  0  0  0  0  0  0  0
  146.3945  137.3880  151.5784 C   0  0  2  0  0  0  0  0  0  0  0  0
  146.3359  137.7950  150.2247 O   0  0  0  0  0  0  0  0  0  0  0  0
  145.1204  136.6808  152.0132 C   0  0  0  0  0  0  0  0  0  0  0  0
  144.3775  137.1610  153.1121 C   0  0  0  0  0  0  0  0  0  0  0  0
  143.1978  136.4819  153.4771 C   0  0  0  0  0  0  0  0  0  0  0  0
  142.7382  135.3919  152.8259 N   0  0  0  0  0  0  0  0  0  0  0  0
  143.4509  134.9374  151.7732 C   0  0  0  0  0  0  0  0  0  0  0  0
  144.6422  135.5436  151.3260 C   0  0  0  0  0  0  0  0  0  0  0  0
  148.8662  137.6515  155.1505 C   0  0  0  0  0  0  0  0  0  0  0  0
  150.3632  137.5024  154.7997 C   0  0  2  0  0  0  0  0  0  0  0  0
  150.9551  136.2969  155.5518 C   0  0  0  0  0  0  0  0  0  0  0  0
  152.7397  138.4856  153.6451 H   0  0  0  0  0  0  0  0  0  0  0  0
  153.1568  138.0228  155.2950 H   0  0  0  0  0  0  0  0  0  0  0  0
  153.1050  139.7144  154.8517 H   0  0  0  0  0  0  0  0  0  0  0  0
  151.0768  139.0207  156.1548 H   0  0  0  0  0  0  0  0  0  0  0  0
  150.9663  140.9359  154.6141 H   0  0  0  0  0  0  0  0  0  0  0  0
  150.5670  139.8888  153.2786 H   0  0  0  0  0  0  0  0  0  0  0  0
  148.8753  140.3882  155.7699 H   0  0  0  0  0  0  0  0  0  0  0  0
  148.5219  140.9692  154.1648 H   0  0  0  0  0  0  0  0  0  0  0  0
  147.1847  138.9655  154.8373 H   0  0  0  0  0  0  0  0  0  0  0  0
  148.5444  139.3648  152.5045 H   0  0  0  0  0  0  0  0  0  0  0  0
  145.9738  138.6225  153.2969 H   0  0  0  0  0  0  0  0  0  0  0  0
  146.4897  139.5353  151.8908 H   0  0  0  0  0  0  0  0  0  0  0  0
  147.2253  136.6868  151.6709 H   0  0  0  0  0  0  0  0  0  0  0  0
  145.5430  138.2941  150.0960 H   0  0  0  0  0  0  0  0  0  0  0  0
  144.6990  138.0306  153.6666 H   0  0  0  0  0  0  0  0  0  0  0  0
  142.6067  136.8249  154.3134 H   0  0  0  0  0  0  0  0  0  0  0  0
  143.0595  134.0654  151.2704 H   0  0  0  0  0  0  0  0  0  0  0  0
  145.1710  135.1410  150.4744 H   0  0  0  0  0  0  0  0  0  0  0  0
  148.7723  137.7995  156.2275 H   0  0  0  0  0  0  0  0  0  0  0  0
  148.3357  136.7233  154.9392 H   0  0  0  0  0  0  0  0  0  0  0  0
  150.4384  137.2871  153.7328 H   0  0  0  0  0  0  0  0  0  0  0  0
  150.9775  136.4722  156.6279 H   0  0  0  0  0  0  0  0  0  0  0  0
  151.9712  136.0749  155.2268 H   0  0  0  0  0  0  0  0  0  0  0  0
  150.3649  135.3973  155.3759 H   0  0  0  0  0  0  0  0  0  0  0  0
  148.5001  137.7434  152.7336 H   0  0  0  0  0  0  0  0  0  0  0  0
  1  2  1  0  0  0  0
  1 19  1  0  0  0  0
  1 20  1  0  0  0  0
  1 21  1  0  0  0  0
  2 17  1  0  0  0  0
  2  3  1  0  0  0  0
  2 22  1  0  0  0  0
  3  4  1  0  0  0  0
  3 23  1  0  0  0  0
  3 24  1  0  0  0  0
  4  5  1  0  0  0  0
  4 25  1  0  0  0  0
  4 26  1  0  0  0  0
  5  6  1  0  0  0  0
  5 16  1  0  0  0  0
  5 27  1  0  0  0  0
  6  7  1  0  0  0  0
  6 28  1  0  0  0  0
  6 43  1  0  0  0  0
  7  8  1  0  0  0  0
  7 29  1  0  0  0  0
  7 30  1  0  0  0  0
  8  9  1  0  0  0  0
  8 10  1  0  0  0  0
  8 31  1  0  0  0  0
  9 32  1  0  0  0  0
 10 15  1  0  0  0  0
 10 11  2  0  0  0  0
 11 12  1  0  0  0  0
 11 33  1  0  0  0  0
 12 13  2  0  0  0  0
 12 34  1  0  0  0  0
 13 14  1  0  0  0  0
 14 15  2  0  0  0  0
 14 35  1  0  0  0  0
 15 36  1  0  0  0  0
 16 17  1  0  0  0  0
 16 37  1  0  0  0  0
 16 38  1  0  0  0  0
 17 18  1  0  0  0  0
 17 39  1  0  0  0  0
 18 40  1  0  0  0  0
 18 41  1  0  0  0  0
 18 42  1  0  0  0  0
M  CHG  1   6   1
M  END
> <s_m_source_file>
AV-unprocessed.smi

> <i_m_source_file_index>
3287

> <i_lp_mmshare_version>
43012

> <i_f3d_flags>
0

> <s_epik_input>
W0NIM11bQ0BASF0xW0NIMl1bQ0gyXVtDQEhdKFtDSDJdW0NASF0xW0NIM10pW05IXVtDSDJdW0NASF0oW09IXSljMltjSF1bY0hdbltjSF1bY0hdMg==

> <s_epik_cmdline>
J2VwaWtfcHl0aG9uJywgJy1waCcsICc3LjAnLCAnLXRuJywgJzgnLCAnLW1hJywgJzIwMCcsICctbWV0YWxfYmluZGluZycsICctaW1hZScsICc8aW5maWxlLm1hZT4nLCAnLW9tYWUnLCAnPG91dGZpbGUubWFlPic=

> <r_lp_tautomer_probability>
1

> <r_epik_Ionization_Penalty>
0.00537262

> <r_epik_Ionization_Penalty_Charging>
0.00321624

> <r_epik_Ionization_Penalty_Neutral>
0.00215638

> <r_epik_State_Penalty>
-0

> <r_epik_Charging_Adjusted_Penalty>
0.00321624

> <i_epik_Tot_Q>
1

> <i_epik_Tot_abs_Q>
1

> <r_epik_Metal_State_Penalty>
-0

> <b_epik_Metal_Only>
0

> <s_lp_Force_Field>
OPLS_2005

> <r_lp_Energy>
19.0403

> <b_lp_Chiralities_Consistent>
1

> <s_lp_Variant>
AV-unprocessed.smi:3287-10

> <Gold.Version>
5.8.1

> <Gold.Id.Protein>
6NUR|6NUR_protein|mol2

> <Gold.PLP.Fitness>
44.0674

> <Gold.PLP.PLP>
-31.8232

> <Gold.PLP.part.hbond>
-4.0000

> <Gold.PLP.part.metal>
0.0000

> <Gold.PLP.part.buried>
0.6957

> <Gold.PLP.part.nonpolar>
-30.7723

> <Gold.PLP.part.repulsive>
0.2386

> <Gold.PLP.ligand.clash>
0.0000

> <Gold.PLP.ligand.torsion>
1.7969

> <Gold.PLP.Chemscore.Hbond>
4.7144

> <Gold.PLP.Chemscore.CHOScore>
0.5579

> <Gold.PLP.Chemscore.Metal>
0.0000

> <Gold.Chemscore.Hbonds>
donor molecule, donor type, donor heavy atom, donor atom, acceptor molecule, acceptor atom, score
      L1  H     6    28       P1  7957  1.00
      L1  H     6    43       P1  7948  2.00
      L1  H     9    32       P1 10171  1.00
      P1  H  7954  7966       L1     9  0.71
      L1  C    14    35       P1 10186  0.44

> <Gold.PLP.Chemscore.Internal.Correction>
0.0209

> <Gold.Rescore>
     Score         DG    S(hbond)    S(metal)    S(lipo)     H(rot)  DE(clash)    DE(int)     intcor
     18.30     -21.65       3.63        0.00      76.19       1.90       1.55       1.81       ----

> <Gold.Chemscore.Fitness>
18.2951

> <Gold.Chemscore.DG>
-21.6503

> <Gold.Chemscore.ZeroCoef>
-5.4800

> <Gold.Chemscore.Hbond>
3.6313

> <Gold.Chemscore.Metal>
0.0000

> <Gold.Chemscore.Lipo>
76.1932

> <Gold.Chemscore.Internal_Hbond>
0.0000

> <Gold.Chemscore.DEClash>
1.5494

> <Gold.Chemscore.DEInternal>
1.8057

> <Gold.Chemscore.Rot>
1.9035

> <Gold.Chemscore.Internal.Correction>
   9.000000E+99

> <Gold.Chemscore.Hbonds>
donor molecule, donor type, donor heavy atom, donor atom, acceptor molecule, acceptor atom, score
      L1  H     6    28       P1  7957  0.96
      L1  H     6    43       P1  7948  1.00
      L1  H     9    32       P1 10171  0.99
      P1  H  7954  7966       L1     9  0.16

> <Gold.Chemscore.Hbond.Weighted>
-12.1285

> <Gold.Chemscore.Metal.Weighted>
-0.0000

> <Gold.Chemscore.Lipo.Weighted>
-8.9146

> <Gold.Chemscore.Internal_Hbond.Weighted>
0.0000

> <Gold.Chemscore.DEClash.Weighted>
1.5494

> <Gold.Chemscore.DEInternal.Weighted>
1.8057

> <Gold.Chemscore.Rot.Weighted>
4.8729

> <Gold.Chemscore.Internal.Correction.Weighted>
   9.000000E+99

> <Gold.Protein.RotatedTorsions>
[ 6907 6896 6895 6894 ] final -167.55 input  -60.11 | X-H torsion
[ 7974 7965 7964 7962 ] final -143.04 input  175.53 | X-H torsion
[ 8008 7997 7996 7995 ] final  144.29 input   59.86 | X-H torsion
[ 10167 10162 10161 10158 ] final  151.51 input  -65.29 | X-H torsion
[ 10718 10713 10712 10709 ] final   14.42 input   66.30 | X-H torsion
[ 10763 10752 10751 10750 ] final  -20.76 input  -60.55 | X-H torsion
[ 11005 11000 10999 10996 ] final  116.06 input  -57.11 | X-H torsion

> <Gold.Protein.ActiveResidues>
 VAL166  LYS551  ARG553  GLY616  TRP617  ASP618  TYR619  PRO620  LYS621  CYS622 
 ASP623  PHE694  ASN695  SER759  ASP760  ASP761  ALA762  ILE779  LEU786  VAL792 
 PHE793  MET794  SER795  GLU796  ALA797  LYS798  CYS799  TRP800  GLU811  SER814 

> <Gold.Protein.RotatedAtoms>
  151.4614  133.3592  159.2809 H   0  0  0  0  0  0  0  0  0  0  0  0  # atno 6907 bound_to 6896
  150.9023  134.8438  159.7379 H   0  0  0  0  0  0  0  0  0  0  0  0  # atno 6908 bound_to 6896
  152.4886  134.4535  159.9634 H   0  0  0  0  0  0  0  0  0  0  0  0  # atno 6909 bound_to 6896
  144.8399  140.5884  143.5459 H   0  0  0  0  0  0  0  0  0  0  0  0  # atno 7974 bound_to 7965
  156.2911  140.2240  156.5029 H   0  0  0  0  0  0  0  0  0  0  0  0  # atno 8008 bound_to 7997
  154.7674  140.0469  157.1045 H   0  0  0  0  0  0  0  0  0  0  0  0  # atno 8009 bound_to 7997
  154.9916  140.3091  155.4907 H   0  0  0  0  0  0  0  0  0  0  0  0  # atno 8010 bound_to 7997
  139.4840  144.5434  151.7525 H   0  0  0  0  0  0  0  0  0  0  0  0  # atno 10167 bound_to 10162
  157.0389  130.6223  149.5747 H   0  0  0  0  0  0  0  0  0  0  0  0  # atno 10718 bound_to 10713
  153.6254  135.6991  153.5295 H   0  0  0  0  0  0  0  0  0  0  0  0  # atno 10763 bound_to 10752
  153.2903  135.4159  155.1160 H   0  0  0  0  0  0  0  0  0  0  0  0  # atno 10764 bound_to 10752
  154.8534  135.3623  154.5796 H   0  0  0  0  0  0  0  0  0  0  0  0  # atno 10765 bound_to 10752
  139.9029  134.9593  156.7141 H   0  0  0  0  0  0  0  0  0  0  0  0  # atno 11005 bound_to 11000
  145.4717  139.1503  143.3810 LP  0  0  0  0  0  0  0  0  0  0  0  0  # atno 17320 bound_to 7965
  146.2692  140.4850  142.8821 LP  0  0  0  0  0  0  0  0  0  0  0  0  # atno 17321 bound_to 7965
  140.4977  144.1215  150.5964 LP  0  0  0  0  0  0  0  0  0  0  0  0  # atno 17342 bound_to 10162
  140.4098  143.2662  151.9847 LP  0  0  0  0  0  0  0  0  0  0  0  0  # atno 17343 bound_to 10162
  156.0045  130.5129  150.7780 LP  0  0  0  0  0  0  0  0  0  0  0  0  # atno 17370 bound_to 10713
  157.5120  131.0926  151.0186 LP  0  0  0  0  0  0  0  0  0  0  0  0  # atno 17371 bound_to 10713
  140.7053  133.9271  155.8049 LP  0  0  0  0  0  0  0  0  0  0  0  0  # atno 17394 bound_to 11000
  141.0341  134.0714  157.3979 LP  0  0  0  0  0  0  0  0  0  0  0  0  # atno 17395 bound_to 11000

$$$$
