#       Name:                AV-unprocessed.smi:2450
#       Creating user name   scv26
#       Creation time:       Fri Mar 27 13:30:44 2020


#       File generated by GOLD software.
#

@<TRIPOS>MOLECULE
AV-unprocessed.smi:2450
    45    46     1
SMALL
NO_CHARGES


@<TRIPOS>ATOM
      1 ****        -3.7867  -0.0301  -3.0241 C.3            1 S1                 0.0000
      2 ****        -4.1893  -0.8495  -1.7892 C.3            1 S1                 0.0000
      3 ****        -3.7671  -0.2079  -0.4539 C.3            1 S1                 0.0000
      4 ****        -4.2764  -1.0210   0.7474 C.3            1 S1                 0.0000
      5 ****        -2.3125  -0.0766  -0.3955 N.am           1 S1                 0.0000
      6 ****        -1.6425   0.8292   0.3313 C.2            1 S1                 0.0000
      7 ****        -2.1887   1.6495   1.0681 O.2            1 S1                 0.0000
      8 ****        -0.3161   0.7040   0.1566 N.am           1 S1                 0.0000
      9 ****         0.7374   1.4631   0.7439 C.ar           1 S1                 0.0000
     10 ****         0.5571   2.7787   1.2439 C.ar           1 S1                 0.0000
     11 ****         1.6515   3.4728   1.7965 C.ar           1 S1                 0.0000
     12 ****         2.9118   2.8487   1.8320 C.ar           1 S1                 0.0000
     13 ****         3.0555   1.6034   1.3331 N.pl3          1 S1                 1.0000
     14 ****         2.0355   0.8928   0.7917 C.ar           1 S1                 0.0000
     15 ****         2.2926  -0.3986   0.2998 N.3            1 S1                 0.0000
     16 ****         3.2887  -0.4857  -0.7551 C.3            1 S1                 0.0000
     17 ****         3.6657  -1.9672  -0.8376 C.3            1 S1                 0.0000
     18 ****         3.2631  -2.5539   0.5212 C.3            1 S1                 0.0000
     19 ****         2.6830  -1.3733   1.3040 C.3            1 S1                 0.0000
     20 ****        -4.1510  -0.5027  -3.9365 H              1 S1                 0.0000
     21 ****        -2.7039   0.0610  -3.1120 H              1 S1                 0.0000
     22 ****        -4.2057   0.9755  -2.9817 H              1 S1                 0.0000
     23 ****        -5.2724  -0.9775  -1.7965 H              1 S1                 0.0000
     24 ****        -3.7666  -1.8520  -1.8685 H              1 S1                 0.0000
     25 ****        -4.2140   0.7871  -0.4065 H              1 S1                 0.0000
     26 ****        -5.3623  -1.1167   0.7227 H              1 S1                 0.0000
     27 ****        -4.0136  -0.5424   1.6913 H              1 S1                 0.0000
     28 ****        -3.8545  -2.0265   0.7547 H              1 S1                 0.0000
     29 ****        -1.7799  -0.7167  -0.9662 H              1 S1                 0.0000
     30 ****        -0.0197  -0.0722  -0.4169 H              1 S1                 0.0000
     31 ****        -0.3978   3.2792   1.2024 H              1 S1                 0.0000
     32 ****         1.5248   4.4736   2.1832 H              1 S1                 0.0000
     33 ****         3.8038   3.3065   2.2351 H              1 S1                 0.0000
     34 ****         2.8903  -0.1199  -1.7019 H              1 S1                 0.0000
     35 ****         4.1677   0.1107  -0.5067 H              1 S1                 0.0000
     36 ****         3.1055  -2.4581  -1.6344 H              1 S1                 0.0000
     37 ****         4.7274  -2.0986  -1.0491 H              1 S1                 0.0000
     38 ****         2.5048  -3.3255   0.3820 H              1 S1                 0.0000
     39 ****         4.1053  -3.0072   1.0448 H              1 S1                 0.0000
     40 ****         3.4402  -0.9547   1.9687 H              1 S1                 0.0000
     41 ****         1.8300  -1.6751   1.9125 H              1 S1                 0.0000
     42 ****         3.9808   1.1751   1.3653 H              1 S1                 0.0000
     43 ****        -3.1854   1.6638   1.1483 LP             1 S1                 0.0000
     44 ****        -1.6360   2.3018   1.5867 LP             1 S1                 0.0000
     45 ****         1.3897  -0.6187  -0.0694 LP             1 S1                 0.0000
@<TRIPOS>BOND
    1    1    2 1     
    2    1   20 1     
    3    1   21 1     
    4    1   22 1     
    5    2    3 1     
    6    2   23 1     
    7    2   24 1     
    8    3    4 1     
    9    3    5 1     
   10    3   25 1     
   11    4   26 1     
   12    4   27 1     
   13    4   28 1     
   14    5    6 am    
   15    5   29 1     
   16    6    7 2     
   17    6    8 am    
   18    8    9 1     
   19    8   30 1     
   20    9   14 ar    
   21    9   10 ar    
   22   10   11 ar    
   23   10   31 1     
   24   11   12 ar    
   25   11   32 1     
   26   12   13 ar    
   27   12   33 1     
   28   13   14 ar    
   29   13   42 1     
   30   14   15 1     
   31   15   19 1     
   32   15   16 1     
   33   16   17 1     
   34   16   34 1     
   35   16   35 1     
   36   17   18 1     
   37   17   36 1     
   38   17   37 1     
   39   18   19 1     
   40   18   38 1     
   41   18   39 1     
   42   19   40 1     
   43   19   41 1     
   44    7   43 1     
   45    7   44 1     
   46   15   45 1     
@<TRIPOS>SUBSTRUCTURE
      1 S1             1
@<TRIPOS>SET
LONE_PAIRS      STATIC     ATOMS    <user>   **** ""
3 43 44 45
DONOR_HYDROGENS      STATIC     ATOMS    <user>   **** ""
3 29 30 42
ATOM$BLUE        STATIC     ATOMS    COLORGROUP SYSTEM
3 43 44 45
ATOM$RED        STATIC     ATOMS    COLORGROUP SYSTEM
3 29 30 42
