#       Name:                AV-unprocessed.smi:2506
#       Creating user name   scv26
#       Creation time:       Fri Mar 27 13:49:08 2020


#       File generated by GOLD software.
#

@<TRIPOS>MOLECULE
AV-unprocessed.smi:2506
    42    43     1
SMALL
NO_CHARGES


@<TRIPOS>ATOM
      1 ****        -4.2110  -0.5920   0.0042 C.3            1 S1                 0.0000
      2 ****        -4.0623   0.7697  -0.6523 C.ar           1 S1                 0.0000
      3 ****        -5.1848   1.5269  -0.6786 N.ar           1 S1                 0.0000
      4 ****        -5.1136   2.7418  -1.2469 N.pl3          1 S1                 1.0000
      5 ****        -3.9794   3.2348  -1.7967 C.ar           1 S1                 0.0000
      6 ****        -2.7952   2.4755  -1.7889 C.ar           1 S1                 0.0000
      7 ****        -2.8240   1.1981  -1.1854 C.ar           1 S1                 0.0000
      8 ****        -1.6993   0.3281  -1.1268 N.am           1 S1                 0.0000
      9 ****        -0.3950   0.6495  -1.1537 C.2            1 S1                 0.0000
     10 ****         0.0518   1.7918  -1.2546 O.2            1 S1                 0.0000
     11 ****         0.3735  -0.4415  -1.0283 N.am           1 S1                 0.0000
     12 ****         1.8344  -0.4555  -0.9860 C.3            1 S1                 0.0000
     13 ****         2.3929  -0.6126   0.4505 C.3            1 S1                 0.0000
     14 ****         2.0310   0.6154   1.3170 C.3            1 S1                 0.0000
     15 ****         1.9134  -1.9118   1.1220 C.3            1 S1                 0.0000
     16 ****         2.9793  -2.2699   2.1638 C.3            1 S1                 0.0000
     17 ****         4.2697  -1.5727   1.7126 C.3            1 S1                 0.0000
     18 ****         3.9187  -0.8084   0.4299 C.3            1 S1                 0.0000
     19 ****        -3.5271  -0.6827   0.8487 H              1 S1                 0.0000
     20 ****        -3.9862  -1.3849  -0.7098 H              1 S1                 0.0000
     21 ****        -5.2245  -0.7510   0.3751 H              1 S1                 0.0000
     22 ****        -4.0571   4.2208  -2.2309 H              1 S1                 0.0000
     23 ****        -1.9066   2.8779  -2.2508 H              1 S1                 0.0000
     24 ****        -1.9114  -0.6451  -0.9610 H              1 S1                 0.0000
     25 ****        -0.0849  -1.3373  -0.9458 H              1 S1                 0.0000
     26 ****         2.1611  -1.2911  -1.6059 H              1 S1                 0.0000
     27 ****         2.2477   0.4387  -1.4557 H              1 S1                 0.0000
     28 ****         2.4876   0.5662   2.3057 H              1 S1                 0.0000
     29 ****         0.9549   0.6993   1.4682 H              1 S1                 0.0000
     30 ****         2.3705   1.5399   0.8489 H              1 S1                 0.0000
     31 ****         0.9192  -1.8219   1.5614 H              1 S1                 0.0000
     32 ****         1.8652  -2.7128   0.3828 H              1 S1                 0.0000
     33 ****         2.6842  -1.8989   3.1461 H              1 S1                 0.0000
     34 ****         3.1065  -3.3495   2.2490 H              1 S1                 0.0000
     35 ****         4.6053  -0.8803   2.4858 H              1 S1                 0.0000
     36 ****         5.0782  -2.2840   1.5409 H              1 S1                 0.0000
     37 ****         4.2040  -1.4217  -0.4261 H              1 S1                 0.0000
     38 ****         4.4662   0.1311   0.3432 H              1 S1                 0.0000
     39 ****        -5.9540   3.3201  -1.2720 H              1 S1                 0.0000
     40 ****        -6.0413   1.1914  -0.2865 LP             1 S1                 0.0000
     41 ****        -0.5736   2.5690  -1.3244 LP             1 S1                 0.0000
     42 ****         1.0403   1.9428  -1.2668 LP             1 S1                 0.0000
@<TRIPOS>BOND
    1    1    2 1     
    2    1   19 1     
    3    1   20 1     
    4    1   21 1     
    5    2    7 ar    
    6    2    3 ar    
    7    3    4 ar    
    8    4    5 ar    
    9    4   39 1     
   10    5    6 ar    
   11    5   22 1     
   12    6    7 ar    
   13    6   23 1     
   14    7    8 1     
   15    8    9 am    
   16    8   24 1     
   17    9   10 2     
   18    9   11 am    
   19   11   12 1     
   20   11   25 1     
   21   12   13 1     
   22   12   26 1     
   23   12   27 1     
   24   13   18 1     
   25   13   14 1     
   26   13   15 1     
   27   14   28 1     
   28   14   29 1     
   29   14   30 1     
   30   15   16 1     
   31   15   31 1     
   32   15   32 1     
   33   16   17 1     
   34   16   33 1     
   35   16   34 1     
   36   17   18 1     
   37   17   35 1     
   38   17   36 1     
   39   18   37 1     
   40   18   38 1     
   41    3   40 1     
   42   10   41 1     
   43   10   42 1     
@<TRIPOS>SUBSTRUCTURE
      1 S1             1
@<TRIPOS>SET
LONE_PAIRS      STATIC     ATOMS    <user>   **** ""
3 40 41 42
DONOR_HYDROGENS      STATIC     ATOMS    <user>   **** ""
3 39 24 25
ATOM$BLUE        STATIC     ATOMS    COLORGROUP SYSTEM
3 40 41 42
ATOM$RED        STATIC     ATOMS    COLORGROUP SYSTEM
3 39 24 25
