AV-unprocessed.smi:825|AV-procd|sdf|3851|dock9
  -GOLD-   22720 1303D 1   1.00000     0.00000
 Structure written by MMmdl.
 38 39  0  0  0  0  0  0  0  0  1 V2000
  151.4105  141.1142  156.3663 O   0  0  0  0  0  0  0  0  0  0  0  0
  150.7012  142.1201  156.3565 C   0  0  0  0  0  0  0  0  0  0  0  0
  151.0012  143.2515  157.0096 N   0  0  0  0  0  0  0  0  0  0  0  0
  152.1880  143.4717  157.8302 C   0  0  0  0  0  0  0  0  0  0  0  0
  151.8704  143.2791  159.3226 C   0  0  0  0  0  0  0  0  0  0  0  0
  151.9461  144.5606  160.1619 C   0  0  0  0  0  0  0  0  0  0  0  0
  152.1901  144.0978  161.6052 C   0  0  0  0  0  0  0  0  0  0  0  0
  152.6255  142.6271  161.5238 C   0  0  0  0  0  0  0  0  0  0  0  0
  152.8363  142.3334  160.0371 C   0  0  0  0  0  0  0  0  0  0  0  0
  149.5355  142.2337  155.7001 N   0  0  0  0  0  0  0  0  0  0  0  0
  148.9173  141.2606  154.8757 C   0  0  0  0  0  0  0  0  0  0  0  0
  149.1113  139.8506  154.8426 C   0  0  0  0  0  0  0  0  0  0  0  0
  148.3479  139.2879  153.9178 N   0  0  0  0  0  0  0  0  0  0  0  0
  147.6626  140.3131  153.3539 N   0  0  0  0  0  0  0  0  0  0  0  0
  146.7281  140.0445  152.2786 C   0  0  0  0  0  0  0  0  0  0  0  0
  146.4712  138.5396  152.1194 C   0  0  0  0  0  0  0  0  0  0  0  0
  147.3939  137.9888  151.2046 O   0  0  0  0  0  0  0  0  0  0  0  0
  147.9880  141.5310  153.9170 C   0  0  0  0  0  0  0  0  0  0  0  0
  150.3538  144.0230  156.9389 H   0  0  0  0  0  0  0  0  0  0  0  0
  153.0007  142.8022  157.5446 H   0  0  0  0  0  0  0  0  0  0  0  0
  152.5462  144.4852  157.6474 H   0  0  0  0  0  0  0  0  0  0  0  0
  150.8643  142.8663  159.4191 H   0  0  0  0  0  0  0  0  0  0  0  0
  152.7888  145.1704  159.8328 H   0  0  0  0  0  0  0  0  0  0  0  0
  151.0462  145.1696  160.0702 H   0  0  0  0  0  0  0  0  0  0  0  0
  152.9542  144.7126  162.0819 H   0  0  0  0  0  0  0  0  0  0  0  0
  151.2814  144.1888  162.2014 H   0  0  0  0  0  0  0  0  0  0  0  0
  153.5217  142.4261  162.1115 H   0  0  0  0  0  0  0  0  0  0  0  0
  151.8301  141.9903  161.9133 H   0  0  0  0  0  0  0  0  0  0  0  0
  152.6582  141.2865  159.7893 H   0  0  0  0  0  0  0  0  0  0  0  0
  153.8648  142.5699  159.7603 H   0  0  0  0  0  0  0  0  0  0  0  0
  149.0452  143.1115  155.7894 H   0  0  0  0  0  0  0  0  0  0  0  0
  149.7626  139.2242  155.4338 H   0  0  0  0  0  0  0  0  0  0  0  0
  145.7963  140.5743  152.4827 H   0  0  0  0  0  0  0  0  0  0  0  0
  147.1339  140.4609  151.3555 H   0  0  0  0  0  0  0  0  0  0  0  0
  146.5733  138.0289  153.0775 H   0  0  0  0  0  0  0  0  0  0  0  0
  145.4589  138.3561  151.7575 H   0  0  0  0  0  0  0  0  0  0  0  0
  147.7537  137.1992  151.5792 H   0  0  0  0  0  0  0  0  0  0  0  0
  147.5427  142.4593  153.5909 H   0  0  0  0  0  0  0  0  0  0  0  0
  1  2  2  0  0  0  0
  2  3  1  0  0  0  0
  2 10  1  0  0  0  0
  3  4  1  0  0  0  0
  3 19  1  0  0  0  0
  4  5  1  0  0  0  0
  4 20  1  0  0  0  0
  4 21  1  0  0  0  0
  5  9  1  0  0  0  0
  5  6  1  0  0  0  0
  5 22  1  0  0  0  0
  6  7  1  0  0  0  0
  6 23  1  0  0  0  0
  6 24  1  0  0  0  0
  7  8  1  0  0  0  0
  7 25  1  0  0  0  0
  7 26  1  0  0  0  0
  8  9  1  0  0  0  0
  8 27  1  0  0  0  0
  8 28  1  0  0  0  0
  9 29  1  0  0  0  0
  9 30  1  0  0  0  0
 10 11  1  0  0  0  0
 10 31  1  0  0  0  0
 11 18  2  0  0  0  0
 11 12  1  0  0  0  0
 12 13  2  0  0  0  0
 12 32  1  0  0  0  0
 13 14  1  0  0  0  0
 14 15  1  0  0  0  0
 14 18  1  0  0  0  0
 15 16  1  0  0  0  0
 15 33  1  0  0  0  0
 15 34  1  0  0  0  0
 16 17  1  0  0  0  0
 16 35  1  0  0  0  0
 16 36  1  0  0  0  0
 17 37  1  0  0  0  0
 18 38  1  0  0  0  0
M  END
> <s_m_source_file>
AV-unprocessed.smi

> <i_m_source_file_index>
825

> <i_lp_mmshare_version>
43012

> <i_f3d_flags>
0

> <s_epik_input>
W0NIMl0xW0NIMl1bQ0gyXVtDSDJdW0NIXTFbQ0gyXVtOSF1DKD1PKVtOSF1jMltjSF1ubihbY0hdMilbQ0gyXVtDSDJdW09IXQ==

> <s_epik_cmdline>
J2VwaWtfcHl0aG9uJywgJy1waCcsICc3LjAnLCAnLXRuJywgJzgnLCAnLW1hJywgJzIwMCcsICctbWV0YWxfYmluZGluZycsICctaW1hZScsICc8aW5maWxlLm1hZT4nLCAnLW9tYWUnLCAnPG91dGZpbGUubWFlPic=

> <r_lp_tautomer_probability>
1

> <r_epik_Ionization_Penalty>
0.000577844

> <r_epik_Ionization_Penalty_Charging>
0

> <r_epik_Ionization_Penalty_Neutral>
0.000577844

> <r_epik_State_Penalty>
-0

> <r_epik_Charging_Adjusted_Penalty>
0

> <i_epik_Tot_Q>
0

> <i_epik_Tot_abs_Q>
0

> <r_epik_Metal_State_Penalty>
-0

> <b_epik_Metal_Only>
0

> <s_lp_Force_Field>
OPLS_2005

> <r_lp_Energy>
26.6731

> <b_lp_Chiralities_Consistent>
1

> <s_lp_Variant>
AV-unprocessed.smi:825-1

> <Gold.Version>
5.8.1

> <Gold.Id.Protein>
6NUR|6NUR_protein|mol2

> <Gold.PLP.Fitness>
51.9306

> <Gold.PLP.PLP>
-43.9312

> <Gold.PLP.part.hbond>
-4.5216

> <Gold.PLP.part.metal>
0.0000

> <Gold.PLP.part.buried>
-1.4307

> <Gold.PLP.part.nonpolar>
-39.5800

> <Gold.PLP.part.repulsive>
0.4174

> <Gold.PLP.ligand.clash>
0.0000

> <Gold.PLP.ligand.torsion>
1.2598

> <Gold.PLP.Chemscore.Hbond>
3.5024

> <Gold.PLP.Chemscore.CHOScore>
0.0000

> <Gold.PLP.Chemscore.Metal>
0.0000

> <Gold.Chemscore.Hbonds>
donor molecule, donor type, donor heavy atom, donor atom, acceptor molecule, acceptor atom, score
      L1  H     3    19       P1  8028  0.77
      L1  H    10    31       P1  8028  1.00
      L1  H    17    37       P1  7948  0.99
      P1  H  7954  7966       L1    17  0.68

> <Gold.PLP.Chemscore.Internal.Correction>
0.0117

> <Gold.Rescore>
     Score         DG    S(hbond)    S(metal)    S(lipo)     H(rot)  DE(clash)    DE(int)     intcor
     18.92     -22.35       3.02        0.00     108.66       2.31       1.27       2.16       ----

> <Gold.Chemscore.Fitness>
18.9217

> <Gold.Chemscore.DG>
-22.3519

> <Gold.Chemscore.ZeroCoef>
-5.4800

> <Gold.Chemscore.Hbond>
3.0153

> <Gold.Chemscore.Metal>
0.0000

> <Gold.Chemscore.Lipo>
108.6621

> <Gold.Chemscore.Internal_Hbond>
0.0000

> <Gold.Chemscore.DEClash>
1.2702

> <Gold.Chemscore.DEInternal>
2.1601

> <Gold.Chemscore.Rot>
2.3097

> <Gold.Chemscore.Internal.Correction>
   9.000000E+99

> <Gold.Chemscore.Hbonds>
donor molecule, donor type, donor heavy atom, donor atom, acceptor molecule, acceptor atom, score
      L1  H     3    19       P1  8028  0.71
      L1  H    10    31       P1  8028  0.97
      L1  H    17    37       P1  7948  0.88
      P1  H  7954  7966       L1    17  0.07

> <Gold.Chemscore.Hbond.Weighted>
-10.0712

> <Gold.Chemscore.Metal.Weighted>
-0.0000

> <Gold.Chemscore.Lipo.Weighted>
-12.7135

> <Gold.Chemscore.Internal_Hbond.Weighted>
0.0000

> <Gold.Chemscore.DEClash.Weighted>
1.2702

> <Gold.Chemscore.DEInternal.Weighted>
2.1601

> <Gold.Chemscore.Rot.Weighted>
5.9128

> <Gold.Chemscore.Internal.Correction.Weighted>
   9.000000E+99

> <Gold.Protein.RotatedTorsions>
[ 6907 6896 6895 6894 ] final  -71.81 input  -60.11 | X-H torsion
[ 7974 7965 7964 7962 ] final  -35.57 input  175.53 | X-H torsion
[ 8008 7997 7996 7995 ] final  -25.82 input   59.86 | X-H torsion
[ 10167 10162 10161 10158 ] final  -19.39 input  -65.29 | X-H torsion
[ 10718 10713 10712 10709 ] final -116.96 input   66.30 | X-H torsion
[ 10763 10752 10751 10750 ] final  -32.51 input  -60.55 | X-H torsion
[ 11005 11000 10999 10996 ] final -154.03 input  -57.11 | X-H torsion

> <Gold.Protein.ActiveResidues>
 VAL166  LYS551  ARG553  GLY616  TRP617  ASP618  TYR619  PRO620  LYS621  CYS622 
 ASP623  PHE694  ASN695  SER759  ASP760  ASP761  ALA762  ILE779  LEU786  VAL792 
 PHE793  MET794  SER795  GLU796  ALA797  LYS798  CYS799  TRP800  GLU811  SER814 

> <Gold.Protein.RotatedAtoms>
  150.7196  134.5254  159.5674 H   0  0  0  0  0  0  0  0  0  0  0  0  # atno 6907 bound_to 6896
  152.2800  134.7836  160.0407 H   0  0  0  0  0  0  0  0  0  0  0  0  # atno 6908 bound_to 6896
  151.8486  133.3400  159.3703 H   0  0  0  0  0  0  0  0  0  0  0  0  # atno 6909 bound_to 6896
  146.0735  140.6175  142.8941 H   0  0  0  0  0  0  0  0  0  0  0  0  # atno 7974 bound_to 7965
  154.4456  140.1916  156.0678 H   0  0  0  0  0  0  0  0  0  0  0  0  # atno 8008 bound_to 7997
  156.0534  140.3306  155.7350 H   0  0  0  0  0  0  0  0  0  0  0  0  # atno 8009 bound_to 7997
  155.5523  140.0596  157.2838 H   0  0  0  0  0  0  0  0  0  0  0  0  # atno 8010 bound_to 7997
  140.7268  143.4824  151.0100 H   0  0  0  0  0  0  0  0  0  0  0  0  # atno 10167 bound_to 10162
  156.1000  130.6164  150.9103 H   0  0  0  0  0  0  0  0  0  0  0  0  # atno 10718 bound_to 10713
  153.8149  135.6879  153.4835 H   0  0  0  0  0  0  0  0  0  0  0  0  # atno 10763 bound_to 10752
  153.1605  135.4581  154.9764 H   0  0  0  0  0  0  0  0  0  0  0  0  # atno 10764 bound_to 10752
  154.7952  135.3316  154.7626 H   0  0  0  0  0  0  0  0  0  0  0  0  # atno 10765 bound_to 10752
  140.7018  134.3929  157.5209 H   0  0  0  0  0  0  0  0  0  0  0  0  # atno 11005 bound_to 11000
  144.7246  140.4485  143.6982 LP  0  0  0  0  0  0  0  0  0  0  0  0  # atno 17320 bound_to 7965
  145.6348  139.1541  143.2948 LP  0  0  0  0  0  0  0  0  0  0  0  0  # atno 17321 bound_to 7965
  139.8523  143.7422  152.3177 LP  0  0  0  0  0  0  0  0  0  0  0  0  # atno 17342 bound_to 10162
  139.7608  144.7507  151.0366 LP  0  0  0  0  0  0  0  0  0  0  0  0  # atno 17343 bound_to 10162
  157.6168  131.0932  150.8695 LP  0  0  0  0  0  0  0  0  0  0  0  0  # atno 17370 bound_to 10713
  156.8825  130.5184  149.5290 LP  0  0  0  0  0  0  0  0  0  0  0  0  # atno 17371 bound_to 10713
  139.8895  134.8829  156.2419 LP  0  0  0  0  0  0  0  0  0  0  0  0  # atno 17394 bound_to 11000
  141.0158  133.7070  156.1185 LP  0  0  0  0  0  0  0  0  0  0  0  0  # atno 17395 bound_to 11000

$$$$
