AV-unprocessed.smi:2124|AV-procd|sdf|8657|dock1
  -GOLD-   2272011403D 1   1.00000     0.00000
 Structure written by MMmdl.
 47 49  0  0  0  0  0  0  0  0  1 V2000
  147.4089  139.7362  153.0910 C   0  0  0  0  0  0  0  0  0  0  0  0
  148.3119  139.2838  154.2193 C   0  0  0  0  0  0  0  0  0  0  0  0
  147.8848  138.7386  155.3107 N   0  0  0  0  0  0  0  0  0  0  0  0
  148.8187  138.3628  156.2863 C   0  0  0  0  0  0  0  0  0  0  0  0
  148.2392  137.7346  157.5424 C   0  0  0  0  0  0  0  0  0  0  0  0
  150.1583  138.5579  156.1080 C   0  0  0  0  0  0  0  0  0  0  0  0
  151.1976  138.1655  157.1572 C   0  0  0  0  0  0  0  0  0  0  0  0
  151.9940  139.3244  157.7618 C   0  0  0  0  0  0  0  0  0  0  0  0
  153.0869  139.6362  157.2884 O   0  0  0  0  0  0  0  0  0  0  0  0
  151.4271  139.9555  158.8025 N   0  0  0  0  0  0  0  0  0  0  0  0
  151.9731  141.1114  159.5129 C   0  0  1  0  0  0  0  0  0  0  0  0
  153.2973  140.6977  160.1734 C   0  0  0  0  0  0  0  0  0  0  0  0
  152.1455  142.2990  158.5344 C   0  0  1  0  0  0  0  0  0  0  0  0
  150.8365  143.0306  158.1550 C   0  0  0  0  0  0  0  0  0  0  0  0
  151.1875  144.5126  158.3811 C   0  0  1  0  0  0  0  0  0  0  0  0
  151.2366  144.7902  159.8946 C   0  0  0  0  0  0  0  0  0  0  0  0
  152.5400  144.0924  160.3231 C   0  0  0  0  0  0  0  0  0  0  0  0
  153.0450  143.4699  159.0048 C   0  0  2  0  0  0  0  0  0  0  0  0
  152.6634  144.5556  158.0034 C   0  0  0  0  0  0  0  0  0  0  0  0
  150.6348  139.1798  154.8573 C   0  0  0  0  0  0  0  0  0  0  0  0
  151.8150  139.4051  154.5945 O   0  0  0  0  0  0  0  0  0  0  0  0
  149.6654  139.5093  153.9746 N   0  0  0  0  0  0  0  0  0  0  0  0
  149.9404  139.9392  153.1037 H   0  0  0  0  0  0  0  0  0  0  0  0
  146.7240  140.5069  153.4448 H   0  0  0  0  0  0  0  0  0  0  0  0
  146.8197  138.8965  152.7220 H   0  0  0  0  0  0  0  0  0  0  0  0
  147.9804  140.1446  152.2565 H   0  0  0  0  0  0  0  0  0  0  0  0
  148.6057  136.7153  157.6656 H   0  0  0  0  0  0  0  0  0  0  0  0
  147.1500  137.6944  157.4990 H   0  0  0  0  0  0  0  0  0  0  0  0
  148.5155  138.3128  158.4242 H   0  0  0  0  0  0  0  0  0  0  0  0
  150.6895  137.6267  157.9579 H   0  0  0  0  0  0  0  0  0  0  0  0
  151.9069  137.4463  156.7470 H   0  0  0  0  0  0  0  0  0  0  0  0
  150.5303  139.6174  159.1202 H   0  0  0  0  0  0  0  0  0  0  0  0
  151.2859  141.3989  160.3088 H   0  0  0  0  0  0  0  0  0  0  0  0
  153.7102  141.5060  160.7770 H   0  0  0  0  0  0  0  0  0  0  0  0
  154.0446  140.4228  159.4285 H   0  0  0  0  0  0  0  0  0  0  0  0
  153.1546  139.8419  160.8343 H   0  0  0  0  0  0  0  0  0  0  0  0
  152.5852  141.9049  157.6160 H   0  0  0  0  0  0  0  0  0  0  0  0
  150.5824  142.8412  157.1115 H   0  0  0  0  0  0  0  0  0  0  0  0
  149.9827  142.7276  158.7617 H   0  0  0  0  0  0  0  0  0  0  0  0
  150.5473  145.2028  157.8310 H   0  0  0  0  0  0  0  0  0  0  0  0
  151.2903  145.8610  160.0953 H   0  0  0  0  0  0  0  0  0  0  0  0
  150.3633  144.3958  160.4156 H   0  0  0  0  0  0  0  0  0  0  0  0
  153.2559  144.8281  160.6923 H   0  0  0  0  0  0  0  0  0  0  0  0
  152.3889  143.3649  161.1192 H   0  0  0  0  0  0  0  0  0  0  0  0
  154.1080  143.2265  159.0169 H   0  0  0  0  0  0  0  0  0  0  0  0
  152.8524  144.2774  156.9649 H   0  0  0  0  0  0  0  0  0  0  0  0
  153.1342  145.5193  158.2064 H   0  0  0  0  0  0  0  0  0  0  0  0
  1  2  1  0  0  0  0
  1 24  1  0  0  0  0
  1 25  1  0  0  0  0
  1 26  1  0  0  0  0
  2 22  1  0  0  0  0
  2  3  2  0  0  0  0
  3  4  1  0  0  0  0
  4  5  1  0  0  0  0
  4  6  2  0  0  0  0
  5 27  1  0  0  0  0
  5 28  1  0  0  0  0
  5 29  1  0  0  0  0
  6  7  1  0  0  0  0
  6 20  1  0  0  0  0
  7  8  1  0  0  0  0
  7 30  1  0  0  0  0
  7 31  1  0  0  0  0
  8  9  2  0  0  0  0
  8 10  1  0  0  0  0
 10 11  1  0  0  0  0
 10 32  1  0  0  0  0
 11 12  1  0  0  0  0
 11 13  1  0  0  0  0
 11 33  1  0  0  0  0
 12 34  1  0  0  0  0
 12 35  1  0  0  0  0
 12 36  1  0  0  0  0
 13 18  1  0  0  0  0
 13 14  1  0  0  0  0
 13 37  1  0  0  0  0
 14 15  1  0  0  0  0
 14 38  1  0  0  0  0
 14 39  1  0  0  0  0
 15 19  1  0  0  0  0
 15 16  1  0  0  0  0
 15 40  1  0  0  0  0
 16 17  1  0  0  0  0
 16 41  1  0  0  0  0
 16 42  1  0  0  0  0
 17 18  1  0  0  0  0
 17 43  1  0  0  0  0
 17 44  1  0  0  0  0
 18 19  1  0  0  0  0
 18 45  1  0  0  0  0
 19 46  1  0  0  0  0
 19 47  1  0  0  0  0
 20 21  2  0  0  0  0
 20 22  1  0  0  0  0
 22 23  1  0  0  0  0
M  END
> <s_m_source_file>
AV-unprocessed.smi

> <i_m_source_file_index>
2124

> <i_lp_mmshare_version>
43012

> <i_f3d_flags>
0

> <s_epik_input>
W0NIM11jMW5jKFtDSDNdKWMoYyg9TylbbkhdMSlbQ0gyXUMoPU8pW05IXVtDQEhdKFtDSDNdKVtDQEhdKFtDSDJdW0NASF0yMylbQ0BIXShbQ0gyXTMpW0NIMl1bQ0gyXTI=

> <s_epik_cmdline>
J2VwaWtfcHl0aG9uJywgJy1waCcsICc3LjAnLCAnLXRuJywgJzgnLCAnLW1hJywgJzIwMCcsICctbWV0YWxfYmluZGluZycsICctaW1hZScsICc8aW5maWxlLm1hZT4nLCAnLW9tYWUnLCAnPG91dGZpbGUubWFlPic=

> <r_lp_tautomer_probability>
0.839158

> <r_epik_Ionization_Penalty>
0.000383628

> <r_epik_Ionization_Penalty_Charging>
0.00035045

> <r_epik_Ionization_Penalty_Neutral>
3.31781e-05

> <r_epik_State_Penalty>
0.09125

> <r_epik_Charging_Adjusted_Penalty>
0.0916005

> <i_epik_Tot_Q>
0

> <i_epik_Tot_abs_Q>
0

> <r_epik_Metal_State_Penalty>
0.255229

> <b_epik_Metal_Only>
0

> <s_lp_Force_Field>
OPLS_2005

> <r_lp_Energy>
52.5586

> <b_lp_Chiralities_Consistent>
1

> <s_lp_Variant>
AV-unprocessed.smi:2124-8

> <Gold.Version>
5.8.1

> <Gold.Id.Protein>
6NUR|6NUR_protein|mol2

> <Gold.PLP.Fitness>
47.3627

> <Gold.PLP.PLP>
-39.6169

> <Gold.PLP.part.hbond>
-2.8906

> <Gold.PLP.part.metal>
0.0000

> <Gold.PLP.part.buried>
-4.7834

> <Gold.PLP.part.nonpolar>
-32.0671

> <Gold.PLP.part.repulsive>
0.3948

> <Gold.PLP.ligand.clash>
0.0000

> <Gold.PLP.ligand.torsion>
0.6317

> <Gold.PLP.Chemscore.Hbond>
2.9920

> <Gold.PLP.Chemscore.CHOScore>
0.0000

> <Gold.PLP.Chemscore.Metal>
0.0000

> <Gold.Chemscore.Hbonds>
donor molecule, donor type, donor heavy atom, donor atom, acceptor molecule, acceptor atom, score
      L1  H    22    23       P1  7957  0.93
      P1  H  7989  7998       L1    21  1.00
      P1  H  7997  8009       L1     9  1.00

> <Gold.PLP.Chemscore.Internal.Correction>
0.0333

> <Gold.Rescore>
     Score         DG    S(hbond)    S(metal)    S(lipo)     H(rot)  DE(clash)    DE(int)     intcor
     21.54     -22.97       2.70        0.00     108.55       1.65       0.00       1.43       ----

> <Gold.Chemscore.Fitness>
21.5422

> <Gold.Chemscore.DG>
-22.9729

> <Gold.Chemscore.ZeroCoef>
-5.4800

> <Gold.Chemscore.Hbond>
2.7021

> <Gold.Chemscore.Metal>
0.0000

> <Gold.Chemscore.Lipo>
108.5526

> <Gold.Chemscore.Internal_Hbond>
0.0000

> <Gold.Chemscore.DEClash>
0.0000

> <Gold.Chemscore.DEInternal>
1.4307

> <Gold.Chemscore.Rot>
1.6534

> <Gold.Chemscore.Internal.Correction>
   9.000000E+99

> <Gold.Chemscore.Hbonds>
donor molecule, donor type, donor heavy atom, donor atom, acceptor molecule, acceptor atom, score
      L1  H    22    23       P1  7957  0.88
      P1  H  7989  7998       L1    21  0.29
      P1  H  7997  8009       L1     9  0.93

> <Gold.Chemscore.Hbond.Weighted>
-9.0249

> <Gold.Chemscore.Metal.Weighted>
-0.0000

> <Gold.Chemscore.Lipo.Weighted>
-12.7007

> <Gold.Chemscore.Internal_Hbond.Weighted>
0.0000

> <Gold.Chemscore.DEClash.Weighted>
0.0000

> <Gold.Chemscore.DEInternal.Weighted>
1.4307

> <Gold.Chemscore.Rot.Weighted>
4.2326

> <Gold.Chemscore.Internal.Correction.Weighted>
   9.000000E+99

> <Gold.Protein.RotatedTorsions>
[ 6907 6896 6895 6894 ] final  -81.70 input  -60.11 | X-H torsion
[ 7974 7965 7964 7962 ] final   88.09 input  175.53 | X-H torsion
[ 8008 7997 7996 7995 ] final -173.06 input   59.86 | X-H torsion
[ 10167 10162 10161 10158 ] final   55.92 input  -65.29 | X-H torsion
[ 10718 10713 10712 10709 ] final -106.90 input   66.30 | X-H torsion
[ 10763 10752 10751 10750 ] final  -48.10 input  -60.55 | X-H torsion
[ 11005 11000 10999 10996 ] final -107.08 input  -57.11 | X-H torsion

> <Gold.Protein.ActiveResidues>
 VAL166  LYS551  ARG553  GLY616  TRP617  ASP618  TYR619  PRO620  LYS621  CYS622 
 ASP623  PHE694  ASN695  SER759  ASP760  ASP761  ALA762  ILE779  LEU786  VAL792 
 PHE793  MET794  SER795  GLU796  ALA797  LYS798  CYS799  TRP800  GLU811  SER814 

> <Gold.Protein.RotatedAtoms>
  150.6908  134.3778  159.5020 H   0  0  0  0  0  0  0  0  0  0  0  0  # atno 6907 bound_to 6896
  152.1585  134.8929  160.0552 H   0  0  0  0  0  0  0  0  0  0  0  0  # atno 6908 bound_to 6896
  152.0000  133.3787  159.4215 H   0  0  0  0  0  0  0  0  0  0  0  0  # atno 6909 bound_to 6896
  145.5503  139.2295  143.2516 H   0  0  0  0  0  0  0  0  0  0  0  0  # atno 7974 bound_to 7965
  155.9526  140.1129  157.0964 H   0  0  0  0  0  0  0  0  0  0  0  0  # atno 8008 bound_to 7997
  154.4113  140.1197  156.5138 H   0  0  0  0  0  0  0  0  0  0  0  0  # atno 8009 bound_to 7997
  155.6823  140.3473  155.4862 H   0  0  0  0  0  0  0  0  0  0  0  0  # atno 8010 bound_to 7997
  140.2142  144.3856  150.6476 H   0  0  0  0  0  0  0  0  0  0  0  0  # atno 10167 bound_to 10162
  156.0411  130.5636  150.7746 H   0  0  0  0  0  0  0  0  0  0  0  0  # atno 10718 bound_to 10713
  154.0723  135.6603  153.4826 H   0  0  0  0  0  0  0  0  0  0  0  0  # atno 10763 bound_to 10752
  153.0386  135.5160  154.7555 H   0  0  0  0  0  0  0  0  0  0  0  0  # atno 10764 bound_to 10752
  154.6624  135.3017  154.9816 H   0  0  0  0  0  0  0  0  0  0  0  0  # atno 10765 bound_to 10752
  141.0972  133.8950  157.1933 H   0  0  0  0  0  0  0  0  0  0  0  0  # atno 11005 bound_to 11000
  146.1921  140.6325  142.9141 LP  0  0  0  0  0  0  0  0  0  0  0  0  # atno 17320 bound_to 7965
  144.7533  140.5244  143.6787 LP  0  0  0  0  0  0  0  0  0  0  0  0  # atno 17321 bound_to 7965
  140.6301  143.2186  151.6513 LP  0  0  0  0  0  0  0  0  0  0  0  0  # atno 17342 bound_to 10162
  139.5168  144.3335  152.0805 LP  0  0  0  0  0  0  0  0  0  0  0  0  # atno 17343 bound_to 10162
  157.5230  131.0932  151.0053 LP  0  0  0  0  0  0  0  0  0  0  0  0  # atno 17370 bound_to 10713
  157.0379  130.5737  149.5352 LP  0  0  0  0  0  0  0  0  0  0  0  0  # atno 17371 bound_to 10713
  139.9812  135.0097  156.9754 LP  0  0  0  0  0  0  0  0  0  0  0  0  # atno 17394 bound_to 11000
  140.5111  134.1001  155.7270 LP  0  0  0  0  0  0  0  0  0  0  0  0  # atno 17395 bound_to 11000

$$$$
