AV-unprocessed.smi:765|AV-procd|sdf|3643|dock8
  -GOLD-   22720 1 43D 1   1.00000     0.00000
 Structure written by MMmdl.
 39 40  0  0  0  0  0  0  0  0  1 V2000
  148.0474  139.6950  157.5658 C   0  0  0  0  0  0  0  0  0  0  0  0
  149.5732  139.8622  157.5987 C   0  0  2  0  0  0  0  0  0  0  0  0
  150.1795  139.7579  156.1877 C   0  0  0  0  0  0  0  0  0  0  0  0
  151.7075  139.9043  156.2171 C   0  0  0  0  0  0  0  0  0  0  0  0
  152.3419  138.8719  157.1639 C   0  0  0  0  0  0  0  0  0  0  0  0
  151.7720  138.9555  158.6017 C   0  0  1  0  0  0  0  0  0  0  0  0
  152.2945  137.8372  159.4102 C   0  0  0  0  0  0  0  0  0  0  0  0
  152.7057  136.9609  160.0443 N   0  0  0  0  0  0  0  0  0  0  0  0
  152.1083  140.2383  159.2278 N   0  0  0  0  0  0  0  0  0  0  0  0
  153.3355  140.7378  159.4512 C   0  0  0  0  0  0  0  0  0  0  0  0
  154.3721  140.1528  159.1366 O   0  0  0  0  0  0  0  0  0  0  0  0
  153.3846  142.1110  160.1381 C   0  0  2  0  0  0  0  0  0  0  0  0
  152.9622  142.0594  161.6184 C   0  0  0  0  0  0  0  0  0  0  0  0
  152.5814  143.0735  159.3952 N   0  0  0  0  0  0  0  0  0  0  0  0
  152.4272  144.4283  159.6181 C   0  0  0  0  0  0  0  0  0  0  0  0
  151.5657  144.9030  158.6712 C   0  0  0  0  0  0  0  0  0  0  0  0
  151.2381  143.7500  157.9045 C   0  0  0  0  0  0  0  0  0  0  0  0
  151.8447  142.6580  158.3407 N   0  0  0  0  0  0  0  0  0  0  0  0
  150.2316  138.8348  158.5449 C   0  0  0  0  0  0  0  0  0  0  0  0
  147.7635  138.7115  157.1901 H   0  0  0  0  0  0  0  0  0  0  0  0
  147.5843  140.4436  156.9223 H   0  0  0  0  0  0  0  0  0  0  0  0
  147.6186  139.8078  158.5619 H   0  0  0  0  0  0  0  0  0  0  0  0
  149.7791  140.8632  157.9798 H   0  0  0  0  0  0  0  0  0  0  0  0
  149.9172  138.7968  155.7431 H   0  0  0  0  0  0  0  0  0  0  0  0
  149.7520  140.5238  155.5398 H   0  0  0  0  0  0  0  0  0  0  0  0
  152.1099  139.7796  155.2114 H   0  0  0  0  0  0  0  0  0  0  0  0
  151.9758  140.9133  156.5319 H   0  0  0  0  0  0  0  0  0  0  0  0
  152.1591  137.8730  156.7654 H   0  0  0  0  0  0  0  0  0  0  0  0
  153.4254  138.9918  157.1664 H   0  0  0  0  0  0  0  0  0  0  0  0
  151.3250  140.7989  159.5313 H   0  0  0  0  0  0  0  0  0  0  0  0
  154.4242  142.4439  160.1104 H   0  0  0  0  0  0  0  0  0  0  0  0
  153.5769  141.3549  162.1801 H   0  0  0  0  0  0  0  0  0  0  0  0
  151.9205  141.7572  161.7342 H   0  0  0  0  0  0  0  0  0  0  0  0
  153.0754  143.0370  162.0876 H   0  0  0  0  0  0  0  0  0  0  0  0
  152.9369  144.9349  160.4249 H   0  0  0  0  0  0  0  0  0  0  0  0
  151.2205  145.9186  158.5464 H   0  0  0  0  0  0  0  0  0  0  0  0
  150.5807  143.6745  157.0509 H   0  0  0  0  0  0  0  0  0  0  0  0
  149.8172  138.9390  159.5491 H   0  0  0  0  0  0  0  0  0  0  0  0
  149.9653  137.8289  158.2158 H   0  0  0  0  0  0  0  0  0  0  0  0
  1  2  1  0  0  0  0
  1 20  1  0  0  0  0
  1 21  1  0  0  0  0
  1 22  1  0  0  0  0
  2 19  1  0  0  0  0
  2  3  1  0  0  0  0
  2 23  1  0  0  0  0
  3  4  1  0  0  0  0
  3 24  1  0  0  0  0
  3 25  1  0  0  0  0
  4  5  1  0  0  0  0
  4 26  1  0  0  0  0
  4 27  1  0  0  0  0
  5  6  1  0  0  0  0
  5 28  1  0  0  0  0
  5 29  1  0  0  0  0
  6  7  1  0  0  0  0
  6  9  1  0  0  0  0
  6 19  1  0  0  0  0
  7  8  3  0  0  0  0
  9 10  1  0  0  0  0
  9 30  1  0  0  0  0
 10 11  2  0  0  0  0
 10 12  1  0  0  0  0
 12 13  1  0  0  0  0
 12 14  1  0  0  0  0
 12 31  1  0  0  0  0
 13 32  1  0  0  0  0
 13 33  1  0  0  0  0
 13 34  1  0  0  0  0
 14 18  1  0  0  0  0
 14 15  1  0  0  0  0
 15 16  2  0  0  0  0
 15 35  1  0  0  0  0
 16 17  1  0  0  0  0
 16 36  1  0  0  0  0
 17 18  2  0  0  0  0
 17 37  1  0  0  0  0
 19 38  1  0  0  0  0
 19 39  1  0  0  0  0
M  END
> <s_m_source_file>
AV-unprocessed.smi

> <i_m_source_file_index>
765

> <i_lp_mmshare_version>
43012

> <i_f3d_flags>
0

> <s_epik_input>
W0NIM11bQ0BASF0oW0NIMl0xKVtDSDJdW0NIMl1bQ0gyXVtDQEBdMShDI04pW05IXUMoPU8pW0NASF0oW0NIM10pbjJbY0hdW2NIXVtjSF1uMg==

> <s_epik_cmdline>
J2VwaWtfcHl0aG9uJywgJy1waCcsICc3LjAnLCAnLXRuJywgJzgnLCAnLW1hJywgJzIwMCcsICctbWV0YWxfYmluZGluZycsICctaW1hZScsICc8aW5maWxlLm1hZT4nLCAnLW9tYWUnLCAnPG91dGZpbGUubWFlPic=

> <r_lp_tautomer_probability>
1

> <r_epik_Ionization_Penalty>
2.71142e-05

> <r_epik_Ionization_Penalty_Charging>
0

> <r_epik_Ionization_Penalty_Neutral>
2.71142e-05

> <r_epik_State_Penalty>
-0

> <r_epik_Charging_Adjusted_Penalty>
0

> <i_epik_Tot_Q>
0

> <i_epik_Tot_abs_Q>
0

> <r_epik_Metal_State_Penalty>
-0

> <b_epik_Metal_Only>
0

> <s_lp_Force_Field>
OPLS_2005

> <r_lp_Energy>
11.1831

> <b_lp_Chiralities_Consistent>
1

> <s_lp_Variant>
AV-unprocessed.smi:765-1

> <Gold.Version>
5.8.1

> <Gold.Id.Protein>
6NUR|6NUR_protein|mol2

> <Gold.PLP.Fitness>
46.8691

> <Gold.PLP.PLP>
-38.4019

> <Gold.PLP.part.hbond>
-2.0000

> <Gold.PLP.part.metal>
0.0000

> <Gold.PLP.part.buried>
-4.5576

> <Gold.PLP.part.nonpolar>
-32.3561

> <Gold.PLP.part.repulsive>
0.1613

> <Gold.PLP.ligand.clash>
0.0000

> <Gold.PLP.ligand.torsion>
0.1680

> <Gold.PLP.Chemscore.Hbond>
1.9120

> <Gold.PLP.Chemscore.CHOScore>
1.0000

> <Gold.PLP.Chemscore.Metal>
0.0000

> <Gold.Chemscore.Hbonds>
donor molecule, donor type, donor heavy atom, donor atom, acceptor molecule, acceptor atom, score
      P1  H  6896  6908       L1     8  1.00
      P1  H  7997  8009       L1    11  0.88
      L1  C    17    37       P1  8028  1.00

> <Gold.PLP.Chemscore.Internal.Correction>
0.0673

> <Gold.Rescore>
     Score         DG    S(hbond)    S(metal)    S(lipo)     H(rot)  DE(clash)    DE(int)     intcor
     16.89     -18.73       1.96        0.00      88.37       1.42       0.20       1.64       ----

> <Gold.Chemscore.Fitness>
16.8878

> <Gold.Chemscore.DG>
-18.7299

> <Gold.Chemscore.ZeroCoef>
-5.4800

> <Gold.Chemscore.Hbond>
1.9584

> <Gold.Chemscore.Metal>
0.0000

> <Gold.Chemscore.Lipo>
88.3732

> <Gold.Chemscore.Internal_Hbond>
0.0000

> <Gold.Chemscore.DEClash>
0.2000

> <Gold.Chemscore.DEInternal>
1.6421

> <Gold.Chemscore.Rot>
1.4183

> <Gold.Chemscore.Internal.Correction>
   9.000000E+99

> <Gold.Chemscore.Hbonds>
donor molecule, donor type, donor heavy atom, donor atom, acceptor molecule, acceptor atom, score
      P1  H  6896  6908       L1     8  0.92
      P1  H  7997  8009       L1    11  0.85

> <Gold.Chemscore.Hbond.Weighted>
-6.5411

> <Gold.Chemscore.Metal.Weighted>
-0.0000

> <Gold.Chemscore.Lipo.Weighted>
-10.3397

> <Gold.Chemscore.Internal_Hbond.Weighted>
0.0000

> <Gold.Chemscore.DEClash.Weighted>
0.2000

> <Gold.Chemscore.DEInternal.Weighted>
1.6421

> <Gold.Chemscore.Rot.Weighted>
3.6309

> <Gold.Chemscore.Internal.Correction.Weighted>
   9.000000E+99

> <Gold.Protein.RotatedTorsions>
[ 6907 6896 6895 6894 ] final -106.11 input  -60.11 | X-H torsion
[ 7974 7965 7964 7962 ] final  119.99 input  175.53 | X-H torsion
[ 8008 7997 7996 7995 ] final  114.05 input   59.86 | X-H torsion
[ 10167 10162 10161 10158 ] final  154.36 input  -65.29 | X-H torsion
[ 10718 10713 10712 10709 ] final  -45.89 input   66.30 | X-H torsion
[ 10763 10752 10751 10750 ] final   81.75 input  -60.55 | X-H torsion
[ 11005 11000 10999 10996 ] final  -37.26 input  -57.11 | X-H torsion

> <Gold.Protein.ActiveResidues>
 VAL166  LYS551  ARG553  GLY616  TRP617  ASP618  TYR619  PRO620  LYS621  CYS622 
 ASP623  PHE694  ASN695  SER759  ASP760  ASP761  ALA762  ILE779  LEU786  VAL792 
 PHE793  MET794  SER795  GLU796  ALA797  LYS798  CYS799  TRP800  GLU811  SER814 

> <Gold.Protein.RotatedAtoms>
  150.7372  134.0025  159.3642 H   0  0  0  0  0  0  0  0  0  0  0  0  # atno 6907 bound_to 6896
  151.7980  135.0715  160.0406 H   0  0  0  0  0  0  0  0  0  0  0  0  # atno 6908 bound_to 6896
  152.3161  133.5767  159.5749 H   0  0  0  0  0  0  0  0  0  0  0  0  # atno 6909 bound_to 6896
  145.1365  139.3294  143.4638 H   0  0  0  0  0  0  0  0  0  0  0  0  # atno 7974 bound_to 7965
  156.2297  140.2967  156.0156 H   0  0  0  0  0  0  0  0  0  0  0  0  # atno 8008 bound_to 7997
  155.2260  140.0417  157.2972 H   0  0  0  0  0  0  0  0  0  0  0  0  # atno 8009 bound_to 7997
  154.5974  140.2418  155.7846 H   0  0  0  0  0  0  0  0  0  0  0  0  # atno 8010 bound_to 7997
  139.4823  144.5193  151.7901 H   0  0  0  0  0  0  0  0  0  0  0  0  # atno 10167 bound_to 10162
  156.2237  130.4168  149.8960 H   0  0  0  0  0  0  0  0  0  0  0  0  # atno 10718 bound_to 10713
  153.1143  135.4754  154.9089 H   0  0  0  0  0  0  0  0  0  0  0  0  # atno 10763 bound_to 10752
  154.7513  135.3106  154.8555 H   0  0  0  0  0  0  0  0  0  0  0  0  # atno 10764 bound_to 10752
  153.9136  135.6862  153.4803 H   0  0  0  0  0  0  0  0  0  0  0  0  # atno 10765 bound_to 10752
  140.9938  133.6991  156.1898 H   0  0  0  0  0  0  0  0  0  0  0  0  # atno 11005 bound_to 11000
  146.3509  140.1385  142.8595 LP  0  0  0  0  0  0  0  0  0  0  0  0  # atno 17320 bound_to 7965
  145.0578  140.9065  143.4957 LP  0  0  0  0  0  0  0  0  0  0  0  0  # atno 17321 bound_to 7965
  140.4705  144.1593  150.5917 LP  0  0  0  0  0  0  0  0  0  0  0  0  # atno 17342 bound_to 10162
  140.4387  143.2536  151.9501 LP  0  0  0  0  0  0  0  0  0  0  0  0  # atno 17343 bound_to 10162
  156.6598  130.8777  151.3545 LP  0  0  0  0  0  0  0  0  0  0  0  0  # atno 17370 bound_to 10713
  157.7100  130.9429  150.1057 LP  0  0  0  0  0  0  0  0  0  0  0  0  # atno 17371 bound_to 10713
  140.6998  134.4576  157.5586 LP  0  0  0  0  0  0  0  0  0  0  0  0  # atno 17394 bound_to 11000
  139.9005  134.8567  156.1917 LP  0  0  0  0  0  0  0  0  0  0  0  0  # atno 17395 bound_to 11000

$$$$
