AV-unprocessed.smi:716|AV-procd|sdf|3489|dock6
  -GOLD-   22720 0483D 1   1.00000     0.00000
 Structure written by MMmdl.
 48 50  0  0  0  0  0  0  0  0  1 V2000
  152.7249  142.5597  159.8771 C   0  0  0  0  0  0  0  0  0  0  0  0
  152.8165  141.2170  159.1491 C   0  0  0  0  0  0  0  0  0  0  0  0
  151.7483  141.1263  158.2210 O   0  0  0  0  0  0  0  0  0  0  0  0
  151.6742  139.8604  157.5774 C   0  0  1  0  0  0  0  0  0  0  0  0
  151.3466  138.7335  158.5664 C   0  0  0  0  0  0  0  0  0  0  0  0
  149.8730  139.0432  158.2941 C   0  0  2  0  0  0  0  0  0  0  0  0
  149.0516  137.8405  158.2369 N   0  0  0  0  0  0  0  0  0  0  0  0
  149.1665  136.8041  159.0794 C   0  0  0  0  0  0  0  0  0  0  0  0
  150.0475  136.7243  159.9359 O   0  0  0  0  0  0  0  0  0  0  0  0
  148.1186  135.6945  158.9334 C   0  0  0  0  0  0  0  0  0  0  0  0
  147.7198  135.1561  160.2404 N   0  0  0  0  0  0  0  0  0  0  0  0
  147.8378  133.7780  160.3318 N   0  0  0  0  0  0  0  0  0  0  0  0
  147.4745  133.1459  161.3986 C   0  0  0  0  0  0  0  0  0  0  0  0
  147.6186  131.6525  161.4013 C   0  0  0  0  0  0  0  0  0  0  0  0
  146.9520  133.8921  162.5271 C   0  0  0  0  0  0  0  0  0  0  0  0
  146.8422  135.2351  162.4383 C   0  0  0  0  0  0  0  0  0  0  0  0
  147.2330  135.9610  161.2313 C   0  0  0  0  0  0  0  0  0  0  0  0
  147.1269  137.1816  161.1154 O   0  0  0  0  0  0  0  0  0  0  0  0
  150.2981  139.6028  156.9116 C   0  0  0  0  0  0  0  0  0  0  0  0
  150.3205  138.6738  155.6897 C   0  0  0  0  0  0  0  0  0  0  0  0
  150.4820  139.5648  154.4554 C   0  0  0  0  0  0  0  0  0  0  0  0
  149.9829  140.9498  154.8797 C   0  0  0  0  0  0  0  0  0  0  0  0
  149.5441  140.8015  156.3389 C   0  0  0  0  0  0  0  0  0  0  0  0
  153.5346  142.6676  160.5989 H   0  0  0  0  0  0  0  0  0  0  0  0
  151.7815  142.6488  160.4165 H   0  0  0  0  0  0  0  0  0  0  0  0
  152.7898  143.3912  159.1748 H   0  0  0  0  0  0  0  0  0  0  0  0
  153.7715  141.1405  158.6273 H   0  0  0  0  0  0  0  0  0  0  0  0
  152.7690  140.4004  159.8707 H   0  0  0  0  0  0  0  0  0  0  0  0
  152.5211  139.6583  156.9191 H   0  0  0  0  0  0  0  0  0  0  0  0
  151.6631  137.7523  158.2073 H   0  0  0  0  0  0  0  0  0  0  0  0
  151.6623  138.9053  159.5955 H   0  0  0  0  0  0  0  0  0  0  0  0
  149.4892  139.8180  158.9622 H   0  0  0  0  0  0  0  0  0  0  0  0
  148.3092  137.8218  157.5525 H   0  0  0  0  0  0  0  0  0  0  0  0
  147.2362  136.0818  158.4200 H   0  0  0  0  0  0  0  0  0  0  0  0
  148.5181  134.9189  158.2784 H   0  0  0  0  0  0  0  0  0  0  0  0
  147.1752  131.2145  162.2958 H   0  0  0  0  0  0  0  0  0  0  0  0
  148.6700  131.3652  161.3732 H   0  0  0  0  0  0  0  0  0  0  0  0
  147.1237  131.2121  160.5348 H   0  0  0  0  0  0  0  0  0  0  0  0
  146.6567  133.3714  163.4261 H   0  0  0  0  0  0  0  0  0  0  0  0
  146.4529  135.7895  163.2792 H   0  0  0  0  0  0  0  0  0  0  0  0
  151.1103  137.9238  155.7433 H   0  0  0  0  0  0  0  0  0  0  0  0
  149.3785  138.1316  155.6006 H   0  0  0  0  0  0  0  0  0  0  0  0
  151.5316  139.6224  154.1647 H   0  0  0  0  0  0  0  0  0  0  0  0
  149.9256  139.1710  153.6041 H   0  0  0  0  0  0  0  0  0  0  0  0
  150.7949  141.6741  154.8038 H   0  0  0  0  0  0  0  0  0  0  0  0
  149.1657  141.3033  154.2502 H   0  0  0  0  0  0  0  0  0  0  0  0
  148.4708  140.6107  156.3714 H   0  0  0  0  0  0  0  0  0  0  0  0
  149.7087  141.7215  156.8996 H   0  0  0  0  0  0  0  0  0  0  0  0
  1  2  1  0  0  0  0
  1 24  1  0  0  0  0
  1 25  1  0  0  0  0
  1 26  1  0  0  0  0
  2  3  1  0  0  0  0
  2 27  1  0  0  0  0
  2 28  1  0  0  0  0
  3  4  1  0  0  0  0
  4 19  1  0  0  0  0
  4  5  1  0  0  0  0
  4 29  1  0  0  0  0
  5  6  1  0  0  0  0
  5 30  1  0  0  0  0
  5 31  1  0  0  0  0
  6  7  1  0  0  0  0
  6 19  1  0  0  0  0
  6 32  1  0  0  0  0
  7  8  1  0  0  0  0
  7 33  1  0  0  0  0
  8  9  2  0  0  0  0
  8 10  1  0  0  0  0
 10 11  1  0  0  0  0
 10 34  1  0  0  0  0
 10 35  1  0  0  0  0
 11 17  1  0  0  0  0
 11 12  1  0  0  0  0
 12 13  2  0  0  0  0
 13 14  1  0  0  0  0
 13 15  1  0  0  0  0
 14 36  1  0  0  0  0
 14 37  1  0  0  0  0
 14 38  1  0  0  0  0
 15 16  2  0  0  0  0
 15 39  1  0  0  0  0
 16 17  1  0  0  0  0
 16 40  1  0  0  0  0
 17 18  2  0  0  0  0
 19 23  1  0  0  0  0
 19 20  1  0  0  0  0
 20 21  1  0  0  0  0
 20 41  1  0  0  0  0
 20 42  1  0  0  0  0
 21 22  1  0  0  0  0
 21 43  1  0  0  0  0
 21 44  1  0  0  0  0
 22 23  1  0  0  0  0
 22 45  1  0  0  0  0
 22 46  1  0  0  0  0
 23 47  1  0  0  0  0
 23 48  1  0  0  0  0
M  END
> <s_m_source_file>
AV-unprocessed.smi

> <i_m_source_file_index>
716

> <i_lp_mmshare_version>
43012

> <i_f3d_flags>
0

> <s_epik_input>
W0NIMl0xW0NIMl1bQ0gyXVtDSDJdQzEyW0NASF0oT1tDSDJdW0NIM10pW0NIMl1bQ0BIXTJbTkhdQyg9TylbQ0gyXW4zbmMoW0NIM10pW2NIXVtjSF1jMz1P

> <s_epik_cmdline>
J2VwaWtfcHl0aG9uJywgJy1waCcsICc3LjAnLCAnLXRuJywgJzgnLCAnLW1hJywgJzIwMCcsICctbWV0YWxfYmluZGluZycsICctaW1hZScsICc8aW5maWxlLm1hZT4nLCAnLW9tYWUnLCAnPG91dGZpbGUubWFlPic=

> <r_lp_tautomer_probability>
1

> <r_epik_Ionization_Penalty>
4.75561e-08

> <r_epik_Ionization_Penalty_Charging>
2.86617e-08

> <r_epik_Ionization_Penalty_Neutral>
1.88944e-08

> <r_epik_State_Penalty>
-0

> <r_epik_Charging_Adjusted_Penalty>
2.86617e-08

> <i_epik_Tot_Q>
0

> <i_epik_Tot_abs_Q>
0

> <r_epik_Metal_State_Penalty>
-0

> <b_epik_Metal_Only>
0

> <s_lp_Force_Field>
OPLS_2005

> <r_lp_Energy>
50.6956

> <b_lp_Chiralities_Consistent>
1

> <s_lp_Variant>
AV-unprocessed.smi:716-4

> <Gold.Version>
5.8.1

> <Gold.Id.Protein>
6NUR|6NUR_protein|mol2

> <Gold.PLP.Fitness>
48.1537

> <Gold.PLP.PLP>
-40.7277

> <Gold.PLP.part.hbond>
-3.6517

> <Gold.PLP.part.metal>
0.0000

> <Gold.PLP.part.buried>
-1.8075

> <Gold.PLP.part.nonpolar>
-35.9555

> <Gold.PLP.part.repulsive>
0.1671

> <Gold.PLP.ligand.clash>
0.0000

> <Gold.PLP.ligand.torsion>
0.7034

> <Gold.PLP.Chemscore.Hbond>
2.8080

> <Gold.PLP.Chemscore.CHOScore>
0.0000

> <Gold.PLP.Chemscore.Metal>
0.0000

> <Gold.Chemscore.Hbonds>
donor molecule, donor type, donor heavy atom, donor atom, acceptor molecule, acceptor atom, score
      P1  H  6896  6909       L1     9  1.00
      P1  H  6931  6943       L1    18  0.23
      P1  H  6934  6947       L1    18  1.00

> <Gold.PLP.Chemscore.Internal.Correction>
0.4089

> <Gold.Rescore>
     Score         DG    S(hbond)    S(metal)    S(lipo)     H(rot)  DE(clash)    DE(int)     intcor
     17.66     -21.22       2.71        0.00      95.10       1.73       0.22       3.34       ----

> <Gold.Chemscore.Fitness>
17.6560

> <Gold.Chemscore.DG>
-21.2220

> <Gold.Chemscore.ZeroCoef>
-5.4800

> <Gold.Chemscore.Hbond>
2.7114

> <Gold.Chemscore.Metal>
0.0000

> <Gold.Chemscore.Lipo>
95.1031

> <Gold.Chemscore.Internal_Hbond>
0.0000

> <Gold.Chemscore.DEClash>
0.2221

> <Gold.Chemscore.DEInternal>
3.3439

> <Gold.Chemscore.Rot>
1.7348

> <Gold.Chemscore.Internal.Correction>
   9.000000E+99

> <Gold.Chemscore.Hbonds>
donor molecule, donor type, donor heavy atom, donor atom, acceptor molecule, acceptor atom, score
      P1  H  6896  6909       L1     9  0.92
      P1  H  6931  6943       L1    18  0.18
      P1  H  6934  6947       L1    18  0.99

> <Gold.Chemscore.Hbond.Weighted>
-9.0560

> <Gold.Chemscore.Metal.Weighted>
-0.0000

> <Gold.Chemscore.Lipo.Weighted>
-11.1271

> <Gold.Chemscore.Internal_Hbond.Weighted>
0.0000

> <Gold.Chemscore.DEClash.Weighted>
0.2221

> <Gold.Chemscore.DEInternal.Weighted>
3.3439

> <Gold.Chemscore.Rot.Weighted>
4.4411

> <Gold.Chemscore.Internal.Correction.Weighted>
   9.000000E+99

> <Gold.Protein.RotatedTorsions>
[ 6907 6896 6895 6894 ] final  101.15 input  -60.11 | X-H torsion
[ 7974 7965 7964 7962 ] final  -87.23 input  175.53 | X-H torsion
[ 8008 7997 7996 7995 ] final   71.45 input   59.86 | X-H torsion
[ 10167 10162 10161 10158 ] final -151.58 input  -65.29 | X-H torsion
[ 10718 10713 10712 10709 ] final  -65.82 input   66.30 | X-H torsion
[ 10763 10752 10751 10750 ] final  -53.47 input  -60.55 | X-H torsion
[ 11005 11000 10999 10996 ] final   88.30 input  -57.11 | X-H torsion

> <Gold.Protein.ActiveResidues>
 VAL166  LYS551  ARG553  GLY616  TRP617  ASP618  TYR619  PRO620  LYS621  CYS622 
 ASP623  PHE694  ASN695  SER759  ASP760  ASP761  ALA762  ILE779  LEU786  VAL792 
 PHE793  MET794  SER795  GLU796  ALA797  LYS798  CYS799  TRP800  GLU811  SER814 

> <Gold.Protein.RotatedAtoms>
  152.5356  134.0169  159.7963 H   0  0  0  0  0  0  0  0  0  0  0  0  # atno 6907 bound_to 6896
  151.0362  133.5739  159.2663 H   0  0  0  0  0  0  0  0  0  0  0  0  # atno 6908 bound_to 6896
  151.2725  135.0696  159.9193 H   0  0  0  0  0  0  0  0  0  0  0  0  # atno 6909 bound_to 6896
  145.4693  140.9560  143.1926 H   0  0  0  0  0  0  0  0  0  0  0  0  # atno 7974 bound_to 7965
  155.7540  140.3488  155.5165 H   0  0  0  0  0  0  0  0  0  0  0  0  # atno 8008 bound_to 7997
  155.8977  140.1028  157.1394 H   0  0  0  0  0  0  0  0  0  0  0  0  # atno 8009 bound_to 7997
  154.4040  140.1292  156.4383 H   0  0  0  0  0  0  0  0  0  0  0  0  # atno 8010 bound_to 7997
  139.7255  143.8889  152.2518 H   0  0  0  0  0  0  0  0  0  0  0  0  # atno 10167 bound_to 10162
  156.0647  130.4253  150.1619 H   0  0  0  0  0  0  0  0  0  0  0  0  # atno 10718 bound_to 10713
  154.1593  135.6477  153.4982 H   0  0  0  0  0  0  0  0  0  0  0  0  # atno 10763 bound_to 10752
  153.0115  135.5357  154.6727 H   0  0  0  0  0  0  0  0  0  0  0  0  # atno 10764 bound_to 10752
  154.6037  135.2946  155.0480 H   0  0  0  0  0  0  0  0  0  0  0  0  # atno 10765 bound_to 10752
  139.8899  134.8479  156.2981 H   0  0  0  0  0  0  0  0  0  0  0  0  # atno 11005 bound_to 11000
  144.7955  139.6243  143.7094 LP  0  0  0  0  0  0  0  0  0  0  0  0  # atno 17320 bound_to 7965
  146.2406  139.5993  142.9494 LP  0  0  0  0  0  0  0  0  0  0  0  0  # atno 17321 bound_to 7965
  139.8798  144.7024  150.8891 LP  0  0  0  0  0  0  0  0  0  0  0  0  # atno 17342 bound_to 10162
  140.7762  143.3670  151.1719 LP  0  0  0  0  0  0  0  0  0  0  0  0  # atno 17343 bound_to 10162
  156.9681  130.9826  151.3465 LP  0  0  0  0  0  0  0  0  0  0  0  0  # atno 17370 bound_to 10713
  157.5681  130.8292  149.8355 LP  0  0  0  0  0  0  0  0  0  0  0  0  # atno 17371 bound_to 10713
  140.9931  133.7196  156.0845 LP  0  0  0  0  0  0  0  0  0  0  0  0  # atno 17394 bound_to 11000
  140.7598  134.3952  157.5527 LP  0  0  0  0  0  0  0  0  0  0  0  0  # atno 17395 bound_to 11000

$$$$
