AV-unprocessed.smi:2063|AV-procd|sdf|8413|dock1
  -GOLD-   2272011103D 1   1.00000     0.00000
 Structure written by MMmdl.
 38 39  0  0  0  0  0  0  0  0  2 V2000
  154.0871  136.7068  164.3178 C   0  0  0  0  0  0  0  0  0  0  0  0
  154.6375  135.9556  163.0969 C   0  0  0  0  0  0  0  0  0  0  0  0
  155.8195  135.0363  163.4367 C   0  0  0  0  0  0  0  0  0  0  0  0
  154.9480  136.8795  161.9609 C   0  0  0  0  0  0  0  0  0  0  0  0
  156.1488  136.9426  161.3772 N   0  0  0  0  0  0  0  0  0  0  0  0
  156.1871  137.8806  160.3560 N   0  0  0  0  0  0  0  0  0  0  0  0
  155.0220  138.5215  160.1868 C   0  0  0  0  0  0  0  0  0  0  0  0
  154.8503  139.4717  159.2528 N   0  5  0  0  0  0  0  0  0  0  0  0
  153.8321  140.3552  159.3685 C   0  0  0  0  0  0  0  0  0  0  0  0
  152.9219  140.5298  158.5549 O   0  0  0  0  0  0  0  0  0  0  0  0
  153.8710  141.0806  160.4958 N   0  0  0  0  0  0  0  0  0  0  0  0
  152.9172  142.1158  160.8899 C   0  0  1  0  0  0  0  0  0  0  0  0
  153.0934  142.4391  162.3845 C   0  0  0  0  0  0  0  0  0  0  0  0
  153.1174  143.3561  159.9971 C   0  0  2  0  0  0  0  0  0  0  0  0
  152.1433  144.5028  160.2698 C   0  0  0  0  0  0  0  0  0  0  0  0
  152.1929  145.2635  158.9647 C   0  0  0  0  0  0  0  0  0  0  0  0
  152.3049  144.1365  157.9415 C   0  0  0  0  0  0  0  0  0  0  0  0
  152.8883  143.0312  158.6276 O   0  0  0  0  0  0  0  0  0  0  0  0
  153.7554  137.9791  161.2869 S   0  0  0  0  0  0  0  0  0  0  0  0
  153.1999  137.2838  164.0552 H   0  0  0  0  0  0  0  0  0  0  0  0
  154.8259  137.3984  164.7242 H   0  0  0  0  0  0  0  0  0  0  0  0
  153.8079  136.0143  165.1121 H   0  0  0  0  0  0  0  0  0  0  0  0
  153.8338  135.3045  162.7510 H   0  0  0  0  0  0  0  0  0  0  0  0
  156.1289  134.4580  162.5657 H   0  0  0  0  0  0  0  0  0  0  0  0
  155.5543  134.3307  164.2246 H   0  0  0  0  0  0  0  0  0  0  0  0
  156.6814  135.6092  163.7802 H   0  0  0  0  0  0  0  0  0  0  0  0
  154.6382  140.9070  161.1286 H   0  0  0  0  0  0  0  0  0  0  0  0
  151.9034  141.7443  160.7298 H   0  0  0  0  0  0  0  0  0  0  0  0
  152.3698  143.1817  162.7201 H   0  0  0  0  0  0  0  0  0  0  0  0
  154.0910  142.8283  162.5900 H   0  0  0  0  0  0  0  0  0  0  0  0
  152.9509  141.5506  163.0002 H   0  0  0  0  0  0  0  0  0  0  0  0
  154.1403  143.7263  160.0865 H   0  0  0  0  0  0  0  0  0  0  0  0
  151.1364  144.1199  160.4410 H   0  0  0  0  0  0  0  0  0  0  0  0
  152.4298  145.1126  161.1269 H   0  0  0  0  0  0  0  0  0  0  0  0
  151.3228  145.9006  158.8043 H   0  0  0  0  0  0  0  0  0  0  0  0
  153.0856  145.8893  158.9329 H   0  0  0  0  0  0  0  0  0  0  0  0
  151.3181  143.8400  157.5849 H   0  0  0  0  0  0  0  0  0  0  0  0
  152.9036  144.4260  157.0777 H   0  0  0  0  0  0  0  0  0  0  0  0
  1  2  1  0  0  0  0
  1 20  1  0  0  0  0
  1 21  1  0  0  0  0
  1 22  1  0  0  0  0
  2  3  1  0  0  0  0
  2  4  1  0  0  0  0
  2 23  1  0  0  0  0
  3 24  1  0  0  0  0
  3 25  1  0  0  0  0
  3 26  1  0  0  0  0
  4 19  1  0  0  0  0
  4  5  2  0  0  0  0
  5  6  1  0  0  0  0
  6  7  2  0  0  0  0
  7  8  1  0  0  0  0
  7 19  1  0  0  0  0
  8  9  1  0  0  0  0
  9 10  2  0  0  0  0
  9 11  1  0  0  0  0
 11 12  1  0  0  0  0
 11 27  1  0  0  0  0
 12 13  1  0  0  0  0
 12 14  1  0  0  0  0
 12 28  1  0  0  0  0
 13 29  1  0  0  0  0
 13 30  1  0  0  0  0
 13 31  1  0  0  0  0
 14 18  1  0  0  0  0
 14 15  1  0  0  0  0
 14 32  1  0  0  0  0
 15 16  1  0  0  0  0
 15 33  1  0  0  0  0
 15 34  1  0  0  0  0
 16 17  1  0  0  0  0
 16 35  1  0  0  0  0
 16 36  1  0  0  0  0
 17 18  1  0  0  0  0
 17 37  1  0  0  0  0
 17 38  1  0  0  0  0
M  CHG  1   8  -1
M  END
> <s_m_source_file>
AV-unprocessed.smi

> <i_m_source_file_index>
2063

> <i_lp_mmshare_version>
43012

> <i_f3d_flags>
0

> <s_epik_input>
W0NIM11bQ0hdKFtDSDNdKWMxbm5jKHMxKVtOSF1DKD1PKVtOSF1bQ0BIXShbQ0gzXSlbQ0BASF0yW0NIMl1bQ0gyXVtDSDJdTzI=

> <s_epik_cmdline>
J2VwaWtfcHl0aG9uJywgJy1waCcsICc3LjAnLCAnLXRuJywgJzgnLCAnLW1hJywgJzIwMCcsICctbWV0YWxfYmluZGluZycsICctaW1hZScsICc8aW5maWxlLm1hZT4nLCAnLW9tYWUnLCAnPG91dGZpbGUubWFlPic=

> <r_lp_tautomer_probability>
1

> <r_epik_Ionization_Penalty>
4.37022

> <r_epik_Ionization_Penalty_Charging>
4.21437

> <r_epik_Ionization_Penalty_Neutral>
0.15585

> <r_epik_State_Penalty>
4.21389

> <r_epik_Charging_Adjusted_Penalty>
8.42826

> <i_epik_Tot_Q>
-1

> <i_epik_Tot_abs_Q>
1

> <r_epik_Metal_State_Penalty>
0.693772

> <b_epik_Metal_Only>
1

> <s_lp_Force_Field>
OPLS_2005

> <r_lp_Energy>
10.2416

> <b_lp_Chiralities_Consistent>
1

> <s_lp_Variant>
AV-unprocessed.smi:2063-6

> <Gold.Version>
5.8.1

> <Gold.Id.Protein>
6NUR|6NUR_protein|mol2

> <Gold.PLP.Fitness>
46.3299

> <Gold.PLP.PLP>
-41.8044

> <Gold.PLP.part.hbond>
-1.0000

> <Gold.PLP.part.metal>
0.0000

> <Gold.PLP.part.buried>
-5.4947

> <Gold.PLP.part.nonpolar>
-35.3132

> <Gold.PLP.part.repulsive>
0.0598

> <Gold.PLP.ligand.clash>
0.0000

> <Gold.PLP.ligand.torsion>
0.8368

> <Gold.PLP.Chemscore.Hbond>
2.0000

> <Gold.PLP.Chemscore.CHOScore>
0.0000

> <Gold.PLP.Chemscore.Metal>
0.0000

> <Gold.Chemscore.Hbonds>
donor molecule, donor type, donor heavy atom, donor atom, acceptor molecule, acceptor atom, score
      P1  H  7997  8009       L1     8  1.20

> <Gold.PLP.Chemscore.Internal.Correction>
0.1991

> <Gold.Rescore>
     Score         DG    S(hbond)    S(metal)    S(lipo)     H(rot)  DE(clash)    DE(int)     intcor
     13.77     -17.07       0.93        0.00     102.92       1.39       0.11       3.19       ----

> <Gold.Chemscore.Fitness>
13.7726

> <Gold.Chemscore.DG>
-17.0732

> <Gold.Chemscore.ZeroCoef>
-5.4800

> <Gold.Chemscore.Hbond>
0.9307

> <Gold.Chemscore.Metal>
0.0000

> <Gold.Chemscore.Lipo>
102.9168

> <Gold.Chemscore.Internal_Hbond>
0.0000

> <Gold.Chemscore.DEClash>
0.1078

> <Gold.Chemscore.DEInternal>
3.1928

> <Gold.Chemscore.Rot>
1.3893

> <Gold.Chemscore.Internal.Correction>
   9.000000E+99

> <Gold.Chemscore.Hbonds>
donor molecule, donor type, donor heavy atom, donor atom, acceptor molecule, acceptor atom, score
      P1  H  7997  8009       L1     8  0.04

> <Gold.Chemscore.Hbond.Weighted>
-3.1087

> <Gold.Chemscore.Metal.Weighted>
-0.0000

> <Gold.Chemscore.Lipo.Weighted>
-12.0413

> <Gold.Chemscore.Internal_Hbond.Weighted>
0.0000

> <Gold.Chemscore.DEClash.Weighted>
0.1078

> <Gold.Chemscore.DEInternal.Weighted>
3.1928

> <Gold.Chemscore.Rot.Weighted>
3.5567

> <Gold.Chemscore.Internal.Correction.Weighted>
   9.000000E+99

> <Gold.Protein.RotatedTorsions>
[ 6907 6896 6895 6894 ] final  -54.47 input  -60.11 | X-H torsion
[ 7974 7965 7964 7962 ] final  160.11 input  175.53 | X-H torsion
[ 8008 7997 7996 7995 ] final  114.44 input   59.86 | X-H torsion
[ 10167 10162 10161 10158 ] final  138.11 input  -65.29 | X-H torsion
[ 10718 10713 10712 10709 ] final -100.98 input   66.30 | X-H torsion
[ 10763 10752 10751 10750 ] final  -10.47 input  -60.55 | X-H torsion
[ 11005 11000 10999 10996 ] final  -59.63 input  -57.11 | X-H torsion

> <Gold.Protein.ActiveResidues>
 VAL166  LYS551  ARG553  GLY616  TRP617  ASP618  TYR619  PRO620  LYS621  CYS622 
 ASP623  PHE694  ASN695  SER759  ASP760  ASP761  ALA762  ILE779  LEU786  VAL792 
 PHE793  MET794  SER795  GLU796  ALA797  LYS798  CYS799  TRP800  GLU811  SER814 

> <Gold.Protein.RotatedAtoms>
  150.8335  134.7599  159.6873 H   0  0  0  0  0  0  0  0  0  0  0  0  # atno 6907 bound_to 6896
  152.4436  134.5537  159.9884 H   0  0  0  0  0  0  0  0  0  0  0  0  # atno 6908 bound_to 6896
  151.5693  133.3354  159.3022 H   0  0  0  0  0  0  0  0  0  0  0  0  # atno 6909 bound_to 6896
  144.7754  139.7711  143.6281 H   0  0  0  0  0  0  0  0  0  0  0  0  # atno 7974 bound_to 7965
  156.2321  140.2959  156.0216 H   0  0  0  0  0  0  0  0  0  0  0  0  # atno 8008 bound_to 7997
  155.2195  140.0415  157.2963 H   0  0  0  0  0  0  0  0  0  0  0  0  # atno 8009 bound_to 7997
  154.6014  140.2428  155.7795 H   0  0  0  0  0  0  0  0  0  0  0  0  # atno 8010 bound_to 7997
  139.5121  144.6372  151.5665 H   0  0  0  0  0  0  0  0  0  0  0  0  # atno 10167 bound_to 10162
  156.0180  130.5352  150.6896 H   0  0  0  0  0  0  0  0  0  0  0  0  # atno 10718 bound_to 10713
  153.4697  135.7016  153.6000 H   0  0  0  0  0  0  0  0  0  0  0  0  # atno 10763 bound_to 10752
  153.4260  135.3814  155.2141 H   0  0  0  0  0  0  0  0  0  0  0  0  # atno 10764 bound_to 10752
  154.8725  135.3939  154.4134 H   0  0  0  0  0  0  0  0  0  0  0  0  # atno 10765 bound_to 10752
  141.1255  133.6617  156.5100 H   0  0  0  0  0  0  0  0  0  0  0  0  # atno 11005 bound_to 11000
  146.1930  139.5180  142.9793 LP  0  0  0  0  0  0  0  0  0  0  0  0  # atno 17320 bound_to 7965
  145.6201  141.0324  143.1919 LP  0  0  0  0  0  0  0  0  0  0  0  0  # atno 17321 bound_to 7965
  140.6125  143.9409  150.6464 LP  0  0  0  0  0  0  0  0  0  0  0  0  # atno 17342 bound_to 10162
  140.2657  143.3492  152.1283 LP  0  0  0  0  0  0  0  0  0  0  0  0  # atno 17343 bound_to 10162
  157.4580  131.0880  151.0776 LP  0  0  0  0  0  0  0  0  0  0  0  0  # atno 17370 bound_to 10713
  157.1272  130.6087  149.5520 LP  0  0  0  0  0  0  0  0  0  0  0  0  # atno 17371 bound_to 10713
  140.4376  134.7044  157.4975 LP  0  0  0  0  0  0  0  0  0  0  0  0  # atno 17394 bound_to 11000
  140.0251  134.6490  155.9185 LP  0  0  0  0  0  0  0  0  0  0  0  0  # atno 17395 bound_to 11000

$$$$
