#       Name:                AV-unprocessed.smi:1720
#       Creating user name   scv26
#       Creation time:       Fri Mar 27 08:14:21 2020


#       File generated by GOLD software.
#

@<TRIPOS>MOLECULE
AV-unprocessed.smi:1720
    37    38     1
SMALL
NO_CHARGES


@<TRIPOS>ATOM
      1 ****        -1.8712  -1.3262   2.1174 C.3            1 S1                 0.0000
      2 ****        -1.3597  -0.5571   0.8905 C.3            1 S1                 0.0000
      3 ****         0.0990  -0.4822   0.9574 N.am           1 S1                 0.0000
      4 ****         0.8387   0.6213   0.7741 C.2            1 S1                 0.0000
      5 ****         0.3654   1.7274   0.5132 O.2            1 S1                 0.0000
      6 ****         2.1483   0.3551   0.9068 N.am           1 S1                 0.0000
      7 ****         3.2287   1.2648   0.7813 C.2            1 S1                 0.0000
      8 ****         4.6004   0.9144   0.9065 C.2            1 S1                 0.0000
      9 ****         5.3861   1.9687   0.7406 N.2            1 S1                 0.0000
     10 ****         4.5288   2.9894   0.5125 N.pl3          1 S1                 0.0000
     11 ****         3.2054   2.6079   0.5291 C.2            1 S1                 0.0000
     12 ****        -1.8073  -1.2176  -0.4300 C.3            1 S1                 0.0000
     13 ****        -1.3397  -0.5050  -1.7019 C.3            1 S1                 0.0000
     14 ****        -2.3746  -0.9577  -2.7052 C.3            1 S1                 0.0000
     15 ****        -3.6445  -0.9466  -1.8609 C.3            1 S1                 0.0000
     16 ****        -3.2306  -1.2278  -0.5264 O.3            1 S1                 0.0000
     17 ****         4.8585   3.9300   0.3483 H              1 S1                 0.0000
     18 ****        -2.9609  -1.3633   2.1326 H              1 S1                 0.0000
     19 ****        -1.5485  -0.8482   3.0429 H              1 S1                 0.0000
     20 ****        -1.5035  -2.3530   2.1261 H              1 S1                 0.0000
     21 ****        -1.7859   0.4469   0.9338 H              1 S1                 0.0000
     22 ****         0.5827  -1.3436   1.1651 H              1 S1                 0.0000
     23 ****         2.3999  -0.5998   1.1159 H              1 S1                 0.0000
     24 ****         5.0433  -0.0502   1.1073 H              1 S1                 0.0000
     25 ****         2.3998   3.3082   0.3651 H              1 S1                 0.0000
     26 ****        -1.4688  -2.2547  -0.4639 H              1 S1                 0.0000
     27 ****        -1.3911   0.5779  -1.5789 H              1 S1                 0.0000
     28 ****        -0.3216  -0.7689  -1.9894 H              1 S1                 0.0000
     29 ****        -2.4384  -0.3116  -3.5813 H              1 S1                 0.0000
     30 ****        -2.1526  -1.9718  -3.0406 H              1 S1                 0.0000
     31 ****        -4.1040   0.0424  -1.8776 H              1 S1                 0.0000
     32 ****        -4.3830  -1.6682  -2.2105 H              1 S1                 0.0000
     33 ****        -0.6245   1.8399   0.4268 LP             1 S1                 0.0000
     34 ****         0.9709   2.5133   0.3876 LP             1 S1                 0.0000
     35 ****         6.3849   2.0019   0.7760 LP             1 S1                 0.0000
     36 ****        -3.6066  -0.5338   0.0876 LP             1 S1                 0.0000
     37 ****        -3.5717  -2.1291  -0.2594 LP             1 S1                 0.0000
@<TRIPOS>BOND
    1    1    2 1     
    2    1   18 1     
    3    1   19 1     
    4    1   20 1     
    5    2    3 1     
    6    2   12 1     
    7    2   21 1     
    8    3    4 am    
    9    3   22 1     
   10    4    5 2     
   11    4    6 am    
   12    6    7 1     
   13    6   23 1     
   14    7   11 2     
   15    7    8 1     
   16    8    9 2     
   17    8   24 1     
   18    9   10 1     
   19   10   17 1     
   20   10   11 1     
   21   11   25 1     
   22   12   16 1     
   23   12   13 1     
   24   12   26 1     
   25   13   14 1     
   26   13   27 1     
   27   13   28 1     
   28   14   15 1     
   29   14   29 1     
   30   14   30 1     
   31   15   16 1     
   32   15   31 1     
   33   15   32 1     
   34    5   33 1     
   35    5   34 1     
   36    9   35 1     
   37   16   36 1     
   38   16   37 1     
@<TRIPOS>SUBSTRUCTURE
      1 S1             1
@<TRIPOS>SET
LONE_PAIRS      STATIC     ATOMS    <user>   **** ""
5 33 34 35 36 37
DONOR_HYDROGENS      STATIC     ATOMS    <user>   **** ""
3 22 23 17
ATOM$BLUE        STATIC     ATOMS    COLORGROUP SYSTEM
5 33 34 35 36 37
ATOM$RED        STATIC     ATOMS    COLORGROUP SYSTEM
3 22 23 17
