AV-unprocessed.smi:523|AV-procd|sdf|2804|dock6
  -GOLD-   2262023283D 1   1.00000     0.00000
 Structure written by MMmdl.
 40 42  0  0  0  0  0  0  0  0  2 V2000
  150.3416  135.7776  155.4822 C   0  0  0  0  0  0  0  0  0  0  0  0
  151.6257  136.3547  155.6327 O   0  0  0  0  0  0  0  0  0  0  0  0
  151.6031  137.7696  155.5340 C   0  0  0  0  0  0  0  0  0  0  0  0
  150.7145  138.3481  156.6438 C   0  0  0  0  0  0  0  0  0  0  0  0
  150.9244  139.7849  156.8184 N   0  0  0  0  0  0  0  0  0  0  0  0
  150.4115  140.8170  156.0918 C   0  0  0  0  0  0  0  0  0  0  0  0
  149.5908  140.6210  154.9798 N   0  0  0  0  0  0  0  0  0  0  0  0
  149.5641  139.4519  154.1056 C   0  0  0  0  0  0  0  0  0  0  0  0
  148.1165  138.9996  153.8435 C   0  0  0  0  0  0  0  0  0  0  0  0
  147.4014  140.0656  153.2295 O   0  0  0  0  0  0  0  0  0  0  0  0
  147.3887  141.2318  154.0451 C   0  0  0  0  0  0  0  0  0  0  0  0
  148.8344  141.6827  154.3247 C   0  0  0  0  0  0  0  0  0  0  0  0
  150.7217  142.0296  156.5547 N   0  0  0  0  0  0  0  0  0  0  0  0
  151.5236  141.7512  157.6499 C   0  0  0  0  0  0  0  0  0  0  0  0
  151.6554  140.4105  157.8345 C   0  0  0  0  0  0  0  0  0  0  0  0
  152.4225  139.8062  158.9470 C   0  0  0  0  0  0  0  0  0  0  0  0
  152.4916  138.5864  159.0833 O   0  0  0  0  0  0  0  0  0  0  0  0
  153.0013  140.7535  159.7510 N   0  5  0  0  0  0  0  0  0  0  0  0
  152.8990  142.1194  159.5968 C   0  0  0  0  0  0  0  0  0  0  0  0
  153.4493  142.9040  160.3706 O   0  0  0  0  0  0  0  0  0  0  0  0
  152.1669  142.6343  158.5594 N   0  0  0  0  0  0  0  0  0  0  0  0
  152.0324  144.0822  158.3755 C   0  0  0  0  0  0  0  0  0  0  0  0
  150.4180  134.6927  155.5542 H   0  0  0  0  0  0  0  0  0  0  0  0
  149.9100  136.0218  154.5106 H   0  0  0  0  0  0  0  0  0  0  0  0
  149.6627  136.1202  156.2640 H   0  0  0  0  0  0  0  0  0  0  0  0
  152.6162  138.1658  155.6170 H   0  0  0  0  0  0  0  0  0  0  0  0
  151.2145  138.0686  154.5596 H   0  0  0  0  0  0  0  0  0  0  0  0
  149.6630  138.1604  156.4323 H   0  0  0  0  0  0  0  0  0  0  0  0
  150.9094  137.8176  157.5694 H   0  0  0  0  0  0  0  0  0  0  0  0
  150.0458  139.7078  153.1610 H   0  0  0  0  0  0  0  0  0  0  0  0
  150.1573  138.6415  154.5273 H   0  0  0  0  0  0  0  0  0  0  0  0
  148.1050  138.1365  153.1781 H   0  0  0  0  0  0  0  0  0  0  0  0
  147.6222  138.6992  154.7688 H   0  0  0  0  0  0  0  0  0  0  0  0
  146.8418  142.0197  153.5272 H   0  0  0  0  0  0  0  0  0  0  0  0
  146.8558  141.0321  154.9757 H   0  0  0  0  0  0  0  0  0  0  0  0
  148.8244  142.5699  154.9586 H   0  0  0  0  0  0  0  0  0  0  0  0
  149.3329  141.9649  153.3964 H   0  0  0  0  0  0  0  0  0  0  0  0
  153.0128  144.5542  158.2992 H   0  0  0  0  0  0  0  0  0  0  0  0
  151.5053  144.5243  159.2218 H   0  0  0  0  0  0  0  0  0  0  0  0
  151.4790  144.3415  157.4736 H   0  0  0  0  0  0  0  0  0  0  0  0
  1  2  1  0  0  0  0
  1 23  1  0  0  0  0
  1 24  1  0  0  0  0
  1 25  1  0  0  0  0
  2  3  1  0  0  0  0
  3  4  1  0  0  0  0
  3 26  1  0  0  0  0
  3 27  1  0  0  0  0
  4  5  1  0  0  0  0
  4 28  1  0  0  0  0
  4 29  1  0  0  0  0
  5 15  1  0  0  0  0
  5  6  1  0  0  0  0
  6  7  1  0  0  0  0
  6 13  2  0  0  0  0
  7 12  1  0  0  0  0
  7  8  1  0  0  0  0
  8  9  1  0  0  0  0
  8 30  1  0  0  0  0
  8 31  1  0  0  0  0
  9 10  1  0  0  0  0
  9 32  1  0  0  0  0
  9 33  1  0  0  0  0
 10 11  1  0  0  0  0
 11 12  1  0  0  0  0
 11 34  1  0  0  0  0
 11 35  1  0  0  0  0
 12 36  1  0  0  0  0
 12 37  1  0  0  0  0
 13 14  1  0  0  0  0
 14 21  1  0  0  0  0
 14 15  2  0  0  0  0
 15 16  1  0  0  0  0
 16 17  2  0  0  0  0
 16 18  1  0  0  0  0
 18 19  1  0  0  0  0
 19 20  2  0  0  0  0
 19 21  1  0  0  0  0
 21 22  1  0  0  0  0
 22 38  1  0  0  0  0
 22 39  1  0  0  0  0
 22 40  1  0  0  0  0
M  CHG  1  18  -1
M  END
> <s_m_source_file>
AV-unprocessed.smi

> <i_m_source_file_index>
523

> <i_lp_mmshare_version>
43012

> <i_f3d_flags>
0

> <s_epik_input>
W0NIM11uMWMoPU8pW25IXWMoPU8pYyhjMTIpbihbQ0gyXVtDSDJdT1tDSDNdKWMobjIpTjNbQ0gyXVtDSDJdT1tDSDJdW0NIMl0z

> <s_epik_cmdline>
J2VwaWtfcHl0aG9uJywgJy1waCcsICc3LjAnLCAnLXRuJywgJzgnLCAnLW1hJywgJzIwMCcsICctbWV0YWxfYmluZGluZycsICctaW1hZScsICc8aW5maWxlLm1hZT4nLCAnLW9tYWUnLCAnPG91dGZpbGUubWFlPic=

> <r_lp_tautomer_probability>
1

> <r_epik_Ionization_Penalty>
4.75788

> <r_epik_Ionization_Penalty_Charging>
0.0452179

> <r_epik_Ionization_Penalty_Neutral>
4.71266

> <r_epik_State_Penalty>
4.71244

> <r_epik_Charging_Adjusted_Penalty>
4.75766

> <i_epik_Tot_Q>
-1

> <i_epik_Tot_abs_Q>
1

> <r_epik_Metal_State_Penalty>
0.934872

> <b_epik_Metal_Only>
1

> <s_lp_Force_Field>
OPLS_2005

> <r_lp_Energy>
41.5278

> <b_lp_Chiralities_Consistent>
1

> <s_lp_Variant>
AV-unprocessed.smi:523-2

> <Gold.Version>
5.8.1

> <Gold.Id.Protein>
6NUR|6NUR_protein|mol2

> <Gold.PLP.Fitness>
39.2495

> <Gold.PLP.PLP>
-36.9038

> <Gold.PLP.part.hbond>
-1.0000

> <Gold.PLP.part.metal>
0.0000

> <Gold.PLP.part.buried>
-2.9876

> <Gold.PLP.part.nonpolar>
-33.2820

> <Gold.PLP.part.repulsive>
1.0632

> <Gold.PLP.ligand.clash>
0.0858

> <Gold.PLP.ligand.torsion>
0.4756

> <Gold.PLP.Chemscore.Hbond>
1.0000

> <Gold.PLP.Chemscore.CHOScore>
0.0000

> <Gold.PLP.Chemscore.Metal>
0.0000

> <Gold.Chemscore.Hbonds>
donor molecule, donor type, donor heavy atom, donor atom, acceptor molecule, acceptor atom, score
      P1  H 10752 10764       L1     2  1.00

> <Gold.PLP.Chemscore.Internal.Correction>
0.3828

> <Gold.Rescore>
     Score         DG    S(hbond)    S(metal)    S(lipo)     H(rot)  DE(clash)    DE(int)     intcor
      8.83     -11.79       0.94        0.00      60.14       1.52       0.17       2.79       ----

> <Gold.Chemscore.Fitness>
8.8313

> <Gold.Chemscore.DG>
-11.7920

> <Gold.Chemscore.ZeroCoef>
-5.4800

> <Gold.Chemscore.Hbond>
0.9449

> <Gold.Chemscore.Metal>
0.0000

> <Gold.Chemscore.Lipo>
60.1420

> <Gold.Chemscore.Internal_Hbond>
0.0000

> <Gold.Chemscore.DEClash>
0.1730

> <Gold.Chemscore.DEInternal>
2.7877

> <Gold.Chemscore.Rot>
1.5159

> <Gold.Chemscore.Internal.Correction>
   9.000000E+99

> <Gold.Chemscore.Hbonds>
donor molecule, donor type, donor heavy atom, donor atom, acceptor molecule, acceptor atom, score
      P1  H 10752 10764       L1     2  0.86

> <Gold.Chemscore.Hbond.Weighted>
-3.1560

> <Gold.Chemscore.Metal.Weighted>
-0.0000

> <Gold.Chemscore.Lipo.Weighted>
-7.0366

> <Gold.Chemscore.Internal_Hbond.Weighted>
0.0000

> <Gold.Chemscore.DEClash.Weighted>
0.1730

> <Gold.Chemscore.DEInternal.Weighted>
2.7877

> <Gold.Chemscore.Rot.Weighted>
3.8806

> <Gold.Chemscore.Internal.Correction.Weighted>
   9.000000E+99

> <Gold.Protein.RotatedTorsions>
[ 6907 6896 6895 6894 ] final   68.71 input  -60.11 | X-H torsion
[ 7974 7965 7964 7962 ] final -115.16 input  175.53 | X-H torsion
[ 8008 7997 7996 7995 ] final   10.25 input   59.86 | X-H torsion
[ 10167 10162 10161 10158 ] final   45.39 input  -65.29 | X-H torsion
[ 10718 10713 10712 10709 ] final  164.64 input   66.30 | X-H torsion
[ 10763 10752 10751 10750 ] final  -48.74 input  -60.55 | X-H torsion
[ 11005 11000 10999 10996 ] final  -16.34 input  -57.11 | X-H torsion

> <Gold.Protein.ActiveResidues>
 VAL166  LYS551  ARG553  GLY616  TRP617  ASP618  TYR619  PRO620  LYS621  CYS622 
 ASP623  PHE694  ASN695  SER759  ASP760  ASP761  ALA762  ILE779  LEU786  VAL792 
 PHE793  MET794  SER795  GLU796  ALA797  LYS798  CYS799  TRP800  GLU811  SER814 

> <Gold.Protein.RotatedAtoms>
  152.4638  134.5122  159.9757 H   0  0  0  0  0  0  0  0  0  0  0  0  # atno 6907 bound_to 6896
  151.5165  133.3469  159.2902 H   0  0  0  0  0  0  0  0  0  0  0  0  # atno 6908 bound_to 6896
  150.8613  134.7995  159.7147 H   0  0  0  0  0  0  0  0  0  0  0  0  # atno 6909 bound_to 6896
  145.1117  140.8615  143.3866 H   0  0  0  0  0  0  0  0  0  0  0  0  # atno 7974 bound_to 7965
  154.7909  140.2835  155.5993 H   0  0  0  0  0  0  0  0  0  0  0  0  # atno 8008 bound_to 7997
  156.2964  140.2605  156.2684 H   0  0  0  0  0  0  0  0  0  0  0  0  # atno 8009 bound_to 7997
  154.9672  140.0376  157.2207 H   0  0  0  0  0  0  0  0  0  0  0  0  # atno 8010 bound_to 7997
  140.3246  144.2663  150.6177 H   0  0  0  0  0  0  0  0  0  0  0  0  # atno 10167 bound_to 10162
  157.0915  131.0419  151.2535 H   0  0  0  0  0  0  0  0  0  0  0  0  # atno 10718 bound_to 10713
  154.0828  135.6588  153.4840 H   0  0  0  0  0  0  0  0  0  0  0  0  # atno 10763 bound_to 10752
  153.0350  135.5184  154.7457 H   0  0  0  0  0  0  0  0  0  0  0  0  # atno 10764 bound_to 10752
  154.6557  135.3007  154.9898 H   0  0  0  0  0  0  0  0  0  0  0  0  # atno 10765 bound_to 10752
  140.8058  133.8179  155.9514 H   0  0  0  0  0  0  0  0  0  0  0  0  # atno 11005 bound_to 11000
  145.0840  139.2939  143.5769 LP  0  0  0  0  0  0  0  0  0  0  0  0  # atno 17320 bound_to 7965
  146.3526  140.0355  142.8647 LP  0  0  0  0  0  0  0  0  0  0  0  0  # atno 17321 bound_to 7965
  140.5452  143.2216  151.8018 LP  0  0  0  0  0  0  0  0  0  0  0  0  # atno 17342 bound_to 10162
  139.4867  144.4548  151.9611 LP  0  0  0  0  0  0  0  0  0  0  0  0  # atno 17343 bound_to 10162
  157.4717  130.7712  149.7329 LP  0  0  0  0  0  0  0  0  0  0  0  0  # atno 17370 bound_to 10713
  155.9897  130.3950  150.3062 LP  0  0  0  0  0  0  0  0  0  0  0  0  # atno 17371 bound_to 10713
  140.9249  134.2095  157.4902 LP  0  0  0  0  0  0  0  0  0  0  0  0  # atno 17394 bound_to 11000
  139.8718  134.9808  156.5090 LP  0  0  0  0  0  0  0  0  0  0  0  0  # atno 17395 bound_to 11000

$$$$
