AV-unprocessed.smi:130|AV-procd|sdf|1159|dock9
  -GOLD-   2262018293D 1   1.00000     0.00000
 Structure written by MMmdl.
 44 47  0  0  0  0  0  0  0  0  1 V2000
  151.2812  138.8011  159.6858 O   0  0  0  0  0  0  0  0  0  0  0  0
  150.7329  139.1286  158.6327 C   0  0  0  0  0  0  0  0  0  0  0  0
  150.1094  138.0295  157.7443 C   0  0  0  0  0  0  0  0  0  0  0  0
  148.7338  137.6530  158.1408 N   0  0  0  0  0  0  0  0  0  0  0  0
  147.6647  137.9574  157.2614 C   0  0  0  0  0  0  0  0  0  0  0  0
  147.8622  138.5366  156.1923 O   0  0  0  0  0  0  0  0  0  0  0  0
  146.3424  137.5308  157.7051 C   0  0  0  0  0  0  0  0  0  0  0  0
  145.2705  137.7721  156.9314 F   0  0  0  0  0  0  0  0  0  0  0  0
  146.1775  136.8909  158.8809 C   0  0  0  0  0  0  0  0  0  0  0  0
  147.2298  136.6025  159.7302 N   0  0  0  0  0  0  0  0  0  0  0  0
  147.0077  135.8606  161.0286 C   0  0  2  0  0  0  0  0  0  0  0  0
  145.5296  135.4800  161.1740 C   0  0  0  0  0  0  0  0  0  0  0  0
  144.9968  136.6099  162.0286 C   0  0  0  0  0  0  0  0  0  0  0  0
  146.1946  136.9084  162.9226 C   0  0  0  0  0  0  0  0  0  0  0  0
  147.3368  136.7029  162.0961 O   0  0  0  0  0  0  0  0  0  0  0  0
  148.5434  136.9689  159.3654 C   0  0  0  0  0  0  0  0  0  0  0  0
  149.5006  136.6875  160.0899 O   0  0  0  0  0  0  0  0  0  0  0  0
  150.6465  140.4135  158.2067 N   0  0  0  0  0  0  0  0  0  0  0  0
  150.0031  140.8085  156.9413 C   0  0  0  0  0  0  0  0  0  0  0  0
  150.1510  142.3425  156.8388 C   0  0  0  0  0  0  0  0  0  0  0  0
  150.8693  142.6993  158.1065 C   0  0  0  0  0  0  0  0  0  0  0  0
  151.2463  143.9872  158.5249 C   0  0  0  0  0  0  0  0  0  0  0  0
  151.9164  144.1188  159.7593 C   0  0  0  0  0  0  0  0  0  0  0  0
  152.1962  142.9773  160.5452 C   0  0  0  0  0  0  0  0  0  0  0  0
  151.8109  141.6905  160.1091 C   0  0  0  0  0  0  0  0  0  0  0  0
  151.1401  141.5680  158.8708 C   0  0  0  0  0  0  0  0  0  0  0  0
  150.1244  138.3632  156.7058 H   0  0  0  0  0  0  0  0  0  0  0  0
  150.7601  137.1542  157.7544 H   0  0  0  0  0  0  0  0  0  0  0  0
  145.1770  136.5911  159.1548 H   0  0  0  0  0  0  0  0  0  0  0  0
  147.6862  135.0062  161.0165 H   0  0  0  0  0  0  0  0  0  0  0  0
  145.0289  135.3755  160.2105 H   0  0  0  0  0  0  0  0  0  0  0  0
  145.4653  134.5324  161.7103 H   0  0  0  0  0  0  0  0  0  0  0  0
  144.7614  137.4750  161.4079 H   0  0  0  0  0  0  0  0  0  0  0  0
  144.1024  136.3378  162.5899 H   0  0  0  0  0  0  0  0  0  0  0  0
  146.1733  137.9182  163.3324 H   0  0  0  0  0  0  0  0  0  0  0  0
  146.2323  136.2033  163.7539 H   0  0  0  0  0  0  0  0  0  0  0  0
  150.4832  140.3242  156.0900 H   0  0  0  0  0  0  0  0  0  0  0  0
  148.9484  140.5301  156.9441 H   0  0  0  0  0  0  0  0  0  0  0  0
  150.7427  142.6365  155.9713 H   0  0  0  0  0  0  0  0  0  0  0  0
  149.1834  142.8431  156.7927 H   0  0  0  0  0  0  0  0  0  0  0  0
  151.0283  144.8535  157.9179 H   0  0  0  0  0  0  0  0  0  0  0  0
  152.2168  145.0963  160.1062 H   0  0  0  0  0  0  0  0  0  0  0  0
  152.7091  143.0901  161.4887 H   0  0  0  0  0  0  0  0  0  0  0  0
  152.0376  140.8397  160.7316 H   0  0  0  0  0  0  0  0  0  0  0  0
  1  2  2  0  0  0  0
  2  3  1  0  0  0  0
  2 18  1  0  0  0  0
  3  4  1  0  0  0  0
  3 27  1  0  0  0  0
  3 28  1  0  0  0  0
  4 16  1  0  0  0  0
  4  5  1  0  0  0  0
  5  6  2  0  0  0  0
  5  7  1  0  0  0  0
  7  8  1  0  0  0  0
  7  9  2  0  0  0  0
  9 10  1  0  0  0  0
  9 29  1  0  0  0  0
 10 11  1  0  0  0  0
 10 16  1  0  0  0  0
 11 15  1  0  0  0  0
 11 12  1  0  0  0  0
 11 30  1  0  0  0  0
 12 13  1  0  0  0  0
 12 31  1  0  0  0  0
 12 32  1  0  0  0  0
 13 14  1  0  0  0  0
 13 33  1  0  0  0  0
 13 34  1  0  0  0  0
 14 15  1  0  0  0  0
 14 35  1  0  0  0  0
 14 36  1  0  0  0  0
 16 17  2  0  0  0  0
 18 26  1  0  0  0  0
 18 19  1  0  0  0  0
 19 20  1  0  0  0  0
 19 37  1  0  0  0  0
 19 38  1  0  0  0  0
 20 21  1  0  0  0  0
 20 39  1  0  0  0  0
 20 40  1  0  0  0  0
 21 26  2  0  0  0  0
 21 22  1  0  0  0  0
 22 23  2  0  0  0  0
 22 41  1  0  0  0  0
 23 24  1  0  0  0  0
 23 42  1  0  0  0  0
 24 25  2  0  0  0  0
 24 43  1  0  0  0  0
 25 26  1  0  0  0  0
 25 44  1  0  0  0  0
M  END
> <s_m_source_file>
AV-unprocessed.smi

> <i_m_source_file_index>
130

> <i_lp_mmshare_version>
43012

> <i_f3d_flags>
0

> <s_epik_input>
W2NIXTFbY0hdW2NIXVtjSF1jKGMxMilOKFtDSDJdW0NIMl0yKUMoPU8pW0NIMl1uM2MoPU8pYyhGKVtjSF1uKGMzPU8pW0NAQEhdNFtDSDJdW0NIMl1bQ0gyXU80

> <s_epik_cmdline>
J2VwaWtfcHl0aG9uJywgJy1waCcsICc3LjAnLCAnLXRuJywgJzgnLCAnLW1hJywgJzIwMCcsICctbWV0YWxfYmluZGluZycsICctaW1hZScsICc8aW5maWxlLm1hZT4nLCAnLW9tYWUnLCAnPG91dGZpbGUubWFlPic=

> <r_lp_tautomer_probability>
1

> <r_epik_Ionization_Penalty>
1.67926e-06

> <r_epik_Ionization_Penalty_Charging>
3.62822e-09

> <r_epik_Ionization_Penalty_Neutral>
1.67563e-06

> <r_epik_State_Penalty>
-0

> <r_epik_Charging_Adjusted_Penalty>
3.62822e-09

> <i_epik_Tot_Q>
0

> <i_epik_Tot_abs_Q>
0

> <r_epik_Metal_State_Penalty>
-0

> <b_epik_Metal_Only>
0

> <s_epik_Chemistry_Notes>
This compound contains an acetal/aminal-like group ( X-CH(R)-Y where X, Y are N, S, or O) that may be acid/base labile, releasing an aldehyde.

> <s_lp_Force_Field>
OPLS_2005

> <r_lp_Energy>
53.4857

> <b_lp_Chiralities_Consistent>
1

> <s_lp_Variant>
AV-unprocessed.smi:130-1

> <Gold.Version>
5.8.1

> <Gold.Id.Protein>
6NUR|6NUR_protein|mol2

> <Gold.PLP.Fitness>
50.4455

> <Gold.PLP.PLP>
-45.3381

> <Gold.PLP.part.hbond>
-2.5508

> <Gold.PLP.part.metal>
0.0000

> <Gold.PLP.part.buried>
-4.6259

> <Gold.PLP.part.nonpolar>
-38.9212

> <Gold.PLP.part.repulsive>
0.0133

> <Gold.PLP.ligand.clash>
0.0000

> <Gold.PLP.ligand.torsion>
0.4383

> <Gold.PLP.Chemscore.Hbond>
1.9913

> <Gold.PLP.Chemscore.CHOScore>
0.0000

> <Gold.PLP.Chemscore.Metal>
0.0000

> <Gold.Chemscore.Hbonds>
donor molecule, donor type, donor heavy atom, donor atom, acceptor molecule, acceptor atom, score
      P1  H  6896  6907       L1    17  0.21
      P1  H  6931  6943       L1    15  0.34

> <Gold.PLP.Chemscore.Internal.Correction>
0.0103

> <Gold.Rescore>
     Score         DG    S(hbond)    S(metal)    S(lipo)     H(rot)  DE(clash)    DE(int)     intcor
     17.39     -20.71       1.97        0.00     108.38       1.57       0.02       3.31       ----

> <Gold.Chemscore.Fitness>
17.3870

> <Gold.Chemscore.DG>
-20.7116

> <Gold.Chemscore.ZeroCoef>
-5.4800

> <Gold.Chemscore.Hbond>
1.9673

> <Gold.Chemscore.Metal>
0.0000

> <Gold.Chemscore.Lipo>
108.3849

> <Gold.Chemscore.Internal_Hbond>
0.0000

> <Gold.Chemscore.DEClash>
0.0186

> <Gold.Chemscore.DEInternal>
3.3060

> <Gold.Chemscore.Rot>
1.5704

> <Gold.Chemscore.Internal.Correction>
   9.000000E+99

> <Gold.Chemscore.Hbonds>
donor molecule, donor type, donor heavy atom, donor atom, acceptor molecule, acceptor atom, score
      P1  H  6896  6907       L1    17  0.21
      P1  H  6931  6943       L1    15  0.31

> <Gold.Chemscore.Hbond.Weighted>
-6.5709

> <Gold.Chemscore.Metal.Weighted>
-0.0000

> <Gold.Chemscore.Lipo.Weighted>
-12.6810

> <Gold.Chemscore.Internal_Hbond.Weighted>
0.0000

> <Gold.Chemscore.DEClash.Weighted>
0.0186

> <Gold.Chemscore.DEInternal.Weighted>
3.3060

> <Gold.Chemscore.Rot.Weighted>
4.0203

> <Gold.Chemscore.Internal.Correction.Weighted>
   9.000000E+99

> <Gold.Protein.RotatedTorsions>
[ 6907 6896 6895 6894 ] final  -18.71 input  -60.11 | X-H torsion
[ 7974 7965 7964 7962 ] final -165.32 input  175.53 | X-H torsion
[ 8008 7997 7996 7995 ] final -104.73 input   59.86 | X-H torsion
[ 10167 10162 10161 10158 ] final   88.66 input  -65.29 | X-H torsion
[ 10718 10713 10712 10709 ] final -128.04 input   66.30 | X-H torsion
[ 10763 10752 10751 10750 ] final   98.25 input  -60.55 | X-H torsion
[ 11005 11000 10999 10996 ] final -127.09 input  -57.11 | X-H torsion

> <Gold.Protein.ActiveResidues>
 VAL166  LYS551  ARG553  GLY616  TRP617  ASP618  TYR619  PRO620  LYS621  CYS622 
 ASP623  PHE694  ASN695  SER759  ASP760  ASP761  ALA762  ILE779  LEU786  VAL792 
 PHE793  MET794  SER795  GLU796  ALA797  LYS798  CYS799  TRP800  GLU811  SER814 

> <Gold.Protein.RotatedAtoms>
  151.2741  135.0694  159.9144 H   0  0  0  0  0  0  0  0  0  0  0  0  # atno 6907 bound_to 6896
  152.5345  134.0099  159.7944 H   0  0  0  0  0  0  0  0  0  0  0  0  # atno 6908 bound_to 6896
  151.0342  133.5713  159.2688 H   0  0  0  0  0  0  0  0  0  0  0  0  # atno 6909 bound_to 6896
  144.7273  140.2831  143.6232 H   0  0  0  0  0  0  0  0  0  0  0  0  # atno 7974 bound_to 7965
  154.8896  140.0416  157.1830 H   0  0  0  0  0  0  0  0  0  0  0  0  # atno 8008 bound_to 7997
  154.8555  140.2936  155.5550 H   0  0  0  0  0  0  0  0  0  0  0  0  # atno 8009 bound_to 7997
  156.2997  140.2457  156.3521 H   0  0  0  0  0  0  0  0  0  0  0  0  # atno 8010 bound_to 7997
  139.8651  144.6523  150.9014 H   0  0  0  0  0  0  0  0  0  0  0  0  # atno 10167 bound_to 10162
  156.1914  130.6797  151.0428 H   0  0  0  0  0  0  0  0  0  0  0  0  # atno 10718 bound_to 10713
  153.2868  135.4155  155.1130 H   0  0  0  0  0  0  0  0  0  0  0  0  # atno 10763 bound_to 10752
  154.8507  135.3508  154.6036 H   0  0  0  0  0  0  0  0  0  0  0  0  # atno 10764 bound_to 10752
  153.6458  135.7055  153.5283 H   0  0  0  0  0  0  0  0  0  0  0  0  # atno 10765 bound_to 10752
  140.9628  134.0913  157.3951 H   0  0  0  0  0  0  0  0  0  0  0  0  # atno 11005 bound_to 11000
  145.7930  139.1934  143.2092 LP  0  0  0  0  0  0  0  0  0  0  0  0  # atno 17320 bound_to 7965
  146.0740  140.7838  142.9674 LP  0  0  0  0  0  0  0  0  0  0  0  0  # atno 17321 bound_to 7965
  140.7769  143.3711  151.1647 LP  0  0  0  0  0  0  0  0  0  0  0  0  # atno 17342 bound_to 10162
  139.7337  143.9033  152.3028 LP  0  0  0  0  0  0  0  0  0  0  0  0  # atno 17343 bound_to 10162
  157.6931  131.0803  150.7049 LP  0  0  0  0  0  0  0  0  0  0  0  0  # atno 17370 bound_to 10713
  156.7106  130.4650  149.5548 LP  0  0  0  0  0  0  0  0  0  0  0  0  # atno 17371 bound_to 10713
  139.8884  135.0097  156.6618 LP  0  0  0  0  0  0  0  0  0  0  0  0  # atno 17394 bound_to 11000
  140.7443  133.8951  155.8300 LP  0  0  0  0  0  0  0  0  0  0  0  0  # atno 17395 bound_to 11000

$$$$
