AV-unprocessed.smi:1215|AV-procd|sdf|5097|dock6
  -GOLD-   22720 4153D 1   1.00000     0.00000
 Structure written by MMmdl.
 46 47  0  0  0  0  0  0  0  0  2 V2000
  151.0033  142.8201  158.4427 C   0  0  0  0  0  0  0  0  0  0  0  0
  151.1919  143.1367  156.9544 C   0  0  0  0  0  0  0  0  0  0  0  0
  150.8600  142.0007  156.1170 N   0  0  0  0  0  0  0  0  0  0  0  0
  149.8728  141.9067  155.1563 C   0  0  0  0  0  0  0  0  0  0  0  0
  149.9631  140.6440  154.6526 C   0  0  0  0  0  0  0  0  0  0  0  0
  149.1295  140.1157  153.6349 N   0  0  0  0  0  0  0  0  0  0  0  0
  147.8978  139.6023  153.7828 C   0  0  0  0  0  0  0  0  0  0  0  0
  147.2951  139.5032  154.8514 O   0  0  0  0  0  0  0  0  0  0  0  0
  147.3908  139.1927  152.6108 N   0  0  0  0  0  0  0  0  0  0  0  0
  146.0733  138.5885  152.4433 C   0  0  0  0  0  0  0  0  0  0  0  0
  145.7813  137.5552  153.5518 C   0  0  0  0  0  0  0  0  0  0  0  0
  146.3072  136.1946  153.2399 N   0  3  1  0  0  0  0  0  0  0  0  0
  146.6649  135.4463  154.4805 C   0  0  0  0  0  0  0  0  0  0  0  0
  147.3246  134.0952  154.1724 C   0  0  0  0  0  0  0  0  0  0  0  0
  146.4057  133.2374  153.3040 C   0  0  0  0  0  0  0  0  0  0  0  0
  146.0518  134.0099  152.0318 C   0  0  0  0  0  0  0  0  0  0  0  0
  145.4175  135.3846  152.3419 C   0  0  2  0  0  0  0  0  0  0  0  0
  145.0988  136.0842  151.0032 C   0  0  0  0  0  0  0  0  0  0  0  0
  151.0308  140.0200  155.3584 C   0  0  0  0  0  0  0  0  0  0  0  0
  151.5665  140.8499  156.2406 N   0  0  0  0  0  0  0  0  0  0  0  0
  151.2441  143.6874  159.0571 H   0  0  0  0  0  0  0  0  0  0  0  0
  151.6500  142.0005  158.7571 H   0  0  0  0  0  0  0  0  0  0  0  0
  149.9728  142.5360  158.6570 H   0  0  0  0  0  0  0  0  0  0  0  0
  150.5614  143.9784  156.6660 H   0  0  0  0  0  0  0  0  0  0  0  0
  152.2237  143.4305  156.7562 H   0  0  0  0  0  0  0  0  0  0  0  0
  149.2099  142.7269  154.9226 H   0  0  0  0  0  0  0  0  0  0  0  0
  149.5123  140.1280  152.7009 H   0  0  0  0  0  0  0  0  0  0  0  0
  147.9511  139.3117  151.7792 H   0  0  0  0  0  0  0  0  0  0  0  0
  145.3067  139.3656  152.4318 H   0  0  0  0  0  0  0  0  0  0  0  0
  146.0647  138.1264  151.4574 H   0  0  0  0  0  0  0  0  0  0  0  0
  146.1823  137.8936  154.5084 H   0  0  0  0  0  0  0  0  0  0  0  0
  144.7017  137.5260  153.6700 H   0  0  0  0  0  0  0  0  0  0  0  0
  147.3585  136.0200  155.0921 H   0  0  0  0  0  0  0  0  0  0  0  0
  145.7683  135.2935  155.0835 H   0  0  0  0  0  0  0  0  0  0  0  0
  148.2755  134.2551  153.6621 H   0  0  0  0  0  0  0  0  0  0  0  0
  147.5544  133.5715  155.1009 H   0  0  0  0  0  0  0  0  0  0  0  0
  146.8931  132.2950  153.0515 H   0  0  0  0  0  0  0  0  0  0  0  0
  145.4975  132.9862  153.8533 H   0  0  0  0  0  0  0  0  0  0  0  0
  146.9516  134.1465  151.4298 H   0  0  0  0  0  0  0  0  0  0  0  0
  145.3691  133.4098  151.4288 H   0  0  0  0  0  0  0  0  0  0  0  0
  144.4763  135.2146  152.8674 H   0  0  0  0  0  0  0  0  0  0  0  0
  144.6109  135.3964  150.3116 H   0  0  0  0  0  0  0  0  0  0  0  0
  146.0048  136.4481  150.5171 H   0  0  0  0  0  0  0  0  0  0  0  0
  144.4120  136.9215  151.1206 H   0  0  0  0  0  0  0  0  0  0  0  0
  151.4318  139.0213  155.2718 H   0  0  0  0  0  0  0  0  0  0  0  0
  147.1655  136.3342  152.7259 H   0  0  0  0  0  0  0  0  0  0  0  0
  1  2  1  0  0  0  0
  1 21  1  0  0  0  0
  1 22  1  0  0  0  0
  1 23  1  0  0  0  0
  2  3  1  0  0  0  0
  2 24  1  0  0  0  0
  2 25  1  0  0  0  0
  3 20  1  0  0  0  0
  3  4  1  0  0  0  0
  4  5  2  0  0  0  0
  4 26  1  0  0  0  0
  5  6  1  0  0  0  0
  5 19  1  0  0  0  0
  6  7  1  0  0  0  0
  6 27  1  0  0  0  0
  7  8  2  0  0  0  0
  7  9  1  0  0  0  0
  9 10  1  0  0  0  0
  9 28  1  0  0  0  0
 10 11  1  0  0  0  0
 10 29  1  0  0  0  0
 10 30  1  0  0  0  0
 11 12  1  0  0  0  0
 11 31  1  0  0  0  0
 11 32  1  0  0  0  0
 12 17  1  0  0  0  0
 12 13  1  0  0  0  0
 12 46  1  0  0  0  0
 13 14  1  0  0  0  0
 13 33  1  0  0  0  0
 13 34  1  0  0  0  0
 14 15  1  0  0  0  0
 14 35  1  0  0  0  0
 14 36  1  0  0  0  0
 15 16  1  0  0  0  0
 15 37  1  0  0  0  0
 15 38  1  0  0  0  0
 16 17  1  0  0  0  0
 16 39  1  0  0  0  0
 16 40  1  0  0  0  0
 17 18  1  0  0  0  0
 17 41  1  0  0  0  0
 18 42  1  0  0  0  0
 18 43  1  0  0  0  0
 18 44  1  0  0  0  0
 19 20  2  0  0  0  0
 19 45  1  0  0  0  0
M  CHG  1  12   1
M  END
> <s_m_source_file>
AV-unprocessed.smi

> <i_m_source_file_index>
1215

> <i_lp_mmshare_version>
43012

> <i_f3d_flags>
0

> <s_epik_input>
W0NIM11bQ0gyXW4xW2NIXWMoW2NIXW4xKVtOSF1DKD1PKVtOSF1bQ0gyXVtDSDJdTjJbQ0gyXVtDSDJdW0NIMl1bQ0gyXVtDQEhdMltDSDNd

> <s_epik_cmdline>
J2VwaWtfcHl0aG9uJywgJy1waCcsICc3LjAnLCAnLXRuJywgJzgnLCAnLW1hJywgJzIwMCcsICctbWV0YWxfYmluZGluZycsICctaW1hZScsICc8aW5maWxlLm1hZT4nLCAnLW9tYWUnLCAnPG91dGZpbGUubWFlPic=

> <r_lp_tautomer_probability>
1

> <r_epik_Ionization_Penalty>
0.00247187

> <r_epik_Ionization_Penalty_Charging>
0.00232067

> <r_epik_Ionization_Penalty_Neutral>
0.000151201

> <r_epik_State_Penalty>
0.00160128

> <r_epik_Charging_Adjusted_Penalty>
0.00392194

> <i_epik_Tot_Q>
1

> <i_epik_Tot_abs_Q>
1

> <r_epik_Metal_State_Penalty>
-0

> <b_epik_Metal_Only>
0

> <s_lp_Force_Field>
OPLS_2005

> <r_lp_Energy>
23.8268

> <b_lp_Chiralities_Consistent>
1

> <s_lp_Variant>
AV-unprocessed.smi:1215-4

> <Gold.Version>
5.8.1

> <Gold.Id.Protein>
6NUR|6NUR_protein|mol2

> <Gold.PLP.Fitness>
49.6210

> <Gold.PLP.PLP>
-37.5325

> <Gold.PLP.part.hbond>
-4.0000

> <Gold.PLP.part.metal>
0.0000

> <Gold.PLP.part.buried>
-2.8796

> <Gold.PLP.part.nonpolar>
-31.2326

> <Gold.PLP.part.repulsive>
0.2750

> <Gold.PLP.ligand.clash>
0.0000

> <Gold.PLP.ligand.torsion>
1.2960

> <Gold.PLP.Chemscore.Hbond>
3.8640

> <Gold.PLP.Chemscore.CHOScore>
0.9944

> <Gold.PLP.Chemscore.Metal>
0.0000

> <Gold.Chemscore.Hbonds>
donor molecule, donor type, donor heavy atom, donor atom, acceptor molecule, acceptor atom, score
      L1  H     6    27       P1  7957  1.00
      L1  H     9    28       P1  7957  0.88
      L1  H    12    46       P1  7948  2.00
      L1  C     4    26       P1  8028  1.00

> <Gold.PLP.Chemscore.Internal.Correction>
0.1054

> <Gold.Rescore>
     Score         DG    S(hbond)    S(metal)    S(lipo)     H(rot)  DE(clash)    DE(int)     intcor
     17.04     -20.10       2.93        0.00      76.08       1.59       0.03       3.03       ----

> <Gold.Chemscore.Fitness>
17.0437

> <Gold.Chemscore.DG>
-20.0976

> <Gold.Chemscore.ZeroCoef>
-5.4800

> <Gold.Chemscore.Hbond>
2.9310

> <Gold.Chemscore.Metal>
0.0000

> <Gold.Chemscore.Lipo>
76.0770

> <Gold.Chemscore.Internal_Hbond>
0.0000

> <Gold.Chemscore.DEClash>
0.0270

> <Gold.Chemscore.DEInternal>
3.0269

> <Gold.Chemscore.Rot>
1.5909

> <Gold.Chemscore.Internal.Correction>
   9.000000E+99

> <Gold.Chemscore.Hbonds>
donor molecule, donor type, donor heavy atom, donor atom, acceptor molecule, acceptor atom, score
      L1  H     6    27       P1  7957  0.94
      L1  H     9    28       P1  7957  0.86
      L1  H    12    46       P1  7948  0.97

> <Gold.Chemscore.Hbond.Weighted>
-9.7894

> <Gold.Chemscore.Metal.Weighted>
-0.0000

> <Gold.Chemscore.Lipo.Weighted>
-8.9010

> <Gold.Chemscore.Internal_Hbond.Weighted>
0.0000

> <Gold.Chemscore.DEClash.Weighted>
0.0270

> <Gold.Chemscore.DEInternal.Weighted>
3.0269

> <Gold.Chemscore.Rot.Weighted>
4.0728

> <Gold.Chemscore.Internal.Correction.Weighted>
   9.000000E+99

> <Gold.Protein.RotatedTorsions>
[ 6907 6896 6895 6894 ] final  129.86 input  -60.11 | X-H torsion
[ 7974 7965 7964 7962 ] final -171.93 input  175.53 | X-H torsion
[ 8008 7997 7996 7995 ] final  117.75 input   59.86 | X-H torsion
[ 10167 10162 10161 10158 ] final  178.86 input  -65.29 | X-H torsion
[ 10718 10713 10712 10709 ] final -128.17 input   66.30 | X-H torsion
[ 10763 10752 10751 10750 ] final  -56.80 input  -60.55 | X-H torsion
[ 11005 11000 10999 10996 ] final   55.87 input  -57.11 | X-H torsion

> <Gold.Protein.ActiveResidues>
 VAL166  LYS551  ARG553  GLY616  TRP617  ASP618  TYR619  PRO620  LYS621  CYS622 
 ASP623  PHE694  ASN695  SER759  ASP760  ASP761  ALA762  ILE779  LEU786  VAL792 
 PHE793  MET794  SER795  GLU796  ALA797  LYS798  CYS799  TRP800  GLU811  SER814 

> <Gold.Protein.RotatedAtoms>
  152.3582  133.6264  159.5995 H   0  0  0  0  0  0  0  0  0  0  0  0  # atno 6907 bound_to 6896
  150.7583  133.9465  159.3481 H   0  0  0  0  0  0  0  0  0  0  0  0  # atno 6908 bound_to 6896
  151.7307  135.0876  160.0351 H   0  0  0  0  0  0  0  0  0  0  0  0  # atno 6909 bound_to 6896
  144.7151  140.1848  143.6354 H   0  0  0  0  0  0  0  0  0  0  0  0  # atno 7974 bound_to 7965
  156.2511  140.2889  156.0727 H   0  0  0  0  0  0  0  0  0  0  0  0  # atno 8008 bound_to 7997
  155.1653  140.0400  157.2868 H   0  0  0  0  0  0  0  0  0  0  0  0  # atno 8009 bound_to 7997
  154.6364  140.2512  155.7380 H   0  0  0  0  0  0  0  0  0  0  0  0  # atno 8010 bound_to 7997
  139.5312  144.2629  152.0692 H   0  0  0  0  0  0  0  0  0  0  0  0  # atno 10167 bound_to 10162
  156.1925  130.6805  151.0442 H   0  0  0  0  0  0  0  0  0  0  0  0  # atno 10718 bound_to 10713
  154.2124  135.6392  153.5119 H   0  0  0  0  0  0  0  0  0  0  0  0  # atno 10763 bound_to 10752
  152.9987  135.5477  154.6201 H   0  0  0  0  0  0  0  0  0  0  0  0  # atno 10764 bound_to 10752
  154.5641  135.2911  155.0865 H   0  0  0  0  0  0  0  0  0  0  0  0  # atno 10765 bound_to 10752
  140.0573  134.5652  155.9193 H   0  0  0  0  0  0  0  0  0  0  0  0  # atno 11005 bound_to 11000
  145.8823  139.2330  143.1598 LP  0  0  0  0  0  0  0  0  0  0  0  0  # atno 17320 bound_to 7965
  145.9983  140.8543  143.0031 LP  0  0  0  0  0  0  0  0  0  0  0  0  # atno 17321 bound_to 7965
  140.2093  144.4579  150.6393 LP  0  0  0  0  0  0  0  0  0  0  0  0  # atno 17342 bound_to 10162
  140.6491  143.2220  151.6119 LP  0  0  0  0  0  0  0  0  0  0  0  0  # atno 17343 bound_to 10162
  157.6938  131.0801  150.7030 LP  0  0  0  0  0  0  0  0  0  0  0  0  # atno 17370 bound_to 10713
  156.7087  130.4645  149.5553 LP  0  0  0  0  0  0  0  0  0  0  0  0  # atno 17371 bound_to 10713
  141.1958  133.6588  156.5659 LP  0  0  0  0  0  0  0  0  0  0  0  0  # atno 17394 bound_to 11000
  140.3824  134.7511  157.4670 LP  0  0  0  0  0  0  0  0  0  0  0  0  # atno 17395 bound_to 11000

$$$$
