#       Name:                AV-unprocessed.smi:1118
#       Creating user name   scv26
#       Creation time:       Fri Mar 27 03:36:44 2020


#       File generated by GOLD software.
#

@<TRIPOS>MOLECULE
AV-unprocessed.smi:1118
    50    51     1
SMALL
NO_CHARGES


@<TRIPOS>ATOM
      1 ****        -3.2174   3.9349  -2.5280 C.3            1 S1                 0.0000
      2 ****        -3.1020   2.5260  -2.4314 O.3            1 S1                 0.0000
      3 ****        -3.5411   2.0286  -1.1781 C.3            1 S1                 0.0000
      4 ****        -3.4008   0.4986  -1.1745 C.3            1 S1                 0.0000
      5 ****        -1.9866   0.0582  -1.2814 N.4            1 S1                 1.0000
      6 ****        -1.8653  -1.3112  -1.8425 C.3            1 S1                 0.0000
      7 ****        -0.3931  -1.6851  -2.0809 C.3            1 S1                 0.0000
      8 ****         0.4355  -1.5713  -0.7895 C.3            1 S1                 0.0000
      9 ****         1.9116  -1.9410  -1.0455 C.3            1 S1                 0.0000
     10 ****         2.6924  -1.9399   0.1870 N.am           1 S1                 0.0000
     11 ****         3.5336  -0.9697   0.5777 C.2            1 S1                 0.0000
     12 ****         3.7998   0.0193  -0.1050 O.2            1 S1                 0.0000
     13 ****         4.1374  -1.1207   1.9732 C.3            1 S1                 0.0000
     14 ****         3.2282  -0.6006   2.9787 N.pl3          1 S1                 0.0000
     15 ****         3.1366   0.6867   3.4658 C.2            1 S1                 0.0000
     16 ****         2.1236   0.7037   4.3811 C.2            1 S1                 0.0000
     17 ****         1.6487  -0.6377   4.3853 C.2            1 S1                 0.0000
     18 ****         2.3098  -1.4157   3.5436 N.2            1 S1                 0.0000
     19 ****         0.2545  -0.1554  -0.2043 C.3            1 S1                 0.0000
     20 ****        -1.2306   0.1903  -0.0083 C.3            1 S1                 0.0000
     21 ****        -2.8663   4.2652  -3.5057 H              1 S1                 0.0000
     22 ****        -2.6140   4.4332  -1.7679 H              1 S1                 0.0000
     23 ****        -4.2544   4.2546  -2.4173 H              1 S1                 0.0000
     24 ****        -2.9800   2.4862  -0.3631 H              1 S1                 0.0000
     25 ****        -4.5891   2.2942  -1.0309 H              1 S1                 0.0000
     26 ****        -3.8486   0.0762  -0.2739 H              1 S1                 0.0000
     27 ****        -3.9760   0.1065  -2.0146 H              1 S1                 0.0000
     28 ****        -2.3328  -2.0276  -1.1649 H              1 S1                 0.0000
     29 ****        -2.4041  -1.3710  -2.7888 H              1 S1                 0.0000
     30 ****        -0.3349  -2.7012  -2.4732 H              1 S1                 0.0000
     31 ****         0.0273  -1.0339  -2.8489 H              1 S1                 0.0000
     32 ****         0.0332  -2.2866  -0.0701 H              1 S1                 0.0000
     33 ****         1.9706  -2.9443  -1.4683 H              1 S1                 0.0000
     34 ****         2.3486  -1.2736  -1.7903 H              1 S1                 0.0000
     35 ****         2.5398  -2.7111   0.8212 H              1 S1                 0.0000
     36 ****         4.3559  -2.1688   2.1850 H              1 S1                 0.0000
     37 ****         5.0805  -0.5757   2.0328 H              1 S1                 0.0000
     38 ****         3.7910   1.4743   3.1215 H              1 S1                 0.0000
     39 ****         1.7745   1.5462   4.9596 H              1 S1                 0.0000
     40 ****         0.8478  -1.0660   4.9697 H              1 S1                 0.0000
     41 ****         0.7618  -0.0713   0.7571 H              1 S1                 0.0000
     42 ****         0.7186   0.5798  -0.8634 H              1 S1                 0.0000
     43 ****        -1.3054   1.2070   0.3755 H              1 S1                 0.0000
     44 ****        -1.6692  -0.4642   0.7466 H              1 S1                 0.0000
     45 ****        -1.5490   0.6749  -1.9516 H              1 S1                 0.0000
     46 ****        -2.1427   2.2736  -2.5581 LP             1 S1                 0.0000
     47 ****        -3.6545   2.1089  -3.1531 LP             1 S1                 0.0000
     48 ****         3.3804   0.1327  -1.0057 LP             1 S1                 0.0000
     49 ****         4.4354   0.7094   0.2411 LP             1 S1                 0.0000
     50 ****         2.1629  -2.3887   3.3654 LP             1 S1                 0.0000
@<TRIPOS>BOND
    1    1    2 1     
    2    1   21 1     
    3    1   22 1     
    4    1   23 1     
    5    2    3 1     
    6    3    4 1     
    7    3   24 1     
    8    3   25 1     
    9    4    5 1     
   10    4   26 1     
   11    4   27 1     
   12    5   20 1     
   13    5    6 1     
   14    5   45 1     
   15    6    7 1     
   16    6   28 1     
   17    6   29 1     
   18    7    8 1     
   19    7   30 1     
   20    7   31 1     
   21    8    9 1     
   22    8   19 1     
   23    8   32 1     
   24    9   10 1     
   25    9   33 1     
   26    9   34 1     
   27   10   11 am    
   28   10   35 1     
   29   11   12 2     
   30   11   13 1     
   31   13   14 1     
   32   13   36 1     
   33   13   37 1     
   34   14   18 1     
   35   14   15 1     
   36   15   16 2     
   37   15   38 1     
   38   16   17 1     
   39   16   39 1     
   40   17   18 2     
   41   17   40 1     
   42   19   20 1     
   43   19   41 1     
   44   19   42 1     
   45   20   43 1     
   46   20   44 1     
   47    2   46 1     
   48    2   47 1     
   49   12   48 1     
   50   12   49 1     
   51   18   50 1     
@<TRIPOS>SUBSTRUCTURE
      1 S1             1
@<TRIPOS>SET
LONE_PAIRS      STATIC     ATOMS    <user>   **** ""
5 46 47 48 49 50
DONOR_HYDROGENS      STATIC     ATOMS    <user>   **** ""
2 45 35
ATOM$BLUE        STATIC     ATOMS    COLORGROUP SYSTEM
5 46 47 48 49 50
ATOM$RED        STATIC     ATOMS    COLORGROUP SYSTEM
2 45 35
