#       Name:                AV-unprocessed.smi:2083
#       Creating user name   scv26
#       Creation time:       Fri Mar 27 11:20:58 2020


#       File generated by GOLD software.
#

@<TRIPOS>MOLECULE
AV-unprocessed.smi:2083
    50    51     1
SMALL
NO_CHARGES


@<TRIPOS>ATOM
      1 ****        -2.5604   6.4865  -2.9413 C.3            1 S1                 0.0000
      2 ****        -2.8900   5.3443  -2.0425 C.2            1 S1                 0.0000
      3 ****        -2.1710   4.6706  -1.0962 C.2            1 S1                 0.0000
      4 ****        -3.0889   3.6916  -0.6270 C.2            1 S1                 0.0000
      5 ****        -2.8511   2.7797   0.3282 N.pl3          1 S1                -1.0000
      6 ****        -2.2449   1.6116   0.0178 C.2            1 S1                 0.0000
      7 ****        -1.8460   1.2664  -1.0970 O.2            1 S1                 0.0000
      8 ****        -2.0842   0.7930   1.0673 N.am           1 S1                 0.0000
      9 ****        -1.4471  -0.5201   1.0338 C.3            1 S1                 0.0000
     10 ****         0.1035  -0.4369   0.9568 C.3            1 S1                 0.0000
     11 ****         0.6531   0.3957   2.1372 C.3            1 S1                 0.0000
     12 ****         0.7923  -1.7690   0.9103 N.4            1 S1                 1.0000
     13 ****         0.0161  -2.8851   0.2950 C.3            1 S1                 0.0000
     14 ****         0.7610  -4.2256   0.4106 C.3            1 S1                 0.0000
     15 ****         2.1609  -4.1417  -0.2037 C.3            1 S1                 0.0000
     16 ****         2.9428  -2.9862   0.4371 C.3            1 S1                 0.0000
     17 ****         4.3492  -2.8603  -0.1655 C.3            1 S1                 0.0000
     18 ****         2.1492  -1.6726   0.2977 C.3            1 S1                 0.0000
     19 ****        -4.2664   3.7756  -1.2230 N.2            1 S1                 0.0000
     20 ****        -4.1454   4.8297  -2.1363 O.3            1 S1                 0.0000
     21 ****        -2.4290   7.4029  -2.3662 H              1 S1                 0.0000
     22 ****        -3.3536   6.6555  -3.6700 H              1 S1                 0.0000
     23 ****        -1.6371   6.2930  -3.4873 H              1 S1                 0.0000
     24 ****        -1.1505   4.8462  -0.7910 H              1 S1                 0.0000
     25 ****        -2.4309   1.1125   1.9602 H              1 S1                 0.0000
     26 ****        -1.7516  -1.0593   1.9314 H              1 S1                 0.0000
     27 ****        -1.8635  -1.0614   0.1833 H              1 S1                 0.0000
     28 ****         0.3479   0.0845   0.0299 H              1 S1                 0.0000
     29 ****         0.2280   1.3994   2.1557 H              1 S1                 0.0000
     30 ****         1.7327   0.5273   2.0927 H              1 S1                 0.0000
     31 ****         0.4196  -0.0771   3.0916 H              1 S1                 0.0000
     32 ****        -0.9414  -3.0159   0.7974 H              1 S1                 0.0000
     33 ****        -0.1915  -2.6546  -0.7513 H              1 S1                 0.0000
     34 ****         0.8390  -4.5108   1.4606 H              1 S1                 0.0000
     35 ****         0.1875  -5.0127  -0.0801 H              1 S1                 0.0000
     36 ****         2.6877  -5.0855  -0.0582 H              1 S1                 0.0000
     37 ****         2.0817  -3.9891  -1.2812 H              1 S1                 0.0000
     38 ****         3.0596  -3.2010   1.5005 H              1 S1                 0.0000
     39 ****         4.3060  -2.6407  -1.2328 H              1 S1                 0.0000
     40 ****         4.9149  -3.7838  -0.0387 H              1 S1                 0.0000
     41 ****         4.9135  -2.0612   0.3160 H              1 S1                 0.0000
     42 ****         2.0491  -1.4068  -0.7563 H              1 S1                 0.0000
     43 ****         2.7225  -0.8722   0.7624 H              1 S1                 0.0000
     44 ****         0.9267  -2.0384   1.8742 H              1 S1                 0.0000
     45 ****        -3.1231   2.9646   1.2725 LP             1 S1                 0.0000
     46 ****        -1.9601   1.8776  -1.8803 LP             1 S1                 0.0000
     47 ****        -1.4085   0.3754  -1.2177 LP             1 S1                 0.0000
     48 ****        -5.0720   3.2071  -1.0567 LP             1 S1                 0.0000
     49 ****        -4.3021   4.4911  -3.0641 LP             1 S1                 0.0000
     50 ****        -4.8170   5.5392  -1.9227 LP             1 S1                 0.0000
@<TRIPOS>BOND
    1    1    2 1     
    2    1   21 1     
    3    1   22 1     
    4    1   23 1     
    5    2   20 1     
    6    2    3 2     
    7    3    4 1     
    8    3   24 1     
    9    4    5 1     
   10    4   19 2     
   11    5    6 1     
   12    6    7 2     
   13    6    8 am    
   14    8    9 1     
   15    8   25 1     
   16    9   10 1     
   17    9   26 1     
   18    9   27 1     
   19   10   11 1     
   20   10   12 1     
   21   10   28 1     
   22   11   29 1     
   23   11   30 1     
   24   11   31 1     
   25   12   18 1     
   26   12   13 1     
   27   12   44 1     
   28   13   14 1     
   29   13   32 1     
   30   13   33 1     
   31   14   15 1     
   32   14   34 1     
   33   14   35 1     
   34   15   16 1     
   35   15   36 1     
   36   15   37 1     
   37   16   17 1     
   38   16   18 1     
   39   16   38 1     
   40   17   39 1     
   41   17   40 1     
   42   17   41 1     
   43   18   42 1     
   44   18   43 1     
   45   19   20 1     
   46    5   45 1     
   47    7   46 1     
   48    7   47 1     
   49   19   48 1     
   50   20   49 1     
   51   20   50 1     
@<TRIPOS>SUBSTRUCTURE
      1 S1             1
@<TRIPOS>SET
LONE_PAIRS      STATIC     ATOMS    <user>   **** ""
6 45 46 47 48 49 50
DONOR_HYDROGENS      STATIC     ATOMS    <user>   **** ""
2 25 44
ATOM$BLUE        STATIC     ATOMS    COLORGROUP SYSTEM
6 45 46 47 48 49 50
ATOM$RED        STATIC     ATOMS    COLORGROUP SYSTEM
2 25 44
