AV-unprocessed.smi:212|AV-procd|sdf|1628|dock6
  -GOLD-   2262019573D 1   1.00000     0.00000
 Structure written by MMmdl.
 65 68  0  0  0  0  0  0  0  0  2 V2000
  145.4182  140.8762  156.6205 C   0  0  0  0  0  0  0  0  0  0  0  0
  146.8287  141.4703  156.4414 C   0  0  1  0  0  0  0  0  0  0  0  0
  147.5828  141.6763  157.7732 C   0  0  0  0  0  0  0  0  0  0  0  0
  148.9071  142.3138  157.5442 N   0  3  1  0  0  0  0  0  0  0  0  0
  149.6479  142.5992  158.8019 C   0  0  0  0  0  0  0  0  0  0  0  0
  150.3203  143.9924  158.7972 C   0  0  0  0  0  0  0  0  0  0  0  0
  149.4880  144.9834  159.6282 C   0  0  0  0  0  0  0  0  0  0  0  0
  151.7680  143.9448  159.3201 C   0  0  0  0  0  0  0  0  0  0  0  0
  150.3404  144.4951  157.4759 O   0  0  0  0  0  0  0  0  0  0  0  0
  149.7221  141.5830  156.5392 C   0  0  0  0  0  0  0  0  0  0  0  0
  148.9481  141.4015  155.2196 C   0  0  0  0  0  0  0  0  0  0  0  0
  147.6573  140.7627  155.4566 N   0  0  0  0  0  0  0  0  0  0  0  0
  147.7308  139.4069  155.4434 C   0  0  0  0  0  0  0  0  0  0  0  0
  148.5620  138.7476  156.2926 N   0  0  0  0  0  0  0  0  0  0  0  0
  148.6423  137.4140  156.2564 C   0  0  0  0  0  0  0  0  0  0  0  0
  147.9965  136.5609  155.4590 N   0  0  0  0  0  0  0  0  0  0  0  0
  147.1678  137.2188  154.5990 C   0  0  0  0  0  0  0  0  0  0  0  0
  146.9821  138.6272  154.5207 C   0  0  0  0  0  0  0  0  0  0  0  0
  146.0694  138.9322  153.5190 N   0  0  0  0  0  0  0  0  0  0  0  0
  145.7313  137.7688  153.0330 C   0  0  0  0  0  0  0  0  0  0  0  0
  146.3294  136.6846  153.6363 N   0  0  0  0  0  0  0  0  0  0  0  0
  146.1393  135.2854  153.3010 C   0  0  0  0  0  0  0  0  0  0  0  0
  146.4027  134.9293  151.8125 C   0  0  2  0  0  0  0  0  0  0  0  0
  145.1843  135.3772  150.9757 C   0  0  0  0  0  0  0  0  0  0  0  0
  145.5837  135.9553  149.7498 O   0  0  0  0  0  0  0  0  0  0  0  0
  146.7795  133.4474  151.5038 C   0  0  1  0  0  0  0  0  0  0  0  0
  147.6942  132.7328  152.4824 C   0  0  0  0  0  0  0  0  0  0  0  0
  147.5518  131.2873  152.0194 C   0  0  0  0  0  0  0  0  0  0  0  0
  146.2037  131.1590  151.5759 O   0  0  0  0  0  0  0  0  0  0  0  0
  145.6311  132.4453  151.3498 C   0  0  0  0  0  0  0  0  0  0  0  0
  144.7991  141.5361  157.2287 H   0  0  0  0  0  0  0  0  0  0  0  0
  145.4314  139.9057  157.1153 H   0  0  0  0  0  0  0  0  0  0  0  0
  144.9188  140.7555  155.6587 H   0  0  0  0  0  0  0  0  0  0  0  0
  146.6745  142.4626  156.0151 H   0  0  0  0  0  0  0  0  0  0  0  0
  146.9850  142.3044  158.4335 H   0  0  0  0  0  0  0  0  0  0  0  0
  147.7206  140.7281  158.2928 H   0  0  0  0  0  0  0  0  0  0  0  0
  148.9842  142.4944  159.6624 H   0  0  0  0  0  0  0  0  0  0  0  0
  150.4262  141.8478  158.9470 H   0  0  0  0  0  0  0  0  0  0  0  0
  149.4283  144.6703  160.6712 H   0  0  0  0  0  0  0  0  0  0  0  0
  148.4675  145.0628  159.2507 H   0  0  0  0  0  0  0  0  0  0  0  0
  149.9231  145.9835  159.6115 H   0  0  0  0  0  0  0  0  0  0  0  0
  151.8058  143.5512  160.3364 H   0  0  0  0  0  0  0  0  0  0  0  0
  152.2163  144.9390  159.3373 H   0  0  0  0  0  0  0  0  0  0  0  0
  152.4046  143.3145  158.6984 H   0  0  0  0  0  0  0  0  0  0  0  0
  149.4893  144.3570  157.0868 H   0  0  0  0  0  0  0  0  0  0  0  0
  150.6431  142.1335  156.3437 H   0  0  0  0  0  0  0  0  0  0  0  0
  150.0104  140.6114  156.9437 H   0  0  0  0  0  0  0  0  0  0  0  0
  148.7714  142.3729  154.7566 H   0  0  0  0  0  0  0  0  0  0  0  0
  149.5474  140.8299  154.5095 H   0  0  0  0  0  0  0  0  0  0  0  0
  149.3201  136.9662  156.9681 H   0  0  0  0  0  0  0  0  0  0  0  0
  145.0236  137.6702  152.2225 H   0  0  0  0  0  0  0  0  0  0  0  0
  146.7619  134.6783  153.9584 H   0  0  0  0  0  0  0  0  0  0  0  0
  145.1093  135.0354  153.5590 H   0  0  0  0  0  0  0  0  0  0  0  0
  147.2424  135.5439  151.4850 H   0  0  0  0  0  0  0  0  0  0  0  0
  144.5153  134.5383  150.7813 H   0  0  0  0  0  0  0  0  0  0  0  0
  144.6049  136.1278  151.5140 H   0  0  0  0  0  0  0  0  0  0  0  0
  145.3003  136.8569  149.7355 H   0  0  0  0  0  0  0  0  0  0  0  0
  147.3267  133.4376  150.5599 H   0  0  0  0  0  0  0  0  0  0  0  0
  148.7240  133.0889  152.4424 H   0  0  0  0  0  0  0  0  0  0  0  0
  147.3510  132.8108  153.5098 H   0  0  0  0  0  0  0  0  0  0  0  0
  148.2162  131.0915  151.1768 H   0  0  0  0  0  0  0  0  0  0  0  0
  147.7837  130.5703  152.8072 H   0  0  0  0  0  0  0  0  0  0  0  0
  144.8530  132.5917  152.0966 H   0  0  0  0  0  0  0  0  0  0  0  0
  145.1650  132.5016  150.3658 H   0  0  0  0  0  0  0  0  0  0  0  0
  148.7150  143.2150  157.1308 H   0  0  0  0  0  0  0  0  0  0  0  0
  1  2  1  0  0  0  0
  1 31  1  0  0  0  0
  1 32  1  0  0  0  0
  1 33  1  0  0  0  0
  2 12  1  0  0  0  0
  2  3  1  0  0  0  0
  2 34  1  0  0  0  0
  3  4  1  0  0  0  0
  3 35  1  0  0  0  0
  3 36  1  0  0  0  0
  4  5  1  0  0  0  0
  4 10  1  0  0  0  0
  4 65  1  0  0  0  0
  5  6  1  0  0  0  0
  5 37  1  0  0  0  0
  5 38  1  0  0  0  0
  6  7  1  0  0  0  0
  6  8  1  0  0  0  0
  6  9  1  0  0  0  0
  7 39  1  0  0  0  0
  7 40  1  0  0  0  0
  7 41  1  0  0  0  0
  8 42  1  0  0  0  0
  8 43  1  0  0  0  0
  8 44  1  0  0  0  0
  9 45  1  0  0  0  0
 10 11  1  0  0  0  0
 10 46  1  0  0  0  0
 10 47  1  0  0  0  0
 11 12  1  0  0  0  0
 11 48  1  0  0  0  0
 11 49  1  0  0  0  0
 12 13  1  0  0  0  0
 13 18  1  0  0  0  0
 13 14  2  0  0  0  0
 14 15  1  0  0  0  0
 15 16  2  0  0  0  0
 15 50  1  0  0  0  0
 16 17  1  0  0  0  0
 17 21  1  0  0  0  0
 17 18  2  0  0  0  0
 18 19  1  0  0  0  0
 19 20  2  0  0  0  0
 20 21  1  0  0  0  0
 20 51  1  0  0  0  0
 21 22  1  0  0  0  0
 22 23  1  0  0  0  0
 22 52  1  0  0  0  0
 22 53  1  0  0  0  0
 23 24  1  0  0  0  0
 23 26  1  0  0  0  0
 23 54  1  0  0  0  0
 24 25  1  0  0  0  0
 24 55  1  0  0  0  0
 24 56  1  0  0  0  0
 25 57  1  0  0  0  0
 26 30  1  0  0  0  0
 26 27  1  0  0  0  0
 26 58  1  0  0  0  0
 27 28  1  0  0  0  0
 27 59  1  0  0  0  0
 27 60  1  0  0  0  0
 28 29  1  0  0  0  0
 28 61  1  0  0  0  0
 28 62  1  0  0  0  0
 29 30  1  0  0  0  0
 30 63  1  0  0  0  0
 30 64  1  0  0  0  0
M  CHG  1   4   1
M  END
> <s_m_source_file>
AV-unprocessed.smi

> <i_m_source_file_index>
212

> <i_lp_mmshare_version>
43012

> <i_f3d_flags>
0

> <s_epik_input>
W0NIM11bQ0BASF0xW0NIMl1OKFtDSDJdQyhbQ0gzXSkoW0NIM10pW09IXSlbQ0gyXVtDSDJdTjFjKG5bY0hdbjIpYyhjMjMpbltjSF1uM1tDSDJdW0NASF0oW0NIMl1bT0hdKVtDQEBIXTRbQ0gyXVtDSDJdT1tDSDJdNA==

> <s_epik_cmdline>
J2VwaWtfcHl0aG9uJywgJy1waCcsICc3LjAnLCAnLXRuJywgJzgnLCAnLW1hJywgJzIwMCcsICctbWV0YWxfYmluZGluZycsICctaW1hZScsICc8aW5maWxlLm1hZT4nLCAnLW9tYWUnLCAnPG91dGZpbGUubWFlPic=

> <r_lp_tautomer_probability>
1

> <r_epik_Ionization_Penalty>
0.00182193

> <r_epik_Ionization_Penalty_Charging>
0.00173996

> <r_epik_Ionization_Penalty_Neutral>
8.19718e-05

> <r_epik_State_Penalty>
-0

> <r_epik_Charging_Adjusted_Penalty>
0.00173996

> <i_epik_Tot_Q>
1

> <i_epik_Tot_abs_Q>
1

> <r_epik_Metal_State_Penalty>
-0

> <b_epik_Metal_Only>
0

> <s_lp_Force_Field>
OPLS_2005

> <r_lp_Energy>
60.5032

> <b_lp_Chiralities_Consistent>
1

> <s_lp_Variant>
AV-unprocessed.smi:212-12

> <Gold.Version>
5.8.1

> <Gold.Id.Protein>
6NUR|6NUR_protein|mol2

> <Gold.PLP.Fitness>
51.6947

> <Gold.PLP.PLP>
-40.7689

> <Gold.PLP.part.hbond>
-4.0000

> <Gold.PLP.part.metal>
0.0000

> <Gold.PLP.part.buried>
-5.0261

> <Gold.PLP.part.nonpolar>
-33.1056

> <Gold.PLP.part.repulsive>
1.6142

> <Gold.PLP.ligand.clash>
0.0000

> <Gold.PLP.ligand.torsion>
2.8408

> <Gold.PLP.Chemscore.Hbond>
3.9920

> <Gold.PLP.Chemscore.CHOScore>
1.1517

> <Gold.PLP.Chemscore.Metal>
0.0000

> <Gold.Chemscore.Hbonds>
donor molecule, donor type, donor heavy atom, donor atom, acceptor molecule, acceptor atom, score
      L1  H     4    65       P1  8028  1.66
      L1  H     9    45       P1  8028  0.61
      L1  H    25    57       P1 10171  0.52
      L1  C    20    51       P1 10171  0.27

> <Gold.PLP.Chemscore.Internal.Correction>
1.1763

> <Gold.Rescore>
     Score         DG    S(hbond)    S(metal)    S(lipo)     H(rot)  DE(clash)    DE(int)     intcor
     11.23     -17.21       2.86        0.00      99.24       3.68       0.88       5.10       ----

> <Gold.Chemscore.Fitness>
11.2275

> <Gold.Chemscore.DG>
-17.2110

> <Gold.Chemscore.ZeroCoef>
-5.4800

> <Gold.Chemscore.Hbond>
2.8575

> <Gold.Chemscore.Metal>
0.0000

> <Gold.Chemscore.Lipo>
99.2388

> <Gold.Chemscore.Internal_Hbond>
0.0000

> <Gold.Chemscore.DEClash>
0.8790

> <Gold.Chemscore.DEInternal>
5.1045

> <Gold.Chemscore.Rot>
3.6812

> <Gold.Chemscore.Internal.Correction>
   9.000000E+99

> <Gold.Chemscore.Hbonds>
donor molecule, donor type, donor heavy atom, donor atom, acceptor molecule, acceptor atom, score
      L1  H     4    65       P1  8028  0.40
      L1  H     9    45       P1  8028  0.13
      L1  H    25    57       P1 10171  0.52

> <Gold.Chemscore.Hbond.Weighted>
-9.5440

> <Gold.Chemscore.Metal.Weighted>
-0.0000

> <Gold.Chemscore.Lipo.Weighted>
-11.6109

> <Gold.Chemscore.Internal_Hbond.Weighted>
0.0000

> <Gold.Chemscore.DEClash.Weighted>
0.8790

> <Gold.Chemscore.DEInternal.Weighted>
5.1045

> <Gold.Chemscore.Rot.Weighted>
9.4239

> <Gold.Chemscore.Internal.Correction.Weighted>
   9.000000E+99

> <Gold.Protein.RotatedTorsions>
[ 6907 6896 6895 6894 ] final   -7.73 input  -60.11 | X-H torsion
[ 7974 7965 7964 7962 ] final   59.24 input  175.53 | X-H torsion
[ 8008 7997 7996 7995 ] final  130.86 input   59.86 | X-H torsion
[ 10167 10162 10161 10158 ] final   -0.91 input  -65.29 | X-H torsion
[ 10718 10713 10712 10709 ] final -156.07 input   66.30 | X-H torsion
[ 10763 10752 10751 10750 ] final -114.94 input  -60.55 | X-H torsion
[ 11005 11000 10999 10996 ] final   51.21 input  -57.11 | X-H torsion

> <Gold.Protein.ActiveResidues>
 VAL166  LYS551  ARG553  GLY616  TRP617  ASP618  TYR619  PRO620  LYS621  CYS622 
 ASP623  PHE694  ASN695  SER759  ASP760  ASP761  ALA762  ILE779  LEU786  VAL792 
 PHE793  MET794  SER795  GLU796  ALA797  LYS798  CYS799  TRP800  GLU811  SER814 

> <Gold.Protein.RotatedAtoms>
  151.4449  135.1024  159.9680 H   0  0  0  0  0  0  0  0  0  0  0  0  # atno 6907 bound_to 6896
  152.4909  133.8494  159.7204 H   0  0  0  0  0  0  0  0  0  0  0  0  # atno 6908 bound_to 6896
  150.9062  133.6996  159.2893 H   0  0  0  0  0  0  0  0  0  0  0  0  # atno 6909 bound_to 6896
  145.9094  139.3642  143.0545 H   0  0  0  0  0  0  0  0  0  0  0  0  # atno 7974 bound_to 7965
  156.2961  140.2585  156.2831 H   0  0  0  0  0  0  0  0  0  0  0  0  # atno 8008 bound_to 7997
  154.9582  140.0393  157.2196 H   0  0  0  0  0  0  0  0  0  0  0  0  # atno 8009 bound_to 7997
  154.7971  140.2822  155.5953 H   0  0  0  0  0  0  0  0  0  0  0  0  # atno 8010 bound_to 7997
  140.6787  143.6839  150.8083 H   0  0  0  0  0  0  0  0  0  0  0  0  # atno 10167 bound_to 10162
  156.5214  130.8480  151.2683 H   0  0  0  0  0  0  0  0  0  0  0  0  # atno 10718 bound_to 10713
  154.8461  135.4400  154.1584 H   0  0  0  0  0  0  0  0  0  0  0  0  # atno 10763 bound_to 10752
  153.2727  135.6946  153.7470 H   0  0  0  0  0  0  0  0  0  0  0  0  # atno 10764 bound_to 10752
  153.6705  135.3420  155.3127 H   0  0  0  0  0  0  0  0  0  0  0  0  # atno 10765 bound_to 10752
  140.0951  134.5156  155.8814 H   0  0  0  0  0  0  0  0  0  0  0  0  # atno 11005 bound_to 11000
  145.8691  140.9430  143.0660 LP  0  0  0  0  0  0  0  0  0  0  0  0  # atno 17320 bound_to 7965
  144.6742  140.0631  143.7475 LP  0  0  0  0  0  0  0  0  0  0  0  0  # atno 17321 bound_to 7965
  140.0536  143.5225  152.2662 LP  0  0  0  0  0  0  0  0  0  0  0  0  # atno 17342 bound_to 10162
  139.6096  144.7605  151.2982 LP  0  0  0  0  0  0  0  0  0  0  0  0  # atno 17343 bound_to 10162
  157.7436  130.9916  150.2606 LP  0  0  0  0  0  0  0  0  0  0  0  0  # atno 17370 bound_to 10713
  156.3145  130.3777  149.7631 LP  0  0  0  0  0  0  0  0  0  0  0  0  # atno 17371 bound_to 10713
  141.2090  133.6679  156.6407 LP  0  0  0  0  0  0  0  0  0  0  0  0  # atno 17394 bound_to 11000
  140.3297  134.7939  157.4316 LP  0  0  0  0  0  0  0  0  0  0  0  0  # atno 17395 bound_to 11000

$$$$
