AV-unprocessed.smi:110|AV-procd|sdf|1067|dock4
  -GOLD-   2262018143D 1   1.00000     0.00000
 Structure written by MMmdl.
 46 50  0  0  0  0  0  0  0  0  1 V2000
  147.2496  136.1328  154.2972 O   0  0  0  0  0  0  0  0  0  0  0  0
  145.9177  136.5758  154.4447 C   0  0  0  0  0  0  0  0  0  0  0  0
  145.7958  138.0382  153.9878 C   0  0  1  0  0  0  0  0  0  0  0  0
  146.4548  138.8648  154.9444 O   0  0  0  0  0  0  0  0  0  0  0  0
  147.0929  139.9052  154.2854 C   0  0  1  0  0  0  0  0  0  0  0  0
  148.1833  140.4366  155.1552 N   0  0  0  0  0  0  0  0  0  0  0  0
  148.8046  141.6654  155.1207 C   0  0  0  0  0  0  0  0  0  0  0  0
  149.7298  141.8438  156.0248 N   0  0  0  0  0  0  0  0  0  0  0  0
  149.7583  140.6454  156.7303 C   0  0  0  0  0  0  0  0  0  0  0  0
  150.5111  140.1470  157.8322 C   0  0  0  0  0  0  0  0  0  0  0  0
  151.4763  140.8386  158.4825 N   0  0  0  0  0  0  0  0  0  0  0  0
  152.4516  140.1177  159.3130 C   0  0  0  0  0  0  0  0  0  0  0  0
  153.1099  141.1456  160.2525 C   0  0  0  0  0  0  0  0  0  0  0  0
  152.5240  142.4197  159.7352 C   0  0  0  0  0  0  0  0  0  0  0  0
  152.8300  143.7275  160.1501 C   0  0  0  0  0  0  0  0  0  0  0  0
  152.1758  144.7993  159.5060 C   0  0  0  0  0  0  0  0  0  0  0  0
  151.2485  144.5502  158.4676 C   0  0  0  0  0  0  0  0  0  0  0  0
  150.9581  143.2277  158.0664 C   0  0  0  0  0  0  0  0  0  0  0  0
  151.5989  142.1602  158.7285 C   0  0  0  0  0  0  0  0  0  0  0  0
  150.2017  138.9080  158.2942 N   0  0  0  0  0  0  0  0  0  0  0  0
  149.2504  138.1846  157.6971 C   0  0  0  0  0  0  0  0  0  0  0  0
  148.4894  138.5087  156.6502 N   0  0  0  0  0  0  0  0  0  0  0  0
  148.7755  139.7635  156.1988 C   0  0  0  0  0  0  0  0  0  0  0  0
  147.6132  139.3068  152.9782 C   0  0  1  0  0  0  0  0  0  0  0  0
  148.8586  138.6491  153.1289 O   0  0  0  0  0  0  0  0  0  0  0  0
  146.5073  138.3125  152.6429 C   0  0  2  0  0  0  0  0  0  0  0  0
  145.5912  138.9023  151.7401 O   0  0  0  0  0  0  0  0  0  0  0  0
  144.7452  138.3301  153.9282 H   0  0  0  0  0  0  0  0  0  0  0  0
  146.4015  140.7361  154.1364 H   0  0  0  0  0  0  0  0  0  0  0  0
  147.7283  140.0919  152.2295 H   0  0  0  0  0  0  0  0  0  0  0  0
  146.9020  137.4071  152.1790 H   0  0  0  0  0  0  0  0  0  0  0  0
  147.5115  136.2604  153.3982 H   0  0  0  0  0  0  0  0  0  0  0  0
  145.2360  135.9280  153.8926 H   0  0  0  0  0  0  0  0  0  0  0  0
  145.6647  136.4890  155.5018 H   0  0  0  0  0  0  0  0  0  0  0  0
  148.5474  142.4319  154.4042 H   0  0  0  0  0  0  0  0  0  0  0  0
  151.9699  139.3194  159.8793 H   0  0  0  0  0  0  0  0  0  0  0  0
  153.2010  139.6621  158.6646 H   0  0  0  0  0  0  0  0  0  0  0  0
  152.8202  140.9914  161.2924 H   0  0  0  0  0  0  0  0  0  0  0  0
  154.1973  141.1449  160.1739 H   0  0  0  0  0  0  0  0  0  0  0  0
  153.5494  143.9074  160.9351 H   0  0  0  0  0  0  0  0  0  0  0  0
  152.3914  145.8155  159.8018 H   0  0  0  0  0  0  0  0  0  0  0  0
  150.7626  145.3782  157.9730 H   0  0  0  0  0  0  0  0  0  0  0  0
  150.2623  143.0473  157.2606 H   0  0  0  0  0  0  0  0  0  0  0  0
  149.0738  137.2062  158.1186 H   0  0  0  0  0  0  0  0  0  0  0  0
  148.8493  137.8669  152.5989 H   0  0  0  0  0  0  0  0  0  0  0  0
  145.0486  139.5126  152.2156 H   0  0  0  0  0  0  0  0  0  0  0  0
  1  2  1  0  0  0  0
  1 32  1  0  0  0  0
  2  3  1  0  0  0  0
  2 33  1  0  0  0  0
  2 34  1  0  0  0  0
  3 28  1  0  0  0  0
  3 26  1  0  0  0  0
  3  4  1  0  0  0  0
  4  5  1  0  0  0  0
  5 29  1  0  0  0  0
  5  6  1  0  0  0  0
  5 24  1  0  0  0  0
  6 23  1  0  0  0  0
  6  7  1  0  0  0  0
  7  8  2  0  0  0  0
  7 35  1  0  0  0  0
  8  9  1  0  0  0  0
  9 23  2  0  0  0  0
  9 10  1  0  0  0  0
 10 11  1  0  0  0  0
 10 20  2  0  0  0  0
 11 19  1  0  0  0  0
 11 12  1  0  0  0  0
 12 13  1  0  0  0  0
 12 36  1  0  0  0  0
 12 37  1  0  0  0  0
 13 14  1  0  0  0  0
 13 38  1  0  0  0  0
 13 39  1  0  0  0  0
 14 19  2  0  0  0  0
 14 15  1  0  0  0  0
 15 16  2  0  0  0  0
 15 40  1  0  0  0  0
 16 17  1  0  0  0  0
 16 41  1  0  0  0  0
 17 18  2  0  0  0  0
 17 42  1  0  0  0  0
 18 19  1  0  0  0  0
 18 43  1  0  0  0  0
 20 21  1  0  0  0  0
 21 22  2  0  0  0  0
 21 44  1  0  0  0  0
 22 23  1  0  0  0  0
 24 30  1  0  0  0  0
 24 25  1  0  0  0  0
 24 26  1  0  0  0  0
 25 45  1  0  0  0  0
 26 31  1  0  0  0  0
 26 27  1  0  0  0  0
 27 46  1  0  0  0  0
M  END
> <s_m_source_file>
AV-unprocessed.smi

> <i_m_source_file_index>
110

> <i_lp_mmshare_version>
43012

> <i_f3d_flags>
0

> <s_epik_input>
W09IXVtDSDJdW0NASF0xT1tDQEhdKFtDQEhdKFtPSF0pW0NAQEhdMVtPSF0pbihbY0hdbjIpYyhjMjMpbltjSF1uYzNOKFtDSDJdW0NIMl00KWMoYzQ1KVtjSF1bY0hdW2NIXVtjSF01

> <s_epik_cmdline>
J2VwaWtfcHl0aG9uJywgJy1waCcsICc3LjAnLCAnLXRuJywgJzgnLCAnLW1hJywgJzIwMCcsICctbWV0YWxfYmluZGluZycsICctaW1hZScsICc8aW5maWxlLm1hZT4nLCAnLW9tYWUnLCAnPG91dGZpbGUubWFlPic=

> <r_lp_tautomer_probability>
1

> <r_epik_Ionization_Penalty>
0.00068475

> <r_epik_Ionization_Penalty_Charging>
0

> <r_epik_Ionization_Penalty_Neutral>
0.00068475

> <r_epik_State_Penalty>
0.000417442

> <r_epik_Charging_Adjusted_Penalty>
0.000417442

> <i_epik_Tot_Q>
0

> <i_epik_Tot_abs_Q>
0

> <r_epik_Metal_State_Penalty>
-0

> <b_epik_Metal_Only>
0

> <s_epik_Chemistry_Notes>
This compound contains an acetal/aminal-like group ( X-CH(R)-Y where X, Y are N, S, or O) that may be acid/base labile, releasing an aldehyde.

> <s_lp_Force_Field>
OPLS_2005

> <r_lp_Energy>
58.5768

> <b_lp_Chiralities_Consistent>
1

> <s_lp_Variant>
AV-unprocessed.smi:110-5

> <Gold.Version>
5.8.1

> <Gold.Id.Protein>
6NUR|6NUR_protein|mol2

> <Gold.PLP.Fitness>
50.5531

> <Gold.PLP.PLP>
-42.0488

> <Gold.PLP.part.hbond>
-4.6050

> <Gold.PLP.part.metal>
0.0000

> <Gold.PLP.part.buried>
-3.6917

> <Gold.PLP.part.nonpolar>
-35.4391

> <Gold.PLP.part.repulsive>
1.0245

> <Gold.PLP.ligand.clash>
0.0000

> <Gold.PLP.ligand.torsion>
1.0312

> <Gold.PLP.Chemscore.Hbond>
2.9920

> <Gold.PLP.Chemscore.CHOScore>
0.5087

> <Gold.PLP.Chemscore.Metal>
0.0000

> <Gold.Chemscore.Hbonds>
donor molecule, donor type, donor heavy atom, donor atom, acceptor molecule, acceptor atom, score
      L1  H     1    32       P1  7948  0.81
      L1  H    25    45       P1  7948  1.00
      L1  H    27    46       P1 10175  1.00
      L1  C     7    35       P1  8028  0.43

> <Gold.PLP.Chemscore.Internal.Correction>
0.0647

> <Gold.Rescore>
     Score         DG    S(hbond)    S(metal)    S(lipo)     H(rot)  DE(clash)    DE(int)     intcor
     13.33     -18.83       2.94        0.00     104.14       3.38       1.50       4.01       ----

> <Gold.Chemscore.Fitness>
13.3295

> <Gold.Chemscore.DG>
-18.8343

> <Gold.Chemscore.ZeroCoef>
-5.4800

> <Gold.Chemscore.Hbond>
2.9437

> <Gold.Chemscore.Metal>
0.0000

> <Gold.Chemscore.Lipo>
104.1424

> <Gold.Chemscore.Internal_Hbond>
0.0000

> <Gold.Chemscore.DEClash>
1.4968

> <Gold.Chemscore.DEInternal>
4.0081

> <Gold.Chemscore.Rot>
3.3837

> <Gold.Chemscore.Internal.Correction>
   9.000000E+99

> <Gold.Chemscore.Hbonds>
donor molecule, donor type, donor heavy atom, donor atom, acceptor molecule, acceptor atom, score
      L1  H     1    32       P1  7948  0.77
      L1  H    25    45       P1  7948  1.00
      L1  H    27    46       P1 10175  0.97

> <Gold.Chemscore.Hbond.Weighted>
-9.8318

> <Gold.Chemscore.Metal.Weighted>
-0.0000

> <Gold.Chemscore.Lipo.Weighted>
-12.1847

> <Gold.Chemscore.Internal_Hbond.Weighted>
0.0000

> <Gold.Chemscore.DEClash.Weighted>
1.4968

> <Gold.Chemscore.DEInternal.Weighted>
4.0081

> <Gold.Chemscore.Rot.Weighted>
8.6622

> <Gold.Chemscore.Internal.Correction.Weighted>
   9.000000E+99

> <Gold.Protein.RotatedTorsions>
[ 6907 6896 6895 6894 ] final  132.03 input  -60.11 | X-H torsion
[ 7974 7965 7964 7962 ] final  175.02 input  175.53 | X-H torsion
[ 8008 7997 7996 7995 ] final  -72.95 input   59.86 | X-H torsion
[ 10167 10162 10161 10158 ] final -124.83 input  -65.29 | X-H torsion
[ 10718 10713 10712 10709 ] final  -53.62 input   66.30 | X-H torsion
[ 10763 10752 10751 10750 ] final  108.18 input  -60.55 | X-H torsion
[ 11005 11000 10999 10996 ] final  -80.86 input  -57.11 | X-H torsion

> <Gold.Protein.ActiveResidues>
 VAL166  LYS551  ARG553  GLY616  TRP617  ASP618  TYR619  PRO620  LYS621  CYS622 
 ASP623  PHE694  ASN695  SER759  ASP760  ASP761  ALA762  ILE779  LEU786  VAL792 
 PHE793  MET794  SER795  GLU796  ALA797  LYS798  CYS799  TRP800  GLU811  SER814 

> <Gold.Protein.RotatedAtoms>
  152.3366  133.6018  159.5846 H   0  0  0  0  0  0  0  0  0  0  0  0  # atno 6907 bound_to 6896
  150.7454  133.9787  159.3578 H   0  0  0  0  0  0  0  0  0  0  0  0  # atno 6908 bound_to 6896
  151.7655  135.0800  160.0403 H   0  0  0  0  0  0  0  0  0  0  0  0  # atno 6909 bound_to 6896
  144.7210  139.9884  143.6439 H   0  0  0  0  0  0  0  0  0  0  0  0  # atno 7974 bound_to 7965
  154.5208  140.0788  156.8168 H   0  0  0  0  0  0  0  0  0  0  0  0  # atno 8008 bound_to 7997
  155.3581  140.3416  155.4222 H   0  0  0  0  0  0  0  0  0  0  0  0  # atno 8009 bound_to 7997
  156.1679  140.1610  156.8487 H   0  0  0  0  0  0  0  0  0  0  0  0  # atno 8010 bound_to 7997
  139.9886  143.5665  152.2350 H   0  0  0  0  0  0  0  0  0  0  0  0  # atno 10167 bound_to 10162
  156.1520  130.4151  149.9930 H   0  0  0  0  0  0  0  0  0  0  0  0  # atno 10718 bound_to 10713
  153.4170  135.3820  155.2087 H   0  0  0  0  0  0  0  0  0  0  0  0  # atno 10763 bound_to 10752
  154.8742  135.3808  154.4431 H   0  0  0  0  0  0  0  0  0  0  0  0  # atno 10764 bound_to 10752
  153.4946  135.7088  153.5928 H   0  0  0  0  0  0  0  0  0  0  0  0  # atno 10765 bound_to 10752
  141.1667  133.7170  156.8336 H   0  0  0  0  0  0  0  0  0  0  0  0  # atno 11005 bound_to 11000
  146.0431  139.3440  143.0685 LP  0  0  0  0  0  0  0  0  0  0  0  0  # atno 17320 bound_to 7965
  145.8309  140.9631  143.0849 LP  0  0  0  0  0  0  0  0  0  0  0  0  # atno 17321 bound_to 7965
  139.6356  144.7649  151.2444 LP  0  0  0  0  0  0  0  0  0  0  0  0  # atno 17342 bound_to 10162
  140.7463  143.6404  150.8340 LP  0  0  0  0  0  0  0  0  0  0  0  0  # atno 17343 bound_to 10162
  156.7785  130.9212  151.3645 LP  0  0  0  0  0  0  0  0  0  0  0  0  # atno 17370 bound_to 10713
  157.6664  130.9012  149.9942 LP  0  0  0  0  0  0  0  0  0  0  0  0  # atno 17371 bound_to 10713
  140.2033  134.8881  157.3193 LP  0  0  0  0  0  0  0  0  0  0  0  0  # atno 17394 bound_to 11000
  140.2164  134.4076  155.7587 LP  0  0  0  0  0  0  0  0  0  0  0  0  # atno 17395 bound_to 11000

$$$$
