AV-unprocessed.smi:2876|AV-procd|sdf|11042|dock1
  -GOLD-   2272015503D 1   1.00000     0.00000
 Structure written by MMmdl.
 25 26  0  0  0  0  0  0  0  0  2 V2000
  152.2492  137.5595  154.6498 O   0  0  0  0  0  0  0  0  0  0  0  0
  152.7995  138.5875  155.1004 C   0  0  0  0  0  0  0  0  0  0  0  0
  153.9514  138.9189  154.7374 O   0  5  0  0  0  0  0  0  0  0  0  0
  152.0819  139.4630  156.1029 C   0  0  0  0  0  0  0  0  0  0  0  0
  152.7344  139.6866  157.2712 N   0  0  0  0  0  0  0  0  0  0  0  0
  152.1425  140.4520  158.1911 C   0  0  0  0  0  0  0  0  0  0  0  0
  152.8204  140.6657  159.3765 N   0  0  0  0  0  0  0  0  0  0  0  0
  154.0403  139.8936  159.5739 C   0  0  0  0  0  0  0  0  0  0  0  0
  154.5134  140.0067  161.0336 C   0  0  0  0  0  0  0  0  0  0  0  0
  154.6823  141.3785  161.3776 O   0  0  0  0  0  0  0  0  0  0  0  0
  153.4667  142.1110  161.2574 C   0  0  0  0  0  0  0  0  0  0  0  0
  152.9686  142.0513  159.8029 C   0  0  0  0  0  0  0  0  0  0  0  0
  150.9498  141.0364  158.0852 N   0  0  0  0  0  0  0  0  0  0  0  0
  150.2790  140.8319  156.9332 C   0  0  0  0  0  0  0  0  0  0  0  0
  150.7968  140.0431  155.8855 C   0  0  0  0  0  0  0  0  0  0  0  0
  149.8445  139.8503  154.4522 Cl  0  0  0  0  0  0  0  0  0  0  0  0
  153.8614  138.8485  159.3178 H   0  0  0  0  0  0  0  0  0  0  0  0
  154.8142  140.2620  158.8990 H   0  0  0  0  0  0  0  0  0  0  0  0
  153.7993  139.5361  161.7113 H   0  0  0  0  0  0  0  0  0  0  0  0
  155.4639  139.4888  161.1622 H   0  0  0  0  0  0  0  0  0  0  0  0
  152.7180  141.7085  161.9417 H   0  0  0  0  0  0  0  0  0  0  0  0
  153.6446  143.1453  161.5522 H   0  0  0  0  0  0  0  0  0  0  0  0
  153.6737  142.5596  159.1437 H   0  0  0  0  0  0  0  0  0  0  0  0
  152.0130  142.5693  159.7125 H   0  0  0  0  0  0  0  0  0  0  0  0
  149.3124  141.3059  156.8466 H   0  0  0  0  0  0  0  0  0  0  0  0
  1  2  2  0  0  0  0
  2  3  1  0  0  0  0
  2  4  1  0  0  0  0
  4 15  1  0  0  0  0
  4  5  2  0  0  0  0
  5  6  1  0  0  0  0
  6  7  1  0  0  0  0
  6 13  2  0  0  0  0
  7 12  1  0  0  0  0
  7  8  1  0  0  0  0
  8  9  1  0  0  0  0
  8 17  1  0  0  0  0
  8 18  1  0  0  0  0
  9 10  1  0  0  0  0
  9 19  1  0  0  0  0
  9 20  1  0  0  0  0
 10 11  1  0  0  0  0
 11 12  1  0  0  0  0
 11 21  1  0  0  0  0
 11 22  1  0  0  0  0
 12 23  1  0  0  0  0
 12 24  1  0  0  0  0
 13 14  1  0  0  0  0
 14 15  2  0  0  0  0
 14 25  1  0  0  0  0
 15 16  1  0  0  0  0
M  CHG  1   3  -1
M  END
> <s_m_source_file>
AV-unprocessed.smi

> <i_m_source_file_index>
2876

> <i_lp_mmshare_version>
43012

> <i_f3d_flags>
0

> <s_epik_input>
Tz1DKFtPSF0pYzFuYyhuW2NIXWMxQ2wpTjJbQ0gyXVtDSDJdT1tDSDJdW0NIMl0y

> <s_epik_cmdline>
J2VwaWtfcHl0aG9uJywgJy1waCcsICc3LjAnLCAnLXRuJywgJzgnLCAnLW1hJywgJzIwMCcsICctbWV0YWxfYmluZGluZycsICctaW1hZScsICc8aW5maWxlLm1hZT4nLCAnLW9tYWUnLCAnPG91dGZpbGUubWFlPic=

> <r_lp_tautomer_probability>
1

> <r_epik_Ionization_Penalty>
2.42258e-06

> <r_epik_Ionization_Penalty_Charging>
2.2596e-06

> <r_epik_Ionization_Penalty_Neutral>
1.62982e-07

> <r_epik_State_Penalty>
-0

> <r_epik_Charging_Adjusted_Penalty>
2.2596e-06

> <i_epik_Tot_Q>
-1

> <i_epik_Tot_abs_Q>
1

> <r_epik_Metal_State_Penalty>
-0

> <b_epik_Metal_Only>
0

> <s_lp_Force_Field>
OPLS_2005

> <r_lp_Energy>
19.4651

> <b_lp_Chiralities_Consistent>
1

> <s_lp_Variant>
AV-unprocessed.smi:2876-1

> <Gold.Version>
5.8.1

> <Gold.Id.Protein>
6NUR|6NUR_protein|mol2

> <Gold.PLP.Fitness>
40.4542

> <Gold.PLP.PLP>
-31.8729

> <Gold.PLP.part.hbond>
-4.0000

> <Gold.PLP.part.metal>
0.0000

> <Gold.PLP.part.buried>
-3.4161

> <Gold.PLP.part.nonpolar>
-24.3363

> <Gold.PLP.part.repulsive>
0.1067

> <Gold.PLP.ligand.clash>
0.0000

> <Gold.PLP.ligand.torsion>
1.1525

> <Gold.PLP.Chemscore.Hbond>
3.5438

> <Gold.PLP.Chemscore.CHOScore>
0.0000

> <Gold.PLP.Chemscore.Metal>
0.0000

> <Gold.Chemscore.Hbonds>
donor molecule, donor type, donor heavy atom, donor atom, acceptor molecule, acceptor atom, score
      P1  H  7997  8008       L1     5  0.52
      P1  H  7997  8009       L1     3  1.54
      P1  H 10752 10763       L1     1  1.37

> <Gold.PLP.Chemscore.Internal.Correction>
0.2549

> <Gold.Rescore>
     Score         DG    S(hbond)    S(metal)    S(lipo)     H(rot)  DE(clash)    DE(int)     intcor
     15.28     -16.58       1.98        0.00      60.33       1.00       0.12       1.18       ----

> <Gold.Chemscore.Fitness>
15.2813

> <Gold.Chemscore.DG>
-16.5833

> <Gold.Chemscore.ZeroCoef>
-5.4800

> <Gold.Chemscore.Hbond>
1.9774

> <Gold.Chemscore.Metal>
0.0000

> <Gold.Chemscore.Lipo>
60.3326

> <Gold.Chemscore.Internal_Hbond>
0.0000

> <Gold.Chemscore.DEClash>
0.1223

> <Gold.Chemscore.DEInternal>
1.1797

> <Gold.Chemscore.Rot>
1.0000

> <Gold.Chemscore.Internal.Correction>
   9.000000E+99

> <Gold.Chemscore.Hbonds>
donor molecule, donor type, donor heavy atom, donor atom, acceptor molecule, acceptor atom, score
      P1  H  7997  8008       L1     5  0.38
      P1  H  7997  8009       L1     3  0.77
      P1  H 10752 10763       L1     1  0.66

> <Gold.Chemscore.Hbond.Weighted>
-6.6044

> <Gold.Chemscore.Metal.Weighted>
-0.0000

> <Gold.Chemscore.Lipo.Weighted>
-7.0589

> <Gold.Chemscore.Internal_Hbond.Weighted>
0.0000

> <Gold.Chemscore.DEClash.Weighted>
0.1223

> <Gold.Chemscore.DEInternal.Weighted>
1.1797

> <Gold.Chemscore.Rot.Weighted>
2.5600

> <Gold.Chemscore.Internal.Correction.Weighted>
   9.000000E+99

> <Gold.Protein.RotatedTorsions>
[ 6907 6896 6895 6894 ] final -131.35 input  -60.11 | X-H torsion
[ 7974 7965 7964 7962 ] final -143.96 input  175.53 | X-H torsion
[ 8008 7997 7996 7995 ] final -100.50 input   59.86 | X-H torsion
[ 10167 10162 10161 10158 ] final   39.92 input  -65.29 | X-H torsion
[ 10718 10713 10712 10709 ] final  -28.73 input   66.30 | X-H torsion
[ 10763 10752 10751 10750 ] final   41.74 input  -60.55 | X-H torsion
[ 11005 11000 10999 10996 ] final    3.36 input  -57.11 | X-H torsion

> <Gold.Protein.ActiveResidues>
 VAL166  LYS551  ARG553  GLY616  TRP617  ASP618  TYR619  PRO620  LYS621  CYS622 
 ASP623  PHE694  ASN695  SER759  ASP760  ASP761  ALA762  ILE779  LEU786  VAL792 
 PHE793  MET794  SER795  GLU796  ALA797  LYS798  CYS799  TRP800  GLU811  SER814 

> <Gold.Protein.RotatedAtoms>
  150.9499  133.6561  159.2773 H   0  0  0  0  0  0  0  0  0  0  0  0  # atno 6907 bound_to 6896
  151.3920  135.0956  159.9539 H   0  0  0  0  0  0  0  0  0  0  0  0  # atno 6908 bound_to 6896
  152.5105  133.9012  159.7496 H   0  0  0  0  0  0  0  0  0  0  0  0  # atno 6909 bound_to 6896
  144.8332  140.5769  143.5501 H   0  0  0  0  0  0  0  0  0  0  0  0  # atno 7974 bound_to 7965
  154.8295  140.0440  157.1467 H   0  0  0  0  0  0  0  0  0  0  0  0  # atno 8008 bound_to 7997
  154.9169  140.3021  155.5216 H   0  0  0  0  0  0  0  0  0  0  0  0  # atno 8009 bound_to 7997
  156.2986  140.2348  156.4214 H   0  0  0  0  0  0  0  0  0  0  0  0  # atno 8010 bound_to 7997
  140.3792  144.2002  150.6131 H   0  0  0  0  0  0  0  0  0  0  0  0  # atno 10167 bound_to 10162
  156.4215  130.4427  149.7180 H   0  0  0  0  0  0  0  0  0  0  0  0  # atno 10718 bound_to 10713
  152.9900  135.6152  154.2837 H   0  0  0  0  0  0  0  0  0  0  0  0  # atno 10763 bound_to 10752
  154.2565  135.2783  155.2797 H   0  0  0  0  0  0  0  0  0  0  0  0  # atno 10764 bound_to 10752
  154.5243  135.5806  153.6763 H   0  0  0  0  0  0  0  0  0  0  0  0  # atno 10765 bound_to 10752
  140.5940  133.9897  155.8101 H   0  0  0  0  0  0  0  0  0  0  0  0  # atno 11005 bound_to 11000
  145.4852  139.1492  143.3740 LP  0  0  0  0  0  0  0  0  0  0  0  0  # atno 17320 bound_to 7965
  146.2633  140.4989  142.8844 LP  0  0  0  0  0  0  0  0  0  0  0  0  # atno 17321 bound_to 7965
  140.4955  143.2334  151.8756 LP  0  0  0  0  0  0  0  0  0  0  0  0  # atno 17342 bound_to 10162
  139.4797  144.5118  151.8921 LP  0  0  0  0  0  0  0  0  0  0  0  0  # atno 17343 bound_to 10162
  156.4119  130.7726  151.2739 LP  0  0  0  0  0  0  0  0  0  0  0  0  # atno 17370 bound_to 10713
  157.7508  131.0209  150.3727 LP  0  0  0  0  0  0  0  0  0  0  0  0  # atno 17371 bound_to 10713
  141.0916  133.9908  157.3228 LP  0  0  0  0  0  0  0  0  0  0  0  0  # atno 17394 bound_to 11000
  139.9261  135.0201  156.8240 LP  0  0  0  0  0  0  0  0  0  0  0  0  # atno 17395 bound_to 11000

$$$$
