AV-unprocessed.smi:1544|AV-procd|sdf|6212|dock2
  -GOLD-   22720 6383D 1   1.00000     0.00000
 Structure written by MMmdl.
 41 42  0  0  0  0  0  0  0  0  1 V2000
  146.1553  138.6360  154.3353 O   0  0  0  0  0  0  0  0  0  0  0  0
  147.0193  138.0717  153.6646 C   0  0  0  0  0  0  0  0  0  0  0  0
  148.3379  138.3249  153.7281 N   0  0  0  0  0  0  0  0  0  0  0  0
  149.0088  139.2928  154.5230 C   0  0  0  0  0  0  0  0  0  0  0  0
  148.3524  140.2070  155.3809 C   0  0  0  0  0  0  0  0  0  0  0  0
  149.1251  141.1336  156.1064 C   0  0  0  0  0  0  0  0  0  0  0  0
  150.5251  141.1256  155.9493 C   0  0  0  0  0  0  0  0  0  0  0  0
  151.2738  142.0341  156.6682 O   0  0  0  0  0  0  0  0  0  0  0  0
  150.6637  142.6956  157.7732 C   0  0  0  0  0  0  0  0  0  0  0  0
  151.6937  143.6141  158.4412 C   0  0  0  0  0  0  0  0  0  0  0  0
  152.6642  142.8727  158.9736 F   0  0  0  0  0  0  0  0  0  0  0  0
  152.2299  144.4376  157.5407 F   0  0  0  0  0  0  0  0  0  0  0  0
  151.1177  144.3251  159.4105 F   0  0  0  0  0  0  0  0  0  0  0  0
  151.1598  140.2631  155.1172 N   0  0  0  0  0  0  0  0  0  0  0  0
  150.4129  139.3784  154.4233 C   0  0  0  0  0  0  0  0  0  0  0  0
  146.7532  137.0971  152.7827 N   0  0  0  0  0  0  0  0  0  0  0  0
  145.4262  136.5586  152.4964 C   0  0  2  0  0  0  0  0  0  0  0  0
  144.9230  135.7531  153.7097 C   0  0  0  0  0  0  0  0  0  0  0  0
  143.5468  135.1244  153.4365 C   0  0  0  0  0  0  0  0  0  0  0  0
  143.5785  134.2489  152.1722 C   0  0  1  0  0  0  0  0  0  0  0  0
  142.2835  133.7496  151.9133 O   0  0  0  0  0  0  0  0  0  0  0  0
  144.0726  135.0516  150.9566 C   0  0  0  0  0  0  0  0  0  0  0  0
  145.4496  135.6782  151.2287 C   0  0  0  0  0  0  0  0  0  0  0  0
  148.9356  137.7151  153.1895 H   0  0  0  0  0  0  0  0  0  0  0  0
  147.2787  140.2250  155.4858 H   0  0  0  0  0  0  0  0  0  0  0  0
  148.6507  141.8409  156.7707 H   0  0  0  0  0  0  0  0  0  0  0  0
  149.8102  143.2863  157.4360 H   0  0  0  0  0  0  0  0  0  0  0  0
  150.2999  141.9646  158.4974 H   0  0  0  0  0  0  0  0  0  0  0  0
  150.9578  138.7117  153.7708 H   0  0  0  0  0  0  0  0  0  0  0  0
  147.5268  136.6875  152.2799 H   0  0  0  0  0  0  0  0  0  0  0  0
  144.7386  137.3913  152.3346 H   0  0  0  0  0  0  0  0  0  0  0  0
  145.6370  134.9648  153.9525 H   0  0  0  0  0  0  0  0  0  0  0  0
  144.8632  136.3970  154.5880 H   0  0  0  0  0  0  0  0  0  0  0  0
  143.2348  134.5301  154.2962 H   0  0  0  0  0  0  0  0  0  0  0  0
  142.8044  135.9156  153.3214 H   0  0  0  0  0  0  0  0  0  0  0  0
  144.2404  133.3978  152.3376 H   0  0  0  0  0  0  0  0  0  0  0  0
  142.1048  133.8414  150.9899 H   0  0  0  0  0  0  0  0  0  0  0  0
  144.1275  134.4083  150.0777 H   0  0  0  0  0  0  0  0  0  0  0  0
  143.3586  135.8416  150.7186 H   0  0  0  0  0  0  0  0  0  0  0  0
  145.7560  136.2673  150.3635 H   0  0  0  0  0  0  0  0  0  0  0  0
  146.1916  134.8863  151.3410 H   0  0  0  0  0  0  0  0  0  0  0  0
  1  2  2  0  0  0  0
  2  3  1  0  0  0  0
  2 16  1  0  0  0  0
  3  4  1  0  0  0  0
  3 24  1  0  0  0  0
  4 15  1  0  0  0  0
  4  5  2  0  0  0  0
  5  6  1  0  0  0  0
  5 25  1  0  0  0  0
  6  7  2  0  0  0  0
  6 26  1  0  0  0  0
  7  8  1  0  0  0  0
  7 14  1  0  0  0  0
  8  9  1  0  0  0  0
  9 10  1  0  0  0  0
  9 27  1  0  0  0  0
  9 28  1  0  0  0  0
 10 11  1  0  0  0  0
 10 12  1  0  0  0  0
 10 13  1  0  0  0  0
 14 15  2  0  0  0  0
 15 29  1  0  0  0  0
 16 17  1  0  0  0  0
 16 30  1  0  0  0  0
 17 23  1  0  0  0  0
 17 18  1  0  0  0  0
 17 31  1  0  0  0  0
 18 19  1  0  0  0  0
 18 32  1  0  0  0  0
 18 33  1  0  0  0  0
 19 20  1  0  0  0  0
 19 34  1  0  0  0  0
 19 35  1  0  0  0  0
 20 21  1  0  0  0  0
 20 22  1  0  0  0  0
 20 36  1  0  0  0  0
 21 37  1  0  0  0  0
 22 23  1  0  0  0  0
 22 38  1  0  0  0  0
 22 39  1  0  0  0  0
 23 40  1  0  0  0  0
 23 41  1  0  0  0  0
M  END
> <s_m_source_file>
AV-unprocessed.smi

> <i_m_source_file_index>
1544

> <i_lp_mmshare_version>
43012

> <i_f3d_flags>
0

> <s_epik_input>
W0NIMl0xW0NIMl1bQ0BIXShbT0hdKVtDSDJdW0NIMl1bQ0BIXTFbTkhdQyg9TylbTkhdYzJbY0hdW2NIXWMobltjSF0yKU9bQ0gyXUMoRikoRilG

> <s_epik_cmdline>
J2VwaWtfcHl0aG9uJywgJy1waCcsICc3LjAnLCAnLXRuJywgJzgnLCAnLW1hJywgJzIwMCcsICctbWV0YWxfYmluZGluZycsICctaW1hZScsICc8aW5maWxlLm1hZT4nLCAnLW9tYWUnLCAnPG91dGZpbGUubWFlPic=

> <r_lp_tautomer_probability>
1

> <r_epik_Ionization_Penalty>
4.43219e-05

> <r_epik_Ionization_Penalty_Charging>
0

> <r_epik_Ionization_Penalty_Neutral>
4.43219e-05

> <r_epik_State_Penalty>
-0

> <r_epik_Charging_Adjusted_Penalty>
0

> <i_epik_Tot_Q>
0

> <i_epik_Tot_abs_Q>
0

> <r_epik_Metal_State_Penalty>
-0

> <b_epik_Metal_Only>
0

> <s_lp_Force_Field>
OPLS_2005

> <r_lp_Energy>
9.52155

> <b_lp_Chiralities_Consistent>
1

> <s_lp_Variant>
AV-unprocessed.smi:1544-1

> <Gold.Version>
5.8.1

> <Gold.Id.Protein>
6NUR|6NUR_protein|mol2

> <Gold.PLP.Fitness>
49.4848

> <Gold.PLP.PLP>
-40.5169

> <Gold.PLP.part.hbond>
-3.9908

> <Gold.PLP.part.metal>
0.0000

> <Gold.PLP.part.buried>
-4.6181

> <Gold.PLP.part.nonpolar>
-31.9469

> <Gold.PLP.part.repulsive>
0.2628

> <Gold.PLP.ligand.clash>
0.0000

> <Gold.PLP.ligand.torsion>
0.3397

> <Gold.PLP.Chemscore.Hbond>
3.2120

> <Gold.PLP.Chemscore.CHOScore>
0.0000

> <Gold.PLP.Chemscore.Metal>
0.0000

> <Gold.Chemscore.Hbonds>
donor molecule, donor type, donor heavy atom, donor atom, acceptor molecule, acceptor atom, score
      L1  H     3    24       P1  7948  0.91
      L1  H    16    30       P1  7948  1.00
      L1  H    21    37       P1 10186  1.00
      P1  H  7989  7998       L1    14  0.25

> <Gold.PLP.Chemscore.Internal.Correction>
0.0112

> <Gold.Rescore>
     Score         DG    S(hbond)    S(metal)    S(lipo)     H(rot)  DE(clash)    DE(int)     intcor
     14.17     -15.83       2.61        0.00      64.68       2.31       0.06       1.60       ----

> <Gold.Chemscore.Fitness>
14.1749

> <Gold.Chemscore.DG>
-15.8345

> <Gold.Chemscore.ZeroCoef>
-5.4800

> <Gold.Chemscore.Hbond>
2.6057

> <Gold.Chemscore.Metal>
0.0000

> <Gold.Chemscore.Lipo>
64.6780

> <Gold.Chemscore.Internal_Hbond>
0.0000

> <Gold.Chemscore.DEClash>
0.0558

> <Gold.Chemscore.DEInternal>
1.6038

> <Gold.Chemscore.Rot>
2.3109

> <Gold.Chemscore.Internal.Correction>
   9.000000E+99

> <Gold.Chemscore.Hbonds>
donor molecule, donor type, donor heavy atom, donor atom, acceptor molecule, acceptor atom, score
      L1  H     3    24       P1  7948  0.87
      L1  H    16    30       P1  7948  0.94
      L1  H    21    37       P1 10186  0.37

> <Gold.Chemscore.Hbond.Weighted>
-8.7030

> <Gold.Chemscore.Metal.Weighted>
-0.0000

> <Gold.Chemscore.Lipo.Weighted>
-7.5673

> <Gold.Chemscore.Internal_Hbond.Weighted>
0.0000

> <Gold.Chemscore.DEClash.Weighted>
0.0558

> <Gold.Chemscore.DEInternal.Weighted>
1.6038

> <Gold.Chemscore.Rot.Weighted>
5.9158

> <Gold.Chemscore.Internal.Correction.Weighted>
   9.000000E+99

> <Gold.Protein.RotatedTorsions>
[ 6907 6896 6895 6894 ] final -102.34 input  -60.11 | X-H torsion
[ 7974 7965 7964 7962 ] final   14.48 input  175.53 | X-H torsion
[ 8008 7997 7996 7995 ] final   38.77 input   59.86 | X-H torsion
[ 10167 10162 10161 10158 ] final  -62.90 input  -65.29 | X-H torsion
[ 10718 10713 10712 10709 ] final   64.33 input   66.30 | X-H torsion
[ 10763 10752 10751 10750 ] final   82.96 input  -60.55 | X-H torsion
[ 11005 11000 10999 10996 ] final  -74.69 input  -57.11 | X-H torsion

> <Gold.Protein.ActiveResidues>
 VAL166  LYS551  ARG553  GLY616  TRP617  ASP618  TYR619  PRO620  LYS621  CYS622 
 ASP623  PHE694  ASN695  SER759  ASP760  ASP761  ALA762  ILE779  LEU786  VAL792 
 PHE793  MET794  SER795  GLU796  ALA797  LYS798  CYS799  TRP800  GLU811  SER814 

> <Gold.Protein.RotatedAtoms>
  150.7192  134.0597  159.3826 H   0  0  0  0  0  0  0  0  0  0  0  0  # atno 6907 bound_to 6896
  151.8576  135.0533  160.0475 H   0  0  0  0  0  0  0  0  0  0  0  0  # atno 6908 bound_to 6896
  152.2742  133.5374  159.5494 H   0  0  0  0  0  0  0  0  0  0  0  0  # atno 6909 bound_to 6896
  146.2304  139.9035  142.8535 H   0  0  0  0  0  0  0  0  0  0  0  0  # atno 7974 bound_to 7965
  155.2256  140.3334  155.4310 H   0  0  0  0  0  0  0  0  0  0  0  0  # atno 8008 bound_to 7997
  156.2315  140.1853  156.7276 H   0  0  0  0  0  0  0  0  0  0  0  0  # atno 8009 bound_to 7997
  154.5987  140.0626  156.9324 H   0  0  0  0  0  0  0  0  0  0  0  0  # atno 8010 bound_to 7997
  140.5907  143.2341  151.6145 H   0  0  0  0  0  0  0  0  0  0  0  0  # atno 10167 bound_to 10162
  157.6032  130.9154  149.9831 H   0  0  0  0  0  0  0  0  0  0  0  0  # atno 10718 bound_to 10713
  153.1248  135.4709  154.9255 H   0  0  0  0  0  0  0  0  0  0  0  0  # atno 10763 bound_to 10752
  154.7610  135.3131  154.8381 H   0  0  0  0  0  0  0  0  0  0  0  0  # atno 10764 bound_to 10752
  153.8936  135.6882  153.4813 H   0  0  0  0  0  0  0  0  0  0  0  0  # atno 10765 bound_to 10752
  141.1638  133.6920  156.7403 H   0  0  0  0  0  0  0  0  0  0  0  0  # atno 11005 bound_to 11000
  145.2300  140.9969  143.3996 LP  0  0  0  0  0  0  0  0  0  0  0  0  # atno 17320 bound_to 7965
  144.9538  139.4053  143.6389 LP  0  0  0  0  0  0  0  0  0  0  0  0  # atno 17321 bound_to 7965
  139.5226  144.3158  152.0953 LP  0  0  0  0  0  0  0  0  0  0  0  0  # atno 17342 bound_to 10162
  140.2323  144.4356  150.6295 LP  0  0  0  0  0  0  0  0  0  0  0  0  # atno 17343 bound_to 10162
  156.1111  130.3650  150.0048 LP  0  0  0  0  0  0  0  0  0  0  0  0  # atno 17370 bound_to 10713
  156.8146  130.9337  151.3643 LP  0  0  0  0  0  0  0  0  0  0  0  0  # atno 17371 bound_to 10713
  140.2679  134.8415  157.3820 LP  0  0  0  0  0  0  0  0  0  0  0  0  # atno 17394 bound_to 11000
  140.1549  134.4802  155.7935 LP  0  0  0  0  0  0  0  0  0  0  0  0  # atno 17395 bound_to 11000

$$$$
