AV-unprocessed.smi:2747|AV-procd|sdf|10577|dock8
  -GOLD-   2272015 33D 1   1.00000     0.00000
 Structure written by MMmdl.
 24 25  0  0  0  0  0  0  0  0  1 V2000
  154.5191  136.5104  161.1085 O   0  0  0  0  0  0  0  0  0  0  0  0
  154.2874  137.3132  162.2514 C   0  0  2  0  0  0  0  0  0  0  0  0
  155.0118  138.6648  162.0894 C   0  0  0  0  0  0  0  0  0  0  0  0
  154.5016  139.4371  160.9706 N   0  0  0  0  0  0  0  0  0  0  0  0
  154.5391  138.9025  159.7174 N   0  0  0  0  0  0  0  0  0  0  0  0
  154.0410  139.7645  158.8823 N   0  0  0  0  0  0  0  0  0  0  0  0
  153.6683  140.8896  159.5987 C   0  0  0  0  0  0  0  0  0  0  0  0
  153.0836  142.1114  159.1976 C   0  0  0  0  0  0  0  0  0  0  0  0
  152.8033  143.1158  160.1499 C   0  0  0  0  0  0  0  0  0  0  0  0
  152.0898  144.5974  159.6199 Cl  0  0  0  0  0  0  0  0  0  0  0  0
  153.1055  142.9078  161.5176 C   0  0  0  0  0  0  0  0  0  0  0  0
  152.7719  144.1269  162.6955 Cl  0  0  0  0  0  0  0  0  0  0  0  0
  153.6873  141.6931  161.9322 C   0  0  0  0  0  0  0  0  0  0  0  0
  153.9576  140.7069  160.9684 C   0  0  0  0  0  0  0  0  0  0  0  0
  154.7304  136.5444  163.5106 C   0  0  0  0  0  0  0  0  0  0  0  0
  154.2932  137.1658  164.6061 F   0  0  0  0  0  0  0  0  0  0  0  0
  154.2714  135.2924  163.4934 F   0  0  0  0  0  0  0  0  0  0  0  0
  156.0620  136.5092  163.5617 F   0  0  0  0  0  0  0  0  0  0  0  0
  154.2540  136.9951  160.3418 H   0  0  0  0  0  0  0  0  0  0  0  0
  153.2129  137.4911  162.3132 H   0  0  0  0  0  0  0  0  0  0  0  0
  154.9082  139.2626  162.9960 H   0  0  0  0  0  0  0  0  0  0  0  0
  156.0812  138.5091  161.9427 H   0  0  0  0  0  0  0  0  0  0  0  0
  152.8515  142.2767  158.1557 H   0  0  0  0  0  0  0  0  0  0  0  0
  153.9236  141.5224  162.9722 H   0  0  0  0  0  0  0  0  0  0  0  0
  1  2  1  0  0  0  0
  1 19  1  0  0  0  0
  2  3  1  0  0  0  0
  2 15  1  0  0  0  0
  2 20  1  0  0  0  0
  3  4  1  0  0  0  0
  3 21  1  0  0  0  0
  3 22  1  0  0  0  0
  4 14  1  0  0  0  0
  4  5  1  0  0  0  0
  5  6  2  0  0  0  0
  6  7  1  0  0  0  0
  7 14  2  0  0  0  0
  7  8  1  0  0  0  0
  8  9  2  0  0  0  0
  8 23  1  0  0  0  0
  9 10  1  0  0  0  0
  9 11  1  0  0  0  0
 11 12  1  0  0  0  0
 11 13  2  0  0  0  0
 13 14  1  0  0  0  0
 13 24  1  0  0  0  0
 15 16  1  0  0  0  0
 15 17  1  0  0  0  0
 15 18  1  0  0  0  0
M  END
> <s_m_source_file>
AV-unprocessed.smi

> <i_m_source_file_index>
2747

> <i_lp_mmshare_version>
43012

> <i_f3d_flags>
0

> <s_epik_input>
RkMoRikoRilbQ0BIXShbT0hdKVtDSDJdbihubjEpYyhjMTIpW2NIXWMoQ2wpYyhDbClbY0hdMg==

> <s_epik_cmdline>
J2VwaWtfcHl0aG9uJywgJy1waCcsICc3LjAnLCAnLXRuJywgJzgnLCAnLW1hJywgJzIwMCcsICctbWV0YWxfYmluZGluZycsICctaW1hZScsICc8aW5maWxlLm1hZT4nLCAnLW9tYWUnLCAnPG91dGZpbGUubWFlPic=

> <r_lp_tautomer_probability>
1

> <r_epik_Ionization_Penalty>
0.0735676

> <r_epik_Ionization_Penalty_Charging>
0

> <r_epik_Ionization_Penalty_Neutral>
0.0735676

> <r_epik_State_Penalty>
0.0647209

> <r_epik_Charging_Adjusted_Penalty>
0.0647209

> <i_epik_Tot_Q>
0

> <i_epik_Tot_abs_Q>
0

> <r_epik_Metal_State_Penalty>
0.0647209

> <b_epik_Metal_Only>
0

> <s_lp_Force_Field>
OPLS_2005

> <r_lp_Energy>
9.1287

> <b_lp_Chiralities_Consistent>
1

> <s_lp_Variant>
AV-unprocessed.smi:2747-1

> <Gold.Version>
5.8.1

> <Gold.Id.Protein>
6NUR|6NUR_protein|mol2

> <Gold.PLP.Fitness>
45.1060

> <Gold.PLP.PLP>
-42.5328

> <Gold.PLP.part.hbond>
-1.0000

> <Gold.PLP.part.metal>
0.0000

> <Gold.PLP.part.buried>
-3.2492

> <Gold.PLP.part.nonpolar>
-36.1943

> <Gold.PLP.part.repulsive>
0.0000

> <Gold.PLP.ligand.clash>
0.0000

> <Gold.PLP.ligand.torsion>
0.2177

> <Gold.PLP.Chemscore.Hbond>
1.0000

> <Gold.PLP.Chemscore.CHOScore>
0.0000

> <Gold.PLP.Chemscore.Metal>
0.0000

> <Gold.Chemscore.Hbonds>
donor molecule, donor type, donor heavy atom, donor atom, acceptor molecule, acceptor atom, score
      P1  H  7997  8008       L1     6  1.00

> <Gold.PLP.Chemscore.Internal.Correction>
0.0086

> <Gold.Rescore>
     Score         DG    S(hbond)    S(metal)    S(lipo)     H(rot)  DE(clash)    DE(int)     intcor
     14.50     -16.60       0.95        0.00     110.05       1.92       0.54       1.56       ----

> <Gold.Chemscore.Fitness>
14.5017

> <Gold.Chemscore.DG>
-16.6027

> <Gold.Chemscore.ZeroCoef>
-5.4800

> <Gold.Chemscore.Hbond>
0.9493

> <Gold.Chemscore.Metal>
0.0000

> <Gold.Chemscore.Lipo>
110.0532

> <Gold.Chemscore.Internal_Hbond>
0.0000

> <Gold.Chemscore.DEClash>
0.5448

> <Gold.Chemscore.DEInternal>
1.5562

> <Gold.Chemscore.Rot>
1.9235

> <Gold.Chemscore.Internal.Correction>
   9.000000E+99

> <Gold.Chemscore.Hbonds>
donor molecule, donor type, donor heavy atom, donor atom, acceptor molecule, acceptor atom, score
      P1  H  7997  8008       L1     6  0.90

> <Gold.Chemscore.Hbond.Weighted>
-3.1706

> <Gold.Chemscore.Metal.Weighted>
-0.0000

> <Gold.Chemscore.Lipo.Weighted>
-12.8762

> <Gold.Chemscore.Internal_Hbond.Weighted>
0.0000

> <Gold.Chemscore.DEClash.Weighted>
0.5448

> <Gold.Chemscore.DEInternal.Weighted>
1.5562

> <Gold.Chemscore.Rot.Weighted>
4.9242

> <Gold.Chemscore.Internal.Correction.Weighted>
   9.000000E+99

> <Gold.Protein.RotatedTorsions>
[ 6907 6896 6895 6894 ] final -112.92 input  -60.11 | X-H torsion
[ 7974 7965 7964 7962 ] final  128.62 input  175.53 | X-H torsion
[ 8008 7997 7996 7995 ] final -109.24 input   59.86 | X-H torsion
[ 10167 10162 10161 10158 ] final  176.59 input  -65.29 | X-H torsion
[ 10718 10713 10712 10709 ] final   -3.12 input   66.30 | X-H torsion
[ 10763 10752 10751 10750 ] final  -34.85 input  -60.55 | X-H torsion
[ 11005 11000 10999 10996 ] final    6.43 input  -57.11 | X-H torsion

> <Gold.Protein.ActiveResidues>
 VAL166  LYS551  ARG553  GLY616  TRP617  ASP618  TYR619  PRO620  LYS621  CYS622 
 ASP623  PHE694  ASN695  SER759  ASP760  ASP761  ALA762  ILE779  LEU786  VAL792 
 PHE793  MET794  SER795  GLU796  ALA797  LYS798  CYS799  TRP800  GLU811  SER814 

> <Gold.Protein.RotatedAtoms>
  150.7792  133.9019  159.3343 H   0  0  0  0  0  0  0  0  0  0  0  0  # atno 6907 bound_to 6896
  151.6886  135.0948  160.0239 H   0  0  0  0  0  0  0  0  0  0  0  0  # atno 6908 bound_to 6896
  152.3838  133.6545  159.6218 H   0  0  0  0  0  0  0  0  0  0  0  0  # atno 6909 bound_to 6896
  145.0375  139.3992  143.5118 H   0  0  0  0  0  0  0  0  0  0  0  0  # atno 7974 bound_to 7965
  154.9563  140.0400  157.2169 H   0  0  0  0  0  0  0  0  0  0  0  0  # atno 8008 bound_to 7997
  154.7930  140.2839  155.5955 H   0  0  0  0  0  0  0  0  0  0  0  0  # atno 8009 bound_to 7997
  156.2952  140.2569  156.2782 H   0  0  0  0  0  0  0  0  0  0  0  0  # atno 8010 bound_to 7997
  139.5220  144.2897  152.0474 H   0  0  0  0  0  0  0  0  0  0  0  0  # atno 10167 bound_to 10162
  156.7807  130.5330  149.5751 H   0  0  0  0  0  0  0  0  0  0  0  0  # atno 10718 bound_to 10713
  153.8535  135.6846  153.4790 H   0  0  0  0  0  0  0  0  0  0  0  0  # atno 10763 bound_to 10752
  153.1383  135.4668  154.9455 H   0  0  0  0  0  0  0  0  0  0  0  0  # atno 10764 bound_to 10752
  154.7791  135.3263  154.7976 H   0  0  0  0  0  0  0  0  0  0  0  0  # atno 10765 bound_to 10752
  140.5596  134.0205  155.7967 H   0  0  0  0  0  0  0  0  0  0  0  0  # atno 11005 bound_to 11000
  146.3506  139.9959  142.8681 LP  0  0  0  0  0  0  0  0  0  0  0  0  # atno 17320 bound_to 7965
  145.1690  140.9711  143.4333 LP  0  0  0  0  0  0  0  0  0  0  0  0  # atno 17321 bound_to 7965
  140.2349  144.4330  150.6284 LP  0  0  0  0  0  0  0  0  0  0  0  0  # atno 17342 bound_to 10162
  140.6330  143.2190  151.6455 LP  0  0  0  0  0  0  0  0  0  0  0  0  # atno 17343 bound_to 10162
  156.1220  130.6116  151.0207 LP  0  0  0  0  0  0  0  0  0  0  0  0  # atno 17370 bound_to 10713
  157.6647  131.0874  150.7755 LP  0  0  0  0  0  0  0  0  0  0  0  0  # atno 17371 bound_to 10713
  141.1122  133.9597  157.2888 LP  0  0  0  0  0  0  0  0  0  0  0  0  # atno 17394 bound_to 11000
  139.9414  135.0190  156.8720 LP  0  0  0  0  0  0  0  0  0  0  0  0  # atno 17395 bound_to 11000

$$$$
