#       Name:                AV-unprocessed.smi:1604
#       Creating user name   scv26
#       Creation time:       Fri Mar 27 07:10:05 2020


#       File generated by GOLD software.
#

@<TRIPOS>MOLECULE
AV-unprocessed.smi:1604
    52    54     1
SMALL
NO_CHARGES


@<TRIPOS>ATOM
      1 ****         0.6194   2.2108   0.3623 O.2            1 S1                 0.0000
      2 ****         0.2458   1.0492   0.5245 C.2            1 S1                 0.0000
      3 ****         1.0510  -0.0016   0.7521 N.am           1 S1                 0.0000
      4 ****         2.4744  -0.0333   0.7668 C.ar           1 S1                 0.0000
      5 ****         3.2508   1.0720   1.1921 C.ar           1 S1                 0.0000
      6 ****         4.6523   0.9597   1.2130 C.ar           1 S1                 0.0000
      7 ****         5.2292  -0.2594   0.8175 C.ar           1 S1                 0.0000
      8 ****         4.5033  -1.3259   0.4259 N.ar           1 S1                 0.0000
      9 ****         3.1512  -1.2301   0.4048 C.ar           1 S1                 0.0000
     10 ****         2.4221  -2.3564  -0.0340 N.3            1 S1                 0.0000
     11 ****         1.8525  -2.2141  -1.3709 C.3            1 S1                 0.0000
     12 ****         1.8761  -3.6080  -1.9992 C.3            1 S1                 0.0000
     13 ****         3.0645  -4.2704  -1.3138 C.3            1 S1                 0.0000
     14 ****         2.9964  -3.6950   0.1002 C.3            1 S1                 0.0000
     15 ****        -1.0398   0.6700   0.4781 N.am           1 S1                 0.0000
     16 ****        -2.1814   1.5606   0.2577 C.3            1 S1                 0.0000
     17 ****        -3.3051   0.7232  -0.3950 C.3            1 S1                 0.0000
     18 ****        -4.3384   1.5641  -1.1648 C.3            1 S1                 0.0000
     19 ****        -5.1770   2.5143  -0.2969 C.3            1 S1                 0.0000
     20 ****        -4.3466   3.5931   0.4189 C.3            1 S1                 0.0000
     21 ****        -3.6533   3.0667   1.5872 N.am           1 S1                 0.0000
     22 ****        -2.6893   2.1336   1.6012 C.2            1 S1                 0.0000
     23 ****        -2.2226   1.7389   2.6698 O.2            1 S1                 0.0000
     24 ****         0.6009  -0.9042   0.7937 H              1 S1                 0.0000
     25 ****         2.7968   1.9954   1.5176 H              1 S1                 0.0000
     26 ****         5.2693   1.7868   1.5312 H              1 S1                 0.0000
     27 ****         6.3018  -0.3841   0.8207 H              1 S1                 0.0000
     28 ****         0.8382  -1.8171  -1.3296 H              1 S1                 0.0000
     29 ****         2.4576  -1.5260  -1.9636 H              1 S1                 0.0000
     30 ****         0.9601  -4.1440  -1.7475 H              1 S1                 0.0000
     31 ****         1.9664  -3.5824  -3.0854 H              1 S1                 0.0000
     32 ****         3.0182  -5.3595  -1.3326 H              1 S1                 0.0000
     33 ****         3.9915  -3.9600  -1.7976 H              1 S1                 0.0000
     34 ****         3.9668  -3.7283   0.5949 H              1 S1                 0.0000
     35 ****         2.3123  -4.2872   0.7085 H              1 S1                 0.0000
     36 ****        -1.2513  -0.3054   0.6278 H              1 S1                 0.0000
     37 ****        -1.8822   2.3726  -0.4076 H              1 S1                 0.0000
     38 ****        -2.8605   0.0321  -1.1131 H              1 S1                 0.0000
     39 ****        -3.8044   0.0934   0.3435 H              1 S1                 0.0000
     40 ****        -3.8319   2.1361  -1.9432 H              1 S1                 0.0000
     41 ****        -5.0146   0.8874  -1.6879 H              1 S1                 0.0000
     42 ****        -5.9025   3.0099  -0.9428 H              1 S1                 0.0000
     43 ****        -5.7619   1.9460   0.4277 H              1 S1                 0.0000
     44 ****        -3.6406   4.0679  -0.2641 H              1 S1                 0.0000
     45 ****        -5.0117   4.3824   0.7698 H              1 S1                 0.0000
     46 ****        -3.9542   3.4260   2.4817 H              1 S1                 0.0000
     47 ****         1.5941   2.4318   0.3954 LP             1 S1                 0.0000
     48 ****        -0.0518   2.9335   0.1975 LP             1 S1                 0.0000
     49 ****         4.9558  -2.1755   0.1549 LP             1 S1                 0.0000
     50 ****         1.7112  -2.3293   0.6687 LP             1 S1                 0.0000
     51 ****        -1.5071   1.0403   2.6753 LP             1 S1                 0.0000
     52 ****        -2.5590   2.1169   3.5323 LP             1 S1                 0.0000
@<TRIPOS>BOND
    1    1    2 2     
    2    2    3 am    
    3    2   15 am    
    4    3    4 1     
    5    3   24 1     
    6    4    9 ar    
    7    4    5 ar    
    8    5    6 ar    
    9    5   25 1     
   10    6    7 ar    
   11    6   26 1     
   12    7    8 ar    
   13    7   27 1     
   14    8    9 ar    
   15    9   10 1     
   16   10   14 1     
   17   10   11 1     
   18   11   12 1     
   19   11   28 1     
   20   11   29 1     
   21   12   13 1     
   22   12   30 1     
   23   12   31 1     
   24   13   14 1     
   25   13   32 1     
   26   13   33 1     
   27   14   34 1     
   28   14   35 1     
   29   15   16 1     
   30   15   36 1     
   31   16   22 1     
   32   16   17 1     
   33   16   37 1     
   34   17   18 1     
   35   17   38 1     
   36   17   39 1     
   37   18   19 1     
   38   18   40 1     
   39   18   41 1     
   40   19   20 1     
   41   19   42 1     
   42   19   43 1     
   43   20   21 1     
   44   20   44 1     
   45   20   45 1     
   46   21   22 am    
   47   21   46 1     
   48   22   23 2     
   49    1   47 1     
   50    1   48 1     
   51    8   49 1     
   52   10   50 1     
   53   23   51 1     
   54   23   52 1     
@<TRIPOS>SUBSTRUCTURE
      1 S1             1
@<TRIPOS>SET
LONE_PAIRS      STATIC     ATOMS    <user>   **** ""
6 47 48 49 50 51 52
DONOR_HYDROGENS      STATIC     ATOMS    <user>   **** ""
3 24 36 46
ATOM$BLUE        STATIC     ATOMS    COLORGROUP SYSTEM
6 47 48 49 50 51 52
ATOM$RED        STATIC     ATOMS    COLORGROUP SYSTEM
3 24 36 46
