AV-unprocessed.smi:1749|AV-procd|sdf|7047|dock1
  -GOLD-   22720 8263D 1   1.00000     0.00000
 Structure written by MMmdl.
 32 33  0  0  0  0  0  0  0  0  1 V2000
  152.5554  141.2420  159.6874 C   0  0  0  0  0  0  0  0  0  0  0  0
  151.5652  140.6670  158.6650 C   0  0  1  0  0  0  0  0  0  0  0  0
  151.3275  141.6453  157.4988 C   0  0  0  0  0  0  0  0  0  0  0  0
  150.3400  141.0715  156.4705 C   0  0  0  0  0  0  0  0  0  0  0  0
  150.8080  139.7019  155.9476 C   0  0  0  0  0  0  0  0  0  0  0  0
  151.0655  138.7020  157.0911 C   0  0  2  0  0  0  0  0  0  0  0  0
  149.8013  138.3173  157.7139 N   0  0  0  0  0  0  0  0  0  0  0  0
  149.6565  137.5203  158.7850 C   0  0  0  0  0  0  0  0  0  0  0  0
  150.6060  136.9701  159.3401 O   0  0  0  0  0  0  0  0  0  0  0  0
  148.3927  137.3431  159.2254 N   0  0  0  0  0  0  0  0  0  0  0  0
  147.8747  136.5804  160.3127 C   0  0  0  0  0  0  0  0  0  0  0  0
  147.4593  137.1049  161.4777 N   0  0  0  0  0  0  0  0  0  0  0  0
  147.0249  136.1302  162.3652 N   0  0  0  0  0  0  0  0  0  0  0  0
  147.1409  134.9064  161.8429 C   0  0  0  0  0  0  0  0  0  0  0  0
  147.7932  134.8267  160.2155 S   0  0  0  0  0  0  0  0  0  0  0  0
  152.0378  139.2975  158.1323 C   0  0  0  0  0  0  0  0  0  0  0  0
  153.5341  141.4144  159.2390 H   0  0  0  0  0  0  0  0  0  0  0  0
  152.6895  140.5613  160.5285 H   0  0  0  0  0  0  0  0  0  0  0  0
  152.1996  142.1922  160.0865 H   0  0  0  0  0  0  0  0  0  0  0  0
  150.6150  140.5227  159.1815 H   0  0  0  0  0  0  0  0  0  0  0  0
  150.9468  142.5938  157.8790 H   0  0  0  0  0  0  0  0  0  0  0  0
  152.2747  141.8687  157.0060 H   0  0  0  0  0  0  0  0  0  0  0  0
  149.3527  140.9775  156.9244 H   0  0  0  0  0  0  0  0  0  0  0  0
  150.2283  141.7659  155.6375 H   0  0  0  0  0  0  0  0  0  0  0  0
  150.0744  139.2974  155.2492 H   0  0  0  0  0  0  0  0  0  0  0  0
  151.7278  139.8356  155.3767 H   0  0  0  0  0  0  0  0  0  0  0  0
  151.5196  137.8087  156.6585 H   0  0  0  0  0  0  0  0  0  0  0  0
  148.9648  138.7226  157.3182 H   0  0  0  0  0  0  0  0  0  0  0  0
  147.6859  137.7789  158.6510 H   0  0  0  0  0  0  0  0  0  0  0  0
  146.8436  134.0441  162.4210 H   0  0  0  0  0  0  0  0  0  0  0  0
  153.0206  139.4112  157.6729 H   0  0  0  0  0  0  0  0  0  0  0  0
  152.1736  138.6001  158.9599 H   0  0  0  0  0  0  0  0  0  0  0  0
  1  2  1  0  0  0  0
  1 17  1  0  0  0  0
  1 18  1  0  0  0  0
  1 19  1  0  0  0  0
  2 16  1  0  0  0  0
  2  3  1  0  0  0  0
  2 20  1  0  0  0  0
  3  4  1  0  0  0  0
  3 21  1  0  0  0  0
  3 22  1  0  0  0  0
  4  5  1  0  0  0  0
  4 23  1  0  0  0  0
  4 24  1  0  0  0  0
  5  6  1  0  0  0  0
  5 25  1  0  0  0  0
  5 26  1  0  0  0  0
  6  7  1  0  0  0  0
  6 16  1  0  0  0  0
  6 27  1  0  0  0  0
  7  8  1  0  0  0  0
  7 28  1  0  0  0  0
  8  9  2  0  0  0  0
  8 10  1  0  0  0  0
 10 11  1  0  0  0  0
 10 29  1  0  0  0  0
 11 15  1  0  0  0  0
 11 12  2  0  0  0  0
 12 13  1  0  0  0  0
 13 14  2  0  0  0  0
 14 15  1  0  0  0  0
 14 30  1  0  0  0  0
 16 31  1  0  0  0  0
 16 32  1  0  0  0  0
M  END
> <s_m_source_file>
AV-unprocessed.smi

> <i_m_source_file_index>
1749

> <i_lp_mmshare_version>
43012

> <i_f3d_flags>
0

> <s_epik_input>
W0NIM11bQ0BASF0xW0NIMl1bQ0gyXVtDSDJdW0NASF0oW0NIMl0xKVtOSF1DKD1PKVtOSF1jMm5uW2NIXXMy

> <s_epik_cmdline>
J2VwaWtfcHl0aG9uJywgJy1waCcsICc3LjAnLCAnLXRuJywgJzgnLCAnLW1hJywgJzIwMCcsICctbWV0YWxfYmluZGluZycsICctaW1hZScsICc8aW5maWxlLm1hZT4nLCAnLW9tYWUnLCAnPG91dGZpbGUubWFlPic=

> <r_lp_tautomer_probability>
1

> <r_epik_Ionization_Penalty>
0.000318591

> <r_epik_Ionization_Penalty_Charging>
0

> <r_epik_Ionization_Penalty_Neutral>
0.000318591

> <r_epik_State_Penalty>
-0

> <r_epik_Charging_Adjusted_Penalty>
0

> <i_epik_Tot_Q>
0

> <i_epik_Tot_abs_Q>
0

> <r_epik_Metal_State_Penalty>
0.169791

> <b_epik_Metal_Only>
0

> <s_lp_Force_Field>
OPLS_2005

> <r_lp_Energy>
10.2473

> <b_lp_Chiralities_Consistent>
1

> <s_lp_Variant>
AV-unprocessed.smi:1749-4

> <Gold.Version>
5.8.1

> <Gold.Id.Protein>
6NUR|6NUR_protein|mol2

> <Gold.PLP.Fitness>
33.1654

> <Gold.PLP.PLP>
-26.0996

> <Gold.PLP.part.hbond>
-3.0000

> <Gold.PLP.part.metal>
0.0000

> <Gold.PLP.part.buried>
-4.9646

> <Gold.PLP.part.nonpolar>
-18.6960

> <Gold.PLP.part.repulsive>
0.2677

> <Gold.PLP.ligand.clash>
0.0000

> <Gold.PLP.ligand.torsion>
0.7301

> <Gold.PLP.Chemscore.Hbond>
2.8400

> <Gold.PLP.Chemscore.CHOScore>
0.0000

> <Gold.PLP.Chemscore.Metal>
0.0000

> <Gold.Chemscore.Hbonds>
donor molecule, donor type, donor heavy atom, donor atom, acceptor molecule, acceptor atom, score
      P1  H  6896  6907       L1     9  1.00
      P1  H  6931  6943       L1    12  0.96
      P1  H  6934  6947       L1    12  0.90

> <Gold.PLP.Chemscore.Internal.Correction>
0.0059

> <Gold.Rescore>
     Score         DG    S(hbond)    S(metal)    S(lipo)     H(rot)  DE(clash)    DE(int)     intcor
     15.19     -15.88       1.92        0.00      56.01       1.00       0.03       0.66       ----

> <Gold.Chemscore.Fitness>
15.1868

> <Gold.Chemscore.DG>
-15.8775

> <Gold.Chemscore.ZeroCoef>
-5.4800

> <Gold.Chemscore.Hbond>
1.9175

> <Gold.Chemscore.Metal>
0.0000

> <Gold.Chemscore.Lipo>
56.0101

> <Gold.Chemscore.Internal_Hbond>
0.0000

> <Gold.Chemscore.DEClash>
0.0270

> <Gold.Chemscore.DEInternal>
0.6637

> <Gold.Chemscore.Rot>
1.0000

> <Gold.Chemscore.Internal.Correction>
   9.000000E+99

> <Gold.Chemscore.Hbonds>
donor molecule, donor type, donor heavy atom, donor atom, acceptor molecule, acceptor atom, score
      P1  H  6896  6907       L1     9  0.93
      P1  H  6931  6943       L1    12  0.22
      P1  H  6934  6947       L1    12  0.25

> <Gold.Chemscore.Hbond.Weighted>
-6.4043

> <Gold.Chemscore.Metal.Weighted>
-0.0000

> <Gold.Chemscore.Lipo.Weighted>
-6.5532

> <Gold.Chemscore.Internal_Hbond.Weighted>
0.0000

> <Gold.Chemscore.DEClash.Weighted>
0.0270

> <Gold.Chemscore.DEInternal.Weighted>
0.6637

> <Gold.Chemscore.Rot.Weighted>
2.5600

> <Gold.Chemscore.Internal.Correction.Weighted>
   9.000000E+99

> <Gold.Protein.RotatedTorsions>
[ 6907 6896 6895 6894 ] final  -30.11 input  -60.11 | X-H torsion
[ 7974 7965 7964 7962 ] final  130.18 input  175.53 | X-H torsion
[ 8008 7997 7996 7995 ] final   61.34 input   59.86 | X-H torsion
[ 10167 10162 10161 10158 ] final   94.94 input  -65.29 | X-H torsion
[ 10718 10713 10712 10709 ] final  -13.37 input   66.30 | X-H torsion
[ 10763 10752 10751 10750 ] final -149.87 input  -60.55 | X-H torsion
[ 11005 11000 10999 10996 ] final  -60.91 input  -57.11 | X-H torsion

> <Gold.Protein.ActiveResidues>
 VAL166  LYS551  ARG553  GLY616  TRP617  ASP618  TYR619  PRO620  LYS621  CYS622 
 ASP623  PHE694  ASN695  SER759  ASP760  ASP761  ALA762  ILE779  LEU786  VAL792 
 PHE793  MET794  SER795  GLU796  ALA797  LYS798  CYS799  TRP800  GLU811  SER814 

> <Gold.Protein.RotatedAtoms>
  151.1100  135.0021  159.8489 H   0  0  0  0  0  0  0  0  0  0  0  0  # atno 6907 bound_to 6896
  152.5442  134.1847  159.8660 H   0  0  0  0  0  0  0  0  0  0  0  0  # atno 6908 bound_to 6896
  151.1897  133.4630  159.2628 H   0  0  0  0  0  0  0  0  0  0  0  0  # atno 6909 bound_to 6896
  145.0207  139.4134  143.5199 H   0  0  0  0  0  0  0  0  0  0  0  0  # atno 7974 bound_to 7965
  155.5967  140.3493  155.4582 H   0  0  0  0  0  0  0  0  0  0  0  0  # atno 8008 bound_to 7997
  156.0259  140.1264  157.0333 H   0  0  0  0  0  0  0  0  0  0  0  0  # atno 8009 bound_to 7997
  154.4333  140.1053  156.6017 H   0  0  0  0  0  0  0  0  0  0  0  0  # atno 8010 bound_to 7997
  139.8036  144.6803  150.9732 H   0  0  0  0  0  0  0  0  0  0  0  0  # atno 10167 bound_to 10162
  156.6312  130.4902  149.6128 H   0  0  0  0  0  0  0  0  0  0  0  0  # atno 10718 bound_to 10713
  154.8152  135.3298  154.7196 H   0  0  0  0  0  0  0  0  0  0  0  0  # atno 10763 bound_to 10752
  153.7838  135.6916  153.4888 H   0  0  0  0  0  0  0  0  0  0  0  0  # atno 10764 bound_to 10752
  153.1962  135.4532  155.0158 H   0  0  0  0  0  0  0  0  0  0  0  0  # atno 10765 bound_to 10752
  141.1305  133.6626  156.5294 H   0  0  0  0  0  0  0  0  0  0  0  0  # atno 11005 bound_to 11000
  146.3485  139.9703  142.8707 LP  0  0  0  0  0  0  0  0  0  0  0  0  # atno 17320 bound_to 7965
  145.1899  140.9807  143.4217 LP  0  0  0  0  0  0  0  0  0  0  0  0  # atno 17321 bound_to 7965
  140.7820  143.4256  151.0773 LP  0  0  0  0  0  0  0  0  0  0  0  0  # atno 17342 bound_to 10162
  139.7927  143.8196  152.3154 LP  0  0  0  0  0  0  0  0  0  0  0  0  # atno 17343 bound_to 10162
  156.2233  130.6750  151.1390 LP  0  0  0  0  0  0  0  0  0  0  0  0  # atno 17370 bound_to 10713
  157.7199  131.0688  150.6177 LP  0  0  0  0  0  0  0  0  0  0  0  0  # atno 17371 bound_to 10713
  140.4228  134.7172  157.4899 LP  0  0  0  0  0  0  0  0  0  0  0  0  # atno 17394 bound_to 11000
  140.0348  134.6353  155.9058 LP  0  0  0  0  0  0  0  0  0  0  0  0  # atno 17395 bound_to 11000

$$$$
