AV-unprocessed.smi:1493|AV-procd|sdf|6048|dock9
  -GOLD-   22720 6163D 1   1.00000     0.00000
 Structure written by MMmdl.
 33 33  0  0  0  0  0  0  0  0  2 V2000
  155.1457  141.0358  159.9108 C   0  0  0  0  0  0  0  0  0  0  0  0
  153.6957  140.9593  160.4010 C   0  0  0  0  0  0  0  0  0  0  0  0
  152.9995  142.3313  160.3950 C   0  0  0  0  0  0  0  0  0  0  0  0
  152.7746  142.9097  158.9850 C   0  0  2  0  0  0  0  0  0  0  0  0
  152.4480  144.4108  159.0395 C   0  0  0  0  0  0  0  0  0  0  0  0
  151.6999  142.1888  158.3067 N   0  0  0  0  0  0  0  0  0  0  0  0
  151.7909  140.9486  157.8013 C   0  0  0  0  0  0  0  0  0  0  0  0
  152.8141  140.2658  157.8714 O   0  0  0  0  0  0  0  0  0  0  0  0
  150.5198  140.4049  157.1302 C   0  0  0  0  0  0  0  0  0  0  0  0
  150.6408  139.0161  156.6628 N   0  0  0  0  0  0  0  0  0  0  0  0
  150.3975  138.0192  157.7021 N   0  5  0  0  0  0  0  0  0  0  0  0
  150.5022  136.6997  157.3920 C   0  0  0  0  0  0  0  0  0  0  0  0
  150.3298  135.8055  158.2170 O   0  0  0  0  0  0  0  0  0  0  0  0
  150.8271  136.3427  156.0210 C   0  0  0  0  0  0  0  0  0  0  0  0
  151.0191  137.2835  155.0756 C   0  0  0  0  0  0  0  0  0  0  0  0
  150.9203  138.7092  155.3635 C   0  0  0  0  0  0  0  0  0  0  0  0
  151.0796  139.5735  154.5011 O   0  0  0  0  0  0  0  0  0  0  0  0
  155.6122  140.0506  159.9251 H   0  0  0  0  0  0  0  0  0  0  0  0
  155.7414  141.6952  160.5425 H   0  0  0  0  0  0  0  0  0  0  0  0
  155.1962  141.4133  158.8892 H   0  0  0  0  0  0  0  0  0  0  0  0
  153.1400  140.2650  159.7699 H   0  0  0  0  0  0  0  0  0  0  0  0
  153.6838  140.5375  161.4065 H   0  0  0  0  0  0  0  0  0  0  0  0
  152.0447  142.2563  160.9174 H   0  0  0  0  0  0  0  0  0  0  0  0
  153.6038  143.0334  160.9707 H   0  0  0  0  0  0  0  0  0  0  0  0
  153.7003  142.7823  158.4205 H   0  0  0  0  0  0  0  0  0  0  0  0
  153.2475  144.9681  159.5283 H   0  0  0  0  0  0  0  0  0  0  0  0
  151.5262  144.5963  159.5921 H   0  0  0  0  0  0  0  0  0  0  0  0
  152.3252  144.8259  158.0385 H   0  0  0  0  0  0  0  0  0  0  0  0
  150.8190  142.6723  158.2093 H   0  0  0  0  0  0  0  0  0  0  0  0
  149.6985  140.5002  157.8425 H   0  0  0  0  0  0  0  0  0  0  0  0
  150.2525  141.0451  156.2874 H   0  0  0  0  0  0  0  0  0  0  0  0
  150.9143  135.2999  155.7539 H   0  0  0  0  0  0  0  0  0  0  0  0
  151.2569  136.9722  154.0695 H   0  0  0  0  0  0  0  0  0  0  0  0
  1  2  1  0  0  0  0
  1 18  1  0  0  0  0
  1 19  1  0  0  0  0
  1 20  1  0  0  0  0
  2  3  1  0  0  0  0
  2 21  1  0  0  0  0
  2 22  1  0  0  0  0
  3  4  1  0  0  0  0
  3 23  1  0  0  0  0
  3 24  1  0  0  0  0
  4  5  1  0  0  0  0
  4  6  1  0  0  0  0
  4 25  1  0  0  0  0
  5 26  1  0  0  0  0
  5 27  1  0  0  0  0
  5 28  1  0  0  0  0
  6  7  1  0  0  0  0
  6 29  1  0  0  0  0
  7  8  2  0  0  0  0
  7  9  1  0  0  0  0
  9 30  1  0  0  0  0
  9 31  1  0  0  0  0
  9 10  1  0  0  0  0
 10 11  1  0  0  0  0
 10 16  1  0  0  0  0
 11 12  1  0  0  0  0
 12 13  2  0  0  0  0
 12 14  1  0  0  0  0
 14 32  1  0  0  0  0
 14 15  2  0  0  0  0
 15 33  1  0  0  0  0
 15 16  1  0  0  0  0
 16 17  2  0  0  0  0
M  CHG  1  11  -1
M  END
> <s_m_source_file>
AV-unprocessed.smi

> <i_m_source_file_index>
1493

> <i_lp_mmshare_version>
43012

> <i_f3d_flags>
0

> <s_epik_input>
W0NIM11bQ0gyXVtDSDJdW0NASF0oW0NIM10pW05IXUMoPU8pW0NIMl1uMVtuSF1jKD1PKVtjSF1bY0hdYzE9Tw==

> <s_epik_cmdline>
J2VwaWtfcHl0aG9uJywgJy1waCcsICc3LjAnLCAnLXRuJywgJzgnLCAnLW1hJywgJzIwMCcsICctbWV0YWxfYmluZGluZycsICctaW1hZScsICc8aW5maWxlLm1hZT4nLCAnLW9tYWUnLCAnPG91dGZpbGUubWFlPic=

> <r_lp_tautomer_probability>
1

> <r_epik_Ionization_Penalty>
0.0986298

> <r_epik_Ionization_Penalty_Charging>
0.0986298

> <r_epik_Ionization_Penalty_Neutral>
1.93017e-08

> <r_epik_State_Penalty>
0.0347731

> <r_epik_Charging_Adjusted_Penalty>
0.133403

> <i_epik_Tot_Q>
-1

> <i_epik_Tot_abs_Q>
1

> <r_epik_Metal_State_Penalty>
0.0347731

> <b_epik_Metal_Only>
0

> <s_lp_Force_Field>
OPLS_2005

> <r_lp_Energy>
18.8288

> <b_lp_Chiralities_Consistent>
1

> <s_lp_Variant>
AV-unprocessed.smi:1493-1

> <Gold.Version>
5.8.1

> <Gold.Id.Protein>
6NUR|6NUR_protein|mol2

> <Gold.PLP.Fitness>
38.3664

> <Gold.PLP.PLP>
-31.6064

> <Gold.PLP.part.hbond>
-3.0000

> <Gold.PLP.part.metal>
0.0000

> <Gold.PLP.part.buried>
-3.1292

> <Gold.PLP.part.nonpolar>
-25.3620

> <Gold.PLP.part.repulsive>
0.1818

> <Gold.PLP.ligand.clash>
0.0000

> <Gold.PLP.ligand.torsion>
0.6431

> <Gold.PLP.Chemscore.Hbond>
2.6737

> <Gold.PLP.Chemscore.CHOScore>
0.0000

> <Gold.PLP.Chemscore.Metal>
0.0000

> <Gold.Chemscore.Hbonds>
donor molecule, donor type, donor heavy atom, donor atom, acceptor molecule, acceptor atom, score
      P1  H  6896  6908       L1    13  0.66
      P1  H  7989  7998       L1    17  1.00
      P1  H  7997  8009       L1     8  0.96

> <Gold.PLP.Chemscore.Internal.Correction>
0.0251

> <Gold.Rescore>
     Score         DG    S(hbond)    S(metal)    S(lipo)     H(rot)  DE(clash)    DE(int)     intcor
     16.92     -17.91       2.93        0.00      69.34       2.14       0.01       0.98       ----

> <Gold.Chemscore.Fitness>
16.9205

> <Gold.Chemscore.DG>
-17.9136

> <Gold.Chemscore.ZeroCoef>
-5.4800

> <Gold.Chemscore.Hbond>
2.9318

> <Gold.Chemscore.Metal>
0.0000

> <Gold.Chemscore.Lipo>
69.3379

> <Gold.Chemscore.Internal_Hbond>
0.0000

> <Gold.Chemscore.DEClash>
0.0098

> <Gold.Chemscore.DEInternal>
0.9832

> <Gold.Chemscore.Rot>
2.1372

> <Gold.Chemscore.Internal.Correction>
   9.000000E+99

> <Gold.Chemscore.Hbonds>
donor molecule, donor type, donor heavy atom, donor atom, acceptor molecule, acceptor atom, score
      P1  H  6896  6908       L1    13  0.66
      P1  H  7989  7998       L1    17  1.00
      P1  H  7997  8009       L1     8  0.91

> <Gold.Chemscore.Hbond.Weighted>
-9.7923

> <Gold.Chemscore.Metal.Weighted>
-0.0000

> <Gold.Chemscore.Lipo.Weighted>
-8.1125

> <Gold.Chemscore.Internal_Hbond.Weighted>
0.0000

> <Gold.Chemscore.DEClash.Weighted>
0.0098

> <Gold.Chemscore.DEInternal.Weighted>
0.9832

> <Gold.Chemscore.Rot.Weighted>
5.4713

> <Gold.Chemscore.Internal.Correction.Weighted>
   9.000000E+99

> <Gold.Protein.RotatedTorsions>
[ 6907 6896 6895 6894 ] final  160.61 input  -60.11 | X-H torsion
[ 7974 7965 7964 7962 ] final  126.36 input  175.53 | X-H torsion
[ 8008 7997 7996 7995 ] final  166.19 input   59.86 | X-H torsion
[ 10167 10162 10161 10158 ] final   24.54 input  -65.29 | X-H torsion
[ 10718 10713 10712 10709 ] final   34.74 input   66.30 | X-H torsion
[ 10763 10752 10751 10750 ] final  104.81 input  -60.55 | X-H torsion
[ 11005 11000 10999 10996 ] final  179.45 input  -57.11 | X-H torsion

> <Gold.Protein.ActiveResidues>
 VAL166  LYS551  ARG553  GLY616  TRP617  ASP618  TYR619  PRO620  LYS621  CYS622 
 ASP623  PHE694  ASN695  SER759  ASP760  ASP761  ALA762  ILE779  LEU786  VAL792 
 PHE793  MET794  SER795  GLU796  ALA797  LYS798  CYS799  TRP800  GLU811  SER814 

> <Gold.Protein.RotatedAtoms>
  151.9680  133.3716  159.4060 H   0  0  0  0  0  0  0  0  0  0  0  0  # atno 6907 bound_to 6896
  150.6953  134.4170  159.5197 H   0  0  0  0  0  0  0  0  0  0  0  0  # atno 6908 bound_to 6896
  152.1869  134.8705  160.0572 H   0  0  0  0  0  0  0  0  0  0  0  0  # atno 6909 bound_to 6896
  145.0626  139.3793  143.4998 H   0  0  0  0  0  0  0  0  0  0  0  0  # atno 7974 bound_to 7965
  156.1739  140.1650  156.8398 H   0  0  0  0  0  0  0  0  0  0  0  0  # atno 8008 bound_to 7997
  154.5286  140.0762  156.8338 H   0  0  0  0  0  0  0  0  0  0  0  0  # atno 8009 bound_to 7997
  155.3454  140.3387  155.4241 H   0  0  0  0  0  0  0  0  0  0  0  0  # atno 8010 bound_to 7997
  140.5180  144.0050  150.6403 H   0  0  0  0  0  0  0  0  0  0  0  0  # atno 10167 bound_to 10162
  157.3141  130.7414  149.6743 H   0  0  0  0  0  0  0  0  0  0  0  0  # atno 10718 bound_to 10713
  153.3709  135.3931  155.1788 H   0  0  0  0  0  0  0  0  0  0  0  0  # atno 10763 bound_to 10752
  154.8694  135.3702  154.4979 H   0  0  0  0  0  0  0  0  0  0  0  0  # atno 10764 bound_to 10752
  153.5447  135.7084  153.5680 H   0  0  0  0  0  0  0  0  0  0  0  0  # atno 10765 bound_to 10752
  140.4063  134.6732  157.4589 H   0  0  0  0  0  0  0  0  0  0  0  0  # atno 11005 bound_to 11000
  146.3525  140.0331  142.8649 LP  0  0  0  0  0  0  0  0  0  0  0  0  # atno 17320 bound_to 7965
  145.1390  140.9561  143.4499 LP  0  0  0  0  0  0  0  0  0  0  0  0  # atno 17321 bound_to 7965
  140.3391  143.3030  152.0607 LP  0  0  0  0  0  0  0  0  0  0  0  0  # atno 17342 bound_to 10162
  139.4915  144.6455  151.6787 LP  0  0  0  0  0  0  0  0  0  0  0  0  # atno 17343 bound_to 10162
  155.9680  130.4243  150.4600 LP  0  0  0  0  0  0  0  0  0  0  0  0  # atno 17370 bound_to 10713
  157.2604  131.0565  151.2324 LP  0  0  0  0  0  0  0  0  0  0  0  0  # atno 17371 bound_to 10713
  140.0300  134.6421  155.9120 LP  0  0  0  0  0  0  0  0  0  0  0  0  # atno 17394 bound_to 11000
  141.1838  133.6551  156.5131 LP  0  0  0  0  0  0  0  0  0  0  0  0  # atno 17395 bound_to 11000

$$$$
