#       Name:                AV-unprocessed.smi:2152
#       Creating user name   scv26
#       Creation time:       Fri Mar 27 11:54:08 2020


#       File generated by GOLD software.
#

@<TRIPOS>MOLECULE
AV-unprocessed.smi:2152
    47    48     1
SMALL
NO_CHARGES


@<TRIPOS>ATOM
      1 ****        -1.5923   0.7511  -2.4673 C.3            1 S1                 0.0000
      2 ****        -2.0153  -0.6792  -2.0861 C.3            1 S1                 0.0000
      3 ****        -3.5362  -0.8603  -2.2662 C.3            1 S1                 0.0000
      4 ****        -3.9915  -2.2807  -1.8992 C.3            1 S1                 0.0000
      5 ****        -3.5772  -2.6387  -0.4656 C.3            1 S1                 0.0000
      6 ****        -2.0622  -2.4788  -0.2745 C.3            1 S1                 0.0000
      7 ****        -1.5876  -1.0588  -0.6465 C.3            1 S1                 0.0000
      8 ****        -0.1352  -0.9771  -0.5102 N.am           1 S1                 0.0000
      9 ****         0.5248  -0.6129   0.5994 C.2            1 S1                 0.0000
     10 ****        -0.0353  -0.3309   1.6596 O.2            1 S1                 0.0000
     11 ****         2.0551  -0.5875   0.4943 C.3            1 S1                 0.0000
     12 ****         2.6649   0.4469   1.3392 N.am           1 S1                 0.0000
     13 ****         3.1975   0.1034   2.5684 C.2            1 S1                 0.0000
     14 ****         3.7604   0.9963   3.4117 C.2            1 S1                 0.0000
     15 ****         3.8430   2.4092   3.0612 C.2            1 S1                 0.0000
     16 ****         4.3318   3.2575   3.8081 O.2            1 S1                 0.0000
     17 ****         3.3031   2.7309   1.7925 N.am           1 S1                 0.0000
     18 ****         3.3214   4.1123   1.3575 C.3            1 S1                 0.0000
     19 ****         2.7012   1.7950   0.9223 C.2            1 S1                 0.0000
     20 ****         2.2162   2.1312  -0.1614 O.2            1 S1                 0.0000
     21 ****        -2.0322   1.4858  -1.7921 H              1 S1                 0.0000
     22 ****        -1.9132   0.9976  -3.4798 H              1 S1                 0.0000
     23 ****        -0.5098   0.8756  -2.4331 H              1 S1                 0.0000
     24 ****        -1.5192  -1.3620  -2.7779 H              1 S1                 0.0000
     25 ****        -4.0689  -0.1382  -1.6458 H              1 S1                 0.0000
     26 ****        -3.8178  -0.6451  -3.2976 H              1 S1                 0.0000
     27 ****        -5.0736  -2.3629  -2.0046 H              1 S1                 0.0000
     28 ****        -3.5568  -2.9975  -2.5971 H              1 S1                 0.0000
     29 ****        -4.1053  -1.9968   0.2406 H              1 S1                 0.0000
     30 ****        -3.8748  -3.6624  -0.2369 H              1 S1                 0.0000
     31 ****        -1.8010  -2.7031   0.7605 H              1 S1                 0.0000
     32 ****        -1.5423  -3.2145  -0.8898 H              1 S1                 0.0000
     33 ****        -2.0548  -0.3480   0.0386 H              1 S1                 0.0000
     34 ****         0.4095  -1.1980  -1.3313 H              1 S1                 0.0000
     35 ****         2.4310  -1.5712   0.7788 H              1 S1                 0.0000
     36 ****         2.3571  -0.4459  -0.5453 H              1 S1                 0.0000
     37 ****         3.1567  -0.9313   2.8766 H              1 S1                 0.0000
     38 ****         4.1526   0.6613   4.3606 H              1 S1                 0.0000
     39 ****         3.6215   4.1373   0.3084 H              1 S1                 0.0000
     40 ****         4.0441   4.6895   1.9341 H              1 S1                 0.0000
     41 ****         2.3110   4.5006   1.4939 H              1 S1                 0.0000
     42 ****        -1.0326  -0.3673   1.7234 LP             1 S1                 0.0000
     43 ****         0.5073  -0.0655   2.4566 LP             1 S1                 0.0000
     44 ****         4.6948   2.9886   4.7003 LP             1 S1                 0.0000
     45 ****         4.3657   4.2152   3.5225 LP             1 S1                 0.0000
     46 ****         1.7922   1.4459  -0.7535 LP             1 S1                 0.0000
     47 ****         2.2471   3.0889  -0.4474 LP             1 S1                 0.0000
@<TRIPOS>BOND
    1    1    2 1     
    2    1   21 1     
    3    1   22 1     
    4    1   23 1     
    5    2    7 1     
    6    2    3 1     
    7    2   24 1     
    8    3    4 1     
    9    3   25 1     
   10    3   26 1     
   11    4    5 1     
   12    4   27 1     
   13    4   28 1     
   14    5    6 1     
   15    5   29 1     
   16    5   30 1     
   17    6    7 1     
   18    6   31 1     
   19    6   32 1     
   20    7    8 1     
   21    7   33 1     
   22    8    9 am    
   23    8   34 1     
   24    9   10 2     
   25    9   11 1     
   26   11   12 1     
   27   11   35 1     
   28   11   36 1     
   29   12   19 am    
   30   12   13 1     
   31   13   14 2     
   32   13   37 1     
   33   14   15 1     
   34   14   38 1     
   35   15   16 2     
   36   15   17 am    
   37   17   18 1     
   38   17   19 am    
   39   18   39 1     
   40   18   40 1     
   41   18   41 1     
   42   19   20 2     
   43   10   42 1     
   44   10   43 1     
   45   16   44 1     
   46   16   45 1     
   47   20   46 1     
   48   20   47 1     
@<TRIPOS>SUBSTRUCTURE
      1 S1             1
@<TRIPOS>SET
LONE_PAIRS      STATIC     ATOMS    <user>   **** ""
6 42 43 44 45 46 47
DONOR_HYDROGENS      STATIC     ATOMS    <user>   **** ""
1 34
ATOM$BLUE        STATIC     ATOMS    COLORGROUP SYSTEM
6 42 43 44 45 46 47
ATOM$RED        STATIC     ATOMS    COLORGROUP SYSTEM
1 34
