AV-unprocessed.smi:1|AV-procd|sdf|24|dock7
  -GOLD-   2262015133D 1   1.00000     0.00000
 Structure written by MMmdl.
 56 61  0  0  0  0  0  0  0  0  2 V2000
  151.9888  139.6241  158.8925 O   0  0  0  0  0  0  0  0  0  0  0  0
  152.1216  140.5219  158.0580 C   0  0  0  0  0  0  0  0  0  0  0  0
  152.3698  140.3959  156.7298 N   0  5  0  0  0  0  0  0  0  0  0  0
  151.7925  139.4064  156.0316 C   0  0  0  0  0  0  0  0  0  0  0  0
  151.1549  139.6715  154.8629 N   0  0  0  0  0  0  0  0  0  0  0  0
  150.5706  138.6850  154.1732 C   0  0  0  0  0  0  0  0  0  0  0  0
  150.4970  137.3836  154.4673 N   0  0  0  0  0  0  0  0  0  0  0  0
  151.1307  137.1036  155.6440 C   0  0  0  0  0  0  0  0  0  0  0  0
  151.7914  138.0554  156.4745 C   0  0  0  0  0  0  0  0  0  0  0  0
  152.3260  137.4424  157.5981 N   0  0  0  0  0  0  0  0  0  0  0  0
  151.9793  136.1727  157.4017 C   0  0  0  0  0  0  0  0  0  0  0  0
  151.2823  135.8835  156.2854 N   0  0  0  0  0  0  0  0  0  0  0  0
  150.8002  134.5378  155.8477 C   0  0  1  0  0  0  0  0  0  0  0  0
  151.0792  133.6121  156.8507 O   0  0  0  0  0  0  0  0  0  0  0  0
  150.0893  132.5909  156.8547 C   0  0  2  0  0  0  0  0  0  0  0  0
  150.4783  131.5011  155.8431 C   0  0  0  0  0  0  0  0  0  0  0  0
  149.3083  131.0322  155.1937 O   0  0  0  0  0  0  0  0  0  0  0  0
  149.2929  129.8095  154.6287 C   0  0  0  0  0  0  0  0  0  0  0  0
  150.1103  128.9253  154.8930 O   0  0  0  0  0  0  0  0  0  0  0  0
  148.1818  129.6379  153.6486 C   0  0  0  0  0  0  0  0  0  0  0  0
  148.0741  128.4254  152.9283 C   0  0  0  0  0  0  0  0  0  0  0  0
  147.0365  128.2350  151.9950 C   0  0  0  0  0  0  0  0  0  0  0  0
  146.0941  129.2552  151.7702 C   0  0  0  0  0  0  0  0  0  0  0  0
  146.1894  130.4656  152.4812 C   0  0  0  0  0  0  0  0  0  0  0  0
  147.2261  130.6576  153.4154 C   0  0  0  0  0  0  0  0  0  0  0  0
  148.8087  133.3299  156.4634 C   0  0  1  0  0  0  0  0  0  0  0  0
  148.1691  133.8360  157.6214 O   0  0  0  0  0  0  0  0  0  0  0  0
  147.6343  135.3814  157.2907 S   0  0  0  0  0  0  0  0  0  0  0  0
  146.2528  135.2874  156.7943 O   0  0  0  0  0  0  0  0  0  0  0  0
  148.0126  136.2604  158.4069 O   0  0  0  0  0  0  0  0  0  0  0  0
  148.6282  135.7073  155.9890 O   0  0  0  0  0  0  0  0  0  0  0  0
  149.2820  134.5083  155.5952 C   0  0  1  0  0  0  0  0  0  0  0  0
  152.0766  141.9540  158.5199 C   0  0  0  0  0  0  0  0  0  0  0  0
  152.3934  142.2678  159.8615 C   0  0  0  0  0  0  0  0  0  0  0  0
  152.3328  143.5985  160.3196 C   0  0  0  0  0  0  0  0  0  0  0  0
  151.9457  144.6292  159.4428 C   0  0  0  0  0  0  0  0  0  0  0  0
  151.6142  144.3274  158.1087 C   0  0  0  0  0  0  0  0  0  0  0  0
  151.6747  142.9970  157.6498 C   0  0  0  0  0  0  0  0  0  0  0  0
  150.0912  138.9818  153.2525 H   0  0  0  0  0  0  0  0  0  0  0  0
  152.2535  135.4042  158.1095 H   0  0  0  0  0  0  0  0  0  0  0  0
  151.3823  134.3084  154.9539 H   0  0  0  0  0  0  0  0  0  0  0  0
  149.9976  132.1510  157.8488 H   0  0  0  0  0  0  0  0  0  0  0  0
  151.1516  131.9131  155.0903 H   0  0  0  0  0  0  0  0  0  0  0  0
  151.0034  130.6827  156.3380 H   0  0  0  0  0  0  0  0  0  0  0  0
  148.7865  127.6277  153.0835 H   0  0  0  0  0  0  0  0  0  0  0  0
  146.9643  127.3047  151.4513 H   0  0  0  0  0  0  0  0  0  0  0  0
  145.2992  129.1094  151.0536 H   0  0  0  0  0  0  0  0  0  0  0  0
  145.4663  131.2495  152.3100 H   0  0  0  0  0  0  0  0  0  0  0  0
  147.2696  131.5986  153.9444 H   0  0  0  0  0  0  0  0  0  0  0  0
  148.1015  132.6885  155.9363 H   0  0  0  0  0  0  0  0  0  0  0  0
  149.1088  134.3172  154.5358 H   0  0  0  0  0  0  0  0  0  0  0  0
  152.6911  141.4880  160.5476 H   0  0  0  0  0  0  0  0  0  0  0  0
  152.5830  143.8272  161.3449 H   0  0  0  0  0  0  0  0  0  0  0  0
  151.8990  145.6493  159.7939 H   0  0  0  0  0  0  0  0  0  0  0  0
  151.3104  145.1161  157.4362 H   0  0  0  0  0  0  0  0  0  0  0  0
  151.4064  142.7856  156.6246 H   0  0  0  0  0  0  0  0  0  0  0  0
  1  2  2  0  0  0  0
  2  3  1  0  0  0  0
  2 33  1  0  0  0  0
  3  4  1  0  0  0  0
  4  9  1  0  0  0  0
  4  5  2  0  0  0  0
  5  6  1  0  0  0  0
  6  7  2  0  0  0  0
  6 39  1  0  0  0  0
  7  8  1  0  0  0  0
  8 12  1  0  0  0  0
  8  9  2  0  0  0  0
  9 10  1  0  0  0  0
 10 11  2  0  0  0  0
 11 12  1  0  0  0  0
 11 40  1  0  0  0  0
 12 13  1  0  0  0  0
 13 32  1  0  0  0  0
 13 14  1  0  0  0  0
 13 41  1  0  0  0  0
 14 15  1  0  0  0  0
 15 16  1  0  0  0  0
 15 26  1  0  0  0  0
 15 42  1  0  0  0  0
 16 17  1  0  0  0  0
 16 43  1  0  0  0  0
 16 44  1  0  0  0  0
 17 18  1  0  0  0  0
 18 19  2  0  0  0  0
 18 20  1  0  0  0  0
 20 25  1  0  0  0  0
 20 21  2  0  0  0  0
 21 22  1  0  0  0  0
 21 45  1  0  0  0  0
 22 23  2  0  0  0  0
 22 46  1  0  0  0  0
 23 24  1  0  0  0  0
 23 47  1  0  0  0  0
 24 25  2  0  0  0  0
 24 48  1  0  0  0  0
 25 49  1  0  0  0  0
 26 32  1  0  0  0  0
 26 27  1  0  0  0  0
 26 50  1  0  0  0  0
 27 28  1  0  0  0  0
 28 29  2  0  0  0  0
 28 30  2  0  0  0  0
 28 31  1  0  0  0  0
 31 32  1  0  0  0  0
 32 51  1  0  0  0  0
 33 38  1  0  0  0  0
 33 34  2  0  0  0  0
 34 35  1  0  0  0  0
 34 52  1  0  0  0  0
 35 36  2  0  0  0  0
 35 53  1  0  0  0  0
 36 37  1  0  0  0  0
 36 54  1  0  0  0  0
 37 38  2  0  0  0  0
 37 55  1  0  0  0  0
 38 56  1  0  0  0  0
M  CHG  1   3  -1
M  END
> <s_m_source_file>
AV-unprocessed.smi

> <i_m_source_file_index>
1

> <i_lp_mmshare_version>
43012

> <i_f3d_flags>
0

> <s_epik_input>
W2NIXTFbY0hdW2NIXVtjSF1bY0hdYzFDKD1PKVtOSF1jKG5bY0hdbjIpYyhjMjMpbltjSF1uM1tDQEBIXShbQ0BIXShbQ0BIXTQ1KU9TKE81KSg9Tyk9TylPW0NASF00W0NIMl1PQyg9TyljNltjSF1bY0hdW2NIXVtjSF1bY0hdNg==

> <s_epik_cmdline>
J2VwaWtfcHl0aG9uJywgJy1waCcsICc3LjAnLCAnLXRuJywgJzgnLCAnLW1hJywgJzIwMCcsICctbWV0YWxfYmluZGluZycsICctaW1hZScsICc8aW5maWxlLm1hZT4nLCAnLW9tYWUnLCAnPG91dGZpbGUubWFlPic=

> <r_lp_tautomer_probability>
1

> <r_epik_Ionization_Penalty>
4.39121

> <r_epik_Ionization_Penalty_Charging>
3.39398

> <r_epik_Ionization_Penalty_Neutral>
0.997232

> <r_epik_State_Penalty>
3.39839

> <r_epik_Charging_Adjusted_Penalty>
6.79237

> <i_epik_Tot_Q>
-1

> <i_epik_Tot_abs_Q>
1

> <r_epik_Metal_State_Penalty>
0.497663

> <b_epik_Metal_Only>
1

> <s_epik_Chemistry_Notes>
This compound has an ester and may undergo hydrolysis at high or low pH. This compound contains an acetal/aminal-like group ( X-CH(R)-Y where X, Y are N, S, or O) that may be acid/base labile, releasing an aldehyde.

> <s_lp_Force_Field>
OPLS_2005

> <r_lp_Energy>
44.7553

> <b_lp_Chiralities_Consistent>
1

> <s_lp_Variant>
AV-unprocessed.smi:1-24

> <Gold.Version>
5.8.1

> <Gold.Id.Protein>
6NUR|6NUR_protein|mol2

> <Gold.PLP.Fitness>
64.6603

> <Gold.PLP.PLP>
-56.2491

> <Gold.PLP.part.hbond>
-2.0000

> <Gold.PLP.part.metal>
0.0000

> <Gold.PLP.part.buried>
-5.7685

> <Gold.PLP.part.nonpolar>
-48.4632

> <Gold.PLP.part.repulsive>
0.4366

> <Gold.PLP.ligand.clash>
0.0000

> <Gold.PLP.ligand.torsion>
1.8805

> <Gold.PLP.Chemscore.Hbond>
2.8880

> <Gold.PLP.Chemscore.CHOScore>
1.0000

> <Gold.PLP.Chemscore.Metal>
0.0000

> <Gold.Chemscore.Hbonds>
donor molecule, donor type, donor heavy atom, donor atom, acceptor molecule, acceptor atom, score
      P1  H  7989  7998       L1     5  1.00
      P1  H  7997  8009       L1     3  1.95
      L1  C     6    39       P1  7957  1.00

> <Gold.PLP.Chemscore.Internal.Correction>
0.5082

> <Gold.Rescore>
     Score         DG    S(hbond)    S(metal)    S(lipo)     H(rot)  DE(clash)    DE(int)     intcor
     10.82     -18.32       0.82        0.00     132.44       2.11       0.26       7.23       ----

> <Gold.Chemscore.Fitness>
10.8222

> <Gold.Chemscore.DG>
-18.3154

> <Gold.Chemscore.ZeroCoef>
-5.4800

> <Gold.Chemscore.Hbond>
0.8234

> <Gold.Chemscore.Metal>
0.0000

> <Gold.Chemscore.Lipo>
132.4432

> <Gold.Chemscore.Internal_Hbond>
0.0000

> <Gold.Chemscore.DEClash>
0.2636

> <Gold.Chemscore.DEInternal>
7.2296

> <Gold.Chemscore.Rot>
2.1136

> <Gold.Chemscore.Internal.Correction>
   9.000000E+99

> <Gold.Chemscore.Hbonds>
donor molecule, donor type, donor heavy atom, donor atom, acceptor molecule, acceptor atom, score
      P1  H  7989  7998       L1     5  0.35
      P1  H  7997  8009       L1     3  0.33

> <Gold.Chemscore.Hbond.Weighted>
-2.7503

> <Gold.Chemscore.Metal.Weighted>
-0.0000

> <Gold.Chemscore.Lipo.Weighted>
-15.4959

> <Gold.Chemscore.Internal_Hbond.Weighted>
0.0000

> <Gold.Chemscore.DEClash.Weighted>
0.2636

> <Gold.Chemscore.DEInternal.Weighted>
7.2296

> <Gold.Chemscore.Rot.Weighted>
5.4107

> <Gold.Chemscore.Internal.Correction.Weighted>
   9.000000E+99

> <Gold.Protein.RotatedTorsions>
[ 6907 6896 6895 6894 ] final  -76.35 input  -60.11 | X-H torsion
[ 7974 7965 7964 7962 ] final  161.03 input  175.53 | X-H torsion
[ 8008 7997 7996 7995 ] final -167.42 input   59.86 | X-H torsion
[ 10167 10162 10161 10158 ] final -118.33 input  -65.29 | X-H torsion
[ 10718 10713 10712 10709 ] final   63.21 input   66.30 | X-H torsion
[ 10763 10752 10751 10750 ] final -128.21 input  -60.55 | X-H torsion
[ 11005 11000 10999 10996 ] final -167.94 input  -57.11 | X-H torsion

> <Gold.Protein.ActiveResidues>
 VAL166  LYS551  ARG553  GLY616  TRP617  ASP618  TYR619  PRO620  LYS621  CYS622 
 ASP623  PHE694  ASN695  SER759  ASP760  ASP761  ALA762  ILE779  LEU786  VAL792 
 PHE793  MET794  SER795  GLU796  ALA797  LYS798  CYS799  TRP800  GLU811  SER814 

> <Gold.Protein.RotatedAtoms>
  150.7030  134.4585  159.5369 H   0  0  0  0  0  0  0  0  0  0  0  0  # atno 6907 bound_to 6896
  152.2264  134.8361  160.0488 H   0  0  0  0  0  0  0  0  0  0  0  0  # atno 6908 bound_to 6896
  151.9192  133.3546  159.3928 H   0  0  0  0  0  0  0  0  0  0  0  0  # atno 6909 bound_to 6896
  144.7706  139.7840  143.6298 H   0  0  0  0  0  0  0  0  0  0  0  0  # atno 7974 bound_to 7965
  155.8774  140.1003  157.1508 H   0  0  0  0  0  0  0  0  0  0  0  0  # atno 8008 bound_to 7997
  154.4002  140.1335  156.4217 H   0  0  0  0  0  0  0  0  0  0  0  0  # atno 8009 bound_to 7997
  155.7681  140.3461  155.5235 H   0  0  0  0  0  0  0  0  0  0  0  0  # atno 8010 bound_to 7997
  140.0587  143.4989  152.2043 H   0  0  0  0  0  0  0  0  0  0  0  0  # atno 10167 bound_to 10162
  157.5955  130.9093  149.9687 H   0  0  0  0  0  0  0  0  0  0  0  0  # atno 10718 bound_to 10713
  154.8755  135.3936  154.3719 H   0  0  0  0  0  0  0  0  0  0  0  0  # atno 10763 bound_to 10752
  153.4478  135.7028  153.6133 H   0  0  0  0  0  0  0  0  0  0  0  0  # atno 10764 bound_to 10752
  153.4686  135.3795  155.2347 H   0  0  0  0  0  0  0  0  0  0  0  0  # atno 10765 bound_to 10752
  140.5475  134.5461  157.5115 H   0  0  0  0  0  0  0  0  0  0  0  0  # atno 11005 bound_to 11000
  146.1850  139.5061  142.9842 LP  0  0  0  0  0  0  0  0  0  0  0  0  # atno 17320 bound_to 7965
  145.6335  141.0299  143.1850 LP  0  0  0  0  0  0  0  0  0  0  0  0  # atno 17321 bound_to 7965
  139.5907  144.7549  151.3407 LP  0  0  0  0  0  0  0  0  0  0  0  0  # atno 17342 bound_to 10162
  140.7182  143.7207  150.7698 LP  0  0  0  0  0  0  0  0  0  0  0  0  # atno 17343 bound_to 10162
  156.1017  130.3655  150.0206 LP  0  0  0  0  0  0  0  0  0  0  0  0  # atno 17370 bound_to 10713
  156.8320  130.9396  151.3636 LP  0  0  0  0  0  0  0  0  0  0  0  0  # atno 17371 bound_to 10713
  139.9472  134.7681  156.0534 LP  0  0  0  0  0  0  0  0  0  0  0  0  # atno 17394 bound_to 11000
  141.1191  133.6618  156.3168 LP  0  0  0  0  0  0  0  0  0  0  0  0  # atno 17395 bound_to 11000

$$$$
