AV-unprocessed.smi:158|AV-procd|sdf|1337|dock3
  -GOLD-   2262019 33D 1   1.00000     0.00000
 Structure written by MMmdl.
 31 33  0  0  0  0  0  0  0  0  1 V2000
  149.3570  138.7247  153.4903 N   0  0  0  0  0  0  0  0  0  0  0  0
  150.2837  139.1787  154.3455 C   0  0  0  0  0  0  0  0  0  0  0  0
  151.5055  138.5960  154.3398 N   0  0  0  0  0  0  0  0  0  0  0  0
  152.4602  139.0193  155.1778 C   0  0  0  0  0  0  0  0  0  0  0  0
  153.9780  138.2062  155.0859 Cl  0  0  0  0  0  0  0  0  0  0  0  0
  152.3696  140.0017  156.0802 N   0  0  0  0  0  0  0  0  0  0  0  0
  151.1386  140.5897  156.0893 C   0  0  0  0  0  0  0  0  0  0  0  0
  150.0450  140.2381  155.2545 C   0  0  0  0  0  0  0  0  0  0  0  0
  148.9541  141.0497  155.5364 N   0  0  0  0  0  0  0  0  0  0  0  0
  149.3857  141.8372  156.4858 C   0  0  0  0  0  0  0  0  0  0  0  0
  150.6870  141.6226  156.8839 N   0  0  0  0  0  0  0  0  0  0  0  0
  151.4624  142.3546  157.9278 C   0  0  2  0  0  0  0  0  0  0  0  0
  150.8268  142.1602  159.1500 O   0  0  0  0  0  0  0  0  0  0  0  0
  151.0045  143.3062  159.9750 C   0  0  1  0  0  0  0  0  0  0  0  0
  152.3154  143.1579  160.7733 C   0  0  0  0  0  0  0  0  0  0  0  0
  152.0505  142.5855  162.0361 O   0  0  0  0  0  0  0  0  0  0  0  0
  151.0432  144.4752  158.9777 C   0  0  2  0  0  0  0  0  0  0  0  0
  149.7637  145.0642  158.8528 O   0  0  0  0  0  0  0  0  0  0  0  0
  151.4858  143.8629  157.6530 C   0  0  1  0  0  0  0  0  0  0  0  0
  152.7343  144.2329  157.3651 F   0  0  0  0  0  0  0  0  0  0  0  0
  152.4523  141.8960  157.9298 H   0  0  0  0  0  0  0  0  0  0  0  0
  150.1666  143.4107  160.6668 H   0  0  0  0  0  0  0  0  0  0  0  0
  151.7244  145.2620  159.3043 H   0  0  0  0  0  0  0  0  0  0  0  0
  150.8480  144.1399  156.8117 H   0  0  0  0  0  0  0  0  0  0  0  0
  148.4379  139.1431  153.4761 H   0  0  0  0  0  0  0  0  0  0  0  0
  149.5788  137.9654  152.8626 H   0  0  0  0  0  0  0  0  0  0  0  0
  148.7604  142.6002  156.9264 H   0  0  0  0  0  0  0  0  0  0  0  0
  153.0572  142.5650  160.2381 H   0  0  0  0  0  0  0  0  0  0  0  0
  152.7589  144.1373  160.9544 H   0  0  0  0  0  0  0  0  0  0  0  0
  152.0491  143.2727  162.6847 H   0  0  0  0  0  0  0  0  0  0  0  0
  149.5160  145.0572  157.9408 H   0  0  0  0  0  0  0  0  0  0  0  0
  1  2  1  0  0  0  0
  1 25  1  0  0  0  0
  1 26  1  0  0  0  0
  2  8  1  0  0  0  0
  2  3  2  0  0  0  0
  3  4  1  0  0  0  0
  4  5  1  0  0  0  0
  4  6  2  0  0  0  0
  6  7  1  0  0  0  0
  7 11  1  0  0  0  0
  7  8  2  0  0  0  0
  8  9  1  0  0  0  0
  9 10  2  0  0  0  0
 10 11  1  0  0  0  0
 10 27  1  0  0  0  0
 11 12  1  0  0  0  0
 12 21  1  0  0  0  0
 12 19  1  0  0  0  0
 12 13  1  0  0  0  0
 13 14  1  0  0  0  0
 14 22  1  0  0  0  0
 14 15  1  0  0  0  0
 14 17  1  0  0  0  0
 15 16  1  0  0  0  0
 15 28  1  0  0  0  0
 15 29  1  0  0  0  0
 16 30  1  0  0  0  0
 17 23  1  0  0  0  0
 17 18  1  0  0  0  0
 17 19  1  0  0  0  0
 18 31  1  0  0  0  0
 19 24  1  0  0  0  0
 19 20  1  0  0  0  0
M  END
> <s_m_source_file>
AV-unprocessed.smi

> <i_m_source_file_index>
158

> <i_lp_mmshare_version>
43012

> <i_f3d_flags>
0

> <s_epik_input>
Q2xjKG4xKW5jKFtOSDJdKWMoYzEyKW5bY0hdbjJbQ0BASF0zT1tDQEhdKFtDSDJdW09IXSlbQ0BASF0oW09IXSlbQ0BASF0zRg==

> <s_epik_cmdline>
J2VwaWtfcHl0aG9uJywgJy1waCcsICc3LjAnLCAnLXRuJywgJzgnLCAnLW1hJywgJzIwMCcsICctbWV0YWxfYmluZGluZycsICctaW1hZScsICc8aW5maWxlLm1hZT4nLCAnLW9tYWUnLCAnPG91dGZpbGUubWFlPic=

> <r_lp_tautomer_probability>
1

> <r_epik_Ionization_Penalty>
6.51543e-05

> <r_epik_Ionization_Penalty_Charging>
0

> <r_epik_Ionization_Penalty_Neutral>
6.51543e-05

> <r_epik_State_Penalty>
-0

> <r_epik_Charging_Adjusted_Penalty>
0

> <i_epik_Tot_Q>
0

> <i_epik_Tot_abs_Q>
0

> <r_epik_Metal_State_Penalty>
-0

> <b_epik_Metal_Only>
0

> <s_epik_Chemistry_Notes>
This compound contains an acetal/aminal-like group ( X-CH(R)-Y where X, Y are N, S, or O) that may be acid/base labile, releasing an aldehyde.

> <s_lp_Force_Field>
OPLS_2005

> <r_lp_Energy>
33.5879

> <b_lp_Chiralities_Consistent>
1

> <s_lp_Variant>
AV-unprocessed.smi:158-15

> <Gold.Version>
5.8.1

> <Gold.Id.Protein>
6NUR|6NUR_protein|mol2

> <Gold.PLP.Fitness>
43.7802

> <Gold.PLP.PLP>
-34.2309

> <Gold.PLP.part.hbond>
-6.6546

> <Gold.PLP.part.metal>
0.0000

> <Gold.PLP.part.buried>
0.4448

> <Gold.PLP.part.nonpolar>
-30.2663

> <Gold.PLP.part.repulsive>
0.3397

> <Gold.PLP.ligand.clash>
0.0000

> <Gold.PLP.ligand.torsion>
0.4176

> <Gold.PLP.Chemscore.Hbond>
2.7884

> <Gold.PLP.Chemscore.CHOScore>
0.6688

> <Gold.PLP.Chemscore.Metal>
0.0000

> <Gold.Chemscore.Hbonds>
donor molecule, donor type, donor heavy atom, donor atom, acceptor molecule, acceptor atom, score
      L1  H     1    26       P1  7948  0.94
      L1  H    18    31       P1  8029  0.37
      P1  H  6933  6945       L1    16  0.60
      P1  H  7997  8010       L1     6  0.80
      L1  C    10    27       P1  8028  0.64

> <Gold.PLP.Chemscore.Internal.Correction>
0.0129

> <Gold.Rescore>
     Score         DG    S(hbond)    S(metal)    S(lipo)     H(rot)  DE(clash)    DE(int)     intcor
      7.49      -8.73       1.22        0.00      61.12       3.12       1.06       0.18       ----

> <Gold.Chemscore.Fitness>
7.4903

> <Gold.Chemscore.DG>
-8.7265

> <Gold.Chemscore.ZeroCoef>
-5.4800

> <Gold.Chemscore.Hbond>
1.2246

> <Gold.Chemscore.Metal>
0.0000

> <Gold.Chemscore.Lipo>
61.1211

> <Gold.Chemscore.Internal_Hbond>
0.0000

> <Gold.Chemscore.DEClash>
1.0606

> <Gold.Chemscore.DEInternal>
0.1756

> <Gold.Chemscore.Rot>
3.1230

> <Gold.Chemscore.Internal.Correction>
   9.000000E+99

> <Gold.Chemscore.Hbonds>
donor molecule, donor type, donor heavy atom, donor atom, acceptor molecule, acceptor atom, score
      L1  H     1    26       P1  7948  0.63
      L1  H    18    31       P1  8029  0.06
      P1  H  6933  6945       L1    16  0.18
      P1  H  7997  8010       L1     6  0.11

> <Gold.Chemscore.Hbond.Weighted>
-4.0903

> <Gold.Chemscore.Metal.Weighted>
-0.0000

> <Gold.Chemscore.Lipo.Weighted>
-7.1512

> <Gold.Chemscore.Internal_Hbond.Weighted>
0.0000

> <Gold.Chemscore.DEClash.Weighted>
1.0606

> <Gold.Chemscore.DEInternal.Weighted>
0.1756

> <Gold.Chemscore.Rot.Weighted>
7.9950

> <Gold.Chemscore.Internal.Correction.Weighted>
   9.000000E+99

> <Gold.Protein.RotatedTorsions>
[ 6907 6896 6895 6894 ] final  162.45 input  -60.11 | X-H torsion
[ 7974 7965 7964 7962 ] final   20.85 input  175.53 | X-H torsion
[ 8008 7997 7996 7995 ] final   68.01 input   59.86 | X-H torsion
[ 10167 10162 10161 10158 ] final    3.49 input  -65.29 | X-H torsion
[ 10718 10713 10712 10709 ] final -143.07 input   66.30 | X-H torsion
[ 10763 10752 10751 10750 ] final  110.18 input  -60.55 | X-H torsion
[ 11005 11000 10999 10996 ] final  158.43 input  -57.11 | X-H torsion

> <Gold.Protein.ActiveResidues>
 VAL166  LYS551  ARG553  GLY616  TRP617  ASP618  TYR619  PRO620  LYS621  CYS622 
 ASP623  PHE694  ASN695  SER759  ASP760  ASP761  ALA762  ILE779  LEU786  VAL792 
 PHE793  MET794  SER795  GLU796  ALA797  LYS798  CYS799  TRP800  GLU811  SER814 

> <Gold.Protein.RotatedAtoms>
  151.9403  133.3636  159.3962 H   0  0  0  0  0  0  0  0  0  0  0  0  # atno 6907 bound_to 6896
  150.7000  134.4446  159.5317 H   0  0  0  0  0  0  0  0  0  0  0  0  # atno 6908 bound_to 6896
  152.2102  134.8508  160.0549 H   0  0  0  0  0  0  0  0  0  0  0  0  # atno 6909 bound_to 6896
  146.2095  139.8110  142.8700 H   0  0  0  0  0  0  0  0  0  0  0  0  # atno 7974 bound_to 7965
  155.7017  140.3495  155.4936 H   0  0  0  0  0  0  0  0  0  0  0  0  # atno 8008 bound_to 7997
  155.9434  140.1106  157.1058 H   0  0  0  0  0  0  0  0  0  0  0  0  # atno 8009 bound_to 7997
  154.4107  140.1208  156.4944 H   0  0  0  0  0  0  0  0  0  0  0  0  # atno 8010 bound_to 7997
  140.6583  143.7370  150.7692 H   0  0  0  0  0  0  0  0  0  0  0  0  # atno 10167 bound_to 10162
  156.3536  130.7701  151.1857 H   0  0  0  0  0  0  0  0  0  0  0  0  # atno 10718 bound_to 10713
  153.4453  135.3756  155.2252 H   0  0  0  0  0  0  0  0  0  0  0  0  # atno 10763 bound_to 10752
  154.8755  135.3873  154.4103 H   0  0  0  0  0  0  0  0  0  0  0  0  # atno 10764 bound_to 10752
  153.4655  135.7087  153.6088 H   0  0  0  0  0  0  0  0  0  0  0  0  # atno 10765 bound_to 10752
  140.1864  134.8439  157.2862 H   0  0  0  0  0  0  0  0  0  0  0  0  # atno 11005 bound_to 11000
  145.3196  141.0240  143.3508 LP  0  0  0  0  0  0  0  0  0  0  0  0  # atno 17320 bound_to 7965
  144.8876  139.4818  143.6693 LP  0  0  0  0  0  0  0  0  0  0  0  0  # atno 17321 bound_to 7965
  140.1034  143.4766  152.2412 LP  0  0  0  0  0  0  0  0  0  0  0  0  # atno 17342 bound_to 10162
  139.5810  144.7510  151.3639 LP  0  0  0  0  0  0  0  0  0  0  0  0  # atno 17343 bound_to 10162
  157.7464  131.0420  150.4676 LP  0  0  0  0  0  0  0  0  0  0  0  0  # atno 17370 bound_to 10713
  156.4875  130.4087  149.6426 LP  0  0  0  0  0  0  0  0  0  0  0  0  # atno 17371 bound_to 10713
  140.2209  134.4025  155.7566 LP  0  0  0  0  0  0  0  0  0  0  0  0  # atno 17394 bound_to 11000
  141.2225  133.7165  156.8488 LP  0  0  0  0  0  0  0  0  0  0  0  0  # atno 17395 bound_to 11000

$$$$
