AV-unprocessed.smi:1826|AV-procd|sdf|7417|dock7
  -GOLD-   22720 9 93D 1   1.00000     0.00000
 Structure written by MMmdl.
 40 42  0  0  0  0  0  0  0  0  2 V2000
  148.9845  142.3320  155.1057 O   0  0  0  0  0  0  0  0  0  0  0  0
  149.3839  141.3897  156.0761 C   0  0  0  0  0  0  0  0  0  0  0  0
  149.7583  142.0321  157.3708 C   0  0  0  0  0  0  0  0  0  0  0  0
  149.6190  143.3532  157.6762 N   0  3  0  0  0  0  0  0  0  0  0  0
  150.0693  143.5876  158.9763 C   0  0  0  0  0  0  0  0  0  0  0  0
  150.1286  144.7600  159.7235 C   0  0  0  0  0  0  0  0  0  0  0  0
  150.6474  144.6515  161.0307 C   0  0  0  0  0  0  0  0  0  0  0  0
  151.0814  143.4135  161.5484 C   0  0  0  0  0  0  0  0  0  0  0  0
  151.0158  142.2315  160.7815 C   0  0  0  0  0  0  0  0  0  0  0  0
  150.5025  142.3484  159.4903 C   0  0  0  0  0  0  0  0  0  0  0  0
  150.2928  141.4191  158.4663 N   0  0  0  0  0  0  0  0  0  0  0  0
  150.6480  140.0096  158.6928 C   0  0  0  0  0  0  0  0  0  0  0  0
  152.1346  139.8121  159.0512 C   0  0  2  0  0  0  0  0  0  0  0  0
  152.8052  139.1703  157.9833 O   0  0  0  0  0  0  0  0  0  0  0  0
  152.2885  139.0602  160.3636 C   0  0  0  0  0  0  0  0  0  0  0  0
  151.8875  137.7110  160.4550 C   0  0  0  0  0  0  0  0  0  0  0  0
  152.0359  137.0058  161.6651 C   0  0  0  0  0  0  0  0  0  0  0  0
  152.5923  137.6388  162.7974 C   0  0  0  0  0  0  0  0  0  0  0  0
  152.7419  136.8787  164.1072 C   0  0  0  0  0  0  0  0  0  0  0  0
  151.5690  136.3902  164.5121 F   0  0  0  0  0  0  0  0  0  0  0  0
  153.5905  135.8666  163.9316 F   0  0  0  0  0  0  0  0  0  0  0  0
  153.2153  137.6740  165.0672 F   0  0  0  0  0  0  0  0  0  0  0  0
  152.9906  138.9899  162.7054 C   0  0  0  0  0  0  0  0  0  0  0  0
  152.8434  139.6954  161.4956 C   0  0  0  0  0  0  0  0  0  0  0  0
  149.0912  143.1992  155.4664 H   0  0  0  0  0  0  0  0  0  0  0  0
  148.5733  140.6800  156.2420 H   0  0  0  0  0  0  0  0  0  0  0  0
  150.2325  140.8223  155.6931 H   0  0  0  0  0  0  0  0  0  0  0  0
  149.7965  145.7094  159.3294 H   0  0  0  0  0  0  0  0  0  0  0  0
  150.7137  145.5353  161.6487 H   0  0  0  0  0  0  0  0  0  0  0  0
  151.4727  143.3695  162.5545 H   0  0  0  0  0  0  0  0  0  0  0  0
  151.3507  141.2879  161.1863 H   0  0  0  0  0  0  0  0  0  0  0  0
  150.0024  139.6150  159.4785 H   0  0  0  0  0  0  0  0  0  0  0  0
  150.3982  139.4552  157.7875 H   0  0  0  0  0  0  0  0  0  0  0  0
  152.6044  140.7898  159.1640 H   0  0  0  0  0  0  0  0  0  0  0  0
  152.3185  139.3260  157.1882 H   0  0  0  0  0  0  0  0  0  0  0  0
  151.4635  137.2097  159.5972 H   0  0  0  0  0  0  0  0  0  0  0  0
  151.7182  135.9749  161.7200 H   0  0  0  0  0  0  0  0  0  0  0  0
  153.4112  139.4931  163.5637 H   0  0  0  0  0  0  0  0  0  0  0  0
  153.1593  140.7270  161.4397 H   0  0  0  0  0  0  0  0  0  0  0  0
  149.2401  144.0416  157.0389 H   0  0  0  0  0  0  0  0  0  0  0  0
  1  2  1  0  0  0  0
  1 25  1  0  0  0  0
  2  3  1  0  0  0  0
  2 26  1  0  0  0  0
  2 27  1  0  0  0  0
  3 11  1  0  0  0  0
  3  4  2  0  0  0  0
  4  5  1  0  0  0  0
  4 40  1  0  0  0  0
  5 10  2  0  0  0  0
  5  6  1  0  0  0  0
  6  7  2  0  0  0  0
  6 28  1  0  0  0  0
  7  8  1  0  0  0  0
  7 29  1  0  0  0  0
  8  9  2  0  0  0  0
  8 30  1  0  0  0  0
  9 10  1  0  0  0  0
  9 31  1  0  0  0  0
 10 11  1  0  0  0  0
 11 12  1  0  0  0  0
 12 13  1  0  0  0  0
 12 32  1  0  0  0  0
 12 33  1  0  0  0  0
 13 14  1  0  0  0  0
 13 15  1  0  0  0  0
 13 34  1  0  0  0  0
 14 35  1  0  0  0  0
 15 24  1  0  0  0  0
 15 16  2  0  0  0  0
 16 17  1  0  0  0  0
 16 36  1  0  0  0  0
 17 18  2  0  0  0  0
 17 37  1  0  0  0  0
 18 19  1  0  0  0  0
 18 23  1  0  0  0  0
 19 20  1  0  0  0  0
 19 21  1  0  0  0  0
 19 22  1  0  0  0  0
 23 24  2  0  0  0  0
 23 38  1  0  0  0  0
 24 39  1  0  0  0  0
M  CHG  1   4   1
M  END
> <s_m_source_file>
AV-unprocessed.smi

> <i_m_source_file_index>
1826

> <i_lp_mmshare_version>
43012

> <i_f3d_flags>
0

> <s_epik_input>
W2NIXTFbY0hdW2NIXVtjSF1jKGMxMiluKGMobjIpW0NIMl1bT0hdKVtDSDJdW0NASF0oW09IXSljM1tjSF1bY0hdYyhDKEYpKEYpRilbY0hdW2NIXTM=

> <s_epik_cmdline>
J2VwaWtfcHl0aG9uJywgJy1waCcsICc3LjAnLCAnLXRuJywgJzgnLCAnLW1hJywgJzIwMCcsICctbWV0YWxfYmluZGluZycsICctaW1hZScsICc8aW5maWxlLm1hZT4nLCAnLW9tYWUnLCAnPG91dGZpbGUubWFlPic=

> <r_epik_Ionization_Penalty>
1.35643

> <r_epik_Ionization_Penalty_Charging>
1.35557

> <r_epik_Ionization_Penalty_Neutral>
0.000856405

> <r_epik_State_Penalty>
1.43401

> <r_epik_Charging_Adjusted_Penalty>
2.78958

> <i_epik_Tot_Q>
1

> <i_epik_Tot_abs_Q>
1

> <r_epik_Metal_State_Penalty>
5.47166

> <b_epik_Metal_Only>
0

> <s_lp_Force_Field>
OPLS_2005

> <r_lp_Energy>
15.9337

> <b_lp_Chiralities_Consistent>
1

> <s_lp_Variant>
AV-unprocessed.smi:1826-3

> <Gold.Version>
5.8.1

> <Gold.Id.Protein>
6NUR|6NUR_protein|mol2

> <Gold.PLP.Fitness>
62.0017

> <Gold.PLP.PLP>
-51.6371

> <Gold.PLP.part.hbond>
-2.7660

> <Gold.PLP.part.metal>
0.0000

> <Gold.PLP.part.buried>
-6.0844

> <Gold.PLP.part.nonpolar>
-42.3147

> <Gold.PLP.part.repulsive>
0.0111

> <Gold.PLP.ligand.clash>
1.3384

> <Gold.PLP.ligand.torsion>
0.8423

> <Gold.PLP.Chemscore.Hbond>
4.0000

> <Gold.PLP.Chemscore.CHOScore>
0.0000

> <Gold.PLP.Chemscore.Metal>
0.0000

> <Gold.Chemscore.Hbonds>
donor molecule, donor type, donor heavy atom, donor atom, acceptor molecule, acceptor atom, score
      L1  H     1    25       P1  8028  1.00
      L1  H     4    40       P1  8028  2.00

> <Gold.PLP.Chemscore.Internal.Correction>
1.3875

> <Gold.Rescore>
     Score         DG    S(hbond)    S(metal)    S(lipo)     H(rot)  DE(clash)    DE(int)     intcor
     20.91     -21.99       2.64        0.00     131.03       2.98       0.02       1.06       ----

> <Gold.Chemscore.Fitness>
20.9092

> <Gold.Chemscore.DG>
-21.9870

> <Gold.Chemscore.ZeroCoef>
-5.4800

> <Gold.Chemscore.Hbond>
2.6380

> <Gold.Chemscore.Metal>
0.0000

> <Gold.Chemscore.Lipo>
131.0278

> <Gold.Chemscore.Internal_Hbond>
0.0000

> <Gold.Chemscore.DEClash>
0.0207

> <Gold.Chemscore.DEInternal>
1.0571

> <Gold.Chemscore.Rot>
2.9822

> <Gold.Chemscore.Internal.Correction>
   9.000000E+99

> <Gold.Chemscore.Hbonds>
donor molecule, donor type, donor heavy atom, donor atom, acceptor molecule, acceptor atom, score
      L1  H     1    25       P1  8028  0.94
      L1  H     4    40       P1  8028  0.33

> <Gold.Chemscore.Hbond.Weighted>
-8.8111

> <Gold.Chemscore.Metal.Weighted>
-0.0000

> <Gold.Chemscore.Lipo.Weighted>
-15.3303

> <Gold.Chemscore.Internal_Hbond.Weighted>
0.0000

> <Gold.Chemscore.DEClash.Weighted>
0.0207

> <Gold.Chemscore.DEInternal.Weighted>
1.0571

> <Gold.Chemscore.Rot.Weighted>
7.6343

> <Gold.Chemscore.Internal.Correction.Weighted>
   9.000000E+99

> <Gold.Protein.RotatedTorsions>
[ 6907 6896 6895 6894 ] final   37.55 input  -60.11 | X-H torsion
[ 7974 7965 7964 7962 ] final   98.58 input  175.53 | X-H torsion
[ 8008 7997 7996 7995 ] final   68.87 input   59.86 | X-H torsion
[ 10167 10162 10161 10158 ] final  167.84 input  -65.29 | X-H torsion
[ 10718 10713 10712 10709 ] final   26.88 input   66.30 | X-H torsion
[ 10763 10752 10751 10750 ] final   -4.66 input  -60.55 | X-H torsion
[ 11005 11000 10999 10996 ] final  -26.51 input  -57.11 | X-H torsion

> <Gold.Protein.ActiveResidues>
 VAL166  LYS551  ARG553  GLY616  TRP617  ASP618  TYR619  PRO620  LYS621  CYS622 
 ASP623  PHE694  ASN695  SER759  ASP760  ASP761  ALA762  ILE779  LEU786  VAL792 
 PHE793  MET794  SER795  GLU796  ALA797  LYS798  CYS799  TRP800  GLU811  SER814 

> <Gold.Protein.RotatedAtoms>
  152.1446  134.9035  160.0551 H   0  0  0  0  0  0  0  0  0  0  0  0  # atno 6907 bound_to 6896
  152.0090  133.3849  159.4220 H   0  0  0  0  0  0  0  0  0  0  0  0  # atno 6908 bound_to 6896
  150.6869  134.3673  159.5020 H   0  0  0  0  0  0  0  0  0  0  0  0  # atno 6909 bound_to 6896
  145.4103  139.2335  143.3251 H   0  0  0  0  0  0  0  0  0  0  0  0  # atno 7974 bound_to 7965
  155.7149  140.3494  155.4990 H   0  0  0  0  0  0  0  0  0  0  0  0  # atno 8008 bound_to 7997
  155.9322  140.1086  157.1145 H   0  0  0  0  0  0  0  0  0  0  0  0  # atno 8009 bound_to 7997
  154.4087  140.1229  156.4804 H   0  0  0  0  0  0  0  0  0  0  0  0  # atno 8010 bound_to 7997
  139.4954  144.3878  151.9551 H   0  0  0  0  0  0  0  0  0  0  0  0  # atno 10167 bound_to 10162
  157.2127  130.6942  149.6235 H   0  0  0  0  0  0  0  0  0  0  0  0  # atno 10718 bound_to 10713
  153.3878  135.7001  153.6517 H   0  0  0  0  0  0  0  0  0  0  0  0  # atno 10763 bound_to 10752
  153.5102  135.3633  155.2583 H   0  0  0  0  0  0  0  0  0  0  0  0  # atno 10764 bound_to 10752
  154.8699  135.4133  154.3189 H   0  0  0  0  0  0  0  0  0  0  0  0  # atno 10765 bound_to 10752
  140.9036  133.7508  156.0576 H   0  0  0  0  0  0  0  0  0  0  0  0  # atno 11005 bound_to 11000
  146.2708  140.4814  142.8815 LP  0  0  0  0  0  0  0  0  0  0  0  0  # atno 17320 bound_to 7965
  144.8313  140.6712  143.6289 LP  0  0  0  0  0  0  0  0  0  0  0  0  # atno 17321 bound_to 7965
  140.3315  144.3310  150.5986 LP  0  0  0  0  0  0  0  0  0  0  0  0  # atno 17342 bound_to 10162
  140.5641  143.2188  151.7715 LP  0  0  0  0  0  0  0  0  0  0  0  0  # atno 17343 bound_to 10162
  155.9689  130.4546  150.5855 LP  0  0  0  0  0  0  0  0  0  0  0  0  # atno 17370 bound_to 10713
  157.3656  131.0757  151.1600 LP  0  0  0  0  0  0  0  0  0  0  0  0  # atno 17371 bound_to 10713
  140.8199  134.3301  157.5385 LP  0  0  0  0  0  0  0  0  0  0  0  0  # atno 17394 bound_to 11000
  139.8746  134.9303  156.3499 LP  0  0  0  0  0  0  0  0  0  0  0  0  # atno 17395 bound_to 11000

$$$$
