AV-unprocessed.smi:3205|AV-procd|sdf|12254|dock4
  -GOLD-   2272018 93D 1   1.00000     0.00000
 Structure written by MMmdl.
 38 39  0  0  0  0  0  0  0  0  2 V2000
  150.9325  145.2688  159.1743 C   0  0  0  0  0  0  0  0  0  0  0  0
  151.5492  143.9716  158.6126 C   0  0  2  0  0  0  0  0  0  0  0  0
  150.5842  143.3135  157.7005 N   0  3  0  0  0  0  0  0  0  0  0  0
  151.0952  142.1288  156.9794 C   0  0  0  0  0  0  0  0  0  0  0  0
  149.9492  141.3748  156.2889 C   0  0  0  0  0  0  0  0  0  0  0  0
  150.4284  140.2376  155.5268 N   0  0  0  0  0  0  0  0  0  0  0  0
  151.6482  139.5997  155.6125 C   0  0  0  0  0  0  0  0  0  0  0  0
  151.6459  138.5939  154.6891 C   0  0  0  0  0  0  0  0  0  0  0  0
  150.3665  138.7003  154.0757 C   0  0  0  0  0  0  0  0  0  0  0  0
  149.6416  139.6877  154.5770 N   0  0  0  0  0  0  0  0  0  0  0  0
  151.9763  142.9781  159.7263 C   0  0  0  0  0  0  0  0  0  0  0  0
  152.4400  143.6806  161.0203 C   0  0  0  0  0  0  0  0  0  0  0  0
  152.9428  142.6660  162.0609 C   0  0  0  0  0  0  0  0  0  0  0  0
  153.9955  141.8841  161.5115 O   0  0  0  0  0  0  0  0  0  0  0  0
  153.5780  141.1147  160.3916 C   0  0  0  0  0  0  0  0  0  0  0  0
  153.1174  142.0475  159.2604 C   0  0  0  0  0  0  0  0  0  0  0  0
  151.6533  145.8374  159.7610 H   0  0  0  0  0  0  0  0  0  0  0  0
  150.0746  145.0559  159.8129 H   0  0  0  0  0  0  0  0  0  0  0  0
  150.5958  145.9353  158.3810 H   0  0  0  0  0  0  0  0  0  0  0  0
  152.4391  144.2326  158.0375 H   0  0  0  0  0  0  0  0  0  0  0  0
  149.8057  143.0008  158.2630 H   0  0  0  0  0  0  0  0  0  0  0  0
  151.8339  142.4331  156.2379 H   0  0  0  0  0  0  0  0  0  0  0  0
  151.6002  141.4704  157.6876 H   0  0  0  0  0  0  0  0  0  0  0  0
  149.2278  141.0168  157.0247 H   0  0  0  0  0  0  0  0  0  0  0  0
  149.4101  142.0411  155.6139 H   0  0  0  0  0  0  0  0  0  0  0  0
  152.4081  139.9100  156.3147 H   0  0  0  0  0  0  0  0  0  0  0  0
  152.4383  137.8902  154.4813 H   0  0  0  0  0  0  0  0  0  0  0  0
  149.9471  138.0949  153.2859 H   0  0  0  0  0  0  0  0  0  0  0  0
  151.1151  142.3564  159.9772 H   0  0  0  0  0  0  0  0  0  0  0  0
  153.2370  144.3898  160.7926 H   0  0  0  0  0  0  0  0  0  0  0  0
  151.6273  144.2538  161.4652 H   0  0  0  0  0  0  0  0  0  0  0  0
  153.3170  143.1882  162.9417 H   0  0  0  0  0  0  0  0  0  0  0  0
  152.1311  142.0190  162.3973 H   0  0  0  0  0  0  0  0  0  0  0  0
  154.4150  140.5031  160.0547 H   0  0  0  0  0  0  0  0  0  0  0  0
  152.7800  140.4297  160.6820 H   0  0  0  0  0  0  0  0  0  0  0  0
  152.8031  141.4412  158.4108 H   0  0  0  0  0  0  0  0  0  0  0  0
  153.9653  142.6434  158.9197 H   0  0  0  0  0  0  0  0  0  0  0  0
  150.2440  143.9931  157.0351 H   0  0  0  0  0  0  0  0  0  0  0  0
  1  2  1  0  0  0  0
  1 17  1  0  0  0  0
  1 18  1  0  0  0  0
  1 19  1  0  0  0  0
  2  3  1  0  0  0  0
  2 11  1  0  0  0  0
  2 20  1  0  0  0  0
  3  4  1  0  0  0  0
  3 21  1  0  0  0  0
  3 38  1  0  0  0  0
  4  5  1  0  0  0  0
  4 22  1  0  0  0  0
  4 23  1  0  0  0  0
  5  6  1  0  0  0  0
  5 24  1  0  0  0  0
  5 25  1  0  0  0  0
  6 10  1  0  0  0  0
  6  7  1  0  0  0  0
  7  8  2  0  0  0  0
  7 26  1  0  0  0  0
  8  9  1  0  0  0  0
  8 27  1  0  0  0  0
  9 10  2  0  0  0  0
  9 28  1  0  0  0  0
 11 16  1  0  0  0  0
 11 12  1  0  0  0  0
 11 29  1  0  0  0  0
 12 13  1  0  0  0  0
 12 30  1  0  0  0  0
 12 31  1  0  0  0  0
 13 14  1  0  0  0  0
 13 32  1  0  0  0  0
 13 33  1  0  0  0  0
 14 15  1  0  0  0  0
 15 16  1  0  0  0  0
 15 34  1  0  0  0  0
 15 35  1  0  0  0  0
 16 36  1  0  0  0  0
 16 37  1  0  0  0  0
M  CHG  1   3   1
M  END
> <s_m_source_file>
AV-unprocessed.smi

> <i_m_source_file_index>
3205

> <i_lp_mmshare_version>
43012

> <i_f3d_flags>
0

> <s_epik_input>
W0NIMl0xW0NIMl1PW0NIMl1bQ0gyXVtDSF0xW0NASF0oW0NIM10pW05IXVtDSDJdW0NIMl1uMltjSF1bY0hdW2NIXW4y

> <s_epik_cmdline>
J2VwaWtfcHl0aG9uJywgJy1waCcsICc3LjAnLCAnLXRuJywgJzgnLCAnLW1hJywgJzIwMCcsICctbWV0YWxfYmluZGluZycsICctaW1hZScsICc8aW5maWxlLm1hZT4nLCAnLW9tYWUnLCAnPG91dGZpbGUubWFlPic=

> <r_lp_tautomer_probability>
1

> <r_epik_Ionization_Penalty>
0.00310903

> <r_epik_Ionization_Penalty_Charging>
0.00310601

> <r_epik_Ionization_Penalty_Neutral>
3.02836e-06

> <r_epik_State_Penalty>
-0

> <r_epik_Charging_Adjusted_Penalty>
0.00310601

> <i_epik_Tot_Q>
1

> <i_epik_Tot_abs_Q>
1

> <r_epik_Metal_State_Penalty>
-0

> <b_epik_Metal_Only>
0

> <s_lp_Force_Field>
OPLS_2005

> <r_lp_Energy>
15.8656

> <b_lp_Chiralities_Consistent>
1

> <s_lp_Variant>
AV-unprocessed.smi:3205-1

> <Gold.Version>
5.8.1

> <Gold.Id.Protein>
6NUR|6NUR_protein|mol2

> <Gold.PLP.Fitness>
51.7596

> <Gold.PLP.PLP>
-43.9475

> <Gold.PLP.part.hbond>
-1.4893

> <Gold.PLP.part.metal>
0.0000

> <Gold.PLP.part.buried>
-5.6832

> <Gold.PLP.part.nonpolar>
-37.7325

> <Gold.PLP.part.repulsive>
0.1296

> <Gold.PLP.ligand.clash>
0.0000

> <Gold.PLP.ligand.torsion>
0.8662

> <Gold.PLP.Chemscore.Hbond>
2.0000

> <Gold.PLP.Chemscore.CHOScore>
1.1649

> <Gold.PLP.Chemscore.Metal>
0.0000

> <Gold.Chemscore.Hbonds>
donor molecule, donor type, donor heavy atom, donor atom, acceptor molecule, acceptor atom, score
      L1  H     3    38       P1  8028  1.92
      L1  C     9    28       P1  7948  1.00
      L1  C     9    28       P1  7957  0.06

> <Gold.PLP.Chemscore.Internal.Correction>
0.0498

> <Gold.Rescore>
     Score         DG    S(hbond)    S(metal)    S(lipo)     H(rot)  DE(clash)    DE(int)     intcor
     17.48     -18.31       0.98        0.00     117.98       1.66       0.05       0.78       ----

> <Gold.Chemscore.Fitness>
17.4845

> <Gold.Chemscore.DG>
-18.3105

> <Gold.Chemscore.ZeroCoef>
-5.4800

> <Gold.Chemscore.Hbond>
0.9804

> <Gold.Chemscore.Metal>
0.0000

> <Gold.Chemscore.Lipo>
117.9831

> <Gold.Chemscore.Internal_Hbond>
0.0000

> <Gold.Chemscore.DEClash>
0.0494

> <Gold.Chemscore.DEInternal>
0.7766

> <Gold.Chemscore.Rot>
1.6594

> <Gold.Chemscore.Internal.Correction>
   9.000000E+99

> <Gold.Chemscore.Hbonds>
donor molecule, donor type, donor heavy atom, donor atom, acceptor molecule, acceptor atom, score
      L1  H     3    38       P1  8028  0.87

> <Gold.Chemscore.Hbond.Weighted>
-3.2746

> <Gold.Chemscore.Metal.Weighted>
-0.0000

> <Gold.Chemscore.Lipo.Weighted>
-13.8040

> <Gold.Chemscore.Internal_Hbond.Weighted>
0.0000

> <Gold.Chemscore.DEClash.Weighted>
0.0494

> <Gold.Chemscore.DEInternal.Weighted>
0.7766

> <Gold.Chemscore.Rot.Weighted>
4.2482

> <Gold.Chemscore.Internal.Correction.Weighted>
   9.000000E+99

> <Gold.Protein.RotatedTorsions>
[ 6907 6896 6895 6894 ] final   35.22 input  -60.11 | X-H torsion
[ 7974 7965 7964 7962 ] final -173.98 input  175.53 | X-H torsion
[ 8008 7997 7996 7995 ] final  135.80 input   59.86 | X-H torsion
[ 10167 10162 10161 10158 ] final   32.70 input  -65.29 | X-H torsion
[ 10718 10713 10712 10709 ] final  -15.21 input   66.30 | X-H torsion
[ 10763 10752 10751 10750 ] final   91.63 input  -60.55 | X-H torsion
[ 11005 11000 10999 10996 ] final  -27.90 input  -57.11 | X-H torsion

> <Gold.Protein.ActiveResidues>
 VAL166  LYS551  ARG553  GLY616  TRP617  ASP618  TYR619  PRO620  LYS621  CYS622 
 ASP623  PHE694  ASN695  SER759  ASP760  ASP761  ALA762  ILE779  LEU786  VAL792 
 PHE793  MET794  SER795  GLU796  ALA797  LYS798  CYS799  TRP800  GLU811  SER814 

> <Gold.Protein.RotatedAtoms>
  152.1132  134.9260  160.0565 H   0  0  0  0  0  0  0  0  0  0  0  0  # atno 6907 bound_to 6896
  152.0429  133.3980  159.4353 H   0  0  0  0  0  0  0  0  0  0  0  0  # atno 6908 bound_to 6896
  150.6844  134.3315  159.4873 H   0  0  0  0  0  0  0  0  0  0  0  0  # atno 6909 bound_to 6896
  144.7134  140.1540  143.6382 H   0  0  0  0  0  0  0  0  0  0  0  0  # atno 7974 bound_to 7965
  156.3003  140.2461  156.3641 H   0  0  0  0  0  0  0  0  0  0  0  0  # atno 8008 bound_to 7997
  154.8849  140.0411  157.1824 H   0  0  0  0  0  0  0  0  0  0  0  0  # atno 8009 bound_to 7997
  154.8657  140.2927  155.5515 H   0  0  0  0  0  0  0  0  0  0  0  0  # atno 8010 bound_to 7997
  140.4475  144.1097  150.6185 H   0  0  0  0  0  0  0  0  0  0  0  0  # atno 10167 bound_to 10162
  156.6050  130.4834  149.6224 H   0  0  0  0  0  0  0  0  0  0  0  0  # atno 10718 bound_to 10713
  153.2104  135.4390  155.0372 H   0  0  0  0  0  0  0  0  0  0  0  0  # atno 10763 bound_to 10752
  154.8196  135.3331  154.7078 H   0  0  0  0  0  0  0  0  0  0  0  0  # atno 10764 bound_to 10752
  153.7516  135.6998  153.5000 H   0  0  0  0  0  0  0  0  0  0  0  0  # atno 10765 bound_to 10752
  140.9161  133.7429  156.0737 H   0  0  0  0  0  0  0  0  0  0  0  0  # atno 11005 bound_to 11000
  145.9090  139.2476  143.1448 LP  0  0  0  0  0  0  0  0  0  0  0  0  # atno 17320 bound_to 7965
  145.9735  140.8741  143.0150 LP  0  0  0  0  0  0  0  0  0  0  0  0  # atno 17321 bound_to 7965
  140.4246  143.2595  151.9672 LP  0  0  0  0  0  0  0  0  0  0  0  0  # atno 17342 bound_to 10162
  139.4794  144.5799  151.7949 LP  0  0  0  0  0  0  0  0  0  0  0  0  # atno 17343 bound_to 10162
  156.2437  130.6866  151.1580 LP  0  0  0  0  0  0  0  0  0  0  0  0  # atno 17370 bound_to 10713
  157.7269  131.0643  150.5887 LP  0  0  0  0  0  0  0  0  0  0  0  0  # atno 17371 bound_to 10713
  140.8048  134.3467  157.5429 LP  0  0  0  0  0  0  0  0  0  0  0  0  # atno 17394 bound_to 11000
  139.8766  134.9219  156.3287 LP  0  0  0  0  0  0  0  0  0  0  0  0  # atno 17395 bound_to 11000

$$$$
