AV-unprocessed.smi:3303|AV-procd|sdf|12681|dock8
  -GOLD-   2272019 13D 1   1.00000     0.00000
 Structure written by MMmdl.
 44 45  0  0  0  0  0  0  0  0  2 V2000
  144.7443  136.5779  152.2153 C   0  0  0  0  0  0  0  0  0  0  0  0
  145.3401  135.4046  151.4167 C   0  0  2  0  0  0  0  0  0  0  0  0
  144.2650  134.7906  150.4987 C   0  0  0  0  0  0  0  0  0  0  0  0
  144.7949  133.6669  149.6833 N   0  3  2  0  0  0  0  0  0  0  0  0
  143.7863  133.2045  148.6992 C   0  0  0  0  0  0  0  0  0  0  0  0
  145.3570  132.5787  150.5373 C   0  0  1  0  0  0  0  0  0  0  0  0
  145.9263  131.4072  149.7132 C   0  0  0  0  0  0  0  0  0  0  0  0
  146.4555  133.1453  151.4580 C   0  0  0  0  0  0  0  0  0  0  0  0
  145.9437  134.3080  152.3228 C   0  0  1  0  0  0  0  0  0  0  0  0
  147.0822  134.8373  153.0625 N   0  0  0  0  0  0  0  0  0  0  0  0
  147.5701  133.8868  154.0521 C   0  0  0  0  0  0  0  0  0  0  0  0
  149.1057  133.9183  154.1367 C   0  0  0  0  0  0  0  0  0  0  0  0
  149.7172  132.5572  154.4258 C   0  0  0  0  0  0  0  0  0  0  0  0
  149.2175  131.3996  153.7919 C   0  0  0  0  0  0  0  0  0  0  0  0
  149.8010  130.1568  154.1058 C   0  0  0  0  0  0  0  0  0  0  0  0
  150.8550  130.1188  155.0387 C   0  0  0  0  0  0  0  0  0  0  0  0
  151.2814  131.3306  155.6174 C   0  0  0  0  0  0  0  0  0  0  0  0
  150.7297  132.5273  155.3225 N   0  0  0  0  0  0  0  0  0  0  0  0
  143.9747  136.2366  152.9083 H   0  0  0  0  0  0  0  0  0  0  0  0
  144.2910  137.3142  151.5510 H   0  0  0  0  0  0  0  0  0  0  0  0
  145.5082  137.0986  152.7932 H   0  0  0  0  0  0  0  0  0  0  0  0
  146.1316  135.8057  150.7809 H   0  0  0  0  0  0  0  0  0  0  0  0
  143.4197  134.4380  151.0924 H   0  0  0  0  0  0  0  0  0  0  0  0
  143.8793  135.5645  149.8335 H   0  0  0  0  0  0  0  0  0  0  0  0
  142.9652  132.6848  149.1948 H   0  0  0  0  0  0  0  0  0  0  0  0
  144.2250  132.5358  147.9593 H   0  0  0  0  0  0  0  0  0  0  0  0
  143.3687  134.0471  148.1468 H   0  0  0  0  0  0  0  0  0  0  0  0
  144.5513  132.1895  151.1626 H   0  0  0  0  0  0  0  0  0  0  0  0
  146.4149  130.6788  150.3608 H   0  0  0  0  0  0  0  0  0  0  0  0
  146.6655  131.7504  148.9887 H   0  0  0  0  0  0  0  0  0  0  0  0
  145.1475  130.8676  149.1749 H   0  0  0  0  0  0  0  0  0  0  0  0
  146.8376  132.3536  152.1042 H   0  0  0  0  0  0  0  0  0  0  0  0
  147.2988  133.4783  150.8494 H   0  0  0  0  0  0  0  0  0  0  0  0
  145.1805  133.9260  153.0034 H   0  0  0  0  0  0  0  0  0  0  0  0
  147.8330  135.0761  152.4302 H   0  0  0  0  0  0  0  0  0  0  0  0
  147.1448  134.1039  155.0325 H   0  0  0  0  0  0  0  0  0  0  0  0
  147.2356  132.8877  153.7706 H   0  0  0  0  0  0  0  0  0  0  0  0
  149.5102  134.2854  153.1928 H   0  0  0  0  0  0  0  0  0  0  0  0
  149.4274  134.6308  154.8978 H   0  0  0  0  0  0  0  0  0  0  0  0
  148.4035  131.4599  153.0846 H   0  0  0  0  0  0  0  0  0  0  0  0
  149.4451  129.2493  153.6412 H   0  0  0  0  0  0  0  0  0  0  0  0
  151.3251  129.1837  155.3053 H   0  0  0  0  0  0  0  0  0  0  0  0
  152.0854  131.3387  156.3383 H   0  0  0  0  0  0  0  0  0  0  0  0
  145.5646  134.0422  149.1475 H   0  0  0  0  0  0  0  0  0  0  0  0
  1  2  1  0  0  0  0
  1 19  1  0  0  0  0
  1 20  1  0  0  0  0
  1 21  1  0  0  0  0
  2  9  1  0  0  0  0
  2  3  1  0  0  0  0
  2 22  1  0  0  0  0
  3  4  1  0  0  0  0
  3 23  1  0  0  0  0
  3 24  1  0  0  0  0
  4  5  1  0  0  0  0
  4  6  1  0  0  0  0
  4 44  1  0  0  0  0
  5 25  1  0  0  0  0
  5 26  1  0  0  0  0
  5 27  1  0  0  0  0
  6  7  1  0  0  0  0
  6  8  1  0  0  0  0
  6 28  1  0  0  0  0
  7 29  1  0  0  0  0
  7 30  1  0  0  0  0
  7 31  1  0  0  0  0
  8  9  1  0  0  0  0
  8 32  1  0  0  0  0
  8 33  1  0  0  0  0
  9 10  1  0  0  0  0
  9 34  1  0  0  0  0
 10 11  1  0  0  0  0
 10 35  1  0  0  0  0
 11 12  1  0  0  0  0
 11 36  1  0  0  0  0
 11 37  1  0  0  0  0
 12 13  1  0  0  0  0
 12 38  1  0  0  0  0
 12 39  1  0  0  0  0
 13 18  1  0  0  0  0
 13 14  2  0  0  0  0
 14 15  1  0  0  0  0
 14 40  1  0  0  0  0
 15 16  2  0  0  0  0
 15 41  1  0  0  0  0
 16 17  1  0  0  0  0
 16 42  1  0  0  0  0
 17 18  2  0  0  0  0
 17 43  1  0  0  0  0
M  CHG  1   4   1
M  END
> <s_m_source_file>
AV-unprocessed.smi

> <i_m_source_file_index>
3303

> <i_lp_mmshare_version>
43012

> <i_f3d_flags>
0

> <s_epik_input>
W0NIM11bQ0BASF0xW0NIMl1OKFtDSDNdKVtDQEBIXShbQ0gzXSlbQ0gyXVtDQEhdMVtOSF1bQ0gyXVtDSDJdYzJbY0hdW2NIXVtjSF1bY0hdbjI=

> <s_epik_cmdline>
J2VwaWtfcHl0aG9uJywgJy1waCcsICc3LjAnLCAnLXRuJywgJzgnLCAnLW1hJywgJzIwMCcsICctbWV0YWxfYmluZGluZycsICctaW1hZScsICc8aW5maWxlLm1hZT4nLCAnLW9tYWUnLCAnPG91dGZpbGUubWFlPic=

> <r_epik_Ionization_Penalty>
2.31085

> <r_epik_Ionization_Penalty_Charging>
0.000313057

> <r_epik_Ionization_Penalty_Neutral>
2.31054

> <r_epik_State_Penalty>
2.4087

> <r_epik_Charging_Adjusted_Penalty>
2.40902

> <i_epik_Tot_Q>
1

> <i_epik_Tot_abs_Q>
1

> <r_epik_Metal_State_Penalty>
2.30979

> <b_epik_Metal_Only>
0

> <s_lp_Force_Field>
OPLS_2005

> <r_lp_Energy>
25.5146

> <b_lp_Chiralities_Consistent>
1

> <s_lp_Variant>
AV-unprocessed.smi:3303-25

> <Gold.Version>
5.8.1

> <Gold.Id.Protein>
6NUR|6NUR_protein|mol2

> <Gold.PLP.Fitness>
39.7581

> <Gold.PLP.PLP>
-35.3716

> <Gold.PLP.part.hbond>
-2.0000

> <Gold.PLP.part.metal>
0.0000

> <Gold.PLP.part.buried>
-0.9031

> <Gold.PLP.part.nonpolar>
-32.0141

> <Gold.PLP.part.repulsive>
0.1039

> <Gold.PLP.ligand.clash>
0.0000

> <Gold.PLP.ligand.torsion>
0.7736

> <Gold.PLP.Chemscore.Hbond>
1.9760

> <Gold.PLP.Chemscore.CHOScore>
0.0000

> <Gold.PLP.Chemscore.Metal>
0.0000

> <Gold.Chemscore.Hbonds>
donor molecule, donor type, donor heavy atom, donor atom, acceptor molecule, acceptor atom, score
      L1  H     4    44       P1  7921  0.98
      L1  H    10    35       P1  7948  1.00

> <Gold.PLP.Chemscore.Internal.Correction>
0.0058

> <Gold.Rescore>
     Score         DG    S(hbond)    S(metal)    S(lipo)     H(rot)  DE(clash)    DE(int)     intcor
     18.75     -19.93       1.83        0.00     100.42       1.33       0.68       0.49       ----

> <Gold.Chemscore.Fitness>
18.7543

> <Gold.Chemscore.DG>
-19.9292

> <Gold.Chemscore.ZeroCoef>
-5.4800

> <Gold.Chemscore.Hbond>
1.8255

> <Gold.Chemscore.Metal>
0.0000

> <Gold.Chemscore.Lipo>
100.4247

> <Gold.Chemscore.Internal_Hbond>
0.0000

> <Gold.Chemscore.DEClash>
0.6838

> <Gold.Chemscore.DEInternal>
0.4910

> <Gold.Chemscore.Rot>
1.3272

> <Gold.Chemscore.Internal.Correction>
   9.000000E+99

> <Gold.Chemscore.Hbonds>
donor molecule, donor type, donor heavy atom, donor atom, acceptor molecule, acceptor atom, score
      L1  H     4    44       P1  7921  0.65
      L1  H    10    35       P1  7948  0.91

> <Gold.Chemscore.Hbond.Weighted>
-6.0972

> <Gold.Chemscore.Metal.Weighted>
-0.0000

> <Gold.Chemscore.Lipo.Weighted>
-11.7497

> <Gold.Chemscore.Internal_Hbond.Weighted>
0.0000

> <Gold.Chemscore.DEClash.Weighted>
0.6838

> <Gold.Chemscore.DEInternal.Weighted>
0.4910

> <Gold.Chemscore.Rot.Weighted>
3.3976

> <Gold.Chemscore.Internal.Correction.Weighted>
   9.000000E+99

> <Gold.Protein.RotatedTorsions>
[ 6907 6896 6895 6894 ] final -175.88 input  -60.11 | X-H torsion
[ 7974 7965 7964 7962 ] final   19.88 input  175.53 | X-H torsion
[ 8008 7997 7996 7995 ] final   52.28 input   59.86 | X-H torsion
[ 10167 10162 10161 10158 ] final   72.89 input  -65.29 | X-H torsion
[ 10718 10713 10712 10709 ] final  -26.01 input   66.30 | X-H torsion
[ 10763 10752 10751 10750 ] final  -87.67 input  -60.55 | X-H torsion
[ 11005 11000 10999 10996 ] final  -90.72 input  -57.11 | X-H torsion

> <Gold.Protein.ActiveResidues>
 VAL166  LYS551  ARG553  GLY616  TRP617  ASP618  TYR619  PRO620  LYS621  CYS622 
 ASP623  PHE694  ASN695  SER759  ASP760  ASP761  ALA762  ILE779  LEU786  VAL792 
 PHE793  MET794  SER795  GLU796  ALA797  LYS798  CYS799  TRP800  GLU811  SER814 

> <Gold.Protein.RotatedAtoms>
  151.5957  133.3361  159.3036 H   0  0  0  0  0  0  0  0  0  0  0  0  # atno 6907 bound_to 6896
  150.8235  134.7458  159.6804 H   0  0  0  0  0  0  0  0  0  0  0  0  # atno 6908 bound_to 6896
  152.4327  134.5753  159.9984 H   0  0  0  0  0  0  0  0  0  0  0  0  # atno 6909 bound_to 6896
  146.2133  139.8250  142.8672 H   0  0  0  0  0  0  0  0  0  0  0  0  # atno 7974 bound_to 7965
  155.4492  140.3457  155.4299 H   0  0  0  0  0  0  0  0  0  0  0  0  # atno 8008 bound_to 7997
  156.1231  140.1492  156.9206 H   0  0  0  0  0  0  0  0  0  0  0  0  # atno 8009 bound_to 7997
  154.4838  140.0861  156.7418 H   0  0  0  0  0  0  0  0  0  0  0  0  # atno 8010 bound_to 7997
  140.0304  144.5470  150.7511 H   0  0  0  0  0  0  0  0  0  0  0  0  # atno 10167 bound_to 10162
  156.4568  130.4495  149.6954 H   0  0  0  0  0  0  0  0  0  0  0  0  # atno 10718 bound_to 10713
  154.6361  135.5405  153.7736 H   0  0  0  0  0  0  0  0  0  0  0  0  # atno 10763 bound_to 10752
  153.0309  135.6448  154.1229 H   0  0  0  0  0  0  0  0  0  0  0  0  # atno 10764 bound_to 10752
  154.1156  135.2924  155.3200 H   0  0  0  0  0  0  0  0  0  0  0  0  # atno 10765 bound_to 10752
  141.1560  133.7709  156.9777 H   0  0  0  0  0  0  0  0  0  0  0  0  # atno 11005 bound_to 11000
  145.3057  141.0206  143.3583 LP  0  0  0  0  0  0  0  0  0  0  0  0  # atno 17320 bound_to 7965
  144.8973  139.4695  143.6649 LP  0  0  0  0  0  0  0  0  0  0  0  0  # atno 17321 bound_to 7965
  140.7304  143.2683  151.3971 LP  0  0  0  0  0  0  0  0  0  0  0  0  # atno 17342 bound_to 10162
  139.6080  144.1157  152.2269 LP  0  0  0  0  0  0  0  0  0  0  0  0  # atno 17343 bound_to 10162
  156.3758  130.7553  151.2541 LP  0  0  0  0  0  0  0  0  0  0  0  0  # atno 17370 bound_to 10713
  157.7500  131.0310  150.4162 LP  0  0  0  0  0  0  0  0  0  0  0  0  # atno 17371 bound_to 10713
  140.1087  134.9490  157.2032 LP  0  0  0  0  0  0  0  0  0  0  0  0  # atno 17394 bound_to 11000
  140.3222  134.2903  155.7244 LP  0  0  0  0  0  0  0  0  0  0  0  0  # atno 17395 bound_to 11000

$$$$
