AV-unprocessed.smi:1122|AV-procd|sdf|4827|dock2
  -GOLD-   22720 3383D 1   1.00000     0.00000
 Structure written by MMmdl.
 38 39  0  0  0  0  0  0  0  0  1 V2000
  151.5425  137.4260  155.8525 C   0  0  0  0  0  0  0  0  0  0  0  0
  151.6143  138.2024  154.5355 C   0  0  0  0  0  0  0  0  0  0  0  0
  150.3147  138.2354  153.9539 O   0  0  0  0  0  0  0  0  0  0  0  0
  149.5462  139.3736  154.1081 C   0  0  0  0  0  0  0  0  0  0  0  0
  150.1155  140.4658  154.6770 N   0  0  0  0  0  0  0  0  0  0  0  0
  149.3678  141.5790  154.8211 C   0  0  0  0  0  0  0  0  0  0  0  0
  148.0269  141.6658  154.4041 C   0  0  0  0  0  0  0  0  0  0  0  0
  147.4334  140.5338  153.8156 C   0  0  0  0  0  0  0  0  0  0  0  0
  148.2011  139.3529  153.6718 C   0  0  0  0  0  0  0  0  0  0  0  0
  147.7055  138.1624  153.0727 N   0  0  0  0  0  0  0  0  0  0  0  0
  146.4456  137.6963  153.0620 C   0  0  0  0  0  0  0  0  0  0  0  0
  145.4835  138.2360  153.6079 O   0  0  0  0  0  0  0  0  0  0  0  0
  146.3637  136.5418  152.3862 N   0  0  0  0  0  0  0  0  0  0  0  0
  145.1465  135.7620  152.1854 C   0  0  0  0  0  0  0  0  0  0  0  0
  145.2872  134.7732  151.0152 C   0  0  2  0  0  0  0  0  0  0  0  0
  144.1031  133.8279  150.8122 C   0  0  0  0  0  0  0  0  0  0  0  0
  144.7206  132.6341  150.1012 C   0  0  0  0  0  0  0  0  0  0  0  0
  146.2270  132.8046  150.3224 C   0  0  0  0  0  0  0  0  0  0  0  0
  146.3528  133.8691  151.2556 O   0  0  0  0  0  0  0  0  0  0  0  0
  152.5206  137.3810  156.3314 H   0  0  0  0  0  0  0  0  0  0  0  0
  151.2041  136.4032  155.6862 H   0  0  0  0  0  0  0  0  0  0  0  0
  150.8502  137.8995  156.5492 H   0  0  0  0  0  0  0  0  0  0  0  0
  151.9712  139.2156  154.7264 H   0  0  0  0  0  0  0  0  0  0  0  0
  152.3220  137.7153  153.8625 H   0  0  0  0  0  0  0  0  0  0  0  0
  149.8551  142.4284  155.2762 H   0  0  0  0  0  0  0  0  0  0  0  0
  147.4679  142.5815  154.5280 H   0  0  0  0  0  0  0  0  0  0  0  0
  146.4119  140.5975  153.4738 H   0  0  0  0  0  0  0  0  0  0  0  0
  148.4062  137.5617  152.6635 H   0  0  0  0  0  0  0  0  0  0  0  0
  147.2091  136.1726  151.9760 H   0  0  0  0  0  0  0  0  0  0  0  0
  144.9574  135.2072  153.1046 H   0  0  0  0  0  0  0  0  0  0  0  0
  144.2826  136.4127  152.0403 H   0  0  0  0  0  0  0  0  0  0  0  0
  145.4963  135.3139  150.0899 H   0  0  0  0  0  0  0  0  0  0  0  0
  143.7061  133.5095  151.7771 H   0  0  0  0  0  0  0  0  0  0  0  0
  143.2896  134.2849  150.2479 H   0  0  0  0  0  0  0  0  0  0  0  0
  144.3528  131.6969  150.5201 H   0  0  0  0  0  0  0  0  0  0  0  0
  144.4868  132.6407  149.0359 H   0  0  0  0  0  0  0  0  0  0  0  0
  146.7001  131.8974  150.6985 H   0  0  0  0  0  0  0  0  0  0  0  0
  146.7208  133.0844  149.3909 H   0  0  0  0  0  0  0  0  0  0  0  0
  1  2  1  0  0  0  0
  1 20  1  0  0  0  0
  1 21  1  0  0  0  0
  1 22  1  0  0  0  0
  2  3  1  0  0  0  0
  2 23  1  0  0  0  0
  2 24  1  0  0  0  0
  3  4  1  0  0  0  0
  4  9  1  0  0  0  0
  4  5  2  0  0  0  0
  5  6  1  0  0  0  0
  6  7  2  0  0  0  0
  6 25  1  0  0  0  0
  7  8  1  0  0  0  0
  7 26  1  0  0  0  0
  8  9  2  0  0  0  0
  8 27  1  0  0  0  0
  9 10  1  0  0  0  0
 10 11  1  0  0  0  0
 10 28  1  0  0  0  0
 11 12  2  0  0  0  0
 11 13  1  0  0  0  0
 13 14  1  0  0  0  0
 13 29  1  0  0  0  0
 14 15  1  0  0  0  0
 14 30  1  0  0  0  0
 14 31  1  0  0  0  0
 15 19  1  0  0  0  0
 15 16  1  0  0  0  0
 15 32  1  0  0  0  0
 16 17  1  0  0  0  0
 16 33  1  0  0  0  0
 16 34  1  0  0  0  0
 17 18  1  0  0  0  0
 17 35  1  0  0  0  0
 17 36  1  0  0  0  0
 18 19  1  0  0  0  0
 18 37  1  0  0  0  0
 18 38  1  0  0  0  0
M  END
> <s_m_source_file>
AV-unprocessed.smi

> <i_m_source_file_index>
1122

> <i_lp_mmshare_version>
43012

> <i_f3d_flags>
0

> <s_epik_input>
W0NIM11bQ0gyXU9jMW5bY0hdW2NIXVtjSF1jMVtOSF1DKD1PKVtOSF1bQ0gyXVtDQEBIXTJbQ0gyXVtDSDJdW0NIMl1PMg==

> <s_epik_cmdline>
J2VwaWtfcHl0aG9uJywgJy1waCcsICc3LjAnLCAnLXRuJywgJzgnLCAnLW1hJywgJzIwMCcsICctbWV0YWxfYmluZGluZycsICctaW1hZScsICc8aW5maWxlLm1hZT4nLCAnLW9tYWUnLCAnPG91dGZpbGUubWFlPic=

> <r_lp_tautomer_probability>
1

> <r_epik_Ionization_Penalty>
0.000110193

> <r_epik_Ionization_Penalty_Charging>
0

> <r_epik_Ionization_Penalty_Neutral>
0.000110193

> <r_epik_State_Penalty>
-0

> <r_epik_Charging_Adjusted_Penalty>
0

> <i_epik_Tot_Q>
0

> <i_epik_Tot_abs_Q>
0

> <r_epik_Metal_State_Penalty>
-0

> <b_epik_Metal_Only>
0

> <s_lp_Force_Field>
OPLS_2005

> <r_lp_Energy>
19.6707

> <b_lp_Chiralities_Consistent>
1

> <s_lp_Variant>
AV-unprocessed.smi:1122-1

> <Gold.Version>
5.8.1

> <Gold.Id.Protein>
6NUR|6NUR_protein|mol2

> <Gold.PLP.Fitness>
42.5890

> <Gold.PLP.PLP>
-32.2373

> <Gold.PLP.part.hbond>
-3.2229

> <Gold.PLP.part.metal>
0.0000

> <Gold.PLP.part.buried>
-3.1416

> <Gold.PLP.part.nonpolar>
-28.3087

> <Gold.PLP.part.repulsive>
1.0723

> <Gold.PLP.ligand.clash>
0.0000

> <Gold.PLP.ligand.torsion>
0.6545

> <Gold.PLP.Chemscore.Hbond>
2.9360

> <Gold.PLP.Chemscore.CHOScore>
0.9423

> <Gold.PLP.Chemscore.Metal>
0.0000

> <Gold.Chemscore.Hbonds>
donor molecule, donor type, donor heavy atom, donor atom, acceptor molecule, acceptor atom, score
      L1  H    10    28       P1  7948  1.00
      L1  H    13    29       P1  7948  0.99
      P1  H  7989  7998       L1     5  0.94
      L1  C     6    25       P1  8028  0.94

> <Gold.PLP.Chemscore.Internal.Correction>
0.0257

> <Gold.Rescore>
     Score         DG    S(hbond)    S(metal)    S(lipo)     H(rot)  DE(clash)    DE(int)     intcor
     15.92     -17.79       2.26        0.00      75.99       1.61       0.43       1.45       ----

> <Gold.Chemscore.Fitness>
15.9152

> <Gold.Chemscore.DG>
-17.7938

> <Gold.Chemscore.ZeroCoef>
-5.4800

> <Gold.Chemscore.Hbond>
2.2612

> <Gold.Chemscore.Metal>
0.0000

> <Gold.Chemscore.Lipo>
75.9904

> <Gold.Chemscore.Internal_Hbond>
0.0000

> <Gold.Chemscore.DEClash>
0.4263

> <Gold.Chemscore.DEInternal>
1.4524

> <Gold.Chemscore.Rot>
1.6131

> <Gold.Chemscore.Internal.Correction>
   9.000000E+99

> <Gold.Chemscore.Hbonds>
donor molecule, donor type, donor heavy atom, donor atom, acceptor molecule, acceptor atom, score
      L1  H    10    28       P1  7948  0.98
      L1  H    13    29       P1  7948  0.94
      P1  H  7989  7998       L1     5  0.26

> <Gold.Chemscore.Hbond.Weighted>
-7.5526

> <Gold.Chemscore.Metal.Weighted>
-0.0000

> <Gold.Chemscore.Lipo.Weighted>
-8.8909

> <Gold.Chemscore.Internal_Hbond.Weighted>
0.0000

> <Gold.Chemscore.DEClash.Weighted>
0.4263

> <Gold.Chemscore.DEInternal.Weighted>
1.4524

> <Gold.Chemscore.Rot.Weighted>
4.1296

> <Gold.Chemscore.Internal.Correction.Weighted>
   9.000000E+99

> <Gold.Protein.RotatedTorsions>
[ 6907 6896 6895 6894 ] final  123.65 input  -60.11 | X-H torsion
[ 7974 7965 7964 7962 ] final  -60.33 input  175.53 | X-H torsion
[ 8008 7997 7996 7995 ] final  154.17 input   59.86 | X-H torsion
[ 10167 10162 10161 10158 ] final  119.04 input  -65.29 | X-H torsion
[ 10718 10713 10712 10709 ] final  -44.91 input   66.30 | X-H torsion
[ 10763 10752 10751 10750 ] final   49.94 input  -60.55 | X-H torsion
[ 11005 11000 10999 10996 ] final   88.64 input  -57.11 | X-H torsion

> <Gold.Protein.ActiveResidues>
 VAL166  LYS551  ARG553  GLY616  TRP617  ASP618  TYR619  PRO620  LYS621  CYS622 
 ASP623  PHE694  ASN695  SER759  ASP760  ASP761  ALA762  ILE779  LEU786  VAL792 
 PHE793  MET794  SER795  GLU796  ALA797  LYS798  CYS799  TRP800  GLU811  SER814 

> <Gold.Protein.RotatedAtoms>
  152.4144  133.7015  159.6426 H   0  0  0  0  0  0  0  0  0  0  0  0  # atno 6907 bound_to 6896
  150.8022  133.8566  159.3229 H   0  0  0  0  0  0  0  0  0  0  0  0  # atno 6908 bound_to 6896
  151.6300  135.1026  160.0171 H   0  0  0  0  0  0  0  0  0  0  0  0  # atno 6909 bound_to 6896
  145.8167  140.8565  143.0153 H   0  0  0  0  0  0  0  0  0  0  0  0  # atno 7974 bound_to 7965
  156.2545  140.1974  156.6604 H   0  0  0  0  0  0  0  0  0  0  0  0  # atno 8008 bound_to 7997
  154.6468  140.0576  156.9935 H   0  0  0  0  0  0  0  0  0  0  0  0  # atno 8009 bound_to 7997
  155.1478  140.3248  155.4440 H   0  0  0  0  0  0  0  0  0  0  0  0  # atno 8010 bound_to 7997
  139.6072  144.7073  151.2927 H   0  0  0  0  0  0  0  0  0  0  0  0  # atno 10167 bound_to 10162
  156.2337  130.4174  149.8844 H   0  0  0  0  0  0  0  0  0  0  0  0  # atno 10718 bound_to 10713
  152.9785  135.5895  154.4171 H   0  0  0  0  0  0  0  0  0  0  0  0  # atno 10763 bound_to 10752
  154.3800  135.2767  155.2219 H   0  0  0  0  0  0  0  0  0  0  0  0  # atno 10764 bound_to 10752
  154.4137  135.6075  153.6022 H   0  0  0  0  0  0  0  0  0  0  0  0  # atno 10765 bound_to 10752
  139.8892  134.8500  156.3029 H   0  0  0  0  0  0  0  0  0  0  0  0  # atno 11005 bound_to 11000
  144.6751  140.0474  143.7479 LP  0  0  0  0  0  0  0  0  0  0  0  0  # atno 17320 bound_to 7965
  145.9719  139.2876  143.1094 LP  0  0  0  0  0  0  0  0  0  0  0  0  # atno 17321 bound_to 7965
  140.7293  143.6911  150.7921 LP  0  0  0  0  0  0  0  0  0  0  0  0  # atno 17342 bound_to 10162
  140.0499  143.5260  152.2678 LP  0  0  0  0  0  0  0  0  0  0  0  0  # atno 17343 bound_to 10162
  156.6449  130.8720  151.3521 LP  0  0  0  0  0  0  0  0  0  0  0  0  # atno 17370 bound_to 10713
  157.7144  130.9480  150.1204 LP  0  0  0  0  0  0  0  0  0  0  0  0  # atno 17371 bound_to 10713
  140.9901  133.7214  156.0801 LP  0  0  0  0  0  0  0  0  0  0  0  0  # atno 17394 bound_to 11000
  140.7636  134.3912  157.5521 LP  0  0  0  0  0  0  0  0  0  0  0  0  # atno 17395 bound_to 11000

$$$$
