AV-unprocessed.smi:2271|AV-procd|sdf|9160|dock2
  -GOLD-   2272012373D 1   1.00000     0.00000
 Structure written by MMmdl.
 46 47  0  0  0  0  0  0  0  0  2 V2000
  153.3323  140.7439  159.7681 C   0  0  0  0  0  0  0  0  0  0  0  0
  152.7178  141.9949  159.1764 C   0  0  0  0  0  0  0  0  0  0  0  0
  153.0536  143.2714  159.6687 C   0  0  0  0  0  0  0  0  0  0  0  0
  152.4489  144.3921  159.0718 C   0  0  0  0  0  0  0  0  0  0  0  0
  151.5406  144.1922  158.0144 C   0  0  0  0  0  0  0  0  0  0  0  0
  151.2591  142.8773  157.5796 C   0  0  0  0  0  0  0  0  0  0  0  0
  150.3254  142.7816  156.5135 N   0  0  0  0  0  0  0  0  0  0  0  0
  150.1560  141.7667  155.6479 C   0  0  0  0  0  0  0  0  0  0  0  0
  150.8417  140.7447  155.6054 O   0  0  0  0  0  0  0  0  0  0  0  0
  149.1249  141.9987  154.8216 N   0  0  0  0  0  0  0  0  0  0  0  0
  148.6702  141.0994  153.7646 C   0  0  0  0  0  0  0  0  0  0  0  0
  147.6659  140.0425  154.2730 C   0  0  2  0  0  0  0  0  0  0  0  0
  147.2219  139.0479  153.1807 C   0  0  0  0  0  0  0  0  0  0  0  0
  146.1748  138.0537  153.7072 C   0  0  0  0  0  0  0  0  0  0  0  0
  144.9962  138.7614  154.2665 N   0  3  1  0  0  0  0  0  0  0  0  0
  143.9050  137.8288  154.6471 C   0  0  0  0  0  0  0  0  0  0  0  0
  143.2963  137.1103  153.4316 C   0  0  0  0  0  0  0  0  0  0  0  0
  142.8348  138.0591  152.4936 O   0  0  0  0  0  0  0  0  0  0  0  0
  145.3906  139.6867  155.3603 C   0  0  0  0  0  0  0  0  0  0  0  0
  146.4168  140.7192  154.8656 C   0  0  0  0  0  0  0  0  0  0  0  0
  151.8468  141.8029  158.1627 N   0  0  0  0  0  0  0  0  0  0  0  0
  153.9190  140.9737  160.6579 H   0  0  0  0  0  0  0  0  0  0  0  0
  153.9886  140.2661  159.0402 H   0  0  0  0  0  0  0  0  0  0  0  0
  152.5549  140.0325  160.0491 H   0  0  0  0  0  0  0  0  0  0  0  0
  153.7550  143.3915  160.4813 H   0  0  0  0  0  0  0  0  0  0  0  0
  152.6773  145.3892  159.4182 H   0  0  0  0  0  0  0  0  0  0  0  0
  151.0675  145.0427  157.5452 H   0  0  0  0  0  0  0  0  0  0  0  0
  149.7018  143.5685  156.4117 H   0  0  0  0  0  0  0  0  0  0  0  0
  148.6183  142.8655  154.9280 H   0  0  0  0  0  0  0  0  0  0  0  0
  148.1951  141.7156  153.0005 H   0  0  0  0  0  0  0  0  0  0  0  0
  149.5175  140.6161  153.2749 H   0  0  0  0  0  0  0  0  0  0  0  0
  148.1500  139.4752  155.0698 H   0  0  0  0  0  0  0  0  0  0  0  0
  146.8130  139.5933  152.3288 H   0  0  0  0  0  0  0  0  0  0  0  0
  148.0768  138.4856  152.8055 H   0  0  0  0  0  0  0  0  0  0  0  0
  145.8612  137.4038  152.8893 H   0  0  0  0  0  0  0  0  0  0  0  0
  146.6143  137.4120  154.4725 H   0  0  0  0  0  0  0  0  0  0  0  0
  144.2847  137.0722  155.3355 H   0  0  0  0  0  0  0  0  0  0  0  0
  143.1333  138.3745  155.1919 H   0  0  0  0  0  0  0  0  0  0  0  0
  144.0558  136.4951  152.9486 H   0  0  0  0  0  0  0  0  0  0  0  0
  142.4820  136.4431  153.7114 H   0  0  0  0  0  0  0  0  0  0  0  0
  143.3382  138.8531  152.5945 H   0  0  0  0  0  0  0  0  0  0  0  0
  144.5184  140.2137  155.7451 H   0  0  0  0  0  0  0  0  0  0  0  0
  145.8047  139.1147  156.1922 H   0  0  0  0  0  0  0  0  0  0  0  0
  146.7034  141.3718  155.6912 H   0  0  0  0  0  0  0  0  0  0  0  0
  145.9522  141.3600  154.1145 H   0  0  0  0  0  0  0  0  0  0  0  0
  144.6286  139.3287  153.5155 H   0  0  0  0  0  0  0  0  0  0  0  0
  1  2  1  0  0  0  0
  1 22  1  0  0  0  0
  1 23  1  0  0  0  0
  1 24  1  0  0  0  0
  2 21  1  0  0  0  0
  2  3  2  0  0  0  0
  3  4  1  0  0  0  0
  3 25  1  0  0  0  0
  4  5  2  0  0  0  0
  4 26  1  0  0  0  0
  5  6  1  0  0  0  0
  5 27  1  0  0  0  0
  6  7  1  0  0  0  0
  6 21  2  0  0  0  0
  7  8  1  0  0  0  0
  7 28  1  0  0  0  0
  8  9  2  0  0  0  0
  8 10  1  0  0  0  0
 10 11  1  0  0  0  0
 10 29  1  0  0  0  0
 11 12  1  0  0  0  0
 11 30  1  0  0  0  0
 11 31  1  0  0  0  0
 12 20  1  0  0  0  0
 12 13  1  0  0  0  0
 12 32  1  0  0  0  0
 13 14  1  0  0  0  0
 13 33  1  0  0  0  0
 13 34  1  0  0  0  0
 14 15  1  0  0  0  0
 14 35  1  0  0  0  0
 14 36  1  0  0  0  0
 15 16  1  0  0  0  0
 15 19  1  0  0  0  0
 15 46  1  0  0  0  0
 16 17  1  0  0  0  0
 16 37  1  0  0  0  0
 16 38  1  0  0  0  0
 17 18  1  0  0  0  0
 17 39  1  0  0  0  0
 17 40  1  0  0  0  0
 18 41  1  0  0  0  0
 19 20  1  0  0  0  0
 19 42  1  0  0  0  0
 19 43  1  0  0  0  0
 20 44  1  0  0  0  0
 20 45  1  0  0  0  0
M  CHG  1  15   1
M  END
> <s_m_source_file>
AV-unprocessed.smi

> <i_m_source_file_index>
2271

> <i_lp_mmshare_version>
43012

> <i_f3d_flags>
0

> <s_epik_input>
W0NIM11jMVtjSF1bY0hdW2NIXWMobjEpW05IXUMoPU8pW05IXVtDSDJdW0NIXTJbQ0gyXVtDSDJdTihbQ0gyXVtDSDJdMilbQ0gyXVtDSDJdW09IXQ==

> <s_epik_cmdline>
J2VwaWtfcHl0aG9uJywgJy1waCcsICc3LjAnLCAnLXRuJywgJzgnLCAnLW1hJywgJzIwMCcsICctbWV0YWxfYmluZGluZycsICctaW1hZScsICc8aW5maWxlLm1hZT4nLCAnLW9tYWUnLCAnPG91dGZpbGUubWFlPic=

> <r_epik_Ionization_Penalty>
0.00184663

> <r_epik_Ionization_Penalty_Charging>
0.00177223

> <r_epik_Ionization_Penalty_Neutral>
7.44064e-05

> <r_epik_State_Penalty>
0.00120075

> <r_epik_Charging_Adjusted_Penalty>
0.00297297

> <i_epik_Tot_Q>
1

> <i_epik_Tot_abs_Q>
1

> <r_epik_Metal_State_Penalty>
-0

> <b_epik_Metal_Only>
0

> <s_lp_Force_Field>
OPLS_2005

> <r_lp_Energy>
18.6881

> <b_lp_Chiralities_Consistent>
1

> <s_lp_Variant>
AV-unprocessed.smi:2271-1

> <Gold.Version>
5.8.1

> <Gold.Id.Protein>
6NUR|6NUR_protein|mol2

> <Gold.PLP.Fitness>
55.1950

> <Gold.PLP.PLP>
-39.8368

> <Gold.PLP.part.hbond>
-5.8408

> <Gold.PLP.part.metal>
0.0000

> <Gold.PLP.part.buried>
-2.8449

> <Gold.PLP.part.nonpolar>
-31.4852

> <Gold.PLP.part.repulsive>
0.3573

> <Gold.PLP.ligand.clash>
0.0000

> <Gold.PLP.ligand.torsion>
0.3385

> <Gold.PLP.Chemscore.Hbond>
5.3226

> <Gold.PLP.Chemscore.CHOScore>
0.0000

> <Gold.PLP.Chemscore.Metal>
0.0000

> <Gold.Chemscore.Hbonds>
donor molecule, donor type, donor heavy atom, donor atom, acceptor molecule, acceptor atom, score
      L1  H     7    28       P1  8028  1.00
      L1  H    10    29       P1  8028  0.82
      L1  H    15    46       P1 10175  2.00
      L1  H    18    41       P1 10175  1.00
      P1  H  7989  7998       L1     9  0.38

> <Gold.PLP.Chemscore.Internal.Correction>
0.0674

> <Gold.Rescore>
     Score         DG    S(hbond)    S(metal)    S(lipo)     H(rot)  DE(clash)    DE(int)     intcor
     22.34     -24.41       4.34        0.00      90.15       2.39       0.53       1.53       ----

> <Gold.Chemscore.Fitness>
22.3431

> <Gold.Chemscore.DG>
-24.4068

> <Gold.Chemscore.ZeroCoef>
-5.4800

> <Gold.Chemscore.Hbond>
4.3433

> <Gold.Chemscore.Metal>
0.0000

> <Gold.Chemscore.Lipo>
90.1492

> <Gold.Chemscore.Internal_Hbond>
0.0000

> <Gold.Chemscore.DEClash>
0.5340

> <Gold.Chemscore.DEInternal>
1.5297

> <Gold.Chemscore.Rot>
2.3935

> <Gold.Chemscore.Internal.Correction>
   9.000000E+99

> <Gold.Chemscore.Hbonds>
donor molecule, donor type, donor heavy atom, donor atom, acceptor molecule, acceptor atom, score
      L1  H     7    28       P1  8028  0.97
      L1  H    10    29       P1  8028  0.79
      L1  H    15    46       P1 10175  1.00
      L1  H    18    41       P1 10175  0.97
      P1  H  7989  7998       L1     9  0.10

> <Gold.Chemscore.Hbond.Weighted>
-14.5068

> <Gold.Chemscore.Metal.Weighted>
-0.0000

> <Gold.Chemscore.Lipo.Weighted>
-10.5475

> <Gold.Chemscore.Internal_Hbond.Weighted>
0.0000

> <Gold.Chemscore.DEClash.Weighted>
0.5340

> <Gold.Chemscore.DEInternal.Weighted>
1.5297

> <Gold.Chemscore.Rot.Weighted>
6.1274

> <Gold.Chemscore.Internal.Correction.Weighted>
   9.000000E+99

> <Gold.Protein.RotatedTorsions>
[ 6907 6896 6895 6894 ] final   78.20 input  -60.11 | X-H torsion
[ 7974 7965 7964 7962 ] final  -93.34 input  175.53 | X-H torsion
[ 8008 7997 7996 7995 ] final  179.86 input   59.86 | X-H torsion
[ 10167 10162 10161 10158 ] final -110.41 input  -65.29 | X-H torsion
[ 10718 10713 10712 10709 ] final  -45.56 input   66.30 | X-H torsion
[ 10763 10752 10751 10750 ] final  127.84 input  -60.55 | X-H torsion
[ 11005 11000 10999 10996 ] final   49.98 input  -57.11 | X-H torsion

> <Gold.Protein.ActiveResidues>
 VAL166  LYS551  ARG553  GLY616  TRP617  ASP618  TYR619  PRO620  LYS621  CYS622 
 ASP623  PHE694  ASN695  SER759  ASP760  ASP761  ALA762  ILE779  LEU786  VAL792 
 PHE793  MET794  SER795  GLU796  ALA797  LYS798  CYS799  TRP800  GLU811  SER814 

> <Gold.Protein.RotatedAtoms>
  152.5149  134.3701  159.9314 H   0  0  0  0  0  0  0  0  0  0  0  0  # atno 6907 bound_to 6896
  151.3655  133.3867  159.2702 H   0  0  0  0  0  0  0  0  0  0  0  0  # atno 6908 bound_to 6896
  150.9618  134.9024  159.7793 H   0  0  0  0  0  0  0  0  0  0  0  0  # atno 6909 bound_to 6896
  145.3879  140.9525  143.2357 H   0  0  0  0  0  0  0  0  0  0  0  0  # atno 7974 bound_to 7965
  156.0386  140.1298  157.0181 H   0  0  0  0  0  0  0  0  0  0  0  0  # atno 8008 bound_to 7997
  154.4381  140.1035  156.6274 H   0  0  0  0  0  0  0  0  0  0  0  0  # atno 8009 bound_to 7997
  155.5701  140.3466  155.4515 H   0  0  0  0  0  0  0  0  0  0  0  0  # atno 8010 bound_to 7997
  140.1448  143.4249  152.1537 H   0  0  0  0  0  0  0  0  0  0  0  0  # atno 10167 bound_to 10162
  156.2271  130.4170  149.8920 H   0  0  0  0  0  0  0  0  0  0  0  0  # atno 10718 bound_to 10713
  153.7159  135.3261  155.3256 H   0  0  0  0  0  0  0  0  0  0  0  0  # atno 10763 bound_to 10752
  154.8371  135.4488  154.1267 H   0  0  0  0  0  0  0  0  0  0  0  0  # atno 10764 bound_to 10752
  153.2374  135.6967  153.7901 H   0  0  0  0  0  0  0  0  0  0  0  0  # atno 10765 bound_to 10752
  140.1057  134.5022  155.8722 H   0  0  0  0  0  0  0  0  0  0  0  0  # atno 11005 bound_to 11000
  144.8461  139.5395  143.6878 LP  0  0  0  0  0  0  0  0  0  0  0  0  # atno 17320 bound_to 7965
  146.2811  139.6881  142.9228 LP  0  0  0  0  0  0  0  0  0  0  0  0  # atno 17321 bound_to 7965
  139.5454  144.7294  151.4599 LP  0  0  0  0  0  0  0  0  0  0  0  0  # atno 17342 bound_to 10162
  140.6739  143.8234  150.7033 LP  0  0  0  0  0  0  0  0  0  0  0  0  # atno 17343 bound_to 10162
  156.6547  130.8758  151.3537 LP  0  0  0  0  0  0  0  0  0  0  0  0  # atno 17370 bound_to 10713
  157.7116  130.9447  150.1108 LP  0  0  0  0  0  0  0  0  0  0  0  0  # atno 17371 bound_to 10713
  141.2117  133.6710  156.6605 LP  0  0  0  0  0  0  0  0  0  0  0  0  # atno 17394 bound_to 11000
  140.3159  134.8047  157.4214 LP  0  0  0  0  0  0  0  0  0  0  0  0  # atno 17395 bound_to 11000

$$$$
