AV-unprocessed.smi:33|AV-procd|sdf|212|dock3
  -GOLD-   2262015513D 1   1.00000     0.00000
 Structure written by MMmdl.
 67 72  0  0  0  0  0  0  0  0  1 V2000
  151.3096  143.2897  156.6437 O   0  0  0  0  0  0  0  0  0  0  0  0
  151.0231  142.7064  157.6912 C   0  0  0  0  0  0  0  0  0  0  0  0
  150.2190  141.6269  157.7481 O   0  0  0  0  0  0  0  0  0  0  0  0
  149.3702  141.3152  156.6558 C   0  0  0  0  0  0  0  0  0  0  0  0
  149.9712  140.1442  155.8692 C   0  0  1  0  0  0  0  0  0  0  0  0
  150.2334  139.0417  156.7238 O   0  0  0  0  0  0  0  0  0  0  0  0
  150.3356  137.8901  155.9459 C   0  0  1  0  0  0  0  0  0  0  0  0
  149.7381  136.7548  156.7106 N   0  0  0  0  0  0  0  0  0  0  0  0
  150.3680  135.6042  157.1301 C   0  0  0  0  0  0  0  0  0  0  0  0
  149.6107  134.7503  157.7644 N   0  0  0  0  0  0  0  0  0  0  0  0
  148.3644  135.3630  157.7906 C   0  0  0  0  0  0  0  0  0  0  0  0
  147.0934  134.9956  158.3091 C   0  0  0  0  0  0  0  0  0  0  0  0
  146.8689  133.8197  158.9418 N   0  0  0  0  0  0  0  0  0  0  0  0
  146.4741  132.6748  158.1086 C   0  0  0  0  0  0  0  0  0  0  0  0
  146.8054  132.6429  156.9220 O   0  0  0  0  0  0  0  0  0  0  0  0
  145.7134  131.5252  158.7064 C   0  0  0  0  0  0  0  0  0  0  0  0
  145.7239  130.2637  158.0717 C   0  0  0  0  0  0  0  0  0  0  0  0
  145.0006  129.1870  158.6204 C   0  0  0  0  0  0  0  0  0  0  0  0
  144.2478  129.3694  159.7962 C   0  0  0  0  0  0  0  0  0  0  0  0
  144.2102  130.6318  160.4182 C   0  0  0  0  0  0  0  0  0  0  0  0
  144.9331  131.7089  159.8703 C   0  0  0  0  0  0  0  0  0  0  0  0
  147.0374  133.7976  160.4029 C   0  0  0  0  0  0  0  0  0  0  0  0
  147.2978  132.7332  160.9676 O   0  0  0  0  0  0  0  0  0  0  0  0
  146.9527  135.0673  161.2024 C   0  0  0  0  0  0  0  0  0  0  0  0
  147.8064  135.2615  162.3104 C   0  0  0  0  0  0  0  0  0  0  0  0
  147.7214  136.4414  163.0747 C   0  0  0  0  0  0  0  0  0  0  0  0
  146.7701  137.4263  162.7476 C   0  0  0  0  0  0  0  0  0  0  0  0
  145.8971  137.2270  161.6612 C   0  0  0  0  0  0  0  0  0  0  0  0
  145.9819  136.0478  160.8960 C   0  0  0  0  0  0  0  0  0  0  0  0
  146.0627  135.8655  158.1470 N   0  0  0  0  0  0  0  0  0  0  0  0
  146.2652  137.0232  157.5116 C   0  0  0  0  0  0  0  0  0  0  0  0
  147.3919  137.4929  156.9717 N   0  0  0  0  0  0  0  0  0  0  0  0
  148.4310  136.6231  157.1348 C   0  0  0  0  0  0  0  0  0  0  0  0
  149.5587  138.1319  154.6393 C   0  0  2  0  0  0  0  0  0  0  0  0
  150.3990  138.0575  153.5053 O   0  0  0  0  0  0  0  0  0  0  0  0
  149.0396  139.5534  154.8097 C   0  0  1  0  0  0  0  0  0  0  0  0
  147.7799  139.5163  155.2477 F   0  0  0  0  0  0  0  0  0  0  0  0
  151.5284  143.1244  159.0309 C   0  0  0  0  0  0  0  0  0  0  0  0
  152.1815  142.1755  159.8519 C   0  0  0  0  0  0  0  0  0  0  0  0
  152.6725  142.5417  161.1203 C   0  0  0  0  0  0  0  0  0  0  0  0
  152.5150  143.8608  161.5840 C   0  0  0  0  0  0  0  0  0  0  0  0
  151.8653  144.8135  160.7777 C   0  0  0  0  0  0  0  0  0  0  0  0
  151.3748  144.4495  159.5084 C   0  0  0  0  0  0  0  0  0  0  0  0
  148.3662  141.0642  157.0018 H   0  0  0  0  0  0  0  0  0  0  0  0
  149.2892  142.1937  156.0143 H   0  0  0  0  0  0  0  0  0  0  0  0
  150.9045  140.4469  155.3907 H   0  0  0  0  0  0  0  0  0  0  0  0
  151.3805  137.6142  155.7946 H   0  0  0  0  0  0  0  0  0  0  0  0
  151.4141  135.4122  156.9407 H   0  0  0  0  0  0  0  0  0  0  0  0
  146.2982  130.1121  157.1691 H   0  0  0  0  0  0  0  0  0  0  0  0
  145.0227  128.2209  158.1381 H   0  0  0  0  0  0  0  0  0  0  0  0
  143.6938  128.5432  160.2168 H   0  0  0  0  0  0  0  0  0  0  0  0
  143.6256  130.7750  161.3149 H   0  0  0  0  0  0  0  0  0  0  0  0
  144.8918  132.6748  160.3531 H   0  0  0  0  0  0  0  0  0  0  0  0
  148.5400  134.5122  162.5713 H   0  0  0  0  0  0  0  0  0  0  0  0
  148.3857  136.5897  163.9133 H   0  0  0  0  0  0  0  0  0  0  0  0
  146.7053  138.3309  163.3341 H   0  0  0  0  0  0  0  0  0  0  0  0
  145.1610  137.9780  161.4154 H   0  0  0  0  0  0  0  0  0  0  0  0
  145.3030  135.9040  160.0675 H   0  0  0  0  0  0  0  0  0  0  0  0
  145.4007  137.6640  157.4200 H   0  0  0  0  0  0  0  0  0  0  0  0
  148.7448  137.4140  154.5235 H   0  0  0  0  0  0  0  0  0  0  0  0
  149.9559  137.5585  152.8360 H   0  0  0  0  0  0  0  0  0  0  0  0
  149.0300  140.1324  153.8854 H   0  0  0  0  0  0  0  0  0  0  0  0
  152.3151  141.1570  159.5169 H   0  0  0  0  0  0  0  0  0  0  0  0
  153.1713  141.8091  161.7374 H   0  0  0  0  0  0  0  0  0  0  0  0
  152.8917  144.1415  162.5565 H   0  0  0  0  0  0  0  0  0  0  0  0
  151.7432  145.8263  161.1324 H   0  0  0  0  0  0  0  0  0  0  0  0
  150.8816  145.2056  158.9152 H   0  0  0  0  0  0  0  0  0  0  0  0
  1  2  2  0  0  0  0
  2  3  1  0  0  0  0
  2 38  1  0  0  0  0
  3  4  1  0  0  0  0
  4  5  1  0  0  0  0
  4 44  1  0  0  0  0
  4 45  1  0  0  0  0
  5 36  1  0  0  0  0
  5  6  1  0  0  0  0
  5 46  1  0  0  0  0
  6  7  1  0  0  0  0
  7  8  1  0  0  0  0
  7 34  1  0  0  0  0
  7 47  1  0  0  0  0
  8 33  1  0  0  0  0
  8  9  1  0  0  0  0
  9 10  2  0  0  0  0
  9 48  1  0  0  0  0
 10 11  1  0  0  0  0
 11 33  2  0  0  0  0
 11 12  1  0  0  0  0
 12 13  1  0  0  0  0
 12 30  2  0  0  0  0
 13 14  1  0  0  0  0
 13 22  1  0  0  0  0
 14 15  2  0  0  0  0
 14 16  1  0  0  0  0
 16 21  1  0  0  0  0
 16 17  2  0  0  0  0
 17 18  1  0  0  0  0
 17 49  1  0  0  0  0
 18 19  2  0  0  0  0
 18 50  1  0  0  0  0
 19 20  1  0  0  0  0
 19 51  1  0  0  0  0
 20 21  2  0  0  0  0
 20 52  1  0  0  0  0
 21 53  1  0  0  0  0
 22 23  2  0  0  0  0
 22 24  1  0  0  0  0
 24 29  1  0  0  0  0
 24 25  2  0  0  0  0
 25 26  1  0  0  0  0
 25 54  1  0  0  0  0
 26 27  2  0  0  0  0
 26 55  1  0  0  0  0
 27 28  1  0  0  0  0
 27 56  1  0  0  0  0
 28 29  2  0  0  0  0
 28 57  1  0  0  0  0
 29 58  1  0  0  0  0
 30 31  1  0  0  0  0
 31 32  2  0  0  0  0
 31 59  1  0  0  0  0
 32 33  1  0  0  0  0
 34 35  1  0  0  0  0
 34 36  1  0  0  0  0
 34 60  1  0  0  0  0
 35 61  1  0  0  0  0
 36 37  1  0  0  0  0
 36 62  1  0  0  0  0
 38 43  1  0  0  0  0
 38 39  2  0  0  0  0
 39 40  1  0  0  0  0
 39 63  1  0  0  0  0
 40 41  2  0  0  0  0
 40 64  1  0  0  0  0
 41 42  1  0  0  0  0
 41 65  1  0  0  0  0
 42 43  2  0  0  0  0
 42 66  1  0  0  0  0
 43 67  1  0  0  0  0
M  END
> <s_m_source_file>
AV-unprocessed.smi

> <i_m_source_file_index>
33

> <i_lp_mmshare_version>
43012

> <i_f3d_flags>
0

> <s_epik_input>
W2NIXTFbY0hdW2NIXVtjSF1bY0hdYzFDKD1PKU9bQ0gyXVtDQEBIXTJPW0NASF0oW0NAQEhdKFtPSF0pW0NAQEhdMkYpbihbY0hdbjMpYyhjMzQpbltjSF1uYzROKEMoPU8pYzVbY0hdW2NIXVtjSF1bY0hdW2NIXTUpQyg9TyljNltjSF1bY0hdW2NIXVtjSF1bY0hdNg==

> <s_epik_cmdline>
J2VwaWtfcHl0aG9uJywgJy1waCcsICc3LjAnLCAnLXRuJywgJzgnLCAnLW1hJywgJzIwMCcsICctbWV0YWxfYmluZGluZycsICctaW1hZScsICc8aW5maWxlLm1hZT4nLCAnLW9tYWUnLCAnPG91dGZpbGUubWFlPic=

> <r_lp_tautomer_probability>
1

> <r_epik_Ionization_Penalty>
0.00067664

> <r_epik_Ionization_Penalty_Charging>
0

> <r_epik_Ionization_Penalty_Neutral>
0.00067664

> <r_epik_State_Penalty>
0.000428095

> <r_epik_Charging_Adjusted_Penalty>
0.000428095

> <i_epik_Tot_Q>
0

> <i_epik_Tot_abs_Q>
0

> <r_epik_Metal_State_Penalty>
-0

> <b_epik_Metal_Only>
0

> <s_epik_Chemistry_Notes>
This compound has an ester and may undergo hydrolysis at high or low pH. This compound contains an acetal/aminal-like group ( X-CH(R)-Y where X, Y are N, S, or O) that may be acid/base labile, releasing an aldehyde.

> <s_lp_Force_Field>
OPLS_2005

> <r_lp_Energy>
68.7921

> <b_lp_Chiralities_Consistent>
1

> <s_lp_Variant>
AV-unprocessed.smi:33-14

> <Gold.Version>
5.8.1

> <Gold.Id.Protein>
6NUR|6NUR_protein|mol2

> <Gold.PLP.Fitness>
53.7525

> <Gold.PLP.PLP>
-51.5347

> <Gold.PLP.part.hbond>
-3.6413

> <Gold.PLP.part.metal>
0.0000

> <Gold.PLP.part.buried>
-6.2249

> <Gold.PLP.part.nonpolar>
-42.6039

> <Gold.PLP.part.repulsive>
0.9441

> <Gold.PLP.ligand.clash>
0.0000

> <Gold.PLP.ligand.torsion>
4.3171

> <Gold.PLP.Chemscore.Hbond>
2.0000

> <Gold.PLP.Chemscore.CHOScore>
0.0000

> <Gold.PLP.Chemscore.Metal>
0.0000

> <Gold.Chemscore.Hbonds>
donor molecule, donor type, donor heavy atom, donor atom, acceptor molecule, acceptor atom, score
      L1  H    35    61       P1  7948  0.90
      P1  H  6896  6908       L1    10  1.00

> <Gold.PLP.Chemscore.Internal.Correction>
4.8520

> <Gold.Rescore>
     Score         DG    S(hbond)    S(metal)    S(lipo)     H(rot)  DE(clash)    DE(int)     intcor
      9.40     -19.34       1.13        0.00     141.32       2.52       0.36       9.58       ----

> <Gold.Chemscore.Fitness>
9.4048

> <Gold.Chemscore.DG>
-19.3380

> <Gold.Chemscore.ZeroCoef>
-5.4800

> <Gold.Chemscore.Hbond>
1.1339

> <Gold.Chemscore.Metal>
0.0000

> <Gold.Chemscore.Lipo>
141.3154

> <Gold.Chemscore.Internal_Hbond>
0.0000

> <Gold.Chemscore.DEClash>
0.3568

> <Gold.Chemscore.DEInternal>
9.5764

> <Gold.Chemscore.Rot>
2.5247

> <Gold.Chemscore.Internal.Correction>
   9.000000E+99

> <Gold.Chemscore.Hbonds>
donor molecule, donor type, donor heavy atom, donor atom, acceptor molecule, acceptor atom, score
      L1  H    35    61       P1  7948  0.18
      P1  H  6896  6908       L1    10  0.47

> <Gold.Chemscore.Hbond.Weighted>
-3.7874

> <Gold.Chemscore.Metal.Weighted>
-0.0000

> <Gold.Chemscore.Lipo.Weighted>
-16.5339

> <Gold.Chemscore.Internal_Hbond.Weighted>
0.0000

> <Gold.Chemscore.DEClash.Weighted>
0.3568

> <Gold.Chemscore.DEInternal.Weighted>
9.5764

> <Gold.Chemscore.Rot.Weighted>
6.4633

> <Gold.Chemscore.Internal.Correction.Weighted>
   9.000000E+99

> <Gold.Protein.RotatedTorsions>
[ 6907 6896 6895 6894 ] final  149.80 input  -60.11 | X-H torsion
[ 7974 7965 7964 7962 ] final   25.02 input  175.53 | X-H torsion
[ 8008 7997 7996 7995 ] final -143.78 input   59.86 | X-H torsion
[ 10167 10162 10161 10158 ] final   16.09 input  -65.29 | X-H torsion
[ 10718 10713 10712 10709 ] final  -79.11 input   66.30 | X-H torsion
[ 10763 10752 10751 10750 ] final  -15.73 input  -60.55 | X-H torsion
[ 11005 11000 10999 10996 ] final   32.78 input  -57.11 | X-H torsion

> <Gold.Protein.ActiveResidues>
 VAL166  LYS551  ARG553  GLY616  TRP617  ASP618  TYR619  PRO620  LYS621  CYS622 
 ASP623  PHE694  ASN695  SER759  ASP760  ASP761  ALA762  ILE779  LEU786  VAL792 
 PHE793  MET794  SER795  GLU796  ALA797  LYS798  CYS799  TRP800  GLU811  SER814 

> <Gold.Protein.RotatedAtoms>
  152.1231  133.4365  159.4684 H   0  0  0  0  0  0  0  0  0  0  0  0  # atno 6907 bound_to 6896
  150.6873  134.2511  159.4520 H   0  0  0  0  0  0  0  0  0  0  0  0  # atno 6908 bound_to 6896
  152.0389  134.9723  160.0624 H   0  0  0  0  0  0  0  0  0  0  0  0  # atno 6909 bound_to 6896
  146.1909  139.7523  142.8832 H   0  0  0  0  0  0  0  0  0  0  0  0  # atno 7974 bound_to 7965
  155.5162  140.0587  157.2915 H   0  0  0  0  0  0  0  0  0  0  0  0  # atno 8008 bound_to 7997
  154.4534  140.1960  156.0399 H   0  0  0  0  0  0  0  0  0  0  0  0  # atno 8009 bound_to 7997
  156.0750  140.3255  155.7627 H   0  0  0  0  0  0  0  0  0  0  0  0  # atno 8010 bound_to 7997
  140.5821  143.8960  150.6799 H   0  0  0  0  0  0  0  0  0  0  0  0  # atno 10167 bound_to 10162
  156.0100  130.4536  150.3599 H   0  0  0  0  0  0  0  0  0  0  0  0  # atno 10718 bound_to 10713
  153.5478  135.7012  153.5605 H   0  0  0  0  0  0  0  0  0  0  0  0  # atno 10763 bound_to 10752
  153.3542  135.3987  155.1669 H   0  0  0  0  0  0  0  0  0  0  0  0  # atno 10764 bound_to 10752
  154.8665  135.3773  154.4987 H   0  0  0  0  0  0  0  0  0  0  0  0  # atno 10765 bound_to 10752
  140.2699  134.3094  155.7831 H   0  0  0  0  0  0  0  0  0  0  0  0  # atno 11005 bound_to 11000
  145.3796  141.0356  143.3185 LP  0  0  0  0  0  0  0  0  0  0  0  0  # atno 17320 bound_to 7965
  144.8485  139.5359  143.6867 LP  0  0  0  0  0  0  0  0  0  0  0  0  # atno 17321 bound_to 7965
  140.2462  143.3627  152.1445 LP  0  0  0  0  0  0  0  0  0  0  0  0  # atno 17342 bound_to 10162
  139.5176  144.6994  151.5537 LP  0  0  0  0  0  0  0  0  0  0  0  0  # atno 17343 bound_to 10162
  157.1688  131.0363  151.2805 LP  0  0  0  0  0  0  0  0  0  0  0  0  # atno 17370 bound_to 10713
  157.4247  130.7457  149.6942 LP  0  0  0  0  0  0  0  0  0  0  0  0  # atno 17371 bound_to 10713
  141.2179  133.7460  156.9319 LP  0  0  0  0  0  0  0  0  0  0  0  0  # atno 17394 bound_to 11000
  140.1383  134.9310  157.2432 LP  0  0  0  0  0  0  0  0  0  0  0  0  # atno 17395 bound_to 11000

$$$$
