AV-unprocessed.smi:899|AV-procd|sdf|4087|dock2
  -GOLD-   22720 1573D 1   1.00000     0.00000
 Structure written by MMmdl.
 33 34  0  0  0  0  0  0  0  0  1 V2000
  154.2505  142.4843  164.0260 N   0  0  0  0  0  0  0  0  0  0  0  0
  153.5669  142.9121  163.1965 C   0  0  0  0  0  0  0  0  0  0  0  0
  152.6978  143.4564  162.1420 C   0  0  0  0  0  0  0  0  0  0  0  0
  152.7122  142.5998  160.8929 C   0  0  0  0  0  0  0  0  0  0  0  0
  153.9143  142.0109  160.4548 C   0  0  0  0  0  0  0  0  0  0  0  0
  153.9277  141.2125  159.2951 C   0  0  0  0  0  0  0  0  0  0  0  0
  152.7465  140.9883  158.5582 C   0  0  0  0  0  0  0  0  0  0  0  0
  152.8497  140.1893  157.4397 O   0  0  0  0  0  0  0  0  0  0  0  0
  151.6529  139.7109  156.8427 C   0  0  0  0  0  0  0  0  0  0  0  0
  151.1467  140.7684  155.8494 C   0  0  0  0  0  0  0  0  0  0  0  0
  149.9700  140.3460  155.1311 N   0  0  0  0  0  0  0  0  0  0  0  0
  148.7831  141.0618  155.1607 C   0  0  0  0  0  0  0  0  0  0  0  0
  147.6635  140.6703  154.5054 C   0  0  0  0  0  0  0  0  0  0  0  0
  146.2210  141.6169  154.5906 Cl  0  0  0  0  0  0  0  0  0  0  0  0
  147.6686  139.4360  153.7207 C   0  0  0  0  0  0  0  0  0  0  0  0
  146.7136  138.9903  153.0877 O   0  0  0  0  0  0  0  0  0  0  0  0
  148.8835  138.7438  153.7262 N   0  0  0  0  0  0  0  0  0  0  0  0
  150.0401  139.1382  154.3996 C   0  0  0  0  0  0  0  0  0  0  0  0
  151.0535  138.4417  154.3394 O   0  0  0  0  0  0  0  0  0  0  0  0
  151.5406  141.5872  159.0032 C   0  0  0  0  0  0  0  0  0  0  0  0
  151.5265  142.3867  160.1627 C   0  0  0  0  0  0  0  0  0  0  0  0
  148.9268  137.8833  153.1996 H   0  0  0  0  0  0  0  0  0  0  0  0
  151.6821  143.5239  162.5323 H   0  0  0  0  0  0  0  0  0  0  0  0
  153.0290  144.4693  161.9120 H   0  0  0  0  0  0  0  0  0  0  0  0
  154.8289  142.1706  161.0071 H   0  0  0  0  0  0  0  0  0  0  0  0
  154.8553  140.7655  158.9687 H   0  0  0  0  0  0  0  0  0  0  0  0
  151.8427  138.7688  156.3262 H   0  0  0  0  0  0  0  0  0  0  0  0
  150.8963  139.5339  157.6089 H   0  0  0  0  0  0  0  0  0  0  0  0
  150.8727  141.6866  156.3711 H   0  0  0  0  0  0  0  0  0  0  0  0
  151.9033  141.0487  155.1131 H   0  0  0  0  0  0  0  0  0  0  0  0
  148.7429  141.9768  155.7349 H   0  0  0  0  0  0  0  0  0  0  0  0
  150.6108  141.4485  158.4729 H   0  0  0  0  0  0  0  0  0  0  0  0
  150.6002  142.8357  160.4900 H   0  0  0  0  0  0  0  0  0  0  0  0
  1  2  3  0  0  0  0
  2  3  1  0  0  0  0
  3  4  1  0  0  0  0
  3 23  1  0  0  0  0
  3 24  1  0  0  0  0
  4 21  1  0  0  0  0
  4  5  2  0  0  0  0
  5  6  1  0  0  0  0
  5 25  1  0  0  0  0
  6  7  2  0  0  0  0
  6 26  1  0  0  0  0
  7  8  1  0  0  0  0
  7 20  1  0  0  0  0
  8  9  1  0  0  0  0
  9 10  1  0  0  0  0
  9 27  1  0  0  0  0
  9 28  1  0  0  0  0
 10 11  1  0  0  0  0
 10 29  1  0  0  0  0
 10 30  1  0  0  0  0
 11 18  1  0  0  0  0
 11 12  1  0  0  0  0
 12 13  2  0  0  0  0
 12 31  1  0  0  0  0
 13 14  1  0  0  0  0
 13 15  1  0  0  0  0
 15 16  2  0  0  0  0
 15 17  1  0  0  0  0
 17 22  1  0  0  0  0
 17 18  1  0  0  0  0
 18 19  2  0  0  0  0
 20 21  2  0  0  0  0
 20 32  1  0  0  0  0
 21 33  1  0  0  0  0
M  END
> <s_m_source_file>
AV-unprocessed.smi

> <i_m_source_file_index>
899

> <i_lp_mmshare_version>
43012

> <i_f3d_flags>
0

> <s_epik_input>
TiNDW0NIMl1jMVtjSF1bY0hdYyhbY0hdW2NIXTEpT1tDSDJdW0NIMl1uMltjSF1jKENsKWMoPU8pW25IXWMyPU8=

> <s_epik_cmdline>
J2VwaWtfcHl0aG9uJywgJy1waCcsICc3LjAnLCAnLXRuJywgJzgnLCAnLW1hJywgJzIwMCcsICctbWV0YWxfYmluZGluZycsICctaW1hZScsICc8aW5maWxlLm1hZT4nLCAnLW9tYWUnLCAnPG91dGZpbGUubWFlPic=

> <r_lp_tautomer_probability>
0.999537

> <r_epik_Ionization_Penalty>
0.0457407

> <r_epik_Ionization_Penalty_Charging>
0.0457407

> <r_epik_Ionization_Penalty_Neutral>
1.03254e-10

> <r_epik_State_Penalty>
0.0388483

> <r_epik_Charging_Adjusted_Penalty>
0.0845889

> <i_epik_Tot_Q>
0

> <i_epik_Tot_abs_Q>
0

> <r_epik_Metal_State_Penalty>
2.50663

> <b_epik_Metal_Only>
0

> <s_lp_Force_Field>
OPLS_2005

> <r_lp_Energy>
13.2906

> <b_lp_Chiralities_Consistent>
1

> <s_lp_Variant>
AV-unprocessed.smi:899-1

> <Gold.Version>
5.8.1

> <Gold.Id.Protein>
6NUR|6NUR_protein|mol2

> <Gold.PLP.Fitness>
52.7907

> <Gold.PLP.PLP>
-45.6723

> <Gold.PLP.part.hbond>
-3.0584

> <Gold.PLP.part.metal>
0.0000

> <Gold.PLP.part.buried>
-2.2576

> <Gold.PLP.part.nonpolar>
-38.7211

> <Gold.PLP.part.repulsive>
0.8873

> <Gold.PLP.ligand.clash>
0.0000

> <Gold.PLP.ligand.torsion>
0.6202

> <Gold.PLP.Chemscore.Hbond>
1.7800

> <Gold.PLP.Chemscore.CHOScore>
0.9908

> <Gold.PLP.Chemscore.Metal>
0.0000

> <Gold.Chemscore.Hbonds>
donor molecule, donor type, donor heavy atom, donor atom, acceptor molecule, acceptor atom, score
      L1  H    17    22       P1  7948  0.81
      P1  H  7997  8009       L1     8  1.00
      L1  C    12    31       P1  8028  0.47

> <Gold.PLP.Chemscore.Internal.Correction>
0.0463

> <Gold.Rescore>
     Score         DG    S(hbond)    S(metal)    S(lipo)     H(rot)  DE(clash)    DE(int)     intcor
     13.86     -16.19       1.53        0.00      98.72       2.32       0.62       1.70       ----

> <Gold.Chemscore.Fitness>
13.8648

> <Gold.Chemscore.DG>
-16.1925

> <Gold.Chemscore.ZeroCoef>
-5.4800

> <Gold.Chemscore.Hbond>
1.5253

> <Gold.Chemscore.Metal>
0.0000

> <Gold.Chemscore.Lipo>
98.7206

> <Gold.Chemscore.Internal_Hbond>
0.0000

> <Gold.Chemscore.DEClash>
0.6242

> <Gold.Chemscore.DEInternal>
1.7035

> <Gold.Chemscore.Rot>
2.3174

> <Gold.Chemscore.Internal.Correction>
   9.000000E+99

> <Gold.Chemscore.Hbonds>
donor molecule, donor type, donor heavy atom, donor atom, acceptor molecule, acceptor atom, score
      L1  H    17    22       P1  7948  0.80
      P1  H  7997  8009       L1     8  0.86

> <Gold.Chemscore.Hbond.Weighted>
-5.0946

> <Gold.Chemscore.Metal.Weighted>
-0.0000

> <Gold.Chemscore.Lipo.Weighted>
-11.5503

> <Gold.Chemscore.Internal_Hbond.Weighted>
0.0000

> <Gold.Chemscore.DEClash.Weighted>
0.6242

> <Gold.Chemscore.DEInternal.Weighted>
1.7035

> <Gold.Chemscore.Rot.Weighted>
5.9324

> <Gold.Chemscore.Internal.Correction.Weighted>
   9.000000E+99

> <Gold.Protein.RotatedTorsions>
[ 6907 6896 6895 6894 ] final   36.65 input  -60.11 | X-H torsion
[ 7974 7965 7964 7962 ] final   90.90 input  175.53 | X-H torsion
[ 8008 7997 7996 7995 ] final  171.79 input   59.86 | X-H torsion
[ 10167 10162 10161 10158 ] final  -84.35 input  -65.29 | X-H torsion
[ 10718 10713 10712 10709 ] final  -83.74 input   66.30 | X-H torsion
[ 10763 10752 10751 10750 ] final -150.16 input  -60.55 | X-H torsion
[ 11005 11000 10999 10996 ] final   75.69 input  -57.11 | X-H torsion

> <Gold.Protein.ActiveResidues>
 VAL166  LYS551  ARG553  GLY616  TRP617  ASP618  TYR619  PRO620  LYS621  CYS622 
 ASP623  PHE694  ASN695  SER759  ASP760  ASP761  ALA762  ILE779  LEU786  VAL792 
 PHE793  MET794  SER795  GLU796  ALA797  LYS798  CYS799  TRP800  GLU811  SER814 

> <Gold.Protein.RotatedAtoms>
  152.1325  134.9124  160.0557 H   0  0  0  0  0  0  0  0  0  0  0  0  # atno 6907 bound_to 6896
  152.0223  133.3898  159.4271 H   0  0  0  0  0  0  0  0  0  0  0  0  # atno 6908 bound_to 6896
  150.6857  134.3534  159.4962 H   0  0  0  0  0  0  0  0  0  0  0  0  # atno 6909 bound_to 6896
  145.5128  139.2277  143.2715 H   0  0  0  0  0  0  0  0  0  0  0  0  # atno 7974 bound_to 7965
  156.1238  140.1503  156.9166 H   0  0  0  0  0  0  0  0  0  0  0  0  # atno 8008 bound_to 7997
  154.4855  140.0866  156.7518 H   0  0  0  0  0  0  0  0  0  0  0  0  # atno 8009 bound_to 7997
  155.4381  140.3430  155.4289 H   0  0  0  0  0  0  0  0  0  0  0  0  # atno 8010 bound_to 7997
  140.4141  143.2611  151.8979 H   0  0  0  0  0  0  0  0  0  0  0  0  # atno 10167 bound_to 10162
  156.0014  130.4675  150.4304 H   0  0  0  0  0  0  0  0  0  0  0  0  # atno 10718 bound_to 10713
  154.8135  135.3291  154.7239 H   0  0  0  0  0  0  0  0  0  0  0  0  # atno 10763 bound_to 10752
  153.7884  135.6913  153.4880 H   0  0  0  0  0  0  0  0  0  0  0  0  # atno 10764 bound_to 10752
  153.1933  135.4543  155.0123 H   0  0  0  0  0  0  0  0  0  0  0  0  # atno 10765 bound_to 10752
  139.9332  134.7539  156.1302 H   0  0  0  0  0  0  0  0  0  0  0  0  # atno 11005 bound_to 11000
  146.2156  140.5935  142.9040 LP  0  0  0  0  0  0  0  0  0  0  0  0  # atno 17320 bound_to 7965
  144.7718  140.5654  143.6665 LP  0  0  0  0  0  0  0  0  0  0  0  0  # atno 17321 bound_to 7965
  139.4782  144.5506  151.8391 LP  0  0  0  0  0  0  0  0  0  0  0  0  # atno 17342 bound_to 10162
  140.4606  144.1727  150.5906 LP  0  0  0  0  0  0  0  0  0  0  0  0  # atno 17343 bound_to 10162
  157.2353  131.0513  151.2468 LP  0  0  0  0  0  0  0  0  0  0  0  0  # atno 17370 bound_to 10713
  157.3672  130.7162  149.6541 LP  0  0  0  0  0  0  0  0  0  0  0  0  # atno 17371 bound_to 10713
  141.0932  133.6706  156.2587 LP  0  0  0  0  0  0  0  0  0  0  0  0  # atno 17394 bound_to 11000
  140.6146  134.5424  157.5538 LP  0  0  0  0  0  0  0  0  0  0  0  0  # atno 17395 bound_to 11000

$$$$
