#       Name:                AV-unprocessed.smi:2706
#       Creating user name   scv26
#       Creation time:       Fri Mar 27 14:49:28 2020


#       File generated by GOLD software.
#

@<TRIPOS>MOLECULE
AV-unprocessed.smi:2706
    46    49     1
SMALL
NO_CHARGES


@<TRIPOS>ATOM
      1 ****        -2.4773   0.2132  -1.1864 C.3            1 S1                 0.0000
      2 ****        -1.7447   0.5019  -2.4146 N.pl3          1 S1                 0.0000
      3 ****        -2.4340   1.4282  -3.3069 C.3            1 S1                 0.0000
      4 ****        -0.5356  -0.1232  -2.7293 C.2            1 S1                 0.0000
      5 ****         0.1177   0.1624  -3.8784 C.2            1 S1                 0.0000
      6 ****         1.3613  -0.5094  -4.1957 C.2            1 S1                 0.0000
      7 ****         1.9012  -1.4131  -3.3547 C.2            1 S1                 0.0000
      8 ****         1.2584  -1.7284  -2.0931 C.2            1 S1                 0.0000
      9 ****         1.7955  -2.5932  -1.2788 N.2            1 S1                 0.0000
     10 ****         1.3127  -2.8350   0.0079 C.2            1 S1                 0.0000
     11 ****         1.2794  -3.9604   0.5043 O.2            1 S1                 0.0000
     12 ****         0.9957  -1.7418   0.7317 N.am           1 S1                 0.0000
     13 ****         0.5624  -1.7193   2.0913 C.3            1 S1                 0.0000
     14 ****        -0.3552  -0.6132   2.6070 C.3            1 S1                 0.0000
     15 ****        -0.5295   0.8166   2.0876 C.3            1 S1                 0.0000
     16 ****        -0.5134   1.7572   3.3125 C.3            1 S1                 0.0000
     17 ****         0.9752   1.7202   3.7425 C.3            1 S1                 0.0000
     18 ****         1.5921   0.7552   2.7079 C.3            1 S1                 0.0000
     19 ****         0.8138   1.1961   1.4669 C.3            1 S1                 0.0000
     20 ****         1.0817  -0.6493   3.0410 C.3            1 S1                 0.0000
     21 ****         0.0358  -1.0664  -1.8711 N.pl3          1 S1                 0.0000
     22 ****        -3.2352  -0.5474  -1.3748 H              1 S1                 0.0000
     23 ****        -2.9761   1.1060  -0.8076 H              1 S1                 0.0000
     24 ****        -1.8246  -0.1509  -0.3939 H              1 S1                 0.0000
     25 ****        -1.8036   2.2926  -3.5172 H              1 S1                 0.0000
     26 ****        -3.3674   1.7936  -2.8773 H              1 S1                 0.0000
     27 ****        -2.6753   0.9380  -4.2504 H              1 S1                 0.0000
     28 ****        -0.2676   0.8808  -4.5863 H              1 S1                 0.0000
     29 ****         1.8605  -0.2866  -5.1271 H              1 S1                 0.0000
     30 ****         2.8289  -1.8834  -3.6470 H              1 S1                 0.0000
     31 ****         1.0950  -0.8435   0.2811 H              1 S1                 0.0000
     32 ****         0.3921  -2.6934   2.5472 H              1 S1                 0.0000
     33 ****        -1.1092  -0.9285   3.3260 H              1 S1                 0.0000
     34 ****        -1.3987   0.9329   1.4416 H              1 S1                 0.0000
     35 ****        -0.8095   2.7695   3.0341 H              1 S1                 0.0000
     36 ****        -1.1833   1.4185   4.1038 H              1 S1                 0.0000
     37 ****         1.4229   2.7124   3.6695 H              1 S1                 0.0000
     38 ****         1.1051   1.3697   4.7670 H              1 S1                 0.0000
     39 ****         2.6779   0.8048   2.6252 H              1 S1                 0.0000
     40 ****         1.0635   0.6749   0.5473 H              1 S1                 0.0000
     41 ****         0.9048   2.2640   1.2572 H              1 S1                 0.0000
     42 ****         1.2976  -0.9841   4.0540 H              1 S1                 0.0000
     43 ****        -0.4902  -1.2535  -1.0297 H              1 S1                 0.0000
     44 ****         2.5931  -3.1089  -1.5918 LP             1 S1                 0.0000
     45 ****         1.6068  -4.7474  -0.0186 LP             1 S1                 0.0000
     46 ****         0.9250  -4.0880   1.4306 LP             1 S1                 0.0000
@<TRIPOS>BOND
    1    1    2 1     
    2    1   22 1     
    3    1   23 1     
    4    1   24 1     
    5    2    3 1     
    6    2    4 1     
    7    3   25 1     
    8    3   26 1     
    9    3   27 1     
   10    4   21 1     
   11    4    5 2     
   12    5    6 1     
   13    5   28 1     
   14    6    7 2     
   15    6   29 1     
   16    7    8 1     
   17    7   30 1     
   18    8    9 2     
   19    8   21 1     
   20    9   10 1     
   21   10   11 2     
   22   10   12 am    
   23   12   13 1     
   24   12   31 1     
   25   13   20 1     
   26   13   14 1     
   27   13   32 1     
   28   14   20 1     
   29   14   15 1     
   30   14   33 1     
   31   15   19 1     
   32   15   16 1     
   33   15   34 1     
   34   16   17 1     
   35   16   35 1     
   36   16   36 1     
   37   17   18 1     
   38   17   37 1     
   39   17   38 1     
   40   18   19 1     
   41   18   20 1     
   42   18   39 1     
   43   19   40 1     
   44   19   41 1     
   45   20   42 1     
   46   21   43 1     
   47    9   44 1     
   48   11   45 1     
   49   11   46 1     
@<TRIPOS>SUBSTRUCTURE
      1 S1             1
@<TRIPOS>SET
LONE_PAIRS      STATIC     ATOMS    <user>   **** ""
3 44 45 46
DONOR_HYDROGENS      STATIC     ATOMS    <user>   **** ""
2 31 43
ATOM$BLUE        STATIC     ATOMS    COLORGROUP SYSTEM
3 44 45 46
ATOM$RED        STATIC     ATOMS    COLORGROUP SYSTEM
2 31 43
