#       Name:                AV-unprocessed.smi:1638
#       Creating user name   scv26
#       Creation time:       Fri Mar 27 07:23:13 2020


#       File generated by GOLD software.
#

@<TRIPOS>MOLECULE
AV-unprocessed.smi:1638
    45    46     1
SMALL
NO_CHARGES


@<TRIPOS>ATOM
      1 ****        -4.8497   3.5862   0.4281 C.3            1 S1                 0.0000
      2 ****        -3.9277   2.4417   0.6754 C.2            1 S1                 0.0000
      3 ****        -3.6160   1.5468  -0.2657 N.2            1 S1                 0.0000
      4 ****        -2.7397   0.5800   0.2035 N.2            1 S1                 0.0000
      5 ****        -2.3889   0.7657   1.4846 C.2            1 S1                 0.0000
      6 ****        -1.5339  -0.0529   2.1191 N.pl3          1 S1                -1.0000
      7 ****        -0.2113   0.2190   2.0955 C.2            1 S1                 0.0000
      8 ****         0.3162   1.2307   1.6288 O.2            1 S1                 0.0000
      9 ****         0.5511  -0.7646   2.5942 N.am           1 S1                 0.0000
     10 ****         2.0061  -0.8619   2.4862 C.3            1 S1                 0.0000
     11 ****         2.4164  -1.6905   1.2510 C.3            1 S1                 0.0000
     12 ****         1.8082  -1.1704  -0.0042 N.4            1 S1                 1.0000
     13 ****         1.4457  -2.2128  -0.9970 C.3            1 S1                 0.0000
     14 ****         0.0162  -1.9657  -1.5083 C.3            1 S1                 0.0000
     15 ****        -0.1139  -0.8040  -2.5062 C.3            1 S1                 0.0000
     16 ****         0.4440   0.5404  -2.0066 C.3            1 S1                 0.0000
     17 ****         1.9790   0.5380  -1.8937 C.3            1 S1                 0.0000
     18 ****         2.5440  -0.0064  -0.5653 C.3            1 S1                 0.0000
     19 ****        -3.1567   2.1665   2.2287 S.3            1 S1                 0.0000
     20 ****        -4.2857   4.4463   0.0667 H              1 S1                 0.0000
     21 ****        -5.3608   3.8639   1.3501 H              1 S1                 0.0000
     22 ****        -5.5987   3.3177  -0.3176 H              1 S1                 0.0000
     23 ****         0.0712  -1.5610   2.9886 H              1 S1                 0.0000
     24 ****         2.4653   0.1273   2.4603 H              1 S1                 0.0000
     25 ****         2.3822  -1.3424   3.3896 H              1 S1                 0.0000
     26 ****         3.5019  -1.7411   1.1573 H              1 S1                 0.0000
     27 ****         2.0832  -2.7118   1.4373 H              1 S1                 0.0000
     28 ****         2.1690  -2.2600  -1.8121 H              1 S1                 0.0000
     29 ****         1.4571  -3.2014  -0.5383 H              1 S1                 0.0000
     30 ****        -0.3453  -2.8723  -1.9946 H              1 S1                 0.0000
     31 ****        -0.6510  -1.7986  -0.6610 H              1 S1                 0.0000
     32 ****         0.3731  -1.0737  -3.4439 H              1 S1                 0.0000
     33 ****        -1.1697  -0.6761  -2.7479 H              1 S1                 0.0000
     34 ****         0.1561   1.3067  -2.7270 H              1 S1                 0.0000
     35 ****        -0.0199   0.8313  -1.0639 H              1 S1                 0.0000
     36 ****         2.4032  -0.0157  -2.7320 H              1 S1                 0.0000
     37 ****         2.3429   1.5587  -2.0158 H              1 S1                 0.0000
     38 ****         2.5304   0.7938   0.1743 H              1 S1                 0.0000
     39 ****         3.5925  -0.2700  -0.7091 H              1 S1                 0.0000
     40 ****         0.9131  -0.8055   0.2924 H              1 S1                 0.0000
     41 ****        -3.9728   1.5711  -1.1996 LP             1 S1                 0.0000
     42 ****        -2.4038  -0.1779  -0.3559 LP             1 S1                 0.0000
     43 ****        -1.8741  -0.8578   2.6053 LP             1 S1                 0.0000
     44 ****        -0.2497   1.9455   1.2181 LP             1 S1                 0.0000
     45 ****         1.3101   1.3365   1.6609 LP             1 S1                 0.0000
@<TRIPOS>BOND
    1    1    2 1     
    2    1   20 1     
    3    1   21 1     
    4    1   22 1     
    5    2   19 1     
    6    2    3 2     
    7    3    4 1     
    8    4    5 2     
    9    5    6 1     
   10    5   19 1     
   11    6    7 1     
   12    7    8 2     
   13    7    9 am    
   14    9   10 1     
   15    9   23 1     
   16   10   11 1     
   17   10   24 1     
   18   10   25 1     
   19   11   12 1     
   20   11   26 1     
   21   11   27 1     
   22   12   18 1     
   23   12   13 1     
   24   12   40 1     
   25   13   14 1     
   26   13   28 1     
   27   13   29 1     
   28   14   15 1     
   29   14   30 1     
   30   14   31 1     
   31   15   16 1     
   32   15   32 1     
   33   15   33 1     
   34   16   17 1     
   35   16   34 1     
   36   16   35 1     
   37   17   18 1     
   38   17   36 1     
   39   17   37 1     
   40   18   38 1     
   41   18   39 1     
   42    3   41 1     
   43    4   42 1     
   44    6   43 1     
   45    8   44 1     
   46    8   45 1     
@<TRIPOS>SUBSTRUCTURE
      1 S1             1
@<TRIPOS>SET
LONE_PAIRS      STATIC     ATOMS    <user>   **** ""
5 41 42 43 44 45
DONOR_HYDROGENS      STATIC     ATOMS    <user>   **** ""
2 23 40
ATOM$BLUE        STATIC     ATOMS    COLORGROUP SYSTEM
5 41 42 43 44 45
ATOM$RED        STATIC     ATOMS    COLORGROUP SYSTEM
2 23 40
