AV-unprocessed.smi:2902|AV-procd|sdf|11155|dock8
  -GOLD-   2272016 43D 1   1.00000     0.00000
 Structure written by MMmdl.
 47 48  0  0  0  0  0  0  0  0  1 V2000
  149.9866  139.5848  157.0525 C   0  0  0  0  0  0  0  0  0  0  0  0
  150.0258  141.0801  156.7019 C   0  0  0  0  0  0  0  0  0  0  0  0
  149.8370  142.0137  157.9144 C   0  0  2  0  0  0  0  0  0  0  0  0
  150.7223  141.5640  158.9358 O   0  0  0  0  0  0  0  0  0  0  0  0
  152.1119  141.7757  158.6947 C   0  0  0  0  0  0  0  0  0  0  0  0
  152.9059  141.1160  159.8224 C   0  0  0  0  0  0  0  0  0  0  0  0
  152.8755  142.1144  160.9867 C   0  0  0  0  0  0  0  0  0  0  0  0
  152.5112  143.4789  160.3804 C   0  0  0  0  0  0  0  0  0  0  0  0
  152.4192  143.2633  158.8664 C   0  0  0  0  0  0  0  0  0  0  0  0
  148.3922  142.0059  158.4437 C   0  0  0  0  0  0  0  0  0  0  0  0
  147.8481  140.9440  158.7468 O   0  0  0  0  0  0  0  0  0  0  0  0
  147.7979  143.2035  158.5566 N   0  0  0  0  0  0  0  0  0  0  0  0
  146.4395  143.4590  159.0353 C   0  0  2  0  0  0  0  0  0  0  0  0
  145.6054  144.0471  157.8849 C   0  0  0  0  0  0  0  0  0  0  0  0
  146.4463  144.3474  160.3080 C   0  0  1  0  0  0  0  0  0  0  0  0
  146.4689  145.8557  159.9946 C   0  0  0  0  0  0  0  0  0  0  0  0
  145.3765  144.0095  161.2417 N   0  0  0  0  0  0  0  0  0  0  0  0
  144.0545  144.1487  161.1209 C   0  0  0  0  0  0  0  0  0  0  0  0
  143.3721  143.7603  162.1891 N   0  0  0  0  0  0  0  0  0  0  0  0
  144.4064  143.3691  162.9907 C   0  0  0  0  0  0  0  0  0  0  0  0
  145.6279  143.5030  162.4747 N   0  0  0  0  0  0  0  0  0  0  0  0
  150.0713  138.9755  156.1526 H   0  0  0  0  0  0  0  0  0  0  0  0
  149.0501  139.3215  157.5446 H   0  0  0  0  0  0  0  0  0  0  0  0
  150.8051  139.3048  157.7159 H   0  0  0  0  0  0  0  0  0  0  0  0
  150.9629  141.3097  156.1927 H   0  0  0  0  0  0  0  0  0  0  0  0
  149.2373  141.2852  155.9773 H   0  0  0  0  0  0  0  0  0  0  0  0
  150.1238  143.0246  157.6168 H   0  0  0  0  0  0  0  0  0  0  0  0
  152.4331  141.4064  157.7194 H   0  0  0  0  0  0  0  0  0  0  0  0
  152.5132  140.1361  160.0963 H   0  0  0  0  0  0  0  0  0  0  0  0
  153.9376  140.9747  159.4978 H   0  0  0  0  0  0  0  0  0  0  0  0
  152.1209  141.8213  161.7179 H   0  0  0  0  0  0  0  0  0  0  0  0
  153.8357  142.1439  161.5032 H   0  0  0  0  0  0  0  0  0  0  0  0
  151.5443  143.8041  160.7668 H   0  0  0  0  0  0  0  0  0  0  0  0
  153.2391  144.2503  160.6334 H   0  0  0  0  0  0  0  0  0  0  0  0
  153.3849  143.4863  158.4113 H   0  0  0  0  0  0  0  0  0  0  0  0
  151.6771  143.9062  158.3919 H   0  0  0  0  0  0  0  0  0  0  0  0
  148.3387  144.0161  158.2968 H   0  0  0  0  0  0  0  0  0  0  0  0
  145.9690  142.5144  159.3129 H   0  0  0  0  0  0  0  0  0  0  0  0
  144.5845  144.2537  158.2072 H   0  0  0  0  0  0  0  0  0  0  0  0
  145.5500  143.3490  157.0489 H   0  0  0  0  0  0  0  0  0  0  0  0
  146.0319  144.9770  157.5079 H   0  0  0  0  0  0  0  0  0  0  0  0
  147.3798  144.1327  160.8306 H   0  0  0  0  0  0  0  0  0  0  0  0
  147.3104  146.1075  159.3489 H   0  0  0  0  0  0  0  0  0  0  0  0
  146.5678  146.4428  160.9081 H   0  0  0  0  0  0  0  0  0  0  0  0
  145.5597  146.1828  159.4919 H   0  0  0  0  0  0  0  0  0  0  0  0
  143.5818  144.5472  160.2353 H   0  0  0  0  0  0  0  0  0  0  0  0
  144.2556  142.9781  163.9862 H   0  0  0  0  0  0  0  0  0  0  0  0
  1  2  1  0  0  0  0
  1 22  1  0  0  0  0
  1 23  1  0  0  0  0
  1 24  1  0  0  0  0
  2  3  1  0  0  0  0
  2 25  1  0  0  0  0
  2 26  1  0  0  0  0
  3  4  1  0  0  0  0
  3 10  1  0  0  0  0
  3 27  1  0  0  0  0
  4  5  1  0  0  0  0
  5  9  1  0  0  0  0
  5  6  1  0  0  0  0
  5 28  1  0  0  0  0
  6  7  1  0  0  0  0
  6 29  1  0  0  0  0
  6 30  1  0  0  0  0
  7  8  1  0  0  0  0
  7 31  1  0  0  0  0
  7 32  1  0  0  0  0
  8  9  1  0  0  0  0
  8 33  1  0  0  0  0
  8 34  1  0  0  0  0
  9 35  1  0  0  0  0
  9 36  1  0  0  0  0
 10 11  2  0  0  0  0
 10 12  1  0  0  0  0
 12 13  1  0  0  0  0
 12 37  1  0  0  0  0
 13 14  1  0  0  0  0
 13 15  1  0  0  0  0
 13 38  1  0  0  0  0
 14 39  1  0  0  0  0
 14 40  1  0  0  0  0
 14 41  1  0  0  0  0
 15 16  1  0  0  0  0
 15 17  1  0  0  0  0
 15 42  1  0  0  0  0
 16 43  1  0  0  0  0
 16 44  1  0  0  0  0
 16 45  1  0  0  0  0
 17 21  1  0  0  0  0
 17 18  1  0  0  0  0
 18 19  2  0  0  0  0
 18 46  1  0  0  0  0
 19 20  1  0  0  0  0
 20 21  2  0  0  0  0
 20 47  1  0  0  0  0
M  END
> <s_m_source_file>
AV-unprocessed.smi

> <i_m_source_file_index>
2902

> <i_lp_mmshare_version>
43012

> <i_f3d_flags>
0

> <s_epik_input>
W0NIMl0xW0NIMl1bQ0gyXVtDSDJdW0NIXTFPW0NAQEhdKFtDSDJdW0NIM10pQyg9TylbTkhdW0NASF0oW0NIM10pW0NASF0oW0NIM10pbjJbY0hdbltjSF1uMg==

> <s_epik_cmdline>
J2VwaWtfcHl0aG9uJywgJy1waCcsICc3LjAnLCAnLXRuJywgJzgnLCAnLW1hJywgJzIwMCcsICctbWV0YWxfYmluZGluZycsICctaW1hZScsICc8aW5maWxlLm1hZT4nLCAnLW9tYWUnLCAnPG91dGZpbGUubWFlPic=

> <r_lp_tautomer_probability>
1

> <r_epik_Ionization_Penalty>
6.95617e-05

> <r_epik_Ionization_Penalty_Charging>
0

> <r_epik_Ionization_Penalty_Neutral>
6.95617e-05

> <r_epik_State_Penalty>
-0

> <r_epik_Charging_Adjusted_Penalty>
0

> <i_epik_Tot_Q>
0

> <i_epik_Tot_abs_Q>
0

> <r_epik_Metal_State_Penalty>
-0

> <b_epik_Metal_Only>
0

> <s_lp_Force_Field>
OPLS_2005

> <r_lp_Energy>
29.711

> <b_lp_Chiralities_Consistent>
1

> <s_lp_Variant>
AV-unprocessed.smi:2902-5

> <Gold.Version>
5.8.1

> <Gold.Id.Protein>
6NUR|6NUR_protein|mol2

> <Gold.PLP.Fitness>
40.5110

> <Gold.PLP.PLP>
-38.6859

> <Gold.PLP.part.hbond>
-3.4049

> <Gold.PLP.part.metal>
0.0000

> <Gold.PLP.part.buried>
-1.3226

> <Gold.PLP.part.nonpolar>
-32.5507

> <Gold.PLP.part.repulsive>
0.3276

> <Gold.PLP.ligand.clash>
0.0000

> <Gold.PLP.ligand.torsion>
1.0074

> <Gold.PLP.Chemscore.Hbond>
1.1591

> <Gold.PLP.Chemscore.CHOScore>
0.0000

> <Gold.PLP.Chemscore.Metal>
0.0000

> <Gold.Chemscore.Hbonds>
donor molecule, donor type, donor heavy atom, donor atom, acceptor molecule, acceptor atom, score
      L1  H    12    37       P1  8029  0.36

> <Gold.PLP.Chemscore.Internal.Correction>
0.3625

> <Gold.Rescore>
     Score         DG    S(hbond)    S(metal)    S(lipo)     H(rot)  DE(clash)    DE(int)     intcor
     10.01     -12.19       1.15        0.00      83.34       2.69       0.27       1.91       ----

> <Gold.Chemscore.Fitness>
10.0144

> <Gold.Chemscore.DG>
-12.1929

> <Gold.Chemscore.ZeroCoef>
-5.4800

> <Gold.Chemscore.Hbond>
1.1550

> <Gold.Chemscore.Metal>
0.0000

> <Gold.Chemscore.Lipo>
83.3393

> <Gold.Chemscore.Internal_Hbond>
0.0000

> <Gold.Chemscore.DEClash>
0.2731

> <Gold.Chemscore.DEInternal>
1.9054

> <Gold.Chemscore.Rot>
2.6935

> <Gold.Chemscore.Internal.Correction>
   9.000000E+99

> <Gold.Chemscore.Hbonds>
donor molecule, donor type, donor heavy atom, donor atom, acceptor molecule, acceptor atom, score
      L1  H    12    37       P1  8029  0.11
      P1  H  6934  6946       L1    11  0.02

> <Gold.Chemscore.Hbond.Weighted>
-3.8576

> <Gold.Chemscore.Metal.Weighted>
-0.0000

> <Gold.Chemscore.Lipo.Weighted>
-9.7507

> <Gold.Chemscore.Internal_Hbond.Weighted>
0.0000

> <Gold.Chemscore.DEClash.Weighted>
0.2731

> <Gold.Chemscore.DEInternal.Weighted>
1.9054

> <Gold.Chemscore.Rot.Weighted>
6.8954

> <Gold.Chemscore.Internal.Correction.Weighted>
   9.000000E+99

> <Gold.Protein.RotatedTorsions>
[ 6907 6896 6895 6894 ] final  -51.38 input  -60.11 | X-H torsion
[ 7974 7965 7964 7962 ] final  123.94 input  175.53 | X-H torsion
[ 8008 7997 7996 7995 ] final   63.68 input   59.86 | X-H torsion
[ 10167 10162 10161 10158 ] final   95.88 input  -65.29 | X-H torsion
[ 10718 10713 10712 10709 ] final  161.52 input   66.30 | X-H torsion
[ 10763 10752 10751 10750 ] final   96.14 input  -60.55 | X-H torsion
[ 11005 11000 10999 10996 ] final  -58.99 input  -57.11 | X-H torsion

> <Gold.Protein.ActiveResidues>
 VAL166  LYS551  ARG553  GLY616  TRP617  ASP618  TYR619  PRO620  LYS621  CYS622 
 ASP623  PHE694  ASN695  SER759  ASP760  ASP761  ALA762  ILE779  LEU786  VAL792 
 PHE793  MET794  SER795  GLU796  ALA797  LYS798  CYS799  TRP800  GLU811  SER814 

> <Gold.Protein.RotatedAtoms>
  150.8617  134.7971  159.7087 H   0  0  0  0  0  0  0  0  0  0  0  0  # atno 6907 bound_to 6896
  152.4652  134.5089  159.9757 H   0  0  0  0  0  0  0  0  0  0  0  0  # atno 6908 bound_to 6896
  151.5192  133.3431  159.2934 H   0  0  0  0  0  0  0  0  0  0  0  0  # atno 6909 bound_to 6896
  145.0901  139.3593  143.4865 H   0  0  0  0  0  0  0  0  0  0  0  0  # atno 7974 bound_to 7965
  155.6341  140.3496  155.4693 H   0  0  0  0  0  0  0  0  0  0  0  0  # atno 8008 bound_to 7997
  155.9979  140.1207  157.0599 H   0  0  0  0  0  0  0  0  0  0  0  0  # atno 8009 bound_to 7997
  154.4239  140.1106  156.5642 H   0  0  0  0  0  0  0  0  0  0  0  0  # atno 8010 bound_to 7997
  139.7947  144.6838  150.9845 H   0  0  0  0  0  0  0  0  0  0  0  0  # atno 10167 bound_to 10162
  157.1353  131.0527  151.2352 H   0  0  0  0  0  0  0  0  0  0  0  0  # atno 10718 bound_to 10713
  153.2614  135.4229  155.0898 H   0  0  0  0  0  0  0  0  0  0  0  0  # atno 10763 bound_to 10752
  154.8421  135.3450  154.6372 H   0  0  0  0  0  0  0  0  0  0  0  0  # atno 10764 bound_to 10752
  153.6792  135.7039  153.5180 H   0  0  0  0  0  0  0  0  0  0  0  0  # atno 10765 bound_to 10752
  141.1230  133.6614  156.5003 H   0  0  0  0  0  0  0  0  0  0  0  0  # atno 11005 bound_to 11000
  146.3531  140.0731  142.8622 LP  0  0  0  0  0  0  0  0  0  0  0  0  # atno 17320 bound_to 7965
  145.1076  140.9385  143.4675 LP  0  0  0  0  0  0  0  0  0  0  0  0  # atno 17321 bound_to 7965
  140.7820  143.4344  151.0646 LP  0  0  0  0  0  0  0  0  0  0  0  0  # atno 17342 bound_to 10162
  139.8019  143.8072  152.3163 LP  0  0  0  0  0  0  0  0  0  0  0  0  # atno 17343 bound_to 10162
  157.4356  130.7515  149.7026 LP  0  0  0  0  0  0  0  0  0  0  0  0  # atno 17370 bound_to 10713
  155.9799  130.4035  150.3558 LP  0  0  0  0  0  0  0  0  0  0  0  0  # atno 17371 bound_to 10713
  140.4451  134.6980  157.5011 LP  0  0  0  0  0  0  0  0  0  0  0  0  # atno 17394 bound_to 11000
  140.0203  134.6557  155.9250 LP  0  0  0  0  0  0  0  0  0  0  0  0  # atno 17395 bound_to 11000

$$$$
