AV-unprocessed.smi:2413|AV-procd|sdf|9537|dock1
  -GOLD-   2272013173D 1   1.00000     0.00000
 Structure written by MMmdl.
 46 47  0  0  0  0  0  0  0  0  2 V2000
  153.6562  141.6350  161.6058 C   0  0  0  0  0  0  0  0  0  0  0  0
  152.9369  142.2648  160.4173 C   0  0  0  0  0  0  0  0  0  0  0  0
  152.7325  143.4779  160.3974 O   0  0  0  0  0  0  0  0  0  0  0  0
  152.5629  141.4338  159.4326 N   0  0  0  0  0  0  0  0  0  0  0  0
  151.8720  141.8346  158.2111 C   0  0  0  0  0  0  0  0  0  0  0  0
  151.3550  140.6313  157.4009 C   0  0  1  0  0  0  0  0  0  0  0  0
  150.1468  140.9766  156.5038 C   0  0  0  0  0  0  0  0  0  0  0  0
  149.7773  139.8210  155.6974 N   0  0  0  0  0  0  0  0  0  0  0  0
  148.6082  140.0116  154.9513 C   0  0  0  0  0  0  0  0  0  0  0  0
  148.3261  139.2712  153.7874 C   0  0  0  0  0  0  0  0  0  0  0  0
  147.1147  139.5595  153.1340 C   0  0  0  0  0  0  0  0  0  0  0  0
  146.2796  140.5079  153.6241 N   0  3  0  0  0  0  0  0  0  0  0  0
  146.6044  141.1816  154.7423 C   0  0  0  0  0  0  0  0  0  0  0  0
  145.6331  142.2539  155.2593 C   0  0  0  0  0  0  0  0  0  0  0  0
  144.2347  141.6680  155.5710 C   0  0  0  0  0  0  0  0  0  0  0  0
  145.4450  143.3451  154.1860 C   0  0  0  0  0  0  0  0  0  0  0  0
  146.1811  142.8659  156.5637 C   0  0  0  0  0  0  0  0  0  0  0  0
  147.7506  140.9485  155.4014 N   0  0  0  0  0  0  0  0  0  0  0  0
  150.8918  139.3008  154.9170 C   0  0  0  0  0  0  0  0  0  0  0  0
  152.0815  138.9984  155.8427 C   0  0  0  0  0  0  0  0  0  0  0  0
  152.4233  140.1722  156.5745 O   0  0  0  0  0  0  0  0  0  0  0  0
  153.6398  140.5456  161.5536 H   0  0  0  0  0  0  0  0  0  0  0  0
  153.1789  141.9377  162.5380 H   0  0  0  0  0  0  0  0  0  0  0  0
  154.6962  141.9611  161.6309 H   0  0  0  0  0  0  0  0  0  0  0  0
  152.7670  140.4507  159.5396 H   0  0  0  0  0  0  0  0  0  0  0  0
  151.0373  142.4775  158.4917 H   0  0  0  0  0  0  0  0  0  0  0  0
  152.5360  142.4446  157.5963 H   0  0  0  0  0  0  0  0  0  0  0  0
  151.0796  139.8315  158.0909 H   0  0  0  0  0  0  0  0  0  0  0  0
  149.2946  141.2774  157.1147 H   0  0  0  0  0  0  0  0  0  0  0  0
  150.3920  141.8180  155.8541 H   0  0  0  0  0  0  0  0  0  0  0  0
  149.0019  138.5177  153.4098 H   0  0  0  0  0  0  0  0  0  0  0  0
  146.7847  139.0614  152.2340 H   0  0  0  0  0  0  0  0  0  0  0  0
  143.5546  142.4392  155.9352 H   0  0  0  0  0  0  0  0  0  0  0  0
  144.2825  140.8955  156.3398 H   0  0  0  0  0  0  0  0  0  0  0  0
  143.7749  141.2277  154.6852 H   0  0  0  0  0  0  0  0  0  0  0  0
  145.0582  142.9240  153.2573 H   0  0  0  0  0  0  0  0  0  0  0  0
  146.3833  143.8492  153.9524 H   0  0  0  0  0  0  0  0  0  0  0  0
  144.7425  144.1109  154.5167 H   0  0  0  0  0  0  0  0  0  0  0  0
  145.5004  143.6169  156.9667 H   0  0  0  0  0  0  0  0  0  0  0  0
  147.1435  143.3544  156.4076 H   0  0  0  0  0  0  0  0  0  0  0  0
  146.3200  142.1032  157.3308 H   0  0  0  0  0  0  0  0  0  0  0  0
  150.5859  138.3955  154.3912 H   0  0  0  0  0  0  0  0  0  0  0  0
  151.1886  140.0296  154.1617 H   0  0  0  0  0  0  0  0  0  0  0  0
  151.8450  138.1839  156.5294 H   0  0  0  0  0  0  0  0  0  0  0  0
  152.9437  138.6813  155.2559 H   0  0  0  0  0  0  0  0  0  0  0  0
  145.4041  140.7051  153.1384 H   0  0  0  0  0  0  0  0  0  0  0  0
  1  2  1  0  0  0  0
  1 22  1  0  0  0  0
  1 23  1  0  0  0  0
  1 24  1  0  0  0  0
  2  3  2  0  0  0  0
  2  4  1  0  0  0  0
  4  5  1  0  0  0  0
  4 25  1  0  0  0  0
  5  6  1  0  0  0  0
  5 26  1  0  0  0  0
  5 27  1  0  0  0  0
  6 21  1  0  0  0  0
  6  7  1  0  0  0  0
  6 28  1  0  0  0  0
  7  8  1  0  0  0  0
  7 29  1  0  0  0  0
  7 30  1  0  0  0  0
  8  9  1  0  0  0  0
  8 19  1  0  0  0  0
  9 18  1  0  0  0  0
  9 10  2  0  0  0  0
 10 11  1  0  0  0  0
 10 31  1  0  0  0  0
 11 12  2  0  0  0  0
 11 32  1  0  0  0  0
 12 13  1  0  0  0  0
 12 46  1  0  0  0  0
 13 14  1  0  0  0  0
 13 18  2  0  0  0  0
 14 15  1  0  0  0  0
 14 16  1  0  0  0  0
 14 17  1  0  0  0  0
 15 33  1  0  0  0  0
 15 34  1  0  0  0  0
 15 35  1  0  0  0  0
 16 36  1  0  0  0  0
 16 37  1  0  0  0  0
 16 38  1  0  0  0  0
 17 39  1  0  0  0  0
 17 40  1  0  0  0  0
 17 41  1  0  0  0  0
 19 20  1  0  0  0  0
 19 42  1  0  0  0  0
 19 43  1  0  0  0  0
 20 21  1  0  0  0  0
 20 44  1  0  0  0  0
 20 45  1  0  0  0  0
M  CHG  1  12   1
M  END
> <s_m_source_file>
AV-unprocessed.smi

> <i_m_source_file_index>
2413

> <i_lp_mmshare_version>
43012

> <i_f3d_flags>
0

> <s_epik_input>
W0NIM11DKD1PKVtOSF1bQ0gyXVtDQEBIXTFbQ0gyXU4oW0NIMl1bQ0gyXU8xKWMyW2NIXVtjSF1uYyhuMilDKFtDSDNdKShbQ0gzXSlbQ0gzXQ==

> <s_epik_cmdline>
J2VwaWtfcHl0aG9uJywgJy1waCcsICc3LjAnLCAnLXRuJywgJzgnLCAnLW1hJywgJzIwMCcsICctbWV0YWxfYmluZGluZycsICctaW1hZScsICc8aW5maWxlLm1hZT4nLCAnLW9tYWUnLCAnPG91dGZpbGUubWFlPic=

> <r_lp_tautomer_probability>
0.999336

> <r_epik_Ionization_Penalty>
2.26127

> <r_epik_Ionization_Penalty_Charging>
2.26127

> <r_epik_Ionization_Penalty_Neutral>
4.08984e-07

> <r_epik_State_Penalty>
2.40914

> <r_epik_Charging_Adjusted_Penalty>
4.67041

> <i_epik_Tot_Q>
1

> <i_epik_Tot_abs_Q>
1

> <r_epik_Metal_State_Penalty>
2.42208

> <b_epik_Metal_Only>
0

> <s_lp_Force_Field>
OPLS_2005

> <r_lp_Energy>
19.627

> <b_lp_Chiralities_Consistent>
1

> <s_lp_Variant>
AV-unprocessed.smi:2413-4

> <Gold.Version>
5.8.1

> <Gold.Id.Protein>
6NUR|6NUR_protein|mol2

> <Gold.PLP.Fitness>
41.2192

> <Gold.PLP.PLP>
-34.1330

> <Gold.PLP.part.hbond>
-2.0000

> <Gold.PLP.part.metal>
0.0000

> <Gold.PLP.part.buried>
-2.3557

> <Gold.PLP.part.nonpolar>
-29.6269

> <Gold.PLP.part.repulsive>
0.2136

> <Gold.PLP.ligand.clash>
0.0000

> <Gold.PLP.ligand.torsion>
1.0287

> <Gold.PLP.Chemscore.Hbond>
3.0000

> <Gold.PLP.Chemscore.CHOScore>
0.0000

> <Gold.PLP.Chemscore.Metal>
0.0000

> <Gold.Chemscore.Hbonds>
donor molecule, donor type, donor heavy atom, donor atom, acceptor molecule, acceptor atom, score
      L1  H    12    46       P1 10175  2.00
      P1  H  7997  8008       L1    21  1.00

> <Gold.PLP.Chemscore.Internal.Correction>
0.1436

> <Gold.Rescore>
     Score         DG    S(hbond)    S(metal)    S(lipo)     H(rot)  DE(clash)    DE(int)     intcor
     14.37     -15.56       1.88        0.00      71.23       1.77       0.05       1.13       ----

> <Gold.Chemscore.Fitness>
14.3686

> <Gold.Chemscore.DG>
-15.5552

> <Gold.Chemscore.ZeroCoef>
-5.4800

> <Gold.Chemscore.Hbond>
1.8796

> <Gold.Chemscore.Metal>
0.0000

> <Gold.Chemscore.Lipo>
71.2270

> <Gold.Chemscore.Internal_Hbond>
0.0000

> <Gold.Chemscore.DEClash>
0.0522

> <Gold.Chemscore.DEInternal>
1.1344

> <Gold.Chemscore.Rot>
1.7719

> <Gold.Chemscore.Internal.Correction>
   9.000000E+99

> <Gold.Chemscore.Hbonds>
donor molecule, donor type, donor heavy atom, donor atom, acceptor molecule, acceptor atom, score
      L1  H    12    46       P1 10175  0.74
      P1  H  7997  8008       L1    21  0.29

> <Gold.Chemscore.Hbond.Weighted>
-6.2778

> <Gold.Chemscore.Metal.Weighted>
-0.0000

> <Gold.Chemscore.Lipo.Weighted>
-8.3336

> <Gold.Chemscore.Internal_Hbond.Weighted>
0.0000

> <Gold.Chemscore.DEClash.Weighted>
0.0522

> <Gold.Chemscore.DEInternal.Weighted>
1.1344

> <Gold.Chemscore.Rot.Weighted>
4.5361

> <Gold.Chemscore.Internal.Correction.Weighted>
   9.000000E+99

> <Gold.Protein.RotatedTorsions>
[ 6907 6896 6895 6894 ] final  101.65 input  -60.11 | X-H torsion
[ 7974 7965 7964 7962 ] final  -84.81 input  175.53 | X-H torsion
[ 8008 7997 7996 7995 ] final  -48.63 input   59.86 | X-H torsion
[ 10167 10162 10161 10158 ] final  152.04 input  -65.29 | X-H torsion
[ 10718 10713 10712 10709 ] final  -55.97 input   66.30 | X-H torsion
[ 10763 10752 10751 10750 ] final -118.28 input  -60.55 | X-H torsion
[ 11005 11000 10999 10996 ] final   68.70 input  -57.11 | X-H torsion

> <Gold.Protein.ActiveResidues>
 VAL166  LYS551  ARG553  GLY616  TRP617  ASP618  TYR619  PRO620  LYS621  CYS622 
 ASP623  PHE694  ASN695  SER759  ASP760  ASP761  ALA762  ILE779  LEU786  VAL792 
 PHE793  MET794  SER795  GLU796  ALA797  LYS798  CYS799  TRP800  GLU811  SER814 

> <Gold.Protein.RotatedAtoms>
  152.5344  134.0094  159.7931 H   0  0  0  0  0  0  0  0  0  0  0  0  # atno 6907 bound_to 6896
  151.0299  133.5792  159.2669 H   0  0  0  0  0  0  0  0  0  0  0  0  # atno 6908 bound_to 6896
  151.2801  135.0718  159.9219 H   0  0  0  0  0  0  0  0  0  0  0  0  # atno 6909 bound_to 6896
  145.5016  140.9546  143.1756 H   0  0  0  0  0  0  0  0  0  0  0  0  # atno 7974 bound_to 7965
  154.4032  140.1317  156.4370 H   0  0  0  0  0  0  0  0  0  0  0  0  # atno 8008 bound_to 7997
  155.7496  140.3488  155.5123 H   0  0  0  0  0  0  0  0  0  0  0  0  # atno 8009 bound_to 7997
  155.8962  140.1011  157.1373 H   0  0  0  0  0  0  0  0  0  0  0  0  # atno 8010 bound_to 7997
  139.4836  144.5391  151.7595 H   0  0  0  0  0  0  0  0  0  0  0  0  # atno 10167 bound_to 10162
  156.1326  130.4158  150.0242 H   0  0  0  0  0  0  0  0  0  0  0  0  # atno 10718 bound_to 10713
  154.8582  135.4279  154.2114 H   0  0  0  0  0  0  0  0  0  0  0  0  # atno 10763 bound_to 10752
  153.3139  135.6977  153.7097 H   0  0  0  0  0  0  0  0  0  0  0  0  # atno 10764 bound_to 10752
  153.6178  135.3507  155.2974 H   0  0  0  0  0  0  0  0  0  0  0  0  # atno 10765 bound_to 10752
  139.9696  134.6922  156.0474 H   0  0  0  0  0  0  0  0  0  0  0  0  # atno 11005 bound_to 11000
  144.7777  139.6594  143.7168 LP  0  0  0  0  0  0  0  0  0  0  0  0  # atno 17320 bound_to 7965
  146.2222  139.5657  142.9610 LP  0  0  0  0  0  0  0  0  0  0  0  0  # atno 17321 bound_to 7965
  140.4928  144.1285  150.5954 LP  0  0  0  0  0  0  0  0  0  0  0  0  # atno 17342 bound_to 10162
  140.4152  143.2638  151.9784 LP  0  0  0  0  0  0  0  0  0  0  0  0  # atno 17343 bound_to 10162
  156.8150  130.9338  151.3643 LP  0  0  0  0  0  0  0  0  0  0  0  0  # atno 17370 bound_to 10713
  157.6502  130.8878  149.9618 LP  0  0  0  0  0  0  0  0  0  0  0  0  # atno 17371 bound_to 10713
  141.1376  133.6571  156.3637 LP  0  0  0  0  0  0  0  0  0  0  0  0  # atno 17394 bound_to 11000
  140.5322  134.6202  157.5353 LP  0  0  0  0  0  0  0  0  0  0  0  0  # atno 17395 bound_to 11000

$$$$
