AV-unprocessed.smi:1084|AV-procd|sdf|4716|dock2
  -GOLD-   22720 3243D 1   1.00000     0.00000
 Structure written by MMmdl.
 52 54  0  0  0  0  0  0  0  0  1 V2000
  144.7601  137.7343  154.0538 C   0  0  0  0  0  0  0  0  0  0  0  0
  145.5136  137.0397  152.8904 C   0  0  2  0  0  0  0  0  0  0  0  0
  146.2593  138.1218  152.0620 C   0  0  0  0  0  0  0  0  0  0  0  0
  147.5998  138.3875  152.5734 N   0  0  0  0  0  0  0  0  0  0  0  0
  147.8966  139.3145  153.4932 C   0  0  0  0  0  0  0  0  0  0  0  0
  147.0620  140.0698  153.9913 O   0  0  0  0  0  0  0  0  0  0  0  0
  149.2111  139.3184  153.7720 N   0  0  0  0  0  0  0  0  0  0  0  0
  149.8985  140.0822  154.7524 C   0  0  0  0  0  0  0  0  0  0  0  0
  151.0680  139.5387  155.3204 C   0  0  0  0  0  0  0  0  0  0  0  0
  151.7497  140.2652  156.3148 C   0  0  0  0  0  0  0  0  0  0  0  0
  151.2279  141.5157  156.7187 C   0  0  0  0  0  0  0  0  0  0  0  0
  151.8514  142.2879  157.7075 N   0  0  0  0  0  0  0  0  0  0  0  0
  151.8852  141.6389  159.0112 C   0  0  0  0  0  0  0  0  0  0  0  0
  152.7002  142.4902  160.0004 C   0  0  0  0  0  0  0  0  0  0  0  0
  152.1589  143.8073  160.0581 O   0  0  0  0  0  0  0  0  0  0  0  0
  152.2018  144.4601  158.7918 C   0  0  0  0  0  0  0  0  0  0  0  0
  151.3702  143.6618  157.7734 C   0  0  0  0  0  0  0  0  0  0  0  0
  150.1026  142.0389  156.1869 N   0  0  0  0  0  0  0  0  0  0  0  0
  149.4544  141.3382  155.2322 C   0  0  0  0  0  0  0  0  0  0  0  0
  144.6283  136.1819  152.0688 N   0  0  0  0  0  0  0  0  0  0  0  0
  144.0670  135.0595  152.8297 C   0  0  0  0  0  0  0  0  0  0  0  0
  143.1637  134.1518  151.9775 C   0  0  0  0  0  0  0  0  0  0  0  0
  143.8941  133.6642  150.8607 O   0  0  0  0  0  0  0  0  0  0  0  0
  144.3935  134.7184  150.0495 C   0  0  0  0  0  0  0  0  0  0  0  0
  145.3037  135.6333  150.8871 C   0  0  0  0  0  0  0  0  0  0  0  0
  145.3975  138.4108  154.6217 H   0  0  0  0  0  0  0  0  0  0  0  0
  144.3825  137.0217  154.7858 H   0  0  0  0  0  0  0  0  0  0  0  0
  143.9157  138.3164  153.6828 H   0  0  0  0  0  0  0  0  0  0  0  0
  146.2760  136.4015  153.3400 H   0  0  0  0  0  0  0  0  0  0  0  0
  146.3996  137.8141  151.0271 H   0  0  0  0  0  0  0  0  0  0  0  0
  145.6702  139.0408  152.0465 H   0  0  0  0  0  0  0  0  0  0  0  0
  148.3479  137.8145  152.2120 H   0  0  0  0  0  0  0  0  0  0  0  0
  149.7912  138.7209  153.2015 H   0  0  0  0  0  0  0  0  0  0  0  0
  151.4428  138.5779  154.9986 H   0  0  0  0  0  0  0  0  0  0  0  0
  152.6518  139.8664  156.7553 H   0  0  0  0  0  0  0  0  0  0  0  0
  150.8687  141.5081  159.3844 H   0  0  0  0  0  0  0  0  0  0  0  0
  152.3266  140.6458  158.9186 H   0  0  0  0  0  0  0  0  0  0  0  0
  152.6653  142.0472  160.9957 H   0  0  0  0  0  0  0  0  0  0  0  0
  153.7501  142.5300  159.7053 H   0  0  0  0  0  0  0  0  0  0  0  0
  151.8011  145.4684  158.8971 H   0  0  0  0  0  0  0  0  0  0  0  0
  153.2354  144.5604  158.4566 H   0  0  0  0  0  0  0  0  0  0  0  0
  151.4378  144.1245  156.7880 H   0  0  0  0  0  0  0  0  0  0  0  0
  150.3199  143.6750  158.0664 H   0  0  0  0  0  0  0  0  0  0  0  0
  148.5469  141.7979  154.8729 H   0  0  0  0  0  0  0  0  0  0  0  0
  144.8738  134.4646  153.2604 H   0  0  0  0  0  0  0  0  0  0  0  0
  143.4617  135.4212  153.6589 H   0  0  0  0  0  0  0  0  0  0  0  0
  142.8112  133.3064  152.5684 H   0  0  0  0  0  0  0  0  0  0  0  0
  142.2802  134.6948  151.6381 H   0  0  0  0  0  0  0  0  0  0  0  0
  144.9512  134.2916  149.2158 H   0  0  0  0  0  0  0  0  0  0  0  0
  143.5644  135.2854  149.6233 H   0  0  0  0  0  0  0  0  0  0  0  0
  145.6382  136.4313  150.2278 H   0  0  0  0  0  0  0  0  0  0  0  0
  146.1922  135.0785  151.1926 H   0  0  0  0  0  0  0  0  0  0  0  0
  1  2  1  0  0  0  0
  1 26  1  0  0  0  0
  1 27  1  0  0  0  0
  1 28  1  0  0  0  0
  2  3  1  0  0  0  0
  2 20  1  0  0  0  0
  2 29  1  0  0  0  0
  3  4  1  0  0  0  0
  3 30  1  0  0  0  0
  3 31  1  0  0  0  0
  4  5  1  0  0  0  0
  4 32  1  0  0  0  0
  5  6  2  0  0  0  0
  5  7  1  0  0  0  0
  7  8  1  0  0  0  0
  7 33  1  0  0  0  0
  8 19  1  0  0  0  0
  8  9  2  0  0  0  0
  9 10  1  0  0  0  0
  9 34  1  0  0  0  0
 10 11  2  0  0  0  0
 10 35  1  0  0  0  0
 11 12  1  0  0  0  0
 11 18  1  0  0  0  0
 12 17  1  0  0  0  0
 12 13  1  0  0  0  0
 13 14  1  0  0  0  0
 13 36  1  0  0  0  0
 13 37  1  0  0  0  0
 14 15  1  0  0  0  0
 14 38  1  0  0  0  0
 14 39  1  0  0  0  0
 15 16  1  0  0  0  0
 16 17  1  0  0  0  0
 16 40  1  0  0  0  0
 16 41  1  0  0  0  0
 17 42  1  0  0  0  0
 17 43  1  0  0  0  0
 18 19  2  0  0  0  0
 19 44  1  0  0  0  0
 20 25  1  0  0  0  0
 20 21  1  0  0  0  0
 21 22  1  0  0  0  0
 21 45  1  0  0  0  0
 21 46  1  0  0  0  0
 22 23  1  0  0  0  0
 22 47  1  0  0  0  0
 22 48  1  0  0  0  0
 23 24  1  0  0  0  0
 24 25  1  0  0  0  0
 24 49  1  0  0  0  0
 24 50  1  0  0  0  0
 25 51  1  0  0  0  0
 25 52  1  0  0  0  0
M  END
> <s_m_source_file>
AV-unprocessed.smi

> <i_m_source_file_index>
1084

> <i_lp_mmshare_version>
43012

> <i_f3d_flags>
0

> <s_epik_input>
W0NIMl0xW0NIMl1PW0NIMl1bQ0gyXU4xW0NASF0oW0NIM10pW0NIMl1bTkhdQyg9TylbTkhdYzJbY0hdW2NIXWMobltjSF0yKU4zW0NIMl1bQ0gyXU9bQ0gyXVtDSDJdMw==

> <s_epik_cmdline>
J2VwaWtfcHl0aG9uJywgJy1waCcsICc3LjAnLCAnLXRuJywgJzgnLCAnLW1hJywgJzIwMCcsICctbWV0YWxfYmluZGluZycsICctaW1hZScsICc8aW5maWxlLm1hZT4nLCAnLW9tYWUnLCAnPG91dGZpbGUubWFlPic=

> <r_lp_tautomer_probability>
1

> <r_epik_Ionization_Penalty>
0.268053

> <r_epik_Ionization_Penalty_Charging>
0

> <r_epik_Ionization_Penalty_Neutral>
0.268053

> <r_epik_State_Penalty>
0.269834

> <r_epik_Charging_Adjusted_Penalty>
0.269834

> <i_epik_Tot_Q>
0

> <i_epik_Tot_abs_Q>
0

> <r_epik_Metal_State_Penalty>
0.268436

> <b_epik_Metal_Only>
0

> <s_lp_Force_Field>
OPLS_2005

> <r_lp_Energy>
46.8762

> <b_lp_Chiralities_Consistent>
1

> <s_lp_Variant>
AV-unprocessed.smi:1084-1

> <Gold.Version>
5.8.1

> <Gold.Id.Protein>
6NUR|6NUR_protein|mol2

> <Gold.PLP.Fitness>
46.1897

> <Gold.PLP.PLP>
-45.0563

> <Gold.PLP.part.hbond>
-3.0000

> <Gold.PLP.part.metal>
0.0000

> <Gold.PLP.part.buried>
-3.2910

> <Gold.PLP.part.nonpolar>
-40.1274

> <Gold.PLP.part.repulsive>
1.5635

> <Gold.PLP.ligand.clash>
0.0000

> <Gold.PLP.ligand.torsion>
0.9933

> <Gold.PLP.Chemscore.Hbond>
0.9920

> <Gold.PLP.Chemscore.CHOScore>
0.0000

> <Gold.PLP.Chemscore.Metal>
0.0000

> <Gold.Chemscore.Hbonds>
donor molecule, donor type, donor heavy atom, donor atom, acceptor molecule, acceptor atom, score
      L1  H     4    32       P1  7948  0.99

> <Gold.PLP.Chemscore.Internal.Correction>
0.1441

> <Gold.Rescore>
     Score         DG    S(hbond)    S(metal)    S(lipo)     H(rot)  DE(clash)    DE(int)     intcor
     14.74     -17.08       0.95        0.00     107.37       1.62       0.22       2.11       ----

> <Gold.Chemscore.Fitness>
14.7411

> <Gold.Chemscore.DG>
-17.0778

> <Gold.Chemscore.ZeroCoef>
-5.4800

> <Gold.Chemscore.Hbond>
0.9537

> <Gold.Chemscore.Metal>
0.0000

> <Gold.Chemscore.Lipo>
107.3711

> <Gold.Chemscore.Internal_Hbond>
0.0000

> <Gold.Chemscore.DEClash>
0.2240

> <Gold.Chemscore.DEInternal>
2.1126

> <Gold.Chemscore.Rot>
1.6211

> <Gold.Chemscore.Internal.Correction>
   9.000000E+99

> <Gold.Chemscore.Hbonds>
donor molecule, donor type, donor heavy atom, donor atom, acceptor molecule, acceptor atom, score
      L1  H     4    32       P1  7948  0.94

> <Gold.Chemscore.Hbond.Weighted>
-3.1854

> <Gold.Chemscore.Metal.Weighted>
-0.0000

> <Gold.Chemscore.Lipo.Weighted>
-12.5624

> <Gold.Chemscore.Internal_Hbond.Weighted>
0.0000

> <Gold.Chemscore.DEClash.Weighted>
0.2240

> <Gold.Chemscore.DEInternal.Weighted>
2.1126

> <Gold.Chemscore.Rot.Weighted>
4.1501

> <Gold.Chemscore.Internal.Correction.Weighted>
   9.000000E+99

> <Gold.Protein.RotatedTorsions>
[ 6907 6896 6895 6894 ] final  158.29 input  -60.11 | X-H torsion
[ 7974 7965 7964 7962 ] final   92.50 input  175.53 | X-H torsion
[ 8008 7997 7996 7995 ] final  -57.20 input   59.86 | X-H torsion
[ 10167 10162 10161 10158 ] final  -95.35 input  -65.29 | X-H torsion
[ 10718 10713 10712 10709 ] final  118.76 input   66.30 | X-H torsion
[ 10763 10752 10751 10750 ] final  157.59 input  -60.55 | X-H torsion
[ 11005 11000 10999 10996 ] final  -83.41 input  -57.11 | X-H torsion

> <Gold.Protein.ActiveResidues>
 VAL166  LYS551  ARG553  GLY616  TRP617  ASP618  TYR619  PRO620  LYS621  CYS622 
 ASP623  PHE694  ASN695  SER759  ASP760  ASP761  ALA762  ILE779  LEU786  VAL792 
 PHE793  MET794  SER795  GLU796  ALA797  LYS798  CYS799  TRP800  GLU811  SER814 

> <Gold.Protein.RotatedAtoms>
  152.0025  133.3831  159.4187 H   0  0  0  0  0  0  0  0  0  0  0  0  # atno 6907 bound_to 6896
  150.6908  134.3818  159.5046 H   0  0  0  0  0  0  0  0  0  0  0  0  # atno 6908 bound_to 6896
  152.1567  134.8944  160.0595 H   0  0  0  0  0  0  0  0  0  0  0  0  # atno 6909 bound_to 6896
  145.4915  139.2276  143.2827 H   0  0  0  0  0  0  0  0  0  0  0  0  # atno 7974 bound_to 7965
  154.4259  140.1112  156.5759 H   0  0  0  0  0  0  0  0  0  0  0  0  # atno 8008 bound_to 7997
  155.6163  140.3494  155.4619 H   0  0  0  0  0  0  0  0  0  0  0  0  # atno 8009 bound_to 7997
  156.0059  140.1209  157.0491 H   0  0  0  0  0  0  0  0  0  0  0  0  # atno 8010 bound_to 7997
  140.3050  143.3139  152.0208 H   0  0  0  0  0  0  0  0  0  0  0  0  # atno 10167 bound_to 10162
  157.6008  131.1051  150.7801 H   0  0  0  0  0  0  0  0  0  0  0  0  # atno 10718 bound_to 10713
  154.2026  135.2789  155.2985 H   0  0  0  0  0  0  0  0  0  0  0  0  # atno 10763 bound_to 10752
  154.5842  135.5580  153.7218 H   0  0  0  0  0  0  0  0  0  0  0  0  # atno 10764 bound_to 10752
  153.0084  135.6352  154.2165 H   0  0  0  0  0  0  0  0  0  0  0  0  # atno 10765 bound_to 10752
  141.1658  133.7293  156.8715 H   0  0  0  0  0  0  0  0  0  0  0  0  # atno 11005 bound_to 11000
  146.2281  140.5709  142.8987 LP  0  0  0  0  0  0  0  0  0  0  0  0  # atno 17320 bound_to 7965
  144.7831  140.5882  143.6592 LP  0  0  0  0  0  0  0  0  0  0  0  0  # atno 17321 bound_to 7965
  139.4906  144.6427  151.6843 LP  0  0  0  0  0  0  0  0  0  0  0  0  # atno 17342 bound_to 10162
  140.5618  144.0256  150.6173 LP  0  0  0  0  0  0  0  0  0  0  0  0  # atno 17343 bound_to 10162
  156.8200  130.4981  149.5344 LP  0  0  0  0  0  0  0  0  0  0  0  0  # atno 17370 bound_to 10713
  156.1081  130.6020  151.0004 LP  0  0  0  0  0  0  0  0  0  0  0  0  # atno 17371 bound_to 10713
  140.1778  134.9055  157.2912 LP  0  0  0  0  0  0  0  0  0  0  0  0  # atno 17394 bound_to 11000
  140.2429  134.3774  155.7473 LP  0  0  0  0  0  0  0  0  0  0  0  0  # atno 17395 bound_to 11000

$$$$
