AV-unprocessed.smi:157|AV-procd|sdf|1312|dock5
  -GOLD-   2262019 03D 1   1.00000     0.00000
 Structure written by MMmdl.
 36 38  0  0  0  0  0  0  0  0  2 V2000
  154.8715  137.5841  155.5361 O   0  0  0  0  0  0  0  0  0  0  0  0
  154.2328  138.1162  154.3952 C   0  0  0  0  0  0  0  0  0  0  0  0
  152.9161  138.8054  154.7944 C   0  0  2  0  0  0  0  0  0  0  0  0
  153.0740  139.5565  155.9957 O   0  0  0  0  0  0  0  0  0  0  0  0
  151.8889  139.5433  156.7364 C   0  0  1  0  0  0  0  0  0  0  0  0
  151.4487  140.9547  156.9528 N   0  0  0  0  0  0  0  0  0  0  0  0
  150.5697  141.6421  156.1935 C   0  0  0  0  0  0  0  0  0  0  0  0
  150.3467  142.8793  156.6030 N   0  3  0  0  0  0  0  0  0  0  0  0
  151.1246  143.0652  157.7263 C   0  0  0  0  0  0  0  0  0  0  0  0
  151.7918  141.8553  157.9350 C   0  0  0  0  0  0  0  0  0  0  0  0
  152.6954  141.4888  158.9443 N   0  0  0  0  0  0  0  0  0  0  0  0
  152.8453  142.1660  160.0361 C   0  0  0  0  0  0  0  0  0  0  0  0
  152.2685  143.3702  160.4039 N   0  0  0  0  0  0  0  0  0  0  0  0
  152.1937  144.5185  159.5184 C   0  0  0  0  0  0  0  0  0  0  0  0
  151.1211  144.3869  158.4293 C   0  0  2  0  0  0  0  0  0  0  0  0
  149.8638  144.6987  158.9932 O   0  0  0  0  0  0  0  0  0  0  0  0
  150.8406  138.7789  155.9236 C   0  0  0  0  0  0  0  0  0  0  0  0
  151.7061  137.8947  155.0507 C   0  0  2  0  0  0  0  0  0  0  0  0
  152.0570  136.7063  155.7342 O   0  0  0  0  0  0  0  0  0  0  0  0
  152.6436  139.5250  154.0200 H   0  0  0  0  0  0  0  0  0  0  0  0
  152.0703  139.1255  157.7272 H   0  0  0  0  0  0  0  0  0  0  0  0
  151.3136  145.1579  157.6825 H   0  0  0  0  0  0  0  0  0  0  0  0
  151.2018  137.6226  154.1229 H   0  0  0  0  0  0  0  0  0  0  0  0
  154.9439  138.2670  156.1856 H   0  0  0  0  0  0  0  0  0  0  0  0
  154.9058  138.8024  153.8809 H   0  0  0  0  0  0  0  0  0  0  0  0
  154.0284  137.2973  153.7049 H   0  0  0  0  0  0  0  0  0  0  0  0
  150.0950  141.2147  155.3284 H   0  0  0  0  0  0  0  0  0  0  0  0
  153.5152  141.7823  160.8068 H   0  0  0  0  0  0  0  0  0  0  0  0
  152.3167  143.6529  161.3726 H   0  0  0  0  0  0  0  0  0  0  0  0
  152.0404  145.4247  160.1058 H   0  0  0  0  0  0  0  0  0  0  0  0
  153.1694  144.6279  159.0424 H   0  0  0  0  0  0  0  0  0  0  0  0
  149.3508  145.1668  158.3526 H   0  0  0  0  0  0  0  0  0  0  0  0
  150.1473  138.2401  156.5708 H   0  0  0  0  0  0  0  0  0  0  0  0
  150.2742  139.4740  155.3014 H   0  0  0  0  0  0  0  0  0  0  0  0
  151.2825  136.3620  156.1527 H   0  0  0  0  0  0  0  0  0  0  0  0
  149.7304  143.5545  156.1685 H   0  0  0  0  0  0  0  0  0  0  0  0
  1  2  1  0  0  0  0
  1 24  1  0  0  0  0
  2  3  1  0  0  0  0
  2 25  1  0  0  0  0
  2 26  1  0  0  0  0
  3 20  1  0  0  0  0
  3 18  1  0  0  0  0
  3  4  1  0  0  0  0
  4  5  1  0  0  0  0
  5 21  1  0  0  0  0
  5  6  1  0  0  0  0
  5 17  1  0  0  0  0
  6 10  1  0  0  0  0
  6  7  1  0  0  0  0
  7  8  2  0  0  0  0
  7 27  1  0  0  0  0
  8  9  1  0  0  0  0
  8 36  1  0  0  0  0
  9 15  1  0  0  0  0
  9 10  2  0  0  0  0
 10 11  1  0  0  0  0
 11 12  2  0  0  0  0
 12 13  1  0  0  0  0
 12 28  1  0  0  0  0
 13 14  1  0  0  0  0
 13 29  1  0  0  0  0
 14 15  1  0  0  0  0
 14 30  1  0  0  0  0
 14 31  1  0  0  0  0
 15 22  1  0  0  0  0
 15 16  1  0  0  0  0
 16 32  1  0  0  0  0
 17 18  1  0  0  0  0
 17 33  1  0  0  0  0
 17 34  1  0  0  0  0
 18 23  1  0  0  0  0
 18 19  1  0  0  0  0
 19 35  1  0  0  0  0
M  CHG  1   8   1
M  END
> <s_m_source_file>
AV-unprocessed.smi

> <i_m_source_file_index>
157

> <i_lp_mmshare_version>
43012

> <i_f3d_flags>
0

> <s_epik_input>
W09IXVtDSDJdW0NASF0xT1tDQEhdKFtDSDJdW0NAQEhdMVtPSF0pbihbY0hdbjIpYyhjMjMpTj1bQ0hdW05IXVtDSDJdW0NASF0zW09IXQ==

> <s_epik_cmdline>
J2VwaWtfcHl0aG9uJywgJy1waCcsICc3LjAnLCAnLXRuJywgJzgnLCAnLW1hJywgJzIwMCcsICctbWV0YWxfYmluZGluZycsICctaW1hZScsICc8aW5maWxlLm1hZT4nLCAnLW9tYWUnLCAnPG91dGZpbGUubWFlPic=

> <r_epik_Ionization_Penalty>
1.68594

> <r_epik_Ionization_Penalty_Charging>
0

> <r_epik_Ionization_Penalty_Neutral>
1.68594

> <r_epik_State_Penalty>
1.79006

> <r_epik_Charging_Adjusted_Penalty>
1.79006

> <i_epik_Tot_Q>
1

> <i_epik_Tot_abs_Q>
1

> <r_epik_Metal_State_Penalty>
5.85324

> <b_epik_Metal_Only>
0

> <s_epik_Chemistry_Notes>
This compound has an imine and may undergo hydrolysis. This compound contains an acetal/aminal-like group ( X-CH(R)-Y where X, Y are N, S, or O) that may be acid/base labile, releasing an aldehyde.

> <s_lp_Force_Field>
OPLS_2005

> <r_lp_Energy>
55.0153

> <b_lp_Chiralities_Consistent>
1

> <s_lp_Variant>
AV-unprocessed.smi:157-22

> <Gold.Version>
5.8.1

> <Gold.Id.Protein>
6NUR|6NUR_protein|mol2

> <Gold.PLP.Fitness>
50.5829

> <Gold.PLP.PLP>
-37.2758

> <Gold.PLP.part.hbond>
-5.6359

> <Gold.PLP.part.metal>
0.0000

> <Gold.PLP.part.buried>
-4.1292

> <Gold.PLP.part.nonpolar>
-28.9866

> <Gold.PLP.part.repulsive>
0.1148

> <Gold.PLP.ligand.clash>
0.0000

> <Gold.PLP.ligand.torsion>
0.8611

> <Gold.PLP.Chemscore.Hbond>
5.0077

> <Gold.PLP.Chemscore.CHOScore>
0.0000

> <Gold.PLP.Chemscore.Metal>
0.0000

> <Gold.Chemscore.Hbonds>
donor molecule, donor type, donor heavy atom, donor atom, acceptor molecule, acceptor atom, score
      L1  H     8    36       P1  8028  1.98
      L1  H    16    32       P1  8029  1.00
      P1  H  7997  8008       L1     4  0.90
      P1  H 10752 10764       L1    19  1.00
      P1  H 10752 10765       L1     1  0.07

> <Gold.PLP.Chemscore.Internal.Correction>
0.0063

> <Gold.Rescore>
     Score         DG    S(hbond)    S(metal)    S(lipo)     H(rot)  DE(clash)    DE(int)     intcor
     13.57     -15.42       3.46        0.00      66.38       3.67       1.15       0.70       ----

> <Gold.Chemscore.Fitness>
13.5663

> <Gold.Chemscore.DG>
-15.4210

> <Gold.Chemscore.ZeroCoef>
-5.4800

> <Gold.Chemscore.Hbond>
3.4608

> <Gold.Chemscore.Metal>
0.0000

> <Gold.Chemscore.Lipo>
66.3835

> <Gold.Chemscore.Internal_Hbond>
0.0000

> <Gold.Chemscore.DEClash>
1.1520

> <Gold.Chemscore.DEInternal>
0.7026

> <Gold.Chemscore.Rot>
3.6659

> <Gold.Chemscore.Internal.Correction>
   9.000000E+99

> <Gold.Chemscore.Hbonds>
donor molecule, donor type, donor heavy atom, donor atom, acceptor molecule, acceptor atom, score
      L1  H     8    36       P1  8028  0.92
      L1  H    16    32       P1  8029  0.69
      P1  H  7997  8008       L1     4  0.46
      P1  H 10752 10764       L1    19  0.82
      P1  H 10752 10765       L1     1  0.01

> <Gold.Chemscore.Hbond.Weighted>
-11.5589

> <Gold.Chemscore.Metal.Weighted>
-0.0000

> <Gold.Chemscore.Lipo.Weighted>
-7.7669

> <Gold.Chemscore.Internal_Hbond.Weighted>
0.0000

> <Gold.Chemscore.DEClash.Weighted>
1.1520

> <Gold.Chemscore.DEInternal.Weighted>
0.7026

> <Gold.Chemscore.Rot.Weighted>
9.3848

> <Gold.Chemscore.Internal.Correction.Weighted>
   9.000000E+99

> <Gold.Protein.RotatedTorsions>
[ 6907 6896 6895 6894 ] final -146.79 input  -60.11 | X-H torsion
[ 7974 7965 7964 7962 ] final  164.09 input  175.53 | X-H torsion
[ 8008 7997 7996 7995 ] final  -15.36 input   59.86 | X-H torsion
[ 10167 10162 10161 10158 ] final  -76.58 input  -65.29 | X-H torsion
[ 10718 10713 10712 10709 ] final   42.91 input   66.30 | X-H torsion
[ 10763 10752 10751 10750 ] final  -48.01 input  -60.55 | X-H torsion
[ 11005 11000 10999 10996 ] final -164.46 input  -57.11 | X-H torsion

> <Gold.Protein.ActiveResidues>
 VAL166  LYS551  ARG553  GLY616  TRP617  ASP618  TYR619  PRO620  LYS621  CYS622 
 ASP623  PHE694  ASN695  SER759  ASP760  ASP761  ALA762  ILE779  LEU786  VAL792 
 PHE793  MET794  SER795  GLU796  ALA797  LYS798  CYS799  TRP800  GLU811  SER814 

> <Gold.Protein.RotatedAtoms>
  151.1466  133.4935  159.2595 H   0  0  0  0  0  0  0  0  0  0  0  0  # atno 6907 bound_to 6896
  151.1598  135.0267  159.8715 H   0  0  0  0  0  0  0  0  0  0  0  0  # atno 6908 bound_to 6896
  152.5463  134.1341  159.8505 H   0  0  0  0  0  0  0  0  0  0  0  0  # atno 6909 bound_to 6896
  144.7560  139.8276  143.6349 H   0  0  0  0  0  0  0  0  0  0  0  0  # atno 7974 bound_to 7965
  154.5137  140.2198  155.9108 H   0  0  0  0  0  0  0  0  0  0  0  0  # atno 8008 bound_to 7997
  156.1582  140.3147  155.8728 H   0  0  0  0  0  0  0  0  0  0  0  0  # atno 8009 bound_to 7997
  155.3804  140.0472  157.3034 H   0  0  0  0  0  0  0  0  0  0  0  0  # atno 8010 bound_to 7997
  140.4844  143.2394  151.8006 H   0  0  0  0  0  0  0  0  0  0  0  0  # atno 10167 bound_to 10162
  157.4100  130.7909  149.7422 H   0  0  0  0  0  0  0  0  0  0  0  0  # atno 10718 bound_to 10713
  154.0707  135.6605  153.4824 H   0  0  0  0  0  0  0  0  0  0  0  0  # atno 10763 bound_to 10752
  153.0392  135.5156  154.7569 H   0  0  0  0  0  0  0  0  0  0  0  0  # atno 10764 bound_to 10752
  154.6634  135.3018  154.9804 H   0  0  0  0  0  0  0  0  0  0  0  0  # atno 10765 bound_to 10752
  140.5867  134.5087  157.5187 H   0  0  0  0  0  0  0  0  0  0  0  0  # atno 11005 bound_to 11000
  146.1571  139.4672  143.0012 LP  0  0  0  0  0  0  0  0  0  0  0  0  # atno 17320 bound_to 7965
  145.6777  141.0199  143.1623 LP  0  0  0  0  0  0  0  0  0  0  0  0  # atno 17321 bound_to 7965
  139.4839  144.4730  151.9401 LP  0  0  0  0  0  0  0  0  0  0  0  0  # atno 17342 bound_to 10162
  140.3816  144.2729  150.5908 LP  0  0  0  0  0  0  0  0  0  0  0  0  # atno 17343 bound_to 10162
  155.9848  130.3988  150.3294 LP  0  0  0  0  0  0  0  0  0  0  0  0  # atno 17370 bound_to 10713
  157.1431  131.0302  151.2919 LP  0  0  0  0  0  0  0  0  0  0  0  0  # atno 17371 bound_to 10713
  139.9292  134.7995  156.0978 LP  0  0  0  0  0  0  0  0  0  0  0  0  # atno 17394 bound_to 11000
  141.0961  133.6695  156.2649 LP  0  0  0  0  0  0  0  0  0  0  0  0  # atno 17395 bound_to 11000

$$$$
