AV-unprocessed.smi:1452|AV-procd|sdf|5904|dock2
  -GOLD-   22720 5593D 1   1.00000     0.00000
 Structure written by MMmdl.
 40 42  0  0  0  0  0  0  0  0  2 V2000
  146.4463  138.0916  154.9645 O   0  0  0  0  0  0  0  0  0  0  0  0
  147.2109  137.5455  154.1713 C   0  0  0  0  0  0  0  0  0  0  0  0
  148.4651  138.0057  153.9788 N   0  0  0  0  0  0  0  0  0  0  0  0
  149.1590  139.1065  154.5620 C   0  0  0  0  0  0  0  0  0  0  0  0
  150.5254  138.8642  154.8292 C   0  0  0  0  0  0  0  0  0  0  0  0
  151.3168  139.8852  155.3902 C   0  0  0  0  0  0  0  0  0  0  0  0
  150.7220  141.1288  155.6667 C   0  0  0  0  0  0  0  0  0  0  0  0
  149.3579  141.2919  155.3663 C   0  0  0  0  0  0  0  0  0  0  0  0
  148.5976  140.3140  154.8292 N   0  0  0  0  0  0  0  0  0  0  0  0
  146.8619  136.4670  153.4502 N   0  0  0  0  0  0  0  0  0  0  0  0
  145.5851  135.7618  153.5263 C   0  0  1  0  0  0  0  0  0  0  0  0
  144.4042  136.6083  153.0117 C   0  0  0  0  0  0  0  0  0  0  0  0
  143.5626  135.6374  152.1774 C   0  0  0  0  0  0  0  0  0  0  0  0
  144.5691  134.7289  151.6162 N   0  3  2  0  0  0  0  0  0  0  0  0
  144.1111  133.4967  150.9436 C   0  0  0  0  0  0  0  0  0  0  0  0
  145.3316  132.8156  150.2878 C   0  0  0  0  0  0  0  0  0  0  0  0
  146.4909  132.6036  151.2877 C   0  0  0  0  0  0  0  0  0  0  0  0
  146.8346  133.9011  152.0506 C   0  0  0  0  0  0  0  0  0  0  0  0
  145.5495  134.4656  152.6834 C   0  0  1  0  0  0  0  0  0  0  0  0
  148.9733  137.5385  153.2419 H   0  0  0  0  0  0  0  0  0  0  0  0
  150.9689  137.9039  154.6081 H   0  0  0  0  0  0  0  0  0  0  0  0
  152.3620  139.7162  155.6030 H   0  0  0  0  0  0  0  0  0  0  0  0
  151.2962  141.9366  156.0959 H   0  0  0  0  0  0  0  0  0  0  0  0
  148.8634  142.2321  155.5607 H   0  0  0  0  0  0  0  0  0  0  0  0
  147.5553  136.0873  152.8207 H   0  0  0  0  0  0  0  0  0  0  0  0
  145.3814  135.5003  154.5665 H   0  0  0  0  0  0  0  0  0  0  0  0
  143.8323  137.0662  153.8193 H   0  0  0  0  0  0  0  0  0  0  0  0
  144.7656  137.4129  152.3691 H   0  0  0  0  0  0  0  0  0  0  0  0
  142.8756  135.0785  152.8150 H   0  0  0  0  0  0  0  0  0  0  0  0
  142.9856  136.1390  151.4000 H   0  0  0  0  0  0  0  0  0  0  0  0
  143.6322  132.8306  151.6628 H   0  0  0  0  0  0  0  0  0  0  0  0
  143.3670  133.7450  150.1860 H   0  0  0  0  0  0  0  0  0  0  0  0
  145.0369  131.8619  149.8491 H   0  0  0  0  0  0  0  0  0  0  0  0
  145.6850  133.4351  149.4624 H   0  0  0  0  0  0  0  0  0  0  0  0
  146.2092  131.8299  152.0030 H   0  0  0  0  0  0  0  0  0  0  0  0
  147.3730  132.2316  150.7656 H   0  0  0  0  0  0  0  0  0  0  0  0
  147.5796  133.6916  152.8187 H   0  0  0  0  0  0  0  0  0  0  0  0
  147.2756  134.6294  151.3683 H   0  0  0  0  0  0  0  0  0  0  0  0
  145.1292  133.6925  153.3305 H   0  0  0  0  0  0  0  0  0  0  0  0
  145.0577  135.2705  150.9177 H   0  0  0  0  0  0  0  0  0  0  0  0
  1  2  2  0  0  0  0
  2  3  1  0  0  0  0
  2 10  1  0  0  0  0
  3  4  1  0  0  0  0
  3 20  1  0  0  0  0
  4  9  1  0  0  0  0
  4  5  2  0  0  0  0
  5  6  1  0  0  0  0
  5 21  1  0  0  0  0
  6  7  2  0  0  0  0
  6 22  1  0  0  0  0
  7  8  1  0  0  0  0
  7 23  1  0  0  0  0
  8  9  2  0  0  0  0
  8 24  1  0  0  0  0
 10 11  1  0  0  0  0
 10 25  1  0  0  0  0
 11 19  1  0  0  0  0
 11 12  1  0  0  0  0
 11 26  1  0  0  0  0
 12 13  1  0  0  0  0
 12 27  1  0  0  0  0
 12 28  1  0  0  0  0
 13 14  1  0  0  0  0
 13 29  1  0  0  0  0
 13 30  1  0  0  0  0
 14 19  1  0  0  0  0
 14 15  1  0  0  0  0
 14 40  1  0  0  0  0
 15 16  1  0  0  0  0
 15 31  1  0  0  0  0
 15 32  1  0  0  0  0
 16 17  1  0  0  0  0
 16 33  1  0  0  0  0
 16 34  1  0  0  0  0
 17 18  1  0  0  0  0
 17 35  1  0  0  0  0
 17 36  1  0  0  0  0
 18 19  1  0  0  0  0
 18 37  1  0  0  0  0
 18 38  1  0  0  0  0
 19 39  1  0  0  0  0
M  CHG  1  14   1
M  END
> <s_m_source_file>
AV-unprocessed.smi

> <i_m_source_file_index>
1452

> <i_lp_mmshare_version>
43012

> <i_f3d_flags>
0

> <s_epik_input>
W0NIMl0xW0NIMl1bQ0gyXVtDSDJdW0NASF0oTjEyKVtDQEBIXShbQ0gyXVtDSDJdMilbTkhdQyg9TylbTkhdYzNbY0hdW2NIXVtjSF1bY0hdbjM=

> <s_epik_cmdline>
J2VwaWtfcHl0aG9uJywgJy1waCcsICc3LjAnLCAnLXRuJywgJzgnLCAnLW1hJywgJzIwMCcsICctbWV0YWxfYmluZGluZycsICctaW1hZScsICc8aW5maWxlLm1hZT4nLCAnLW9tYWUnLCAnPG91dGZpbGUubWFlPic=

> <r_epik_Ionization_Penalty>
0.00100813

> <r_epik_Ionization_Penalty_Charging>
0.000974069

> <r_epik_Ionization_Penalty_Neutral>
3.40643e-05

> <r_epik_State_Penalty>
0.000633842

> <r_epik_Charging_Adjusted_Penalty>
0.00160791

> <i_epik_Tot_Q>
1

> <i_epik_Tot_abs_Q>
1

> <r_epik_Metal_State_Penalty>
-0

> <b_epik_Metal_Only>
0

> <s_lp_Force_Field>
OPLS_2005

> <r_lp_Energy>
45.5748

> <b_lp_Chiralities_Consistent>
1

> <s_lp_Variant>
AV-unprocessed.smi:1452-2

> <Gold.Version>
5.8.1

> <Gold.Id.Protein>
6NUR|6NUR_protein|mol2

> <Gold.PLP.Fitness>
36.9519

> <Gold.PLP.PLP>
-28.7040

> <Gold.PLP.part.hbond>
-2.0000

> <Gold.PLP.part.metal>
0.0000

> <Gold.PLP.part.buried>
-2.1798

> <Gold.PLP.part.nonpolar>
-23.7769

> <Gold.PLP.part.repulsive>
0.1772

> <Gold.PLP.ligand.clash>
0.0000

> <Gold.PLP.ligand.torsion>
0.3404

> <Gold.PLP.Chemscore.Hbond>
1.9760

> <Gold.PLP.Chemscore.CHOScore>
1.0000

> <Gold.PLP.Chemscore.Metal>
0.0000

> <Gold.Chemscore.Hbonds>
donor molecule, donor type, donor heavy atom, donor atom, acceptor molecule, acceptor atom, score
      L1  H     3    20       P1  7948  0.98
      L1  H    10    25       P1  7948  1.00
      L1  C     8    24       P1  8028  1.00

> <Gold.PLP.Chemscore.Internal.Correction>
0.0005

> <Gold.Rescore>
     Score         DG    S(hbond)    S(metal)    S(lipo)     H(rot)  DE(clash)    DE(int)     intcor
     17.29     -17.68       1.92        0.00      71.47       1.00       0.03       0.36       ----

> <Gold.Chemscore.Fitness>
17.2882

> <Gold.Chemscore.DG>
-17.6800

> <Gold.Chemscore.ZeroCoef>
-5.4800

> <Gold.Chemscore.Hbond>
1.9156

> <Gold.Chemscore.Metal>
0.0000

> <Gold.Chemscore.Lipo>
71.4679

> <Gold.Chemscore.Internal_Hbond>
0.0000

> <Gold.Chemscore.DEClash>
0.0303

> <Gold.Chemscore.DEInternal>
0.3615

> <Gold.Chemscore.Rot>
1.0000

> <Gold.Chemscore.Internal.Correction>
   9.000000E+99

> <Gold.Chemscore.Hbonds>
donor molecule, donor type, donor heavy atom, donor atom, acceptor molecule, acceptor atom, score
      L1  H     3    20       P1  7948  0.93
      L1  H    10    25       P1  7948  0.97

> <Gold.Chemscore.Hbond.Weighted>
-6.3982

> <Gold.Chemscore.Metal.Weighted>
-0.0000

> <Gold.Chemscore.Lipo.Weighted>
-8.3617

> <Gold.Chemscore.Internal_Hbond.Weighted>
0.0000

> <Gold.Chemscore.DEClash.Weighted>
0.0303

> <Gold.Chemscore.DEInternal.Weighted>
0.3615

> <Gold.Chemscore.Rot.Weighted>
2.5600

> <Gold.Chemscore.Internal.Correction.Weighted>
   9.000000E+99

> <Gold.Protein.RotatedTorsions>
[ 6907 6896 6895 6894 ] final -177.65 input  -60.11 | X-H torsion
[ 7974 7965 7964 7962 ] final  103.32 input  175.53 | X-H torsion
[ 8008 7997 7996 7995 ] final -139.52 input   59.86 | X-H torsion
[ 10167 10162 10161 10158 ] final   55.43 input  -65.29 | X-H torsion
[ 10718 10713 10712 10709 ] final  178.38 input   66.30 | X-H torsion
[ 10763 10752 10751 10750 ] final   46.81 input  -60.55 | X-H torsion
[ 11005 11000 10999 10996 ] final   39.44 input  -57.11 | X-H torsion

> <Gold.Protein.ActiveResidues>
 VAL166  LYS551  ARG553  GLY616  TRP617  ASP618  TYR619  PRO620  LYS621  CYS622 
 ASP623  PHE694  ASN695  SER759  ASP760  ASP761  ALA762  ILE779  LEU786  VAL792 
 PHE793  MET794  SER795  GLU796  ALA797  LYS798  CYS799  TRP800  GLU811  SER814 

> <Gold.Protein.RotatedAtoms>
  151.6244  133.3336  159.3094 H   0  0  0  0  0  0  0  0  0  0  0  0  # atno 6907 bound_to 6896
  150.8089  134.7235  159.6681 H   0  0  0  0  0  0  0  0  0  0  0  0  # atno 6908 bound_to 6896
  152.4185  134.6002  160.0049 H   0  0  0  0  0  0  0  0  0  0  0  0  # atno 6909 bound_to 6896
  145.3475  139.2447  143.3576 H   0  0  0  0  0  0  0  0  0  0  0  0  # atno 7974 bound_to 7965
  155.4463  140.0535  157.3005 H   0  0  0  0  0  0  0  0  0  0  0  0  # atno 8008 bound_to 7997
  154.4796  140.2076  155.9751 H   0  0  0  0  0  0  0  0  0  0  0  0  # atno 8009 bound_to 7997
  156.1186  140.3192  155.8180 H   0  0  0  0  0  0  0  0  0  0  0  0  # atno 8010 bound_to 7997
  140.2195  144.3804  150.6456 H   0  0  0  0  0  0  0  0  0  0  0  0  # atno 10167 bound_to 10162
  156.8914  130.9848  151.3049 H   0  0  0  0  0  0  0  0  0  0  0  0  # atno 10718 bound_to 10713
  152.9806  135.5996  154.3661 H   0  0  0  0  0  0  0  0  0  0  0  0  # atno 10763 bound_to 10752
  154.3338  135.2768  155.2460 H   0  0  0  0  0  0  0  0  0  0  0  0  # atno 10764 bound_to 10752
  154.4572  135.5975  153.6286 H   0  0  0  0  0  0  0  0  0  0  0  0  # atno 10765 bound_to 10752
  140.2027  134.3850  155.8088 H   0  0  0  0  0  0  0  0  0  0  0  0  # atno 11005 bound_to 11000
  146.2982  140.4084  142.8714 LP  0  0  0  0  0  0  0  0  0  0  0  0  # atno 17320 bound_to 7965
  144.8743  140.7315  143.6027 LP  0  0  0  0  0  0  0  0  0  0  0  0  # atno 17321 bound_to 7965
  140.6265  143.2182  151.6585 LP  0  0  0  0  0  0  0  0  0  0  0  0  # atno 17342 bound_to 10162
  139.5149  144.3394  152.0754 LP  0  0  0  0  0  0  0  0  0  0  0  0  # atno 17343 bound_to 10162
  157.6081  130.8563  149.8908 LP  0  0  0  0  0  0  0  0  0  0  0  0  # atno 17370 bound_to 10713
  156.0627  130.3697  150.0946 LP  0  0  0  0  0  0  0  0  0  0  0  0  # atno 17371 bound_to 10713
  141.2227  133.7102  156.8286 LP  0  0  0  0  0  0  0  0  0  0  0  0  # atno 17394 bound_to 11000
  140.2036  134.8879  157.3196 LP  0  0  0  0  0  0  0  0  0  0  0  0  # atno 17395 bound_to 11000

$$$$
