AV-unprocessed.smi:740|AV-procd|sdf|3547|dock3
  -GOLD-   22720 0543D 1   1.00000     0.00000
 Structure written by MMmdl.
 44 46  0  0  0  0  0  0  0  0  1 V2000
  151.6985  144.6442  159.0301 C   0  0  0  0  0  0  0  0  0  0  0  0
  152.3644  143.4417  159.6757 C   0  0  0  0  0  0  0  0  0  0  0  0
  152.7129  142.3344  158.8700 C   0  0  0  0  0  0  0  0  0  0  0  0
  153.3363  141.1982  159.4305 C   0  0  0  0  0  0  0  0  0  0  0  0
  153.7599  140.0214  158.8369 N   0  0  0  0  0  0  0  0  0  0  0  0
  154.2604  139.3620  159.8776 C   0  0  0  0  0  0  0  0  0  0  0  0
  154.2092  139.9721  161.0772 N   0  0  0  0  0  0  0  0  0  0  0  0
  154.6938  139.4482  162.3419 C   0  0  0  0  0  0  0  0  0  0  0  0
  155.0845  137.9606  162.2505 C   0  0  1  0  0  0  0  0  0  0  0  0
  155.8062  137.6095  163.4156 O   0  0  0  0  0  0  0  0  0  0  0  0
  153.8442  137.0498  162.1407 C   0  0  0  0  0  0  0  0  0  0  0  0
  154.0099  135.8057  162.9007 N   0  0  0  0  0  0  0  0  0  0  0  0
  153.6558  135.6577  164.1847 C   0  0  0  0  0  0  0  0  0  0  0  0
  153.1653  136.5231  164.9094 O   0  0  0  0  0  0  0  0  0  0  0  0
  153.9301  134.2403  164.6672 C   0  0  0  0  0  0  0  0  0  0  0  0
  154.5111  133.5504  163.4237 C   0  0  1  0  0  0  0  0  0  0  0  0
  153.7039  132.3263  162.9605 C   0  0  0  0  0  0  0  0  0  0  0  0
  154.4943  134.6682  162.3828 C   0  0  0  0  0  0  0  0  0  0  0  0
  154.8818  134.5051  161.2256 O   0  0  0  0  0  0  0  0  0  0  0  0
  153.6017  141.1987  160.8312 C   0  0  0  0  0  0  0  0  0  0  0  0
  153.2589  142.2941  161.6436 C   0  0  0  0  0  0  0  0  0  0  0  0
  152.6387  143.4223  161.0669 C   0  0  0  0  0  0  0  0  0  0  0  0
  152.2765  144.6017  161.9519 C   0  0  0  0  0  0  0  0  0  0  0  0
  151.5277  144.4812  157.9656 H   0  0  0  0  0  0  0  0  0  0  0  0
  152.3256  145.5296  159.1372 H   0  0  0  0  0  0  0  0  0  0  0  0
  150.7335  144.8442  159.4961 H   0  0  0  0  0  0  0  0  0  0  0  0
  152.5053  142.3492  157.8102 H   0  0  0  0  0  0  0  0  0  0  0  0
  154.6914  138.3781  159.7623 H   0  0  0  0  0  0  0  0  0  0  0  0
  155.5409  140.0507  162.6721 H   0  0  0  0  0  0  0  0  0  0  0  0
  153.9076  139.5841  163.0857 H   0  0  0  0  0  0  0  0  0  0  0  0
  155.7323  137.8214  161.3837 H   0  0  0  0  0  0  0  0  0  0  0  0
  155.3226  137.9065  164.1712 H   0  0  0  0  0  0  0  0  0  0  0  0
  152.9424  137.5856  162.4433 H   0  0  0  0  0  0  0  0  0  0  0  0
  153.6788  136.7851  161.0947 H   0  0  0  0  0  0  0  0  0  0  0  0
  154.6404  134.2503  165.4946 H   0  0  0  0  0  0  0  0  0  0  0  0
  153.0047  133.7760  165.0097 H   0  0  0  0  0  0  0  0  0  0  0  0
  155.5466  133.2612  163.6072 H   0  0  0  0  0  0  0  0  0  0  0  0
  154.1444  131.8757  162.0705 H   0  0  0  0  0  0  0  0  0  0  0  0
  152.6724  132.5915  162.7246 H   0  0  0  0  0  0  0  0  0  0  0  0
  153.6800  131.5616  163.7371 H   0  0  0  0  0  0  0  0  0  0  0  0
  153.4752  142.2671  162.7012 H   0  0  0  0  0  0  0  0  0  0  0  0
  152.5751  144.4289  162.9863 H   0  0  0  0  0  0  0  0  0  0  0  0
  151.2000  144.7727  161.9383 H   0  0  0  0  0  0  0  0  0  0  0  0
  152.7765  145.5069  161.6066 H   0  0  0  0  0  0  0  0  0  0  0  0
  1  2  1  0  0  0  0
  1 24  1  0  0  0  0
  1 25  1  0  0  0  0
  1 26  1  0  0  0  0
  2 22  1  0  0  0  0
  2  3  2  0  0  0  0
  3  4  1  0  0  0  0
  3 27  1  0  0  0  0
  4 20  2  0  0  0  0
  4  5  1  0  0  0  0
  5  6  2  0  0  0  0
  6  7  1  0  0  0  0
  6 28  1  0  0  0  0
  7  8  1  0  0  0  0
  7 20  1  0  0  0  0
  8  9  1  0  0  0  0
  8 29  1  0  0  0  0
  8 30  1  0  0  0  0
  9 10  1  0  0  0  0
  9 11  1  0  0  0  0
  9 31  1  0  0  0  0
 10 32  1  0  0  0  0
 11 12  1  0  0  0  0
 11 33  1  0  0  0  0
 11 34  1  0  0  0  0
 12 18  1  0  0  0  0
 12 13  1  0  0  0  0
 13 14  2  0  0  0  0
 13 15  1  0  0  0  0
 15 16  1  0  0  0  0
 15 35  1  0  0  0  0
 15 36  1  0  0  0  0
 16 17  1  0  0  0  0
 16 18  1  0  0  0  0
 16 37  1  0  0  0  0
 17 38  1  0  0  0  0
 17 39  1  0  0  0  0
 17 40  1  0  0  0  0
 18 19  2  0  0  0  0
 20 21  1  0  0  0  0
 21 22  2  0  0  0  0
 21 41  1  0  0  0  0
 22 23  1  0  0  0  0
 23 42  1  0  0  0  0
 23 43  1  0  0  0  0
 23 44  1  0  0  0  0
M  END
> <s_m_source_file>
AV-unprocessed.smi

> <i_m_source_file_index>
740

> <i_lp_mmshare_version>
43012

> <i_f3d_flags>
0

> <s_epik_input>
W0NIM11jKFtjSF0xKWMoW0NIM10pW2NIXWMoYzEyKW4oW2NIXW4yKVtDSDJdW0NASF0oW09IXSlbQ0gyXU4zQyg9TylbQ0gyXVtDQEBIXShbQ0gzXSlDMz1P

> <s_epik_cmdline>
J2VwaWtfcHl0aG9uJywgJy1waCcsICc3LjAnLCAnLXRuJywgJzgnLCAnLW1hJywgJzIwMCcsICctbWV0YWxfYmluZGluZycsICctaW1hZScsICc8aW5maWxlLm1hZT4nLCAnLW9tYWUnLCAnPG91dGZpbGUubWFlPic=

> <r_lp_tautomer_probability>
1

> <r_epik_Ionization_Penalty>
0.104021

> <r_epik_Ionization_Penalty_Charging>
0

> <r_epik_Ionization_Penalty_Neutral>
0.104021

> <r_epik_State_Penalty>
0.0939354

> <r_epik_Charging_Adjusted_Penalty>
0.0939354

> <i_epik_Tot_Q>
0

> <i_epik_Tot_abs_Q>
0

> <r_epik_Metal_State_Penalty>
0.000101783

> <b_epik_Metal_Only>
0

> <s_lp_Force_Field>
OPLS_2005

> <r_lp_Energy>
16.7866

> <b_lp_Chiralities_Consistent>
1

> <s_lp_Variant>
AV-unprocessed.smi:740-2

> <Gold.Version>
5.8.1

> <Gold.Id.Protein>
6NUR|6NUR_protein|mol2

> <Gold.PLP.Fitness>
49.3289

> <Gold.PLP.PLP>
-48.4414

> <Gold.PLP.part.hbond>
-1.5432

> <Gold.PLP.part.metal>
0.0000

> <Gold.PLP.part.buried>
-0.8686

> <Gold.PLP.part.nonpolar>
-46.6740

> <Gold.PLP.part.repulsive>
1.1048

> <Gold.PLP.ligand.clash>
0.0000

> <Gold.PLP.ligand.torsion>
1.0683

> <Gold.PLP.Chemscore.Hbond>
1.0000

> <Gold.PLP.Chemscore.CHOScore>
0.0000

> <Gold.PLP.Chemscore.Metal>
0.0000

> <Gold.Chemscore.Hbonds>
donor molecule, donor type, donor heavy atom, donor atom, acceptor molecule, acceptor atom, score
      P1  H  7997  8008       L1     5  0.98

> <Gold.PLP.Chemscore.Internal.Correction>
0.0242

> <Gold.Rescore>
     Score         DG    S(hbond)    S(metal)    S(lipo)     H(rot)  DE(clash)    DE(int)     intcor
     15.34     -18.17       1.03        0.00     129.80       2.31       1.66       1.16       ----

> <Gold.Chemscore.Fitness>
15.3436

> <Gold.Chemscore.DG>
-18.1690

> <Gold.Chemscore.ZeroCoef>
-5.4800

> <Gold.Chemscore.Hbond>
1.0264

> <Gold.Chemscore.Metal>
0.0000

> <Gold.Chemscore.Lipo>
129.7997

> <Gold.Chemscore.Internal_Hbond>
0.0000

> <Gold.Chemscore.DEClash>
1.6615

> <Gold.Chemscore.DEInternal>
1.1640

> <Gold.Chemscore.Rot>
2.3147

> <Gold.Chemscore.Internal.Correction>
   9.000000E+99

> <Gold.Chemscore.Hbonds>
donor molecule, donor type, donor heavy atom, donor atom, acceptor molecule, acceptor atom, score
      P1  H  6924  6935       L1    14  0.01
      P1  H  7997  8008       L1     5  0.80

> <Gold.Chemscore.Hbond.Weighted>
-3.4280

> <Gold.Chemscore.Metal.Weighted>
-0.0000

> <Gold.Chemscore.Lipo.Weighted>
-15.1866

> <Gold.Chemscore.Internal_Hbond.Weighted>
0.0000

> <Gold.Chemscore.DEClash.Weighted>
1.6615

> <Gold.Chemscore.DEInternal.Weighted>
1.1640

> <Gold.Chemscore.Rot.Weighted>
5.9256

> <Gold.Chemscore.Internal.Correction.Weighted>
   9.000000E+99

> <Gold.Protein.RotatedTorsions>
[ 6907 6896 6895 6894 ] final  -94.74 input  -60.11 | X-H torsion
[ 7974 7965 7964 7962 ] final -173.46 input  175.53 | X-H torsion
[ 8008 7997 7996 7995 ] final -110.22 input   59.86 | X-H torsion
[ 10167 10162 10161 10158 ] final   20.70 input  -65.29 | X-H torsion
[ 10718 10713 10712 10709 ] final  140.93 input   66.30 | X-H torsion
[ 10763 10752 10751 10750 ] final  -69.91 input  -60.55 | X-H torsion
[ 11005 11000 10999 10996 ] final  -76.57 input  -57.11 | X-H torsion

> <Gold.Protein.ActiveResidues>
 VAL166  LYS551  ARG553  GLY616  TRP617  ASP618  TYR619  PRO620  LYS621  CYS622 
 ASP623  PHE694  ASN695  SER759  ASP760  ASP761  ALA762  ILE779  LEU786  VAL792 
 PHE793  MET794  SER795  GLU796  ALA797  LYS798  CYS799  TRP800  GLU811  SER814 

> <Gold.Protein.RotatedAtoms>
  150.6948  134.1766  159.4232 H   0  0  0  0  0  0  0  0  0  0  0  0  # atno 6907 bound_to 6896
  151.9742  135.0059  160.0563 H   0  0  0  0  0  0  0  0  0  0  0  0  # atno 6908 bound_to 6896
  152.1814  133.4675  159.4997 H   0  0  0  0  0  0  0  0  0  0  0  0  # atno 6909 bound_to 6896
  144.7138  140.1619  143.6375 H   0  0  0  0  0  0  0  0  0  0  0  0  # atno 7974 bound_to 7965
  154.9712  140.0397  157.2235 H   0  0  0  0  0  0  0  0  0  0  0  0  # atno 8008 bound_to 7997
  154.7800  140.2817  155.6049 H   0  0  0  0  0  0  0  0  0  0  0  0  # atno 8009 bound_to 7997
  156.2934  140.2593  156.2623 H   0  0  0  0  0  0  0  0  0  0  0  0  # atno 8010 bound_to 7997
  140.5483  143.9554  150.6562 H   0  0  0  0  0  0  0  0  0  0  0  0  # atno 10167 bound_to 10162
  157.3978  131.1013  151.0582 H   0  0  0  0  0  0  0  0  0  0  0  0  # atno 10718 bound_to 10713
  154.4102  135.6011  153.5948 H   0  0  0  0  0  0  0  0  0  0  0  0  # atno 10763 bound_to 10752
  152.9790  135.5927  154.4080 H   0  0  0  0  0  0  0  0  0  0  0  0  # atno 10764 bound_to 10752
  154.3891  135.2842  155.2144 H   0  0  0  0  0  0  0  0  0  0  0  0  # atno 10765 bound_to 10752
  141.1655  133.6989  156.7689 H   0  0  0  0  0  0  0  0  0  0  0  0  # atno 11005 bound_to 11000
  145.9023  139.2437  143.1486 LP  0  0  0  0  0  0  0  0  0  0  0  0  # atno 17320 bound_to 7965
  145.9799  140.8691  143.0120 LP  0  0  0  0  0  0  0  0  0  0  0  0  # atno 17321 bound_to 7965
  140.2973  143.3284  152.1005 LP  0  0  0  0  0  0  0  0  0  0  0  0  # atno 17342 bound_to 10162
  139.5016  144.6718  151.6224 LP  0  0  0  0  0  0  0  0  0  0  0  0  # atno 17343 bound_to 10162
  157.1593  130.6218  149.5606 LP  0  0  0  0  0  0  0  0  0  0  0  0  # atno 17370 bound_to 10713
  155.9815  130.4822  150.6830 LP  0  0  0  0  0  0  0  0  0  0  0  0  # atno 17371 bound_to 10713
  140.2479  134.8563  157.3638 LP  0  0  0  0  0  0  0  0  0  0  0  0  # atno 17394 bound_to 11000
  140.1731  134.4583  155.7818 LP  0  0  0  0  0  0  0  0  0  0  0  0  # atno 17395 bound_to 11000

$$$$
