AV-unprocessed.smi:573|AV-procd|sdf|2969|dock3
  -GOLD-   2262023473D 1   1.00000     0.00000
 Structure written by MMmdl.
 45 47  0  0  0  0  0  0  0  0  2 V2000
  147.4955  139.6377  153.5606 C   0  0  0  0  0  0  0  0  0  0  0  0
  148.0347  141.0547  153.8063 C   0  0  2  0  0  0  0  0  0  0  0  0
  149.3244  141.1456  153.2405 O   0  0  0  0  0  0  0  0  0  0  0  0
  148.1460  141.4108  155.3007 C   0  0  0  0  0  0  0  0  0  0  0  0
  149.2497  140.7291  155.9618 N   0  0  0  0  0  0  0  0  0  0  0  0
  150.1533  141.4690  156.7332 C   0  0  0  0  0  0  0  0  0  0  0  0
  150.3066  142.8200  156.7143 N   0  3  0  0  0  0  0  0  0  0  0  0
  151.2961  143.1632  157.6398 C   0  0  0  0  0  0  0  0  0  0  0  0
  151.8127  144.4052  157.9953 C   0  0  0  0  0  0  0  0  0  0  0  0
  152.8148  144.4141  158.9874 C   0  0  0  0  0  0  0  0  0  0  0  0
  153.2660  143.2207  159.5875 C   0  0  0  0  0  0  0  0  0  0  0  0
  152.7384  141.9656  159.2193 C   0  0  0  0  0  0  0  0  0  0  0  0
  151.7509  141.9611  158.2343 C   0  0  0  0  0  0  0  0  0  0  0  0
  151.0177  140.9304  157.6307 N   0  0  0  0  0  0  0  0  0  0  0  0
  151.2417  139.5316  158.0228 C   0  0  0  0  0  0  0  0  0  0  0  0
  151.6850  138.6632  156.8343 C   0  0  1  0  0  0  0  0  0  0  0  0
  150.4899  137.9864  156.1374 C   0  0  0  0  0  0  0  0  0  0  0  0
  150.9630  137.1772  154.9245 C   0  0  0  0  0  0  0  0  0  0  0  0
  151.8089  138.0669  154.0071 C   0  0  0  0  0  0  0  0  0  0  0  0
  152.9327  138.7457  154.8065 C   0  0  0  0  0  0  0  0  0  0  0  0
  152.3799  139.4806  155.8940 O   0  0  0  0  0  0  0  0  0  0  0  0
  146.4819  139.5281  153.9471 H   0  0  0  0  0  0  0  0  0  0  0  0
  148.1188  138.8849  154.0444 H   0  0  0  0  0  0  0  0  0  0  0  0
  147.4635  139.4086  152.4948 H   0  0  0  0  0  0  0  0  0  0  0  0
  147.4004  141.7778  153.2925 H   0  0  0  0  0  0  0  0  0  0  0  0
  149.4751  140.3804  152.7065 H   0  0  0  0  0  0  0  0  0  0  0  0
  148.2889  142.4856  155.4172 H   0  0  0  0  0  0  0  0  0  0  0  0
  147.2162  141.1698  155.8179 H   0  0  0  0  0  0  0  0  0  0  0  0
  149.1851  139.7308  156.1011 H   0  0  0  0  0  0  0  0  0  0  0  0
  151.4673  145.3217  157.5398 H   0  0  0  0  0  0  0  0  0  0  0  0
  153.2446  145.3562  159.2961 H   0  0  0  0  0  0  0  0  0  0  0  0
  154.0327  143.2683  160.3475 H   0  0  0  0  0  0  0  0  0  0  0  0
  153.0888  141.0597  159.6911 H   0  0  0  0  0  0  0  0  0  0  0  0
  152.0089  139.5273  158.7980 H   0  0  0  0  0  0  0  0  0  0  0  0
  150.3372  139.1373  158.4859 H   0  0  0  0  0  0  0  0  0  0  0  0
  152.3682  137.8959  157.2037 H   0  0  0  0  0  0  0  0  0  0  0  0
  149.9616  137.3365  156.8355 H   0  0  0  0  0  0  0  0  0  0  0  0
  149.7752  138.7443  155.8134 H   0  0  0  0  0  0  0  0  0  0  0  0
  151.5562  136.3253  155.2598 H   0  0  0  0  0  0  0  0  0  0  0  0
  150.1099  136.7713  154.3802 H   0  0  0  0  0  0  0  0  0  0  0  0
  152.2281  137.4773  153.1914 H   0  0  0  0  0  0  0  0  0  0  0  0
  151.1760  138.8285  153.5502 H   0  0  0  0  0  0  0  0  0  0  0  0
  153.6468  138.0090  155.1778 H   0  0  0  0  0  0  0  0  0  0  0  0
  153.4873  139.4307  154.1651 H   0  0  0  0  0  0  0  0  0  0  0  0
  149.7795  143.4497  156.1233 H   0  0  0  0  0  0  0  0  0  0  0  0
  1  2  1  0  0  0  0
  1 22  1  0  0  0  0
  1 23  1  0  0  0  0
  1 24  1  0  0  0  0
  2  3  1  0  0  0  0
  2  4  1  0  0  0  0
  2 25  1  0  0  0  0
  3 26  1  0  0  0  0
  4  5  1  0  0  0  0
  4 27  1  0  0  0  0
  4 28  1  0  0  0  0
  5  6  1  0  0  0  0
  5 29  1  0  0  0  0
  6 14  1  0  0  0  0
  6  7  2  0  0  0  0
  7  8  1  0  0  0  0
  7 45  1  0  0  0  0
  8 13  2  0  0  0  0
  8  9  1  0  0  0  0
  9 10  2  0  0  0  0
  9 30  1  0  0  0  0
 10 11  1  0  0  0  0
 10 31  1  0  0  0  0
 11 12  2  0  0  0  0
 11 32  1  0  0  0  0
 12 13  1  0  0  0  0
 12 33  1  0  0  0  0
 13 14  1  0  0  0  0
 14 15  1  0  0  0  0
 15 16  1  0  0  0  0
 15 34  1  0  0  0  0
 15 35  1  0  0  0  0
 16 21  1  0  0  0  0
 16 17  1  0  0  0  0
 16 36  1  0  0  0  0
 17 18  1  0  0  0  0
 17 37  1  0  0  0  0
 17 38  1  0  0  0  0
 18 19  1  0  0  0  0
 18 39  1  0  0  0  0
 18 40  1  0  0  0  0
 19 20  1  0  0  0  0
 19 41  1  0  0  0  0
 19 42  1  0  0  0  0
 20 21  1  0  0  0  0
 20 43  1  0  0  0  0
 20 44  1  0  0  0  0
M  CHG  1   7   1
M  END
> <s_m_source_file>
AV-unprocessed.smi

> <i_m_source_file_index>
573

> <i_lp_mmshare_version>
43012

> <i_f3d_flags>
0

> <s_epik_input>
W0NIM11bQ0BIXShbT0hdKVtDSDJdW05IXWMobjEpbihjKGMxMilbY0hdW2NIXVtjSF1bY0hdMilbQ0gyXVtDQEBIXTNbQ0gyXVtDSDJdW0NIMl1bQ0gyXU8z

> <s_epik_cmdline>
J2VwaWtfcHl0aG9uJywgJy1waCcsICc3LjAnLCAnLXRuJywgJzgnLCAnLW1hJywgJzIwMCcsICctbWV0YWxfYmluZGluZycsICctaW1hZScsICc8aW5maWxlLm1hZT4nLCAnLW9tYWUnLCAnPG91dGZpbGUubWFlPic=

> <r_epik_Ionization_Penalty>
0.0692245

> <r_epik_Ionization_Penalty_Charging>
0.0692223

> <r_epik_Ionization_Penalty_Neutral>
2.1869e-06

> <r_epik_State_Penalty>
0.0606215

> <r_epik_Charging_Adjusted_Penalty>
0.129844

> <i_epik_Tot_Q>
1

> <i_epik_Tot_abs_Q>
1

> <r_epik_Metal_State_Penalty>
2.77811

> <b_epik_Metal_Only>
0

> <s_lp_Force_Field>
OPLS_2005

> <r_lp_Energy>
19.2261

> <b_lp_Chiralities_Consistent>
1

> <s_lp_Variant>
AV-unprocessed.smi:573-3

> <Gold.Version>
5.8.1

> <Gold.Id.Protein>
6NUR|6NUR_protein|mol2

> <Gold.PLP.Fitness>
57.8652

> <Gold.PLP.PLP>
-46.5760

> <Gold.PLP.part.hbond>
-4.2615

> <Gold.PLP.part.metal>
0.0000

> <Gold.PLP.part.buried>
-6.4469

> <Gold.PLP.part.nonpolar>
-36.5824

> <Gold.PLP.part.repulsive>
0.0932

> <Gold.PLP.ligand.clash>
0.0000

> <Gold.PLP.ligand.torsion>
0.5470

> <Gold.PLP.Chemscore.Hbond>
4.1181

> <Gold.PLP.Chemscore.CHOScore>
0.0000

> <Gold.PLP.Chemscore.Metal>
0.0000

> <Gold.Chemscore.Hbonds>
donor molecule, donor type, donor heavy atom, donor atom, acceptor molecule, acceptor atom, score
      L1  H     3    26       P1  7957  0.74
      L1  H     7    45       P1  8028  2.00
      P1  H  7997  8010       L1    21  0.37
      P1  H  8011  8017       L1     3  1.00

> <Gold.PLP.Chemscore.Internal.Correction>
0.0289

> <Gold.Rescore>
     Score         DG    S(hbond)    S(metal)    S(lipo)     H(rot)  DE(clash)    DE(int)     intcor
     22.16     -22.85       2.35        0.00     126.57       2.07       0.10       0.59       ----

> <Gold.Chemscore.Fitness>
22.1583

> <Gold.Chemscore.DG>
-22.8454

> <Gold.Chemscore.ZeroCoef>
-5.4800

> <Gold.Chemscore.Hbond>
2.3521

> <Gold.Chemscore.Metal>
0.0000

> <Gold.Chemscore.Lipo>
126.5690

> <Gold.Chemscore.Internal_Hbond>
0.0000

> <Gold.Chemscore.DEClash>
0.0964

> <Gold.Chemscore.DEInternal>
0.5907

> <Gold.Chemscore.Rot>
2.0699

> <Gold.Chemscore.Internal.Correction>
   9.000000E+99

> <Gold.Chemscore.Hbonds>
donor molecule, donor type, donor heavy atom, donor atom, acceptor molecule, acceptor atom, score
      L1  H     3    26       P1  7957  0.72
      L1  H     7    45       P1  8028  0.99
      P1  H  7997  8010       L1    21  0.02
      P1  H  8011  8017       L1     3  0.49

> <Gold.Chemscore.Hbond.Weighted>
-7.8559

> <Gold.Chemscore.Metal.Weighted>
-0.0000

> <Gold.Chemscore.Lipo.Weighted>
-14.8086

> <Gold.Chemscore.Internal_Hbond.Weighted>
0.0000

> <Gold.Chemscore.DEClash.Weighted>
0.0964

> <Gold.Chemscore.DEInternal.Weighted>
0.5907

> <Gold.Chemscore.Rot.Weighted>
5.2991

> <Gold.Chemscore.Internal.Correction.Weighted>
   9.000000E+99

> <Gold.Protein.RotatedTorsions>
[ 6907 6896 6895 6894 ] final    3.15 input  -60.11 | X-H torsion
[ 7974 7965 7964 7962 ] final   29.39 input  175.53 | X-H torsion
[ 8008 7997 7996 7995 ] final   68.96 input   59.86 | X-H torsion
[ 10167 10162 10161 10158 ] final   42.62 input  -65.29 | X-H torsion
[ 10718 10713 10712 10709 ] final   38.43 input   66.30 | X-H torsion
[ 10763 10752 10751 10750 ] final  113.65 input  -60.55 | X-H torsion
[ 11005 11000 10999 10996 ] final  165.22 input  -57.11 | X-H torsion

> <Gold.Protein.ActiveResidues>
 VAL166  LYS551  ARG553  GLY616  TRP617  ASP618  TYR619  PRO620  LYS621  CYS622 
 ASP623  PHE694  ASN695  SER759  ASP760  ASP761  ALA762  ILE779  LEU786  VAL792 
 PHE793  MET794  SER795  GLU796  ALA797  LYS798  CYS799  TRP800  GLU811  SER814 

> <Gold.Protein.RotatedAtoms>
  151.6205  135.1032  160.0100 H   0  0  0  0  0  0  0  0  0  0  0  0  # atno 6907 bound_to 6896
  152.4160  133.7035  159.6448 H   0  0  0  0  0  0  0  0  0  0  0  0  # atno 6908 bound_to 6896
  150.8048  133.8456  159.3232 H   0  0  0  0  0  0  0  0  0  0  0  0  # atno 6909 bound_to 6896
  146.1674  139.6928  142.8991 H   0  0  0  0  0  0  0  0  0  0  0  0  # atno 7974 bound_to 7965
  155.7164  140.3494  155.4996 H   0  0  0  0  0  0  0  0  0  0  0  0  # atno 8008 bound_to 7997
  155.9310  140.1084  157.1154 H   0  0  0  0  0  0  0  0  0  0  0  0  # atno 8009 bound_to 7997
  154.4085  140.1231  156.4789 H   0  0  0  0  0  0  0  0  0  0  0  0  # atno 8010 bound_to 7997
  140.3526  144.2331  150.6144 H   0  0  0  0  0  0  0  0  0  0  0  0  # atno 10167 bound_to 10162
  157.3587  130.7637  149.7031 H   0  0  0  0  0  0  0  0  0  0  0  0  # atno 10718 bound_to 10713
  153.4957  135.3649  155.2514 H   0  0  0  0  0  0  0  0  0  0  0  0  # atno 10763 bound_to 10752
  154.8750  135.3988  154.3537 H   0  0  0  0  0  0  0  0  0  0  0  0  # atno 10764 bound_to 10752
  153.4164  135.7079  153.6390 H   0  0  0  0  0  0  0  0  0  0  0  0  # atno 10765 bound_to 10752
  140.2539  134.7956  157.3527 H   0  0  0  0  0  0  0  0  0  0  0  0  # atno 11005 bound_to 11000
  145.4431  141.0423  143.2846 LP  0  0  0  0  0  0  0  0  0  0  0  0  # atno 17320 bound_to 7965
  144.8112  139.5958  143.7028 LP  0  0  0  0  0  0  0  0  0  0  0  0  # atno 17321 bound_to 7965
  140.5204  143.2267  151.8397 LP  0  0  0  0  0  0  0  0  0  0  0  0  # atno 17342 bound_to 10162
  139.4824  144.4843  151.9267 LP  0  0  0  0  0  0  0  0  0  0  0  0  # atno 17343 bound_to 10162
  155.9733  130.4120  150.4009 LP  0  0  0  0  0  0  0  0  0  0  0  0  # atno 17370 bound_to 10713
  157.2083  131.0454  151.2613 LP  0  0  0  0  0  0  0  0  0  0  0  0  # atno 17371 bound_to 10713
  140.1531  134.4824  155.7947 LP  0  0  0  0  0  0  0  0  0  0  0  0  # atno 17394 bound_to 11000
  141.2198  133.6870  156.7413 LP  0  0  0  0  0  0  0  0  0  0  0  0  # atno 17395 bound_to 11000

$$$$
