AV-unprocessed.smi:3139|AV-procd|sdf|11957|dock10
  -GOLD-   2272017353D 1   1.00000     0.00000
 Structure written by MMmdl.
 33 33  0  0  0  0  0  0  0  0  2 V2000
  151.7215  144.4080  157.4261 C   0  0  0  0  0  0  0  0  0  0  0  0
  150.8718  144.0518  158.6642 C   0  0  1  0  0  0  0  0  0  0  0  0
  149.8602  142.9305  158.3877 C   0  0  0  0  0  0  0  0  0  0  0  0
  150.2089  141.7492  158.3924 O   0  0  0  0  0  0  0  0  0  0  0  0
  148.5945  143.3272  158.1866 N   0  0  0  0  0  0  0  0  0  0  0  0
  147.4228  142.4564  158.1100 C   0  0  0  0  0  0  0  0  0  0  0  0
  146.1277  143.1235  158.6587 C   0  0  0  0  0  0  0  0  0  0  0  0
  145.6291  144.1736  157.6448 C   0  0  0  0  0  0  0  0  0  0  0  0
  145.0235  142.0551  158.8537 C   0  0  0  0  0  0  0  0  0  0  0  0
  146.4224  143.8472  159.9997 C   0  0  0  0  0  0  0  0  0  0  0  0
  146.7160  143.1607  161.0043 O   0  0  0  0  0  0  0  0  0  0  0  0
  146.3559  145.0970  159.9966 O   0  5  0  0  0  0  0  0  0  0  0  0
  151.6786  143.6995  159.8292 N   0  0  0  0  0  0  0  0  0  0  0  0
  151.6939  144.3187  161.0635 C   0  0  0  0  0  0  0  0  0  0  0  0
  152.5418  143.6143  161.8686 C   0  0  0  0  0  0  0  0  0  0  0  0
  152.9937  142.5542  161.0358 C   0  0  0  0  0  0  0  0  0  0  0  0
  152.4706  142.6015  159.8218 N   0  0  0  0  0  0  0  0  0  0  0  0
  151.0895  144.7288  156.5974 H   0  0  0  0  0  0  0  0  0  0  0  0
  152.3168  143.5630  157.0771 H   0  0  0  0  0  0  0  0  0  0  0  0
  152.4072  145.2260  157.6488 H   0  0  0  0  0  0  0  0  0  0  0  0
  150.3053  144.9458  158.9305 H   0  0  0  0  0  0  0  0  0  0  0  0
  148.4083  144.3198  158.1949 H   0  0  0  0  0  0  0  0  0  0  0  0
  147.2903  142.1944  157.0593 H   0  0  0  0  0  0  0  0  0  0  0  0
  147.6062  141.5107  158.6226 H   0  0  0  0  0  0  0  0  0  0  0  0
  145.3794  143.7097  156.6902 H   0  0  0  0  0  0  0  0  0  0  0  0
  146.3832  144.9365  157.4461 H   0  0  0  0  0  0  0  0  0  0  0  0
  144.7335  144.6826  158.0041 H   0  0  0  0  0  0  0  0  0  0  0  0
  144.8365  141.5115  157.9273 H   0  0  0  0  0  0  0  0  0  0  0  0
  144.0778  142.5049  159.1591 H   0  0  0  0  0  0  0  0  0  0  0  0
  145.2946  141.3173  159.6103 H   0  0  0  0  0  0  0  0  0  0  0  0
  151.0975  145.1958  161.2679 H   0  0  0  0  0  0  0  0  0  0  0  0
  152.7895  143.8188  162.8995 H   0  0  0  0  0  0  0  0  0  0  0  0
  153.6762  141.7529  161.2776 H   0  0  0  0  0  0  0  0  0  0  0  0
  1  2  1  0  0  0  0
  1 18  1  0  0  0  0
  1 19  1  0  0  0  0
  1 20  1  0  0  0  0
  2  3  1  0  0  0  0
  2 13  1  0  0  0  0
  2 21  1  0  0  0  0
  3  4  2  0  0  0  0
  3  5  1  0  0  0  0
  5  6  1  0  0  0  0
  5 22  1  0  0  0  0
  6  7  1  0  0  0  0
  6 23  1  0  0  0  0
  6 24  1  0  0  0  0
  7  8  1  0  0  0  0
  7  9  1  0  0  0  0
  7 10  1  0  0  0  0
  8 25  1  0  0  0  0
  8 26  1  0  0  0  0
  8 27  1  0  0  0  0
  9 28  1  0  0  0  0
  9 29  1  0  0  0  0
  9 30  1  0  0  0  0
 10 11  2  0  0  0  0
 10 12  1  0  0  0  0
 13 17  1  0  0  0  0
 13 14  1  0  0  0  0
 14 15  2  0  0  0  0
 14 31  1  0  0  0  0
 15 16  1  0  0  0  0
 15 32  1  0  0  0  0
 16 17  2  0  0  0  0
 16 33  1  0  0  0  0
M  CHG  1  12  -1
M  END
> <s_m_source_file>
AV-unprocessed.smi

> <i_m_source_file_index>
3139

> <i_lp_mmshare_version>
43012

> <i_f3d_flags>
0

> <s_epik_input>
bjFbY0hdW2NIXVtjSF1uMVtDQEhdKFtDSDNdKUMoPU8pW05IXVtDSDJdQyhbQ0gzXSkoW0NIM10pQyg9TylbT0hd

> <s_epik_cmdline>
J2VwaWtfcHl0aG9uJywgJy1waCcsICc3LjAnLCAnLXRuJywgJzgnLCAnLW1hJywgJzIwMCcsICctbWV0YWxfYmluZGluZycsICctaW1hZScsICc8aW5maWxlLm1hZT4nLCAnLW9tYWUnLCAnPG91dGZpbGUubWFlPic=

> <r_lp_tautomer_probability>
1

> <r_epik_Ionization_Penalty>
0.00184643

> <r_epik_Ionization_Penalty_Charging>
0.00181045

> <r_epik_Ionization_Penalty_Neutral>
3.59763e-05

> <r_epik_State_Penalty>
0.00122842

> <r_epik_Charging_Adjusted_Penalty>
0.00303887

> <i_epik_Tot_Q>
-1

> <i_epik_Tot_abs_Q>
1

> <r_epik_Metal_State_Penalty>
-0

> <b_epik_Metal_Only>
0

> <s_lp_Force_Field>
OPLS_2005

> <r_lp_Energy>
4.69511

> <b_lp_Chiralities_Consistent>
1

> <s_lp_Variant>
AV-unprocessed.smi:3139-2

> <Gold.Version>
5.8.1

> <Gold.Id.Protein>
6NUR|6NUR_protein|mol2

> <Gold.PLP.Fitness>
42.4023

> <Gold.PLP.PLP>
-30.7419

> <Gold.PLP.part.hbond>
-4.0000

> <Gold.PLP.part.metal>
0.0000

> <Gold.PLP.part.buried>
-3.3501

> <Gold.PLP.part.nonpolar>
-23.3434

> <Gold.PLP.part.repulsive>
0.2606

> <Gold.PLP.ligand.clash>
0.0000

> <Gold.PLP.ligand.torsion>
0.9289

> <Gold.PLP.Chemscore.Hbond>
4.4617

> <Gold.PLP.Chemscore.CHOScore>
0.0000

> <Gold.PLP.Chemscore.Metal>
0.0000

> <Gold.Chemscore.Hbonds>
donor molecule, donor type, donor heavy atom, donor atom, acceptor molecule, acceptor atom, score
      L1  H     5    22       P1  8029  0.99
      P1  H  6933  6944       L1    11  2.00
      P1  H  6934  6946       L1    11  0.47

> <Gold.PLP.Chemscore.Internal.Correction>
0.1331

> <Gold.Rescore>
     Score         DG    S(hbond)    S(metal)    S(lipo)     H(rot)  DE(clash)    DE(int)     intcor
     11.64     -13.58       2.01        0.00      62.83       2.32       0.09       1.85       ----

> <Gold.Chemscore.Fitness>
11.6402

> <Gold.Chemscore.DG>
-13.5806

> <Gold.Chemscore.ZeroCoef>
-5.4800

> <Gold.Chemscore.Hbond>
2.0056

> <Gold.Chemscore.Metal>
0.0000

> <Gold.Chemscore.Lipo>
62.8346

> <Gold.Chemscore.Internal_Hbond>
0.0000

> <Gold.Chemscore.DEClash>
0.0891

> <Gold.Chemscore.DEInternal>
1.8514

> <Gold.Chemscore.Rot>
2.3241

> <Gold.Chemscore.Internal.Correction>
   9.000000E+99

> <Gold.Chemscore.Hbonds>
donor molecule, donor type, donor heavy atom, donor atom, acceptor molecule, acceptor atom, score
      L1  H     5    22       P1  8029  0.33
      P1  H  6933  6944       L1    11  0.93
      P1  H  6934  6946       L1    11  0.22

> <Gold.Chemscore.Hbond.Weighted>
-6.6988

> <Gold.Chemscore.Metal.Weighted>
-0.0000

> <Gold.Chemscore.Lipo.Weighted>
-7.3516

> <Gold.Chemscore.Internal_Hbond.Weighted>
0.0000

> <Gold.Chemscore.DEClash.Weighted>
0.0891

> <Gold.Chemscore.DEInternal.Weighted>
1.8514

> <Gold.Chemscore.Rot.Weighted>
5.9498

> <Gold.Chemscore.Internal.Correction.Weighted>
   9.000000E+99

> <Gold.Protein.RotatedTorsions>
[ 6907 6896 6895 6894 ] final  -33.14 input  -60.11 | X-H torsion
[ 7974 7965 7964 7962 ] final  170.90 input  175.53 | X-H torsion
[ 8008 7997 7996 7995 ] final  117.04 input   59.86 | X-H torsion
[ 10167 10162 10161 10158 ] final   81.66 input  -65.29 | X-H torsion
[ 10718 10713 10712 10709 ] final    5.53 input   66.30 | X-H torsion
[ 10763 10752 10751 10750 ] final  107.88 input  -60.55 | X-H torsion
[ 11005 11000 10999 10996 ] final  160.38 input  -57.11 | X-H torsion

> <Gold.Protein.ActiveResidues>
 VAL166  LYS551  ARG553  GLY616  TRP617  ASP618  TYR619  PRO620  LYS621  CYS622 
 ASP623  PHE694  ASN695  SER759  ASP760  ASP761  ALA762  ILE779  LEU786  VAL792 
 PHE793  MET794  SER795  GLU796  ALA797  LYS798  CYS799  TRP800  GLU811  SER814 

> <Gold.Protein.RotatedAtoms>
  151.0695  134.9789  159.8301 H   0  0  0  0  0  0  0  0  0  0  0  0  # atno 6907 bound_to 6896
  152.5406  134.2316  159.8837 H   0  0  0  0  0  0  0  0  0  0  0  0  # atno 6908 bound_to 6896
  151.2340  133.4391  159.2638 H   0  0  0  0  0  0  0  0  0  0  0  0  # atno 6909 bound_to 6896
  144.7310  139.9271  143.6423 H   0  0  0  0  0  0  0  0  0  0  0  0  # atno 7974 bound_to 7965
  156.2472  140.2905  156.0616 H   0  0  0  0  0  0  0  0  0  0  0  0  # atno 8008 bound_to 7997
  155.1770  140.0403  157.2892 H   0  0  0  0  0  0  0  0  0  0  0  0  # atno 8009 bound_to 7997
  154.6286  140.2494  155.7468 H   0  0  0  0  0  0  0  0  0  0  0  0  # atno 8010 bound_to 7997
  139.9369  144.6115  150.8289 H   0  0  0  0  0  0  0  0  0  0  0  0  # atno 10167 bound_to 10162
  156.9088  130.5748  149.5647 H   0  0  0  0  0  0  0  0  0  0  0  0  # atno 10718 bound_to 10713
  153.4129  135.3830  155.2061 H   0  0  0  0  0  0  0  0  0  0  0  0  # atno 10763 bound_to 10752
  154.8739  135.3798  154.4479 H   0  0  0  0  0  0  0  0  0  0  0  0  # atno 10764 bound_to 10752
  153.4990  135.7088  153.5905 H   0  0  0  0  0  0  0  0  0  0  0  0  # atno 10765 bound_to 10752
  140.2054  134.8307  157.3063 H   0  0  0  0  0  0  0  0  0  0  0  0  # atno 11005 bound_to 11000
  146.0886  139.3875  143.0420 LP  0  0  0  0  0  0  0  0  0  0  0  0  # atno 17320 bound_to 7965
  145.7742  140.9883  143.1133 LP  0  0  0  0  0  0  0  0  0  0  0  0  # atno 17321 bound_to 7965
  140.7622  143.3192  151.2662 LP  0  0  0  0  0  0  0  0  0  0  0  0  # atno 17342 bound_to 10162
  139.6736  143.9977  152.2767 LP  0  0  0  0  0  0  0  0  0  0  0  0  # atno 17343 bound_to 10162
  156.0546  130.5609  150.9063 LP  0  0  0  0  0  0  0  0  0  0  0  0  # atno 17370 bound_to 10713
  157.5980  131.0942  150.9008 LP  0  0  0  0  0  0  0  0  0  0  0  0  # atno 17371 bound_to 10713
  140.2008  134.4257  155.7664 LP  0  0  0  0  0  0  0  0  0  0  0  0  # atno 17394 bound_to 11000
  141.2227  133.7071  156.8181 LP  0  0  0  0  0  0  0  0  0  0  0  0  # atno 17395 bound_to 11000

$$$$
