AV-unprocessed.smi:1773|AV-procd|sdf|7163|dock2
  -GOLD-   22720 8403D 1   1.00000     0.00000
 Structure written by MMmdl.
 40 41  0  0  0  0  0  0  0  0  1 V2000
  147.7284  132.9235  152.4435 C   0  0  0  0  0  0  0  0  0  0  0  0
  146.4318  132.9568  151.6505 C   0  0  0  0  0  0  0  0  0  0  0  0
  145.8604  131.7438  151.2108 C   0  0  0  0  0  0  0  0  0  0  0  0
  144.6619  131.7762  150.4777 C   0  0  0  0  0  0  0  0  0  0  0  0
  144.0820  133.0288  150.2133 C   0  0  0  0  0  0  0  0  0  0  0  0
  144.6210  134.1927  150.6298 N   0  0  0  0  0  0  0  0  0  0  0  0
  145.7777  134.1791  151.3391 C   0  0  0  0  0  0  0  0  0  0  0  0
  146.4026  135.3673  151.8128 N   0  0  0  0  0  0  0  0  0  0  0  0
  145.8261  136.4928  152.2701 C   0  0  0  0  0  0  0  0  0  0  0  0
  144.6135  136.6944  152.3435 O   0  0  0  0  0  0  0  0  0  0  0  0
  146.7508  137.3924  152.6366 N   0  0  0  0  0  0  0  0  0  0  0  0
  146.4817  138.7256  153.1734 C   0  0  0  0  0  0  0  0  0  0  0  0
  147.7462  139.4270  153.7292 C   0  0  0  0  0  0  0  0  0  0  0  0
  148.8377  138.9825  152.9429 O   0  0  0  0  0  0  0  0  0  0  0  0
  147.6667  140.9741  153.6664 C   0  0  0  0  0  0  0  0  0  0  0  0
  148.8611  141.6683  154.3457 C   0  0  0  0  0  0  0  0  0  0  0  0
  149.0435  141.1887  155.7920 C   0  0  0  0  0  0  0  0  0  0  0  0
  149.1956  139.6627  155.8477 C   0  0  0  0  0  0  0  0  0  0  0  0
  147.9998  138.9580  155.1824 C   0  0  0  0  0  0  0  0  0  0  0  0
  148.0736  131.9007  152.5979 H   0  0  0  0  0  0  0  0  0  0  0  0
  147.5890  133.3811  153.4235 H   0  0  0  0  0  0  0  0  0  0  0  0
  148.5127  133.4660  151.9151 H   0  0  0  0  0  0  0  0  0  0  0  0
  146.3326  130.7975  151.4310 H   0  0  0  0  0  0  0  0  0  0  0  0
  144.1991  130.8655  150.1273 H   0  0  0  0  0  0  0  0  0  0  0  0
  143.1612  133.0994  149.6534 H   0  0  0  0  0  0  0  0  0  0  0  0
  147.4116  135.3553  151.8063 H   0  0  0  0  0  0  0  0  0  0  0  0
  147.7230  137.1422  152.5309 H   0  0  0  0  0  0  0  0  0  0  0  0
  146.0233  139.3492  152.4040 H   0  0  0  0  0  0  0  0  0  0  0  0
  145.7288  138.6297  153.9568 H   0  0  0  0  0  0  0  0  0  0  0  0
  148.7103  138.0668  152.7471 H   0  0  0  0  0  0  0  0  0  0  0  0
  147.6020  141.3160  152.6329 H   0  0  0  0  0  0  0  0  0  0  0  0
  146.7473  141.3037  154.1526 H   0  0  0  0  0  0  0  0  0  0  0  0
  149.7723  141.4749  153.7784 H   0  0  0  0  0  0  0  0  0  0  0  0
  148.7157  142.7488  154.3308 H   0  0  0  0  0  0  0  0  0  0  0  0
  149.9173  141.6667  156.2357 H   0  0  0  0  0  0  0  0  0  0  0  0
  148.1848  141.4943  156.3911 H   0  0  0  0  0  0  0  0  0  0  0  0
  150.1230  139.3672  155.3555 H   0  0  0  0  0  0  0  0  0  0  0  0
  149.2837  139.3381  156.8849 H   0  0  0  0  0  0  0  0  0  0  0  0
  147.1094  139.1530  155.7821 H   0  0  0  0  0  0  0  0  0  0  0  0
  148.1489  137.8777  155.2110 H   0  0  0  0  0  0  0  0  0  0  0  0
  1  2  1  0  0  0  0
  1 20  1  0  0  0  0
  1 21  1  0  0  0  0
  1 22  1  0  0  0  0
  2  7  1  0  0  0  0
  2  3  2  0  0  0  0
  3  4  1  0  0  0  0
  3 23  1  0  0  0  0
  4  5  2  0  0  0  0
  4 24  1  0  0  0  0
  5  6  1  0  0  0  0
  5 25  1  0  0  0  0
  6  7  2  0  0  0  0
  7  8  1  0  0  0  0
  8  9  1  0  0  0  0
  8 26  1  0  0  0  0
  9 10  2  0  0  0  0
  9 11  1  0  0  0  0
 11 12  1  0  0  0  0
 11 27  1  0  0  0  0
 12 13  1  0  0  0  0
 12 28  1  0  0  0  0
 12 29  1  0  0  0  0
 13 19  1  0  0  0  0
 13 14  1  0  0  0  0
 13 15  1  0  0  0  0
 14 30  1  0  0  0  0
 15 16  1  0  0  0  0
 15 31  1  0  0  0  0
 15 32  1  0  0  0  0
 16 17  1  0  0  0  0
 16 33  1  0  0  0  0
 16 34  1  0  0  0  0
 17 18  1  0  0  0  0
 17 35  1  0  0  0  0
 17 36  1  0  0  0  0
 18 19  1  0  0  0  0
 18 37  1  0  0  0  0
 18 38  1  0  0  0  0
 19 39  1  0  0  0  0
 19 40  1  0  0  0  0
M  END
> <s_m_source_file>
AV-unprocessed.smi

> <i_m_source_file_index>
1773

> <i_lp_mmshare_version>
43012

> <i_f3d_flags>
0

> <s_epik_input>
W0NIM11jMVtjSF1bY0hdW2NIXW5jMVtOSF1DKD1PKVtOSF1bQ0gyXUMyKFtPSF0pW0NIMl1bQ0gyXVtDSDJdW0NIMl1bQ0gyXTI=

> <s_epik_cmdline>
J2VwaWtfcHl0aG9uJywgJy1waCcsICc3LjAnLCAnLXRuJywgJzgnLCAnLW1hJywgJzIwMCcsICctbWV0YWxfYmluZGluZycsICctaW1hZScsICc8aW5maWxlLm1hZT4nLCAnLW9tYWUnLCAnPG91dGZpbGUubWFlPic=

> <r_lp_tautomer_probability>
1

> <r_epik_Ionization_Penalty>
6.74357e-05

> <r_epik_Ionization_Penalty_Charging>
0

> <r_epik_Ionization_Penalty_Neutral>
6.74357e-05

> <r_epik_State_Penalty>
-0

> <r_epik_Charging_Adjusted_Penalty>
0

> <i_epik_Tot_Q>
0

> <i_epik_Tot_abs_Q>
0

> <r_epik_Metal_State_Penalty>
-0

> <b_epik_Metal_Only>
0

> <s_lp_Force_Field>
OPLS_2005

> <r_lp_Energy>
17.1315

> <b_lp_Chiralities_Consistent>
1

> <s_lp_Variant>
AV-unprocessed.smi:1773-1

> <Gold.Version>
5.8.1

> <Gold.Id.Protein>
6NUR|6NUR_protein|mol2

> <Gold.PLP.Fitness>
42.6450

> <Gold.PLP.PLP>
-32.1632

> <Gold.PLP.part.hbond>
-3.0031

> <Gold.PLP.part.metal>
0.0000

> <Gold.PLP.part.buried>
-3.3275

> <Gold.PLP.part.nonpolar>
-25.8997

> <Gold.PLP.part.repulsive>
0.4736

> <Gold.PLP.ligand.clash>
0.0000

> <Gold.PLP.ligand.torsion>
0.7656

> <Gold.PLP.Chemscore.Hbond>
3.0000

> <Gold.PLP.Chemscore.CHOScore>
1.0000

> <Gold.PLP.Chemscore.Metal>
0.0000

> <Gold.Chemscore.Hbonds>
donor molecule, donor type, donor heavy atom, donor atom, acceptor molecule, acceptor atom, score
      L1  H     8    26       P1  7948  1.00
      L1  H    11    27       P1  7948  1.00
      L1  H    14    30       P1  7948  1.00
      L1  C     5    25       P1 10186  1.00

> <Gold.PLP.Chemscore.Internal.Correction>
0.0131

> <Gold.Rescore>
     Score         DG    S(hbond)    S(metal)    S(lipo)     H(rot)  DE(clash)    DE(int)     intcor
     18.04     -18.83       2.88        0.00      69.73       1.73       0.03       0.76       ----

> <Gold.Chemscore.Fitness>
18.0351

> <Gold.Chemscore.DG>
-18.8265

> <Gold.Chemscore.ZeroCoef>
-5.4800

> <Gold.Chemscore.Hbond>
2.8824

> <Gold.Chemscore.Metal>
0.0000

> <Gold.Chemscore.Lipo>
69.7262

> <Gold.Chemscore.Internal_Hbond>
0.0000

> <Gold.Chemscore.DEClash>
0.0310

> <Gold.Chemscore.DEInternal>
0.7604

> <Gold.Chemscore.Rot>
1.7339

> <Gold.Chemscore.Internal.Correction>
   9.000000E+99

> <Gold.Chemscore.Hbonds>
donor molecule, donor type, donor heavy atom, donor atom, acceptor molecule, acceptor atom, score
      L1  H     8    26       P1  7948  0.93
      L1  H    11    27       P1  7948  0.96
      L1  H    14    30       P1  7948  0.93

> <Gold.Chemscore.Hbond.Weighted>
-9.6272

> <Gold.Chemscore.Metal.Weighted>
-0.0000

> <Gold.Chemscore.Lipo.Weighted>
-8.1580

> <Gold.Chemscore.Internal_Hbond.Weighted>
0.0000

> <Gold.Chemscore.DEClash.Weighted>
0.0310

> <Gold.Chemscore.DEInternal.Weighted>
0.7604

> <Gold.Chemscore.Rot.Weighted>
4.4387

> <Gold.Chemscore.Internal.Correction.Weighted>
   9.000000E+99

> <Gold.Protein.RotatedTorsions>
[ 6907 6896 6895 6894 ] final    6.22 input  -60.11 | X-H torsion
[ 7974 7965 7964 7962 ] final  -92.41 input  175.53 | X-H torsion
[ 8008 7997 7996 7995 ] final  -57.38 input   59.86 | X-H torsion
[ 10167 10162 10161 10158 ] final   46.51 input  -65.29 | X-H torsion
[ 10718 10713 10712 10709 ] final  168.75 input   66.30 | X-H torsion
[ 10763 10752 10751 10750 ] final   37.56 input  -60.55 | X-H torsion
[ 11005 11000 10999 10996 ] final   14.61 input  -57.11 | X-H torsion

> <Gold.Protein.ActiveResidues>
 VAL166  LYS551  ARG553  GLY616  TRP617  ASP618  TYR619  PRO620  LYS621  CYS622 
 ASP623  PHE694  ASN695  SER759  ASP760  ASP761  ALA762  ILE779  LEU786  VAL792 
 PHE793  MET794  SER795  GLU796  ALA797  LYS798  CYS799  TRP800  GLU811  SER814 

> <Gold.Protein.RotatedAtoms>
  151.6702  135.0977  160.0196 H   0  0  0  0  0  0  0  0  0  0  0  0  # atno 6907 bound_to 6896
  152.3896  133.6655  159.6235 H   0  0  0  0  0  0  0  0  0  0  0  0  # atno 6908 bound_to 6896
  150.7814  133.8894  159.3350 H   0  0  0  0  0  0  0  0  0  0  0  0  # atno 6909 bound_to 6896
  145.4002  140.9536  143.2291 H   0  0  0  0  0  0  0  0  0  0  0  0  # atno 7974 bound_to 7965
  154.4266  140.1108  156.5788 H   0  0  0  0  0  0  0  0  0  0  0  0  # atno 8008 bound_to 7997
  155.6135  140.3494  155.4610 H   0  0  0  0  0  0  0  0  0  0  0  0  # atno 8009 bound_to 7997
  156.0081  140.1213  157.0471 H   0  0  0  0  0  0  0  0  0  0  0  0  # atno 8010 bound_to 7997
  140.3132  144.2795  150.6196 H   0  0  0  0  0  0  0  0  0  0  0  0  # atno 10167 bound_to 10162
  157.0326  131.0264  151.2739 H   0  0  0  0  0  0  0  0  0  0  0  0  # atno 10718 bound_to 10713
  153.0033  135.6274  154.2164 H   0  0  0  0  0  0  0  0  0  0  0  0  # atno 10763 bound_to 10752
  154.1907  135.2809  155.3024 H   0  0  0  0  0  0  0  0  0  0  0  0  # atno 10764 bound_to 10752
  154.5761  135.5661  153.7200 H   0  0  0  0  0  0  0  0  0  0  0  0  # atno 10765 bound_to 10752
  140.4675  134.1064  155.7727 H   0  0  0  0  0  0  0  0  0  0  0  0  # atno 11005 bound_to 11000
  144.8379  139.5520  143.6914 LP  0  0  0  0  0  0  0  0  0  0  0  0  # atno 17320 bound_to 7965
  146.2755  139.6743  142.9266 LP  0  0  0  0  0  0  0  0  0  0  0  0  # atno 17321 bound_to 7965
  140.5549  143.2200  151.7863 LP  0  0  0  0  0  0  0  0  0  0  0  0  # atno 17342 bound_to 10162
  139.4889  144.4426  151.9746 LP  0  0  0  0  0  0  0  0  0  0  0  0  # atno 17343 bound_to 10162
  157.5166  130.7971  149.7762 LP  0  0  0  0  0  0  0  0  0  0  0  0  # atno 17370 bound_to 10713
  156.0064  130.3853  150.2416 LP  0  0  0  0  0  0  0  0  0  0  0  0  # atno 17371 bound_to 10713
  141.1592  133.8824  157.1894 LP  0  0  0  0  0  0  0  0  0  0  0  0  # atno 17394 bound_to 11000
  139.9906  135.0066  156.9965 LP  0  0  0  0  0  0  0  0  0  0  0  0  # atno 17395 bound_to 11000

$$$$
