AV-unprocessed.smi:2645|AV-procd|sdf|10280|dock8
  -GOLD-   2272014293D 1   1.00000     0.00000
 Structure written by MMmdl.
 50 52  0  0  0  0  0  0  0  0  2 V2000
  144.5748  136.4594  153.1914 O   0  0  0  0  0  0  0  0  0  0  0  0
  145.7424  136.2550  152.8573 C   0  0  0  0  0  0  0  0  0  0  0  0
  146.7544  137.0682  153.1940 N   0  0  0  0  0  0  0  0  0  0  0  0
  146.6147  138.2730  154.0044 C   0  0  0  0  0  0  0  0  0  0  0  0
  147.0559  139.5323  153.2323 C   0  0  0  0  0  0  0  0  0  0  0  0
  148.3996  140.0109  153.6427 N   0  3  0  0  0  0  0  0  0  0  0  0
  148.3205  141.2023  154.5319 C   0  0  0  0  0  0  0  0  0  0  0  0
  149.7180  141.6871  154.9611 C   0  0  0  0  0  0  0  0  0  0  0  0
  150.4354  140.5716  155.5849 N   0  0  0  0  0  0  0  0  0  0  0  0
  150.7568  140.5457  156.9015 C   0  0  0  0  0  0  0  0  0  0  0  0
  151.2670  139.5561  157.4277 O   0  0  0  0  0  0  0  0  0  0  0  0
  150.5190  141.8111  157.7540 C   0  0  0  0  0  0  0  0  0  0  0  0
  151.3337  143.0627  157.3707 C   0  0  0  0  0  0  0  0  0  0  0  0
  152.2798  142.7872  158.5432 C   0  0  0  0  0  0  0  0  0  0  0  0
  151.2519  141.8010  159.1064 C   0  0  0  0  0  0  0  0  0  0  0  0
  150.6371  139.4783  154.6302 C   0  0  0  0  0  0  0  0  0  0  0  0
  149.2639  138.9323  154.2003 C   0  0  0  0  0  0  0  0  0  0  0  0
  146.1725  135.2125  152.1245 N   0  0  0  0  0  0  0  0  0  0  0  0
  145.4035  134.1523  151.5742 C   0  0  0  0  0  0  0  0  0  0  0  0
  146.1540  133.0636  151.0752 C   0  0  0  0  0  0  0  0  0  0  0  0
  145.4837  131.9624  150.5079 C   0  0  0  0  0  0  0  0  0  0  0  0
  144.0786  131.9790  150.4524 C   0  0  0  0  0  0  0  0  0  0  0  0
  143.4077  133.1023  150.9699 C   0  0  0  0  0  0  0  0  0  0  0  0
  144.0480  134.1583  151.5150 N   0  0  0  0  0  0  0  0  0  0  0  0
  147.6849  136.8287  152.8829 H   0  0  0  0  0  0  0  0  0  0  0  0
  145.5810  138.3508  154.3420 H   0  0  0  0  0  0  0  0  0  0  0  0
  147.2256  138.1531  154.8995 H   0  0  0  0  0  0  0  0  0  0  0  0
  147.0729  139.2869  152.1692 H   0  0  0  0  0  0  0  0  0  0  0  0
  146.3331  140.3414  153.3479 H   0  0  0  0  0  0  0  0  0  0  0  0
  147.7972  142.0089  154.0174 H   0  0  0  0  0  0  0  0  0  0  0  0
  147.7302  140.9534  155.4155 H   0  0  0  0  0  0  0  0  0  0  0  0
  150.2790  142.0361  154.0931 H   0  0  0  0  0  0  0  0  0  0  0  0
  149.6199  142.5522  155.6181 H   0  0  0  0  0  0  0  0  0  0  0  0
  149.4589  142.0537  157.8369 H   0  0  0  0  0  0  0  0  0  0  0  0
  151.8224  143.0487  156.3959 H   0  0  0  0  0  0  0  0  0  0  0  0
  150.7615  143.9823  157.5011 H   0  0  0  0  0  0  0  0  0  0  0  0
  153.2041  142.2986  158.2321 H   0  0  0  0  0  0  0  0  0  0  0  0
  152.4735  143.6511  159.1800 H   0  0  0  0  0  0  0  0  0  0  0  0
  150.6496  142.2257  159.9104 H   0  0  0  0  0  0  0  0  0  0  0  0
  151.6799  140.8410  159.3983 H   0  0  0  0  0  0  0  0  0  0  0  0
  151.1708  139.8628  153.7596 H   0  0  0  0  0  0  0  0  0  0  0  0
  151.2602  138.6707  155.0108 H   0  0  0  0  0  0  0  0  0  0  0  0
  148.7663  138.4744  155.0570 H   0  0  0  0  0  0  0  0  0  0  0  0
  149.4120  138.1450  153.4626 H   0  0  0  0  0  0  0  0  0  0  0  0
  147.1637  135.1700  151.9393 H   0  0  0  0  0  0  0  0  0  0  0  0
  147.2334  133.0666  151.1252 H   0  0  0  0  0  0  0  0  0  0  0  0
  146.0392  131.1203  150.1220 H   0  0  0  0  0  0  0  0  0  0  0  0
  143.5290  131.1535  150.0250 H   0  0  0  0  0  0  0  0  0  0  0  0
  142.3291  133.1551  150.9464 H   0  0  0  0  0  0  0  0  0  0  0  0
  148.8554  140.3332  152.8011 H   0  0  0  0  0  0  0  0  0  0  0  0
  1  2  2  0  0  0  0
  2  3  1  0  0  0  0
  2 18  1  0  0  0  0
  3  4  1  0  0  0  0
  3 25  1  0  0  0  0
  4  5  1  0  0  0  0
  4 26  1  0  0  0  0
  4 27  1  0  0  0  0
  5  6  1  0  0  0  0
  5 28  1  0  0  0  0
  5 29  1  0  0  0  0
  6 17  1  0  0  0  0
  6  7  1  0  0  0  0
  6 50  1  0  0  0  0
  7  8  1  0  0  0  0
  7 30  1  0  0  0  0
  7 31  1  0  0  0  0
  8  9  1  0  0  0  0
  8 32  1  0  0  0  0
  8 33  1  0  0  0  0
  9 10  1  0  0  0  0
  9 16  1  0  0  0  0
 10 11  2  0  0  0  0
 10 12  1  0  0  0  0
 12 15  1  0  0  0  0
 12 13  1  0  0  0  0
 12 34  1  0  0  0  0
 13 14  1  0  0  0  0
 13 35  1  0  0  0  0
 13 36  1  0  0  0  0
 14 15  1  0  0  0  0
 14 37  1  0  0  0  0
 14 38  1  0  0  0  0
 15 39  1  0  0  0  0
 15 40  1  0  0  0  0
 16 17  1  0  0  0  0
 16 41  1  0  0  0  0
 16 42  1  0  0  0  0
 17 43  1  0  0  0  0
 17 44  1  0  0  0  0
 18 19  1  0  0  0  0
 18 45  1  0  0  0  0
 19 24  1  0  0  0  0
 19 20  2  0  0  0  0
 20 21  1  0  0  0  0
 20 46  1  0  0  0  0
 21 22  2  0  0  0  0
 21 47  1  0  0  0  0
 22 23  1  0  0  0  0
 22 48  1  0  0  0  0
 23 24  2  0  0  0  0
 23 49  1  0  0  0  0
M  CHG  1   6   1
M  END
> <s_m_source_file>
AV-unprocessed.smi

> <i_m_source_file_index>
2645

> <i_lp_mmshare_version>
43012

> <i_f3d_flags>
0

> <s_epik_input>
bjFbY0hdW2NIXVtjSF1bY0hdYzFbTkhdQyg9TylbTkhdW0NIMl1bQ0gyXU4yW0NIMl1bQ0gyXU4oW0NIMl1bQ0gyXTIpQyg9TylbQ0hdM1tDSDJdW0NIMl1bQ0gyXTM=

> <s_epik_cmdline>
J2VwaWtfcHl0aG9uJywgJy1waCcsICc3LjAnLCAnLXRuJywgJzgnLCAnLW1hJywgJzIwMCcsICctbWV0YWxfYmluZGluZycsICctaW1hZScsICc8aW5maWxlLm1hZT4nLCAnLW9tYWUnLCAnPG91dGZpbGUubWFlPic=

> <r_epik_Ionization_Penalty>
0.58203

> <r_epik_Ionization_Penalty_Charging>
0.581996

> <r_epik_Ionization_Penalty_Neutral>
3.43439e-05

> <r_epik_State_Penalty>
0.594836

> <r_epik_Charging_Adjusted_Penalty>
1.17683

> <i_epik_Tot_Q>
1

> <i_epik_Tot_abs_Q>
1

> <r_epik_Metal_State_Penalty>
0.594839

> <b_epik_Metal_Only>
0

> <s_lp_Force_Field>
OPLS_2005

> <r_lp_Energy>
52.325

> <b_lp_Chiralities_Consistent>
1

> <s_lp_Variant>
AV-unprocessed.smi:2645-2

> <Gold.Version>
5.8.1

> <Gold.Id.Protein>
6NUR|6NUR_protein|mol2

> <Gold.PLP.Fitness>
53.2710

> <Gold.PLP.PLP>
-43.7449

> <Gold.PLP.part.hbond>
-3.0000

> <Gold.PLP.part.metal>
0.0000

> <Gold.PLP.part.buried>
-3.5186

> <Gold.PLP.part.nonpolar>
-37.8583

> <Gold.PLP.part.repulsive>
0.3837

> <Gold.PLP.ligand.clash>
0.4691

> <Gold.PLP.ligand.torsion>
1.0829

> <Gold.PLP.Chemscore.Hbond>
2.9120

> <Gold.PLP.Chemscore.CHOScore>
1.0000

> <Gold.PLP.Chemscore.Metal>
0.0000

> <Gold.Chemscore.Hbonds>
donor molecule, donor type, donor heavy atom, donor atom, acceptor molecule, acceptor atom, score
      L1  H     3    25       P1  7948  1.00
      L1  H     6    50       P1  7957  1.00
      L1  H    18    45       P1  7948  0.91
      L1  C    23    49       P1 10186  0.97

> <Gold.PLP.Chemscore.Internal.Correction>
0.4251

> <Gold.Rescore>
     Score         DG    S(hbond)    S(metal)    S(lipo)     H(rot)  DE(clash)    DE(int)     intcor
     20.08     -22.93       2.82        0.00     107.86       1.79       0.44       2.40       ----

> <Gold.Chemscore.Fitness>
20.0844

> <Gold.Chemscore.DG>
-22.9273

> <Gold.Chemscore.ZeroCoef>
-5.4800

> <Gold.Chemscore.Hbond>
2.8170

> <Gold.Chemscore.Metal>
0.0000

> <Gold.Chemscore.Lipo>
107.8571

> <Gold.Chemscore.Internal_Hbond>
0.0000

> <Gold.Chemscore.DEClash>
0.4429

> <Gold.Chemscore.DEInternal>
2.3999

> <Gold.Chemscore.Rot>
1.7894

> <Gold.Chemscore.Internal.Correction>
   9.000000E+99

> <Gold.Chemscore.Hbonds>
donor molecule, donor type, donor heavy atom, donor atom, acceptor molecule, acceptor atom, score
      L1  H     3    25       P1  7948  0.99
      L1  H     6    50       P1  7957  0.96
      L1  H    18    45       P1  7948  0.82

> <Gold.Chemscore.Hbond.Weighted>
-9.4087

> <Gold.Chemscore.Metal.Weighted>
-0.0000

> <Gold.Chemscore.Lipo.Weighted>
-12.6193

> <Gold.Chemscore.Internal_Hbond.Weighted>
0.0000

> <Gold.Chemscore.DEClash.Weighted>
0.4429

> <Gold.Chemscore.DEInternal.Weighted>
2.3999

> <Gold.Chemscore.Rot.Weighted>
4.5807

> <Gold.Chemscore.Internal.Correction.Weighted>
   9.000000E+99

> <Gold.Protein.RotatedTorsions>
[ 6907 6896 6895 6894 ] final  152.39 input  -60.11 | X-H torsion
[ 7974 7965 7964 7962 ] final   72.28 input  175.53 | X-H torsion
[ 8008 7997 7996 7995 ] final   52.94 input   59.86 | X-H torsion
[ 10167 10162 10161 10158 ] final -103.54 input  -65.29 | X-H torsion
[ 10718 10713 10712 10709 ] final  -99.40 input   66.30 | X-H torsion
[ 10763 10752 10751 10750 ] final  -40.25 input  -60.55 | X-H torsion
[ 11005 11000 10999 10996 ] final  -60.58 input  -57.11 | X-H torsion

> <Gold.Protein.ActiveResidues>
 VAL166  LYS551  ARG553  GLY616  TRP617  ASP618  TYR619  PRO620  LYS621  CYS622 
 ASP623  PHE694  ASN695  SER759  ASP760  ASP761  ALA762  ILE779  LEU786  VAL792 
 PHE793  MET794  SER795  GLU796  ALA797  LYS798  CYS799  TRP800  GLU811  SER814 

> <Gold.Protein.RotatedAtoms>
  152.0873  133.4183  159.4527 H   0  0  0  0  0  0  0  0  0  0  0  0  # atno 6907 bound_to 6896
  150.6862  134.2912  159.4677 H   0  0  0  0  0  0  0  0  0  0  0  0  # atno 6908 bound_to 6896
  152.0760  134.9502  160.0624 H   0  0  0  0  0  0  0  0  0  0  0  0  # atno 6909 bound_to 6896
  145.7553  139.2777  143.1407 H   0  0  0  0  0  0  0  0  0  0  0  0  # atno 7974 bound_to 7965
  155.4601  140.3461  155.4311 H   0  0  0  0  0  0  0  0  0  0  0  0  # atno 8008 bound_to 7997
  156.1166  140.1475  156.9293 H   0  0  0  0  0  0  0  0  0  0  0  0  # atno 8009 bound_to 7997
  154.4793  140.0875  156.7319 H   0  0  0  0  0  0  0  0  0  0  0  0  # atno 8010 bound_to 7997
  140.2189  143.3691  152.0987 H   0  0  0  0  0  0  0  0  0  0  0  0  # atno 10167 bound_to 10162
  156.0133  130.5281  150.6664 H   0  0  0  0  0  0  0  0  0  0  0  0  # atno 10718 bound_to 10713
  153.9428  135.6759  153.4744 H   0  0  0  0  0  0  0  0  0  0  0  0  # atno 10763 bound_to 10752
  153.0923  135.4868  154.8710 H   0  0  0  0  0  0  0  0  0  0  0  0  # atno 10764 bound_to 10752
  154.7368  135.3151  154.8756 H   0  0  0  0  0  0  0  0  0  0  0  0  # atno 10765 bound_to 10752
  141.1292  133.6623  156.5245 H   0  0  0  0  0  0  0  0  0  0  0  0  # atno 11005 bound_to 11000
  146.0317  140.8252  142.9873 LP  0  0  0  0  0  0  0  0  0  0  0  0  # atno 17320 bound_to 7965
  144.6841  140.2778  143.7296 LP  0  0  0  0  0  0  0  0  0  0  0  0  # atno 17321 bound_to 7965
  139.5152  144.6959  151.5632 LP  0  0  0  0  0  0  0  0  0  0  0  0  # atno 17342 bound_to 10162
  140.6270  143.9150  150.6573 LP  0  0  0  0  0  0  0  0  0  0  0  0  # atno 17343 bound_to 10162
  157.4396  131.0859  151.0957 LP  0  0  0  0  0  0  0  0  0  0  0  0  # atno 17370 bound_to 10713
  157.1505  130.6182  149.5581 LP  0  0  0  0  0  0  0  0  0  0  0  0  # atno 17371 bound_to 10713
  140.4265  134.7140  157.4919 LP  0  0  0  0  0  0  0  0  0  0  0  0  # atno 17394 bound_to 11000
  140.0323  134.6388  155.9090 LP  0  0  0  0  0  0  0  0  0  0  0  0  # atno 17395 bound_to 11000

$$$$
