AV-unprocessed.smi:438|AV-procd|sdf|2568|dock9
  -GOLD-   2262022543D 1   1.00000     0.00000
 Structure written by MMmdl.
 48 49  0  0  0  0  0  0  0  0  1 V2000
  147.4356  133.0948  160.1744 C   0  0  0  0  0  0  0  0  0  0  0  0
  147.5088  134.5307  160.6623 C   0  0  0  0  0  0  0  0  0  0  0  0
  148.3642  135.3400  159.9370 N   0  0  0  0  0  0  0  0  0  0  0  0
  148.4553  136.6840  160.2634 C   0  0  0  0  0  0  0  0  0  0  0  0
  149.5670  137.5297  159.0969 S   0  0  0  0  0  0  0  0  0  0  0  0
  149.3879  136.5388  157.5820 C   0  0  0  0  0  0  0  0  0  0  0  0
  150.1378  137.1527  156.4003 C   0  0  0  0  0  0  0  0  0  0  0  0
  150.3092  136.4973  155.3731 O   0  0  0  0  0  0  0  0  0  0  0  0
  150.5544  138.4194  156.5485 N   0  0  0  0  0  0  0  0  0  0  0  0
  151.1886  139.2369  155.5151 C   0  0  1  0  0  0  0  0  0  0  0  0
  150.4825  139.0393  154.1551 C   0  0  0  0  0  0  0  0  0  0  0  0
  149.0708  139.6510  154.1391 C   0  0  0  0  0  0  0  0  0  0  0  0
  149.1095  141.1366  154.5242 C   0  0  0  0  0  0  0  0  0  0  0  0
  149.7930  141.3452  155.8848 C   0  0  0  0  0  0  0  0  0  0  0  0
  151.2088  140.7330  155.9167 C   0  0  1  0  0  0  0  0  0  0  0  0
  151.8961  140.9775  157.2712 C   0  0  0  0  0  0  0  0  0  0  0  0
  147.8169  137.2262  161.2583 N   0  0  0  0  0  0  0  0  0  0  0  0
  146.9736  136.4458  162.0625 C   0  0  0  0  0  0  0  0  0  0  0  0
  146.3941  136.9440  163.0265 O   0  0  0  0  0  0  0  0  0  0  0  0
  146.7980  135.0227  161.7055 C   0  0  0  0  0  0  0  0  0  0  0  0
  145.8349  134.1791  162.5355 C   0  0  0  0  0  0  0  0  0  0  0  0
  144.3800  134.6461  162.3815 C   0  0  0  0  0  0  0  0  0  0  0  0
  143.5220  133.5280  162.3217 O   0  0  0  0  0  0  0  0  0  0  0  0
  146.4060  132.8276  159.9348 H   0  0  0  0  0  0  0  0  0  0  0  0
  147.8006  132.4132  160.9431 H   0  0  0  0  0  0  0  0  0  0  0  0
  148.0389  132.9425  159.2785 H   0  0  0  0  0  0  0  0  0  0  0  0
  148.3275  136.4950  157.3319 H   0  0  0  0  0  0  0  0  0  0  0  0
  149.7060  135.5097  157.7528 H   0  0  0  0  0  0  0  0  0  0  0  0
  150.3664  138.8743  157.4305 H   0  0  0  0  0  0  0  0  0  0  0  0
  152.2242  138.9077  155.4121 H   0  0  0  0  0  0  0  0  0  0  0  0
  151.0808  139.5073  153.3724 H   0  0  0  0  0  0  0  0  0  0  0  0
  150.4317  137.9802  153.9000 H   0  0  0  0  0  0  0  0  0  0  0  0
  148.6280  139.5363  153.1496 H   0  0  0  0  0  0  0  0  0  0  0  0
  148.4227  139.1091  154.8281 H   0  0  0  0  0  0  0  0  0  0  0  0
  149.6452  141.6979  153.7577 H   0  0  0  0  0  0  0  0  0  0  0  0
  148.0972  141.5393  154.5506 H   0  0  0  0  0  0  0  0  0  0  0  0
  149.8434  142.4119  156.1051 H   0  0  0  0  0  0  0  0  0  0  0  0
  149.1834  140.9010  156.6705 H   0  0  0  0  0  0  0  0  0  0  0  0
  151.8018  141.2564  155.1651 H   0  0  0  0  0  0  0  0  0  0  0  0
  151.3351  140.5354  158.0950 H   0  0  0  0  0  0  0  0  0  0  0  0
  151.9888  142.0446  157.4739 H   0  0  0  0  0  0  0  0  0  0  0  0
  152.8996  140.5521  157.2849 H   0  0  0  0  0  0  0  0  0  0  0  0
  148.8643  134.9293  159.1616 H   0  0  0  0  0  0  0  0  0  0  0  0
  146.1330  134.2143  163.5846 H   0  0  0  0  0  0  0  0  0  0  0  0
  145.9108  133.1300  162.2506 H   0  0  0  0  0  0  0  0  0  0  0  0
  144.0820  135.2721  163.2229 H   0  0  0  0  0  0  0  0  0  0  0  0
  144.2584  135.2384  161.4739 H   0  0  0  0  0  0  0  0  0  0  0  0
  142.6290  133.8294  162.3918 H   0  0  0  0  0  0  0  0  0  0  0  0
  1 24  1  0  0  0  0
  1 25  1  0  0  0  0
  1 26  1  0  0  0  0
  1  2  1  0  0  0  0
  2 20  2  0  0  0  0
  2  3  1  0  0  0  0
  3  4  1  0  0  0  0
  3 43  1  0  0  0  0
  4  5  1  0  0  0  0
  4 17  2  0  0  0  0
  5  6  1  0  0  0  0
  6  7  1  0  0  0  0
  6 27  1  0  0  0  0
  6 28  1  0  0  0  0
  7  8  2  0  0  0  0
  7  9  1  0  0  0  0
  9 10  1  0  0  0  0
  9 29  1  0  0  0  0
 10 15  1  0  0  0  0
 10 11  1  0  0  0  0
 10 30  1  0  0  0  0
 11 12  1  0  0  0  0
 11 31  1  0  0  0  0
 11 32  1  0  0  0  0
 12 13  1  0  0  0  0
 12 33  1  0  0  0  0
 12 34  1  0  0  0  0
 13 14  1  0  0  0  0
 13 35  1  0  0  0  0
 13 36  1  0  0  0  0
 14 15  1  0  0  0  0
 14 37  1  0  0  0  0
 14 38  1  0  0  0  0
 15 16  1  0  0  0  0
 15 39  1  0  0  0  0
 16 40  1  0  0  0  0
 16 41  1  0  0  0  0
 16 42  1  0  0  0  0
 17 18  1  0  0  0  0
 18 19  2  0  0  0  0
 18 20  1  0  0  0  0
 20 21  1  0  0  0  0
 21 22  1  0  0  0  0
 21 44  1  0  0  0  0
 21 45  1  0  0  0  0
 22 23  1  0  0  0  0
 22 46  1  0  0  0  0
 22 47  1  0  0  0  0
 23 48  1  0  0  0  0
M  END
> <s_m_source_file>
AV-unprocessed.smi

> <i_m_source_file_index>
438

> <i_lp_mmshare_version>
43012

> <i_f3d_flags>
0

> <s_epik_input>
W09IXVtDSDJdW0NIMl1jMWMoW09IXSluYyhuYzFbQ0gzXSlTW0NIMl1DKD1PKVtOSF1bQ0BASF0yW0NIMl1bQ0gyXVtDSDJdW0NIMl1bQ0BIXTJbQ0gzXQ==

> <s_epik_cmdline>
J2VwaWtfcHl0aG9uJywgJy1waCcsICc3LjAnLCAnLXRuJywgJzgnLCAnLW1hJywgJzIwMCcsICctbWV0YWxfYmluZGluZycsICctaW1hZScsICc8aW5maWxlLm1hZT4nLCAnLW9tYWUnLCAnPG91dGZpbGUubWFlPic=

> <r_lp_tautomer_probability>
0.273662

> <r_epik_Ionization_Penalty>
0.0875285

> <r_epik_Ionization_Penalty_Charging>
0.0875254

> <r_epik_Ionization_Penalty_Neutral>
3.01536e-06

> <r_epik_State_Penalty>
0.985796

> <r_epik_Charging_Adjusted_Penalty>
1.07332

> <i_epik_Tot_Q>
0

> <i_epik_Tot_abs_Q>
0

> <r_epik_Metal_State_Penalty>
1.58101

> <b_epik_Metal_Only>
0

> <s_lp_Force_Field>
OPLS_2005

> <r_lp_Energy>
13.0189

> <b_lp_Chiralities_Consistent>
1

> <s_lp_Variant>
AV-unprocessed.smi:438-6

> <Gold.Version>
5.8.1

> <Gold.Id.Protein>
6NUR|6NUR_protein|mol2

> <Gold.PLP.Fitness>
40.1480

> <Gold.PLP.PLP>
-36.9400

> <Gold.PLP.part.hbond>
-2.6738

> <Gold.PLP.part.metal>
0.0000

> <Gold.PLP.part.buried>
-0.2174

> <Gold.PLP.part.nonpolar>
-31.8937

> <Gold.PLP.part.repulsive>
0.2370

> <Gold.PLP.ligand.clash>
0.0000

> <Gold.PLP.ligand.torsion>
1.0539

> <Gold.PLP.Chemscore.Hbond>
1.7613

> <Gold.PLP.Chemscore.CHOScore>
0.0000

> <Gold.PLP.Chemscore.Metal>
0.0000

> <Gold.Chemscore.Hbonds>
donor molecule, donor type, donor heavy atom, donor atom, acceptor molecule, acceptor atom, score
      P1  H  6931  6943       L1    17  0.98
      P1  H  6934  6947       L1    17  0.77

> <Gold.PLP.Chemscore.Internal.Correction>
0.0320

> <Gold.Rescore>
     Score         DG    S(hbond)    S(metal)    S(lipo)     H(rot)  DE(clash)    DE(int)     intcor
      8.83     -11.13       1.05        0.00      81.07       2.86       0.28       2.03       ----

> <Gold.Chemscore.Fitness>
8.8272

> <Gold.Chemscore.DG>
-11.1339

> <Gold.Chemscore.ZeroCoef>
-5.4800

> <Gold.Chemscore.Hbond>
1.0486

> <Gold.Chemscore.Metal>
0.0000

> <Gold.Chemscore.Lipo>
81.0664

> <Gold.Chemscore.Internal_Hbond>
0.0000

> <Gold.Chemscore.DEClash>
0.2807

> <Gold.Chemscore.DEInternal>
2.0260

> <Gold.Chemscore.Rot>
2.8645

> <Gold.Chemscore.Internal.Correction>
   9.000000E+99

> <Gold.Chemscore.Hbonds>
donor molecule, donor type, donor heavy atom, donor atom, acceptor molecule, acceptor atom, score
      P1  H  6931  6943       L1    17  0.28
      P1  H  6934  6947       L1    17  0.63

> <Gold.Chemscore.Hbond.Weighted>
-3.5022

> <Gold.Chemscore.Metal.Weighted>
-0.0000

> <Gold.Chemscore.Lipo.Weighted>
-9.4848

> <Gold.Chemscore.Internal_Hbond.Weighted>
0.0000

> <Gold.Chemscore.DEClash.Weighted>
0.2807

> <Gold.Chemscore.DEInternal.Weighted>
2.0260

> <Gold.Chemscore.Rot.Weighted>
7.3331

> <Gold.Chemscore.Internal.Correction.Weighted>
   9.000000E+99

> <Gold.Protein.RotatedTorsions>
[ 6907 6896 6895 6894 ] final  -71.05 input  -60.11 | X-H torsion
[ 7974 7965 7964 7962 ] final  111.61 input  175.53 | X-H torsion
[ 8008 7997 7996 7995 ] final -120.72 input   59.86 | X-H torsion
[ 10167 10162 10161 10158 ] final  -94.76 input  -65.29 | X-H torsion
[ 10718 10713 10712 10709 ] final   32.27 input   66.30 | X-H torsion
[ 10763 10752 10751 10750 ] final    7.07 input  -60.55 | X-H torsion
[ 11005 11000 10999 10996 ] final -112.07 input  -57.11 | X-H torsion

> <Gold.Protein.ActiveResidues>
 VAL166  LYS551  ARG553  GLY616  TRP617  ASP618  TYR619  PRO620  LYS621  CYS622 
 ASP623  PHE694  ASN695  SER759  ASP760  ASP761  ALA762  ILE779  LEU786  VAL792 
 PHE793  MET794  SER795  GLU796  ALA797  LYS798  CYS799  TRP800  GLU811  SER814 

> <Gold.Protein.RotatedAtoms>
  150.7230  134.5365  159.5725 H   0  0  0  0  0  0  0  0  0  0  0  0  # atno 6907 bound_to 6896
  152.2886  134.7745  160.0391 H   0  0  0  0  0  0  0  0  0  0  0  0  # atno 6908 bound_to 6896
  151.8366  133.3381  159.3667 H   0  0  0  0  0  0  0  0  0  0  0  0  # atno 6909 bound_to 6896
  145.2400  139.2783  143.4123 H   0  0  0  0  0  0  0  0  0  0  0  0  # atno 7974 bound_to 7965
  155.1363  140.0401  157.2787 H   0  0  0  0  0  0  0  0  0  0  0  0  # atno 8008 bound_to 7997
  154.6505  140.2568  155.7193 H   0  0  0  0  0  0  0  0  0  0  0  0  # atno 8009 bound_to 7997
  156.2575  140.2837  156.0937 H   0  0  0  0  0  0  0  0  0  0  0  0  # atno 8010 bound_to 7997
  140.3111  143.3104  152.0147 H   0  0  0  0  0  0  0  0  0  0  0  0  # atno 10167 bound_to 10162
  157.2830  130.7265  149.6567 H   0  0  0  0  0  0  0  0  0  0  0  0  # atno 10718 bound_to 10713
  153.2405  135.6903  153.7788 H   0  0  0  0  0  0  0  0  0  0  0  0  # atno 10763 bound_to 10752
  153.6920  135.3311  155.3205 H   0  0  0  0  0  0  0  0  0  0  0  0  # atno 10764 bound_to 10752
  154.8353  135.4547  154.1325 H   0  0  0  0  0  0  0  0  0  0  0  0  # atno 10765 bound_to 10752
  141.0697  133.9401  157.2510 H   0  0  0  0  0  0  0  0  0  0  0  0  # atno 11005 bound_to 11000
  146.3331  140.2761  142.8608 LP  0  0  0  0  0  0  0  0  0  0  0  0  # atno 17320 bound_to 7965
  144.9598  140.8263  143.5521 LP  0  0  0  0  0  0  0  0  0  0  0  0  # atno 17321 bound_to 7965
  139.4893  144.6383  151.6929 LP  0  0  0  0  0  0  0  0  0  0  0  0  # atno 17342 bound_to 10162
  140.5567  144.0336  150.6151 LP  0  0  0  0  0  0  0  0  0  0  0  0  # atno 17343 bound_to 10162
  155.9665  130.4332  150.4996 LP  0  0  0  0  0  0  0  0  0  0  0  0  # atno 17370 bound_to 10713
  157.2944  131.0632  151.2112 LP  0  0  0  0  0  0  0  0  0  0  0  0  # atno 17371 bound_to 10713
  139.9511  135.0175  156.8996 LP  0  0  0  0  0  0  0  0  0  0  0  0  # atno 17394 bound_to 11000
  140.5700  134.0453  155.7427 LP  0  0  0  0  0  0  0  0  0  0  0  0  # atno 17395 bound_to 11000

$$$$
