AV-unprocessed.smi:3328|AV-procd|sdf|12794|dock4
  -GOLD-   2272019143D 1   1.00000     0.00000
 Structure written by MMmdl.
 40 41  0  0  0  0  0  0  0  0  1 V2000
  143.8707  143.9588  162.6360 C   0  0  0  0  0  0  0  0  0  0  0  0
  144.8174  143.4613  161.5821 C   0  0  0  0  0  0  0  0  0  0  0  0
  144.7873  142.2111  160.9020 C   0  0  0  0  0  0  0  0  0  0  0  0
  145.7678  142.0799  160.0247 N   0  0  0  0  0  0  0  0  0  0  0  0
  146.4623  143.2341  160.1161 N   0  0  0  0  0  0  0  0  0  0  0  0
  147.6311  143.4441  159.2752 C   0  0  0  0  0  0  0  0  0  0  0  0
  147.9037  142.2926  158.2731 C   0  0  1  0  0  0  0  0  0  0  0  0
  146.6726  141.9395  157.4230 C   0  0  0  0  0  0  0  0  0  0  0  0
  148.9936  142.6082  157.3566 N   0  0  0  0  0  0  0  0  0  0  0  0
  150.2748  142.7494  158.0345 C   0  0  0  0  0  0  0  0  0  0  0  0
  150.7145  141.3893  158.6028 C   0  0  0  0  0  0  0  0  0  0  0  0
  151.9624  141.4896  159.3591 N   0  0  0  0  0  0  0  0  0  0  0  0
  152.1552  142.5535  160.3302 C   0  0  0  0  0  0  0  0  0  0  0  0
  153.5039  142.2538  161.0008 C   0  0  0  0  0  0  0  0  0  0  0  0
  154.1307  141.1048  160.2026 C   0  0  0  0  0  0  0  0  0  0  0  0
  153.0267  140.6865  159.2470 C   0  0  0  0  0  0  0  0  0  0  0  0
  153.1343  139.7273  158.4843 O   0  0  0  0  0  0  0  0  0  0  0  0
  145.9043  144.0895  161.0427 C   0  0  0  0  0  0  0  0  0  0  0  0
  143.5266  143.1506  163.2819 H   0  0  0  0  0  0  0  0  0  0  0  0
  142.9857  144.4181  162.1957 H   0  0  0  0  0  0  0  0  0  0  0  0
  144.3363  144.7065  163.2786 H   0  0  0  0  0  0  0  0  0  0  0  0
  144.0840  141.3999  161.0183 H   0  0  0  0  0  0  0  0  0  0  0  0
  147.5279  144.4017  158.7648 H   0  0  0  0  0  0  0  0  0  0  0  0
  148.4947  143.5585  159.9313 H   0  0  0  0  0  0  0  0  0  0  0  0
  148.1784  141.3998  158.8366 H   0  0  0  0  0  0  0  0  0  0  0  0
  145.8171  141.7025  158.0558 H   0  0  0  0  0  0  0  0  0  0  0  0
  146.8660  141.0680  156.7964 H   0  0  0  0  0  0  0  0  0  0  0  0
  146.3830  142.7593  156.7646 H   0  0  0  0  0  0  0  0  0  0  0  0
  149.0704  141.8833  156.6577 H   0  0  0  0  0  0  0  0  0  0  0  0
  151.0402  143.1356  157.3629 H   0  0  0  0  0  0  0  0  0  0  0  0
  150.1663  143.4713  158.8445 H   0  0  0  0  0  0  0  0  0  0  0  0
  149.9375  141.0047  159.2651 H   0  0  0  0  0  0  0  0  0  0  0  0
  150.8190  140.6557  157.8020 H   0  0  0  0  0  0  0  0  0  0  0  0
  152.1752  143.5167  159.8189 H   0  0  0  0  0  0  0  0  0  0  0  0
  151.3425  142.5685  161.0577 H   0  0  0  0  0  0  0  0  0  0  0  0
  154.1479  143.1339  161.0079 H   0  0  0  0  0  0  0  0  0  0  0  0
  153.3514  141.9532  162.0379 H   0  0  0  0  0  0  0  0  0  0  0  0
  155.0019  141.4370  159.6372 H   0  0  0  0  0  0  0  0  0  0  0  0
  154.4248  140.2743  160.8452 H   0  0  0  0  0  0  0  0  0  0  0  0
  146.3262  145.0636  161.2425 H   0  0  0  0  0  0  0  0  0  0  0  0
  1  2  1  0  0  0  0
  1 19  1  0  0  0  0
  1 20  1  0  0  0  0
  1 21  1  0  0  0  0
  2 18  2  0  0  0  0
  2  3  1  0  0  0  0
  3  4  2  0  0  0  0
  3 22  1  0  0  0  0
  4  5  1  0  0  0  0
  5  6  1  0  0  0  0
  5 18  1  0  0  0  0
  6  7  1  0  0  0  0
  6 23  1  0  0  0  0
  6 24  1  0  0  0  0
  7  8  1  0  0  0  0
  7  9  1  0  0  0  0
  7 25  1  0  0  0  0
  8 26  1  0  0  0  0
  8 27  1  0  0  0  0
  8 28  1  0  0  0  0
  9 10  1  0  0  0  0
  9 29  1  0  0  0  0
 10 11  1  0  0  0  0
 10 30  1  0  0  0  0
 10 31  1  0  0  0  0
 11 12  1  0  0  0  0
 11 32  1  0  0  0  0
 11 33  1  0  0  0  0
 12 16  1  0  0  0  0
 12 13  1  0  0  0  0
 13 14  1  0  0  0  0
 13 34  1  0  0  0  0
 13 35  1  0  0  0  0
 14 15  1  0  0  0  0
 14 36  1  0  0  0  0
 14 37  1  0  0  0  0
 15 16  1  0  0  0  0
 15 38  1  0  0  0  0
 15 39  1  0  0  0  0
 16 17  2  0  0  0  0
 18 40  1  0  0  0  0
M  END
> <s_m_source_file>
AV-unprocessed.smi

> <i_m_source_file_index>
3328

> <i_lp_mmshare_version>
43012

> <i_f3d_flags>
0

> <s_epik_input>
W0NIM11jMVtjSF1ubihbY0hdMSlbQ0gyXVtDQEhdKFtDSDNdKVtOSF1bQ0gyXVtDSDJdTjJbQ0gyXVtDSDJdW0NIMl1DMj1P

> <s_epik_cmdline>
J2VwaWtfcHl0aG9uJywgJy1waCcsICc3LjAnLCAnLXRuJywgJzgnLCAnLW1hJywgJzIwMCcsICctbWV0YWxfYmluZGluZycsICctaW1hZScsICc8aW5maWxlLm1hZT4nLCAnLW9tYWUnLCAnPG91dGZpbGUubWFlPic=

> <r_lp_tautomer_probability>
1

> <r_epik_Ionization_Penalty>
2.53591

> <r_epik_Ionization_Penalty_Charging>
0

> <r_epik_Ionization_Penalty_Neutral>
2.53591

> <r_epik_State_Penalty>
2.70334

> <r_epik_Charging_Adjusted_Penalty>
2.70334

> <i_epik_Tot_Q>
0

> <i_epik_Tot_abs_Q>
0

> <r_epik_Metal_State_Penalty>
2.70327

> <b_epik_Metal_Only>
0

> <s_lp_Force_Field>
OPLS_2005

> <r_lp_Energy>
23.1303

> <b_lp_Chiralities_Consistent>
1

> <s_lp_Variant>
AV-unprocessed.smi:3328-4

> <Gold.Version>
5.8.1

> <Gold.Id.Protein>
6NUR|6NUR_protein|mol2

> <Gold.PLP.Fitness>
43.7196

> <Gold.PLP.PLP>
-38.0143

> <Gold.PLP.part.hbond>
-3.0289

> <Gold.PLP.part.metal>
0.0000

> <Gold.PLP.part.buried>
-4.0926

> <Gold.PLP.part.nonpolar>
-31.0363

> <Gold.PLP.part.repulsive>
0.0000

> <Gold.PLP.ligand.clash>
0.0000

> <Gold.PLP.ligand.torsion>
0.2362

> <Gold.PLP.Chemscore.Hbond>
2.0000

> <Gold.PLP.Chemscore.CHOScore>
0.0000

> <Gold.PLP.Chemscore.Metal>
0.0000

> <Gold.Chemscore.Hbonds>
donor molecule, donor type, donor heavy atom, donor atom, acceptor molecule, acceptor atom, score
      P1  H  6934  6946       L1     4  1.00
      P1  H  7997  8009       L1    17  0.84

> <Gold.PLP.Chemscore.Internal.Correction>
0.1778

> <Gold.Rescore>
     Score         DG    S(hbond)    S(metal)    S(lipo)     H(rot)  DE(clash)    DE(int)     intcor
     13.91     -15.62       1.72        0.00      78.91       1.89       0.07       1.64       ----

> <Gold.Chemscore.Fitness>
13.9098

> <Gold.Chemscore.DG>
-15.6152

> <Gold.Chemscore.ZeroCoef>
-5.4800

> <Gold.Chemscore.Hbond>
1.7202

> <Gold.Chemscore.Metal>
0.0000

> <Gold.Chemscore.Lipo>
78.9144

> <Gold.Chemscore.Internal_Hbond>
0.0000

> <Gold.Chemscore.DEClash>
0.0653

> <Gold.Chemscore.DEInternal>
1.6401

> <Gold.Chemscore.Rot>
1.8920

> <Gold.Chemscore.Internal.Correction>
   9.000000E+99

> <Gold.Chemscore.Hbonds>
donor molecule, donor type, donor heavy atom, donor atom, acceptor molecule, acceptor atom, score
      P1  H  6934  6946       L1     4  0.25
      P1  H  7997  8009       L1    17  0.70

> <Gold.Chemscore.Hbond.Weighted>
-5.7456

> <Gold.Chemscore.Metal.Weighted>
-0.0000

> <Gold.Chemscore.Lipo.Weighted>
-9.2330

> <Gold.Chemscore.Internal_Hbond.Weighted>
0.0000

> <Gold.Chemscore.DEClash.Weighted>
0.0653

> <Gold.Chemscore.DEInternal.Weighted>
1.6401

> <Gold.Chemscore.Rot.Weighted>
4.8435

> <Gold.Chemscore.Internal.Correction.Weighted>
   9.000000E+99

> <Gold.Protein.RotatedTorsions>
[ 6907 6896 6895 6894 ] final  127.35 input  -60.11 | X-H torsion
[ 7974 7965 7964 7962 ] final  -94.79 input  175.53 | X-H torsion
[ 8008 7997 7996 7995 ] final  160.36 input   59.86 | X-H torsion
[ 10167 10162 10161 10158 ] final   89.56 input  -65.29 | X-H torsion
[ 10718 10713 10712 10709 ] final   36.89 input   66.30 | X-H torsion
[ 10763 10752 10751 10750 ] final   33.20 input  -60.55 | X-H torsion
[ 11005 11000 10999 10996 ] final  140.78 input  -57.11 | X-H torsion

> <Gold.Protein.ActiveResidues>
 VAL166  LYS551  ARG553  GLY616  TRP617  ASP618  TYR619  PRO620  LYS621  CYS622 
 ASP623  PHE694  ASN695  SER759  ASP760  ASP761  ALA762  ILE779  LEU786  VAL792 
 PHE793  MET794  SER795  GLU796  ALA797  LYS798  CYS799  TRP800  GLU811  SER814 

> <Gold.Protein.RotatedAtoms>
  152.3820  133.6559  159.6168 H   0  0  0  0  0  0  0  0  0  0  0  0  # atno 6907 bound_to 6896
  150.7749  133.9097  159.3375 H   0  0  0  0  0  0  0  0  0  0  0  0  # atno 6908 bound_to 6896
  151.6901  135.0949  160.0283 H   0  0  0  0  0  0  0  0  0  0  0  0  # atno 6909 bound_to 6896
  145.3686  140.9502  143.2460 H   0  0  0  0  0  0  0  0  0  0  0  0  # atno 7974 bound_to 7965
  156.2177  140.1806  156.7550 H   0  0  0  0  0  0  0  0  0  0  0  0  # atno 8008 bound_to 7997
  154.5817  140.0665  156.9142 H   0  0  0  0  0  0  0  0  0  0  0  0  # atno 8009 bound_to 7997
  155.2491  140.3327  155.4286 H   0  0  0  0  0  0  0  0  0  0  0  0  # atno 8010 bound_to 7997
  139.8560  144.6569  150.9114 H   0  0  0  0  0  0  0  0  0  0  0  0  # atno 10167 bound_to 10162
  157.3403  130.7544  149.6907 H   0  0  0  0  0  0  0  0  0  0  0  0  # atno 10718 bound_to 10713
  153.0223  135.6393  154.1475 H   0  0  0  0  0  0  0  0  0  0  0  0  # atno 10763 bound_to 10752
  154.1208  135.2847  155.3210 H   0  0  0  0  0  0  0  0  0  0  0  0  # atno 10764 bound_to 10752
  154.6265  135.5507  153.7695 H   0  0  0  0  0  0  0  0  0  0  0  0  # atno 10765 bound_to 10752
  140.0353  134.9332  157.0740 H   0  0  0  0  0  0  0  0  0  0  0  0  # atno 11005 bound_to 11000
  144.8593  139.5201  143.6820 LP  0  0  0  0  0  0  0  0  0  0  0  0  # atno 17320 bound_to 7965
  146.2895  139.7100  142.9171 LP  0  0  0  0  0  0  0  0  0  0  0  0  # atno 17321 bound_to 7965
  140.7781  143.3785  151.1519 LP  0  0  0  0  0  0  0  0  0  0  0  0  # atno 17342 bound_to 10162
  139.7419  143.8911  152.3052 LP  0  0  0  0  0  0  0  0  0  0  0  0  # atno 17343 bound_to 10162
  155.9707  130.4169  150.4256 LP  0  0  0  0  0  0  0  0  0  0  0  0  # atno 17370 bound_to 10713
  157.2302  131.0502  151.2496 LP  0  0  0  0  0  0  0  0  0  0  0  0  # atno 17371 bound_to 10713
  140.4158  134.1932  155.7163 LP  0  0  0  0  0  0  0  0  0  0  0  0  # atno 17394 bound_to 11000
  141.1854  133.8325  157.1107 LP  0  0  0  0  0  0  0  0  0  0  0  0  # atno 17395 bound_to 11000

$$$$
