AV-unprocessed.smi:3228|AV-procd|sdf|12325|dock7
  -GOLD-   2272018173D 1   1.00000     0.00000
 Structure written by MMmdl.
 30 31  0  0  0  0  0  0  0  0  2 V2000
  148.8700  138.5554  158.6719 O   0  0  0  0  0  0  0  0  0  0  0  0
  149.8144  137.7948  158.8976 C   0  0  0  0  0  0  0  0  0  0  0  0
  151.0695  138.1949  158.6482 N   0  0  0  0  0  0  0  0  0  0  0  0
  151.4613  139.4875  158.0946 C   0  0  0  0  0  0  0  0  0  0  0  0
  151.8977  140.4778  159.1957 C   0  0  2  0  0  0  0  0  0  0  0  0
  152.0211  141.9389  158.7475 C   0  0  0  0  0  0  0  0  0  0  0  0
  152.9230  142.6125  159.7922 C   0  0  0  0  0  0  0  0  0  0  0  0
  153.5847  141.4804  160.5959 C   0  0  0  0  0  0  0  0  0  0  0  0
  153.2501  140.1784  159.8580 C   0  0  2  0  0  0  0  0  0  0  0  0
  154.2565  139.9242  158.8948 O   0  0  0  0  0  0  0  0  0  0  0  0
  149.7308  136.5368  159.3870 N   0  5  0  0  0  0  0  0  0  0  0  0
  148.7372  136.2085  160.2289 C   0  0  0  0  0  0  0  0  0  0  0  0
  148.1677  137.0854  161.0638 N   0  0  0  0  0  0  0  0  0  0  0  0
  147.1595  136.5273  161.8519 C   0  0  0  0  0  0  0  0  0  0  0  0
  146.9633  135.1918  161.6185 C   0  0  0  0  0  0  0  0  0  0  0  0
  148.0451  134.5920  160.3940 S   0  0  0  0  0  0  0  0  0  0  0  0
  151.8116  137.5403  158.8481 H   0  0  0  0  0  0  0  0  0  0  0  0
  152.2624  139.3525  157.3664 H   0  0  0  0  0  0  0  0  0  0  0  0
  150.6071  139.8807  157.5437 H   0  0  0  0  0  0  0  0  0  0  0  0
  151.1499  140.4478  159.9902 H   0  0  0  0  0  0  0  0  0  0  0  0
  152.4999  141.9875  157.7684 H   0  0  0  0  0  0  0  0  0  0  0  0
  151.0500  142.4275  158.6613 H   0  0  0  0  0  0  0  0  0  0  0  0
  153.6694  143.2406  159.3047 H   0  0  0  0  0  0  0  0  0  0  0  0
  152.3398  143.2542  160.4536 H   0  0  0  0  0  0  0  0  0  0  0  0
  154.6570  141.6314  160.7281 H   0  0  0  0  0  0  0  0  0  0  0  0
  153.1420  141.4495  161.5924 H   0  0  0  0  0  0  0  0  0  0  0  0
  153.1913  139.3283  160.5386 H   0  0  0  0  0  0  0  0  0  0  0  0
  155.0833  139.8342  159.3436 H   0  0  0  0  0  0  0  0  0  0  0  0
  146.6337  137.1551  162.5557 H   0  0  0  0  0  0  0  0  0  0  0  0
  146.2547  134.5276  162.0896 H   0  0  0  0  0  0  0  0  0  0  0  0
  1  2  2  0  0  0  0
  2  3  1  0  0  0  0
  2 11  1  0  0  0  0
  3  4  1  0  0  0  0
  3 17  1  0  0  0  0
  4  5  1  0  0  0  0
  4 18  1  0  0  0  0
  4 19  1  0  0  0  0
  5  9  1  0  0  0  0
  5  6  1  0  0  0  0
  5 20  1  0  0  0  0
  6  7  1  0  0  0  0
  6 21  1  0  0  0  0
  6 22  1  0  0  0  0
  7  8  1  0  0  0  0
  7 23  1  0  0  0  0
  7 24  1  0  0  0  0
  8  9  1  0  0  0  0
  8 25  1  0  0  0  0
  8 26  1  0  0  0  0
  9 10  1  0  0  0  0
  9 27  1  0  0  0  0
 10 28  1  0  0  0  0
 11 12  1  0  0  0  0
 12 16  1  0  0  0  0
 12 13  2  0  0  0  0
 13 14  1  0  0  0  0
 14 15  2  0  0  0  0
 14 29  1  0  0  0  0
 15 16  1  0  0  0  0
 15 30  1  0  0  0  0
M  CHG  1  11  -1
M  END
> <s_m_source_file>
AV-unprocessed.smi

> <i_m_source_file_index>
3228

> <i_lp_mmshare_version>
43012

> <i_f3d_flags>
0

> <s_epik_input>
czFbY0hdW2NIXW5jMVtOSF1DKD1PKVtOSF1bQ0gyXVtDQEBIXTJbQ0gyXVtDSDJdW0NIMl1bQ0BIXTJbT0hd

> <s_epik_cmdline>
J2VwaWtfcHl0aG9uJywgJy1waCcsICc3LjAnLCAnLXRuJywgJzgnLCAnLW1hJywgJzIwMCcsICctbWV0YWxfYmluZGluZycsICctaW1hZScsICc8aW5maWxlLm1hZT4nLCAnLW9tYWUnLCAnPG91dGZpbGUubWFlPic=

> <r_lp_tautomer_probability>
0.999

> <r_epik_Ionization_Penalty>
8.49756

> <r_epik_Ionization_Penalty_Charging>
6.79645

> <r_epik_Ionization_Penalty_Neutral>
1.70111

> <r_epik_State_Penalty>
6.79662

> <r_epik_Charging_Adjusted_Penalty>
13.5931

> <i_epik_Tot_Q>
-1

> <i_epik_Tot_abs_Q>
1

> <r_epik_Metal_State_Penalty>
2.71629

> <b_epik_Metal_Only>
1

> <s_lp_Force_Field>
OPLS_2005

> <r_lp_Energy>
19.9343

> <b_lp_Chiralities_Consistent>
1

> <s_lp_Variant>
AV-unprocessed.smi:3228-7

> <Gold.Version>
5.8.1

> <Gold.Id.Protein>
6NUR|6NUR_protein|mol2

> <Gold.PLP.Fitness>
42.2054

> <Gold.PLP.PLP>
-30.4129

> <Gold.PLP.part.hbond>
-4.5870

> <Gold.PLP.part.metal>
0.0000

> <Gold.PLP.part.buried>
-3.2522

> <Gold.PLP.part.nonpolar>
-22.7285

> <Gold.PLP.part.repulsive>
0.1184

> <Gold.PLP.ligand.clash>
0.0000

> <Gold.PLP.ligand.torsion>
0.6112

> <Gold.PLP.Chemscore.Hbond>
4.3351

> <Gold.PLP.Chemscore.CHOScore>
0.0000

> <Gold.PLP.Chemscore.Metal>
0.0000

> <Gold.Chemscore.Hbonds>
donor molecule, donor type, donor heavy atom, donor atom, acceptor molecule, acceptor atom, score
      P1  H  6896  6907       L1    11  1.70
      P1  H  6931  6943       L1    13  1.00
      P1  H  6934  6947       L1    13  0.31
      P1  H  7997  8010       L1    10  0.55

> <Gold.PLP.Chemscore.Internal.Correction>
0.0097

> <Gold.Rescore>
     Score         DG    S(hbond)    S(metal)    S(lipo)     H(rot)  DE(clash)    DE(int)     intcor
     17.21     -17.96       2.79        0.00      67.52       1.85       0.00       0.75       ----

> <Gold.Chemscore.Fitness>
17.2055

> <Gold.Chemscore.DG>
-17.9574

> <Gold.Chemscore.ZeroCoef>
-5.4800

> <Gold.Chemscore.Hbond>
2.7869

> <Gold.Chemscore.Metal>
0.0000

> <Gold.Chemscore.Lipo>
67.5231

> <Gold.Chemscore.Internal_Hbond>
0.0000

> <Gold.Chemscore.DEClash>
0.0015

> <Gold.Chemscore.DEInternal>
0.7504

> <Gold.Chemscore.Rot>
1.8481

> <Gold.Chemscore.Internal.Correction>
   9.000000E+99

> <Gold.Chemscore.Hbonds>
donor molecule, donor type, donor heavy atom, donor atom, acceptor molecule, acceptor atom, score
      P1  H  6896  6907       L1    11  0.14
      P1  H  6931  6943       L1    13  0.78
      P1  H  6934  6947       L1    13  0.03
      P1  H  7997  8010       L1    10  0.03

> <Gold.Chemscore.Hbond.Weighted>
-9.3084

> <Gold.Chemscore.Metal.Weighted>
-0.0000

> <Gold.Chemscore.Lipo.Weighted>
-7.9002

> <Gold.Chemscore.Internal_Hbond.Weighted>
0.0000

> <Gold.Chemscore.DEClash.Weighted>
0.0015

> <Gold.Chemscore.DEInternal.Weighted>
0.7504

> <Gold.Chemscore.Rot.Weighted>
4.7313

> <Gold.Chemscore.Internal.Correction.Weighted>
   9.000000E+99

> <Gold.Protein.RotatedTorsions>
[ 6907 6896 6895 6894 ] final  -46.13 input  -60.11 | X-H torsion
[ 7974 7965 7964 7962 ] final  112.57 input  175.53 | X-H torsion
[ 8008 7997 7996 7995 ] final    1.68 input   59.86 | X-H torsion
[ 10167 10162 10161 10158 ] final   -8.68 input  -65.29 | X-H torsion
[ 10718 10713 10712 10709 ] final   26.44 input   66.30 | X-H torsion
[ 10763 10752 10751 10750 ] final -158.35 input  -60.55 | X-H torsion
[ 11005 11000 10999 10996 ] final -175.84 input  -57.11 | X-H torsion

> <Gold.Protein.ActiveResidues>
 VAL166  LYS551  ARG553  GLY616  TRP617  ASP618  TYR619  PRO620  LYS621  CYS622 
 ASP623  PHE694  ASN695  SER759  ASP760  ASP761  ALA762  ILE779  LEU786  VAL792 
 PHE793  MET794  SER795  GLU796  ALA797  LYS798  CYS799  TRP800  GLU811  SER814 

> <Gold.Protein.RotatedAtoms>
  150.9145  134.8562  159.7447 H   0  0  0  0  0  0  0  0  0  0  0  0  # atno 6907 bound_to 6896
  152.4961  134.4310  159.9522 H   0  0  0  0  0  0  0  0  0  0  0  0  # atno 6908 bound_to 6896
  151.4349  133.3620  159.2809 H   0  0  0  0  0  0  0  0  0  0  0  0  # atno 6909 bound_to 6896
  145.2279  139.2832  143.4184 H   0  0  0  0  0  0  0  0  0  0  0  0  # atno 7974 bound_to 7965
  154.6825  140.2636  155.6893 H   0  0  0  0  0  0  0  0  0  0  0  0  # atno 8008 bound_to 7997
  156.2702  140.2807  156.1298 H   0  0  0  0  0  0  0  0  0  0  0  0  # atno 8009 bound_to 7997
  155.1010  140.0374  157.2687 H   0  0  0  0  0  0  0  0  0  0  0  0  # atno 8010 bound_to 7997
  140.7066  143.5942  150.8863 H   0  0  0  0  0  0  0  0  0  0  0  0  # atno 10167 bound_to 10162
  157.2069  130.6916  149.6212 H   0  0  0  0  0  0  0  0  0  0  0  0  # atno 10718 bound_to 10713
  154.7563  135.3105  154.8463 H   0  0  0  0  0  0  0  0  0  0  0  0  # atno 10763 bound_to 10752
  153.9236  135.6793  153.4751 H   0  0  0  0  0  0  0  0  0  0  0  0  # atno 10764 bound_to 10752
  153.1161  135.4844  154.9047 H   0  0  0  0  0  0  0  0  0  0  0  0  # atno 10765 bound_to 10752
  140.4587  134.6275  157.4833 H   0  0  0  0  0  0  0  0  0  0  0  0  # atno 11005 bound_to 11000
  146.3360  140.2605  142.8602 LP  0  0  0  0  0  0  0  0  0  0  0  0  # atno 17320 bound_to 7965
  144.9704  140.8363  143.5459 LP  0  0  0  0  0  0  0  0  0  0  0  0  # atno 17321 bound_to 7965
  139.9667  143.6103  152.2986 LP  0  0  0  0  0  0  0  0  0  0  0  0  # atno 17342 bound_to 10162
  139.6675  144.7662  151.1846 LP  0  0  0  0  0  0  0  0  0  0  0  0  # atno 17343 bound_to 10162
  155.9694  130.4564  150.5923 LP  0  0  0  0  0  0  0  0  0  0  0  0  # atno 17370 bound_to 10713
  157.3711  131.0766  151.1557 LP  0  0  0  0  0  0  0  0  0  0  0  0  # atno 17371 bound_to 10713
  139.9959  134.6912  155.9610 LP  0  0  0  0  0  0  0  0  0  0  0  0  # atno 17394 bound_to 11000
  141.1631  133.6538  156.4386 LP  0  0  0  0  0  0  0  0  0  0  0  0  # atno 17395 bound_to 11000

$$$$
