#       Name:                AV-unprocessed.smi:3034
#       Creating user name   scv26
#       Creation time:       Fri Mar 27 16:54:38 2020


#       File generated by GOLD software.
#

@<TRIPOS>MOLECULE
AV-unprocessed.smi:3034
    36    36     1
SMALL
NO_CHARGES


@<TRIPOS>ATOM
      1 ****        -3.0085   4.3236   1.1386 C.3            1 S1                 0.0000
      2 ****        -2.7220   2.8448   0.8580 C.3            1 S1                 0.0000
      3 ****        -2.6053   2.5431  -0.6427 C.3            1 S1                 0.0000
      4 ****        -2.2081   0.7685  -0.9493 S.o2           1 S1                 0.0000
      5 ****        -2.8821  -0.0590   0.0634 O.2            1 S1                 0.0000
      6 ****        -2.3808   0.4796  -2.3808 O.2            1 S1                 0.0000
      7 ****        -0.5172   0.7131  -0.6238 N.3            1 S1                 0.0000
      8 ****         0.0805  -0.5889  -0.3274 C.3            1 S1                 0.0000
      9 ****         1.6117  -0.4784  -0.2225 C.3            1 S1                 0.0000
     10 ****         1.9367   0.2754   0.9306 O.3            1 S1                 0.0000
     11 ****         2.2582  -1.8583  -0.2087 C.ar           1 S1                 0.0000
     12 ****         2.5251  -2.5422   1.0001 C.ar           1 S1                 0.0000
     13 ****         3.1038  -3.8244   0.9351 C.ar           1 S1                 0.0000
     14 ****         3.3887  -4.3775  -0.3277 C.ar           1 S1                 0.0000
     15 ****         3.0791  -3.6208  -1.4747 C.ar           1 S1                 0.0000
     16 ****         2.5239  -2.3911  -1.4234 N.ar           1 S1                 0.0000
     17 ****        -3.0826   4.5077   2.2105 H              1 S1                 0.0000
     18 ****        -3.9478   4.6362   0.6818 H              1 S1                 0.0000
     19 ****        -2.2152   4.9600   0.7460 H              1 S1                 0.0000
     20 ****        -1.7981   2.5567   1.3603 H              1 S1                 0.0000
     21 ****        -3.5148   2.2378   1.2959 H              1 S1                 0.0000
     22 ****        -3.5521   2.7588  -1.1381 H              1 S1                 0.0000
     23 ****        -1.8392   3.1554  -1.1186 H              1 S1                 0.0000
     24 ****         0.0081   1.1947  -1.3534 H              1 S1                 0.0000
     25 ****        -0.3502  -0.9980   0.5875 H              1 S1                 0.0000
     26 ****        -0.1841  -1.2701  -1.1374 H              1 S1                 0.0000
     27 ****         1.9984   0.0657  -1.0860 H              1 S1                 0.0000
     28 ****         1.5683  -0.1598   1.6840 H              1 S1                 0.0000
     29 ****         2.2913  -2.1036   1.9588 H              1 S1                 0.0000
     30 ****         3.3227  -4.3748   1.8382 H              1 S1                 0.0000
     31 ****         3.8316  -5.3585  -0.4155 H              1 S1                 0.0000
     32 ****         3.2811  -4.0145  -2.4598 H              1 S1                 0.0000
     33 ****        -0.4452   1.1934   0.2503 LP             1 S1                 0.0000
     34 ****         1.5541   1.1959   0.8515 LP             1 S1                 0.0000
     35 ****         2.9303   0.3344   1.0268 LP             1 S1                 0.0000
     36 ****         2.3145  -1.8874  -2.2615 LP             1 S1                 0.0000
@<TRIPOS>BOND
    1    1    2 1     
    2    1   17 1     
    3    1   18 1     
    4    1   19 1     
    5    2    3 1     
    6    2   20 1     
    7    2   21 1     
    8    3    4 1     
    9    3   22 1     
   10    3   23 1     
   11    4    5 2     
   12    4    6 2     
   13    4    7 1     
   14    7    8 1     
   15    7   24 1     
   16    8    9 1     
   17    8   25 1     
   18    8   26 1     
   19    9   10 1     
   20    9   11 1     
   21    9   27 1     
   22   10   28 1     
   23   11   16 ar    
   24   11   12 ar    
   25   12   13 ar    
   26   12   29 1     
   27   13   14 ar    
   28   13   30 1     
   29   14   15 ar    
   30   14   31 1     
   31   15   16 ar    
   32   15   32 1     
   33    7   33 1     
   34   10   34 1     
   35   10   35 1     
   36   16   36 1     
@<TRIPOS>SUBSTRUCTURE
      1 S1             1
@<TRIPOS>SET
LONE_PAIRS      STATIC     ATOMS    <user>   **** ""
6 5 6 33 34 35 36
DONOR_HYDROGENS      STATIC     ATOMS    <user>   **** ""
2 24 28
ATOM$BLUE        STATIC     ATOMS    COLORGROUP SYSTEM
6 5 6 33 34 35 36
ATOM$RED        STATIC     ATOMS    COLORGROUP SYSTEM
2 24 28
