AV-unprocessed.smi:160|AV-procd|sdf|1353|dock1
  -GOLD-   2262019 53D 1   1.00000     0.00000
 Structure written by MMmdl.
 29 30  0  0  0  0  0  0  0  0  1 V2000
  150.4496  131.3603  156.4553 N   0  0  0  0  0  0  0  0  0  0  0  0
  150.9515  132.4908  156.9632 C   0  0  0  0  0  0  0  0  0  0  0  0
  151.7494  132.4954  157.8993 O   0  0  0  0  0  0  0  0  0  0  0  0
  150.4860  133.7698  156.3238 C   0  0  0  0  0  0  0  0  0  0  0  0
  149.5452  133.7622  155.3335 N   0  0  0  0  0  0  0  0  0  0  0  0
  149.4738  135.0668  155.1039 C   0  0  0  0  0  0  0  0  0  0  0  0
  150.2805  135.8041  155.8739 N   0  0  0  0  0  0  0  0  0  0  0  0
  150.4753  137.2914  155.9071 C   0  0  2  0  0  0  0  0  0  0  0  0
  149.2502  137.9044  155.6365 O   0  0  0  0  0  0  0  0  0  0  0  0
  149.2357  138.3798  154.2946 C   0  0  1  0  0  0  0  0  0  0  0  0
  148.1575  139.4596  154.0966 C   0  0  0  0  0  0  0  0  0  0  0  0
  147.6847  139.4355  152.7665 O   0  0  0  0  0  0  0  0  0  0  0  0
  150.6849  138.8430  154.0898 C   0  0  1  0  0  0  0  0  0  0  0  0
  150.8898  140.1324  154.6393 O   0  0  0  0  0  0  0  0  0  0  0  0
  151.4946  137.8053  154.8603 C   0  0  2  0  0  0  0  0  0  0  0  0
  151.9815  136.8104  153.9759 O   0  0  0  0  0  0  0  0  0  0  0  0
  150.9630  134.9608  156.6893 N   0  0  0  0  0  0  0  0  0  0  0  0
  150.7728  137.5013  156.9351 H   0  0  0  0  0  0  0  0  0  0  0  0
  149.0499  137.5429  153.6193 H   0  0  0  0  0  0  0  0  0  0  0  0
  150.9512  138.8837  153.0326 H   0  0  0  0  0  0  0  0  0  0  0  0
  152.3482  138.2507  155.3732 H   0  0  0  0  0  0  0  0  0  0  0  0
  150.7233  130.4690  156.8420 H   0  0  0  0  0  0  0  0  0  0  0  0
  149.7973  131.4071  155.6856 H   0  0  0  0  0  0  0  0  0  0  0  0
  148.8169  135.4947  154.3610 H   0  0  0  0  0  0  0  0  0  0  0  0
  147.3292  139.3292  154.7941 H   0  0  0  0  0  0  0  0  0  0  0  0
  148.5804  140.4491  154.2726 H   0  0  0  0  0  0  0  0  0  0  0  0
  148.3230  139.8583  152.2125 H   0  0  0  0  0  0  0  0  0  0  0  0
  151.4006  140.0450  155.4295 H   0  0  0  0  0  0  0  0  0  0  0  0
  151.3765  136.7262  153.2549 H   0  0  0  0  0  0  0  0  0  0  0  0
  1  2  1  0  0  0  0
  1 22  1  0  0  0  0
  1 23  1  0  0  0  0
  2  3  2  0  0  0  0
  2  4  1  0  0  0  0
  4 17  2  0  0  0  0
  4  5  1  0  0  0  0
  5  6  2  0  0  0  0
  6  7  1  0  0  0  0
  6 24  1  0  0  0  0
  7  8  1  0  0  0  0
  7 17  1  0  0  0  0
  8 18  1  0  0  0  0
  8 15  1  0  0  0  0
  8  9  1  0  0  0  0
  9 10  1  0  0  0  0
 10 19  1  0  0  0  0
 10 11  1  0  0  0  0
 10 13  1  0  0  0  0
 11 12  1  0  0  0  0
 11 25  1  0  0  0  0
 11 26  1  0  0  0  0
 12 27  1  0  0  0  0
 13 20  1  0  0  0  0
 13 14  1  0  0  0  0
 13 15  1  0  0  0  0
 14 28  1  0  0  0  0
 15 21  1  0  0  0  0
 15 16  1  0  0  0  0
 16 29  1  0  0  0  0
M  END
> <s_m_source_file>
AV-unprocessed.smi

> <i_m_source_file_index>
160

> <i_lp_mmshare_version>
43012

> <i_f3d_flags>
0

> <s_epik_input>
W05IMl1DKD1PKWMxbltjSF1uKG4xKVtDQEBIXTJPW0NASF0oW0NIMl1bT0hdKVtDQEBIXShbT0hdKVtDQEhdMltPSF0=

> <s_epik_cmdline>
J2VwaWtfcHl0aG9uJywgJy1waCcsICc3LjAnLCAnLXRuJywgJzgnLCAnLW1hJywgJzIwMCcsICctbWV0YWxfYmluZGluZycsICctaW1hZScsICc8aW5maWxlLm1hZT4nLCAnLW9tYWUnLCAnPG91dGZpbGUubWFlPic=

> <r_lp_tautomer_probability>
1

> <r_epik_Ionization_Penalty>
1.06932e-05

> <r_epik_Ionization_Penalty_Charging>
0

> <r_epik_Ionization_Penalty_Neutral>
1.06932e-05

> <r_epik_State_Penalty>
-0

> <r_epik_Charging_Adjusted_Penalty>
0

> <i_epik_Tot_Q>
0

> <i_epik_Tot_abs_Q>
0

> <r_epik_Metal_State_Penalty>
0.0142097

> <b_epik_Metal_Only>
0

> <s_epik_Chemistry_Notes>
This compound contains an acetal/aminal-like group ( X-CH(R)-Y where X, Y are N, S, or O) that may be acid/base labile, releasing an aldehyde.

> <s_lp_Force_Field>
OPLS_2005

> <r_lp_Energy>
42.6693

> <b_lp_Chiralities_Consistent>
1

> <s_lp_Variant>
AV-unprocessed.smi:160-11

> <Gold.Version>
5.8.1

> <Gold.Id.Protein>
6NUR|6NUR_protein|mol2

> <Gold.PLP.Fitness>
39.2644

> <Gold.PLP.PLP>
-23.9670

> <Gold.PLP.part.hbond>
-4.8527

> <Gold.PLP.part.metal>
0.0000

> <Gold.PLP.part.buried>
-5.6571

> <Gold.PLP.part.nonpolar>
-13.7384

> <Gold.PLP.part.repulsive>
0.1288

> <Gold.PLP.ligand.clash>
0.0000

> <Gold.PLP.ligand.torsion>
1.1096

> <Gold.PLP.Chemscore.Hbond>
4.8373

> <Gold.PLP.Chemscore.CHOScore>
1.0000

> <Gold.PLP.Chemscore.Metal>
0.0000

> <Gold.Chemscore.Hbonds>
donor molecule, donor type, donor heavy atom, donor atom, acceptor molecule, acceptor atom, score
      L1  H    12    27       P1  7957  1.00
      L1  H    16    29       P1  7949  0.86
      P1  H  6896  6909       L1     3  1.00
      P1  H  7989  7998       L1    14  1.00
      P1  H 10752 10764       L1    16  0.94
      L1  C     6    24       P1  7948  0.85

> <Gold.PLP.Chemscore.Internal.Correction>
0.0049

> <Gold.Rescore>
     Score         DG    S(hbond)    S(metal)    S(lipo)     H(rot)  DE(clash)    DE(int)     intcor
     10.89     -11.96       4.05        0.00      28.44       4.06       0.05       1.01       ----

> <Gold.Chemscore.Fitness>
10.8903

> <Gold.Chemscore.DG>
-11.9559

> <Gold.Chemscore.ZeroCoef>
-5.4800

> <Gold.Chemscore.Hbond>
4.0544

> <Gold.Chemscore.Metal>
0.0000

> <Gold.Chemscore.Lipo>
28.4431

> <Gold.Chemscore.Internal_Hbond>
0.0000

> <Gold.Chemscore.DEClash>
0.0549

> <Gold.Chemscore.DEInternal>
1.0107

> <Gold.Chemscore.Rot>
4.0600

> <Gold.Chemscore.Internal.Correction>
   9.000000E+99

> <Gold.Chemscore.Hbonds>
donor molecule, donor type, donor heavy atom, donor atom, acceptor molecule, acceptor atom, score
      L1  H    12    27       P1  7957  0.99
      L1  H    16    29       P1  7949  0.66
      P1  H  6896  6909       L1     3  0.97
      P1  H  7989  7998       L1    14  0.33
      P1  H 10752 10764       L1    16  0.83

> <Gold.Chemscore.Hbond.Weighted>
-13.5417

> <Gold.Chemscore.Metal.Weighted>
-0.0000

> <Gold.Chemscore.Lipo.Weighted>
-3.3278

> <Gold.Chemscore.Internal_Hbond.Weighted>
0.0000

> <Gold.Chemscore.DEClash.Weighted>
0.0549

> <Gold.Chemscore.DEInternal.Weighted>
1.0107

> <Gold.Chemscore.Rot.Weighted>
10.3936

> <Gold.Chemscore.Internal.Correction.Weighted>
   9.000000E+99

> <Gold.Protein.RotatedTorsions>
[ 6907 6896 6895 6894 ] final  -56.22 input  -60.11 | X-H torsion
[ 7974 7965 7964 7962 ] final -164.42 input  175.53 | X-H torsion
[ 8008 7997 7996 7995 ] final -131.20 input   59.86 | X-H torsion
[ 10167 10162 10161 10158 ] final  115.42 input  -65.29 | X-H torsion
[ 10718 10713 10712 10709 ] final  -28.76 input   66.30 | X-H torsion
[ 10763 10752 10751 10750 ] final  -87.56 input  -60.55 | X-H torsion
[ 11005 11000 10999 10996 ] final  -13.42 input  -57.11 | X-H torsion

> <Gold.Protein.ActiveResidues>
 VAL166  LYS551  ARG553  GLY616  TRP617  ASP618  TYR619  PRO620  LYS621  CYS622 
 ASP623  PHE694  ASN695  SER759  ASP760  ASP761  ALA762  ILE779  LEU786  VAL792 
 PHE793  MET794  SER795  GLU796  ALA797  LYS798  CYS799  TRP800  GLU811  SER814 

> <Gold.Protein.RotatedAtoms>
  150.8186  134.7382  159.6751 H   0  0  0  0  0  0  0  0  0  0  0  0  # atno 6907 bound_to 6896
  152.4303  134.5787  159.9951 H   0  0  0  0  0  0  0  0  0  0  0  0  # atno 6908 bound_to 6896
  151.5977  133.3322  159.3077 H   0  0  0  0  0  0  0  0  0  0  0  0  # atno 6909 bound_to 6896
  144.7297  140.2964  143.6212 H   0  0  0  0  0  0  0  0  0  0  0  0  # atno 7974 bound_to 7965
  155.3083  140.0456  157.3033 H   0  0  0  0  0  0  0  0  0  0  0  0  # atno 8008 bound_to 7997
  154.5447  140.2299  155.8549 H   0  0  0  0  0  0  0  0  0  0  0  0  # atno 8009 bound_to 7997
  156.1913  140.3050  155.9345 H   0  0  0  0  0  0  0  0  0  0  0  0  # atno 8010 bound_to 7997
  139.6318  144.7115  151.2415 H   0  0  0  0  0  0  0  0  0  0  0  0  # atno 10167 bound_to 10162
  156.4211  130.4426  149.7183 H   0  0  0  0  0  0  0  0  0  0  0  0  # atno 10718 bound_to 10713
  154.6349  135.5409  153.7723 H   0  0  0  0  0  0  0  0  0  0  0  0  # atno 10763 bound_to 10752
  153.0303  135.6445  154.1246 H   0  0  0  0  0  0  0  0  0  0  0  0  # atno 10764 bound_to 10752
  154.1174  135.2922  155.3196 H   0  0  0  0  0  0  0  0  0  0  0  0  # atno 10765 bound_to 10752
  140.7759  133.8401  155.9248 H   0  0  0  0  0  0  0  0  0  0  0  0  # atno 11005 bound_to 11000
  145.7804  139.1889  143.2161 LP  0  0  0  0  0  0  0  0  0  0  0  0  # atno 17320 bound_to 7965
  146.0838  140.7734  142.9628 LP  0  0  0  0  0  0  0  0  0  0  0  0  # atno 17321 bound_to 7965
  140.7443  143.6466  150.8286 LP  0  0  0  0  0  0  0  0  0  0  0  0  # atno 17342 bound_to 10162
  140.0092  143.5661  152.2846 LP  0  0  0  0  0  0  0  0  0  0  0  0  # atno 17343 bound_to 10162
  156.4123  130.7728  151.2742 LP  0  0  0  0  0  0  0  0  0  0  0  0  # atno 17370 bound_to 10713
  157.7508  131.0208  150.3722 LP  0  0  0  0  0  0  0  0  0  0  0  0  # atno 17371 bound_to 10713
  140.9529  134.1755  157.4714 LP  0  0  0  0  0  0  0  0  0  0  0  0  # atno 17394 bound_to 11000
  139.8749  134.9916  156.5556 LP  0  0  0  0  0  0  0  0  0  0  0  0  # atno 17395 bound_to 11000

$$$$
