AV-unprocessed.smi:3117|AV-procd|sdf|11880|dock5
  -GOLD-   2272017263D 1   1.00000     0.00000
 Structure written by MMmdl.
 37 37  0  0  0  0  0  0  0  0  2 V2000
  150.2559  138.1461  154.3711 C   0  0  0  0  0  0  0  0  0  0  0  0
  149.0725  139.1282  154.2997 C   0  0  2  0  0  0  0  0  0  0  0  0
  148.3358  138.8952  153.0377 N   0  3  0  0  0  0  0  0  0  0  0  0
  146.8945  139.2236  153.0841 C   0  0  0  0  0  0  0  0  0  0  0  0
  146.0169  137.9705  153.2892 C   0  0  0  0  0  0  0  0  0  0  0  0
  145.9175  137.1684  151.9809 C   0  0  0  0  0  0  0  0  0  0  0  0
  146.5416  137.0742  154.4264 C   0  0  0  0  0  0  0  0  0  0  0  0
  144.7057  138.3910  153.6132 O   0  0  0  0  0  0  0  0  0  0  0  0
  149.5023  140.6153  154.4017 C   0  0  1  0  0  0  0  0  0  0  0  0
  148.3113  141.5895  154.3415 C   0  0  0  0  0  0  0  0  0  0  0  0
  150.2910  140.8707  155.6008 N   0  0  0  0  0  0  0  0  0  0  0  0
  150.0379  141.7552  156.6309 C   0  0  0  0  0  0  0  0  0  0  0  0
  151.0520  141.6290  157.5363 C   0  0  0  0  0  0  0  0  0  0  0  0
  151.8879  140.6269  156.9697 C   0  0  0  0  0  0  0  0  0  0  0  0
  151.4292  140.1745  155.8140 N   0  0  0  0  0  0  0  0  0  0  0  0
  150.7741  138.2025  155.3287 H   0  0  0  0  0  0  0  0  0  0  0  0
  150.9857  138.3467  153.5859 H   0  0  0  0  0  0  0  0  0  0  0  0
  149.9165  137.1165  154.2537 H   0  0  0  0  0  0  0  0  0  0  0  0
  148.4187  138.9001  155.1437 H   0  0  0  0  0  0  0  0  0  0  0  0
  148.7687  139.4451  152.3097 H   0  0  0  0  0  0  0  0  0  0  0  0
  146.7269  139.9395  153.8903 H   0  0  0  0  0  0  0  0  0  0  0  0
  146.6107  139.7211  152.1558 H   0  0  0  0  0  0  0  0  0  0  0  0
  146.8973  136.8099  151.6629 H   0  0  0  0  0  0  0  0  0  0  0  0
  145.5114  137.7754  151.1703 H   0  0  0  0  0  0  0  0  0  0  0  0
  145.2706  136.2975  152.0941 H   0  0  0  0  0  0  0  0  0  0  0  0
  147.5585  136.7371  154.2226 H   0  0  0  0  0  0  0  0  0  0  0  0
  145.9208  136.1860  154.5501 H   0  0  0  0  0  0  0  0  0  0  0  0
  146.5540  137.5961  155.3837 H   0  0  0  0  0  0  0  0  0  0  0  0
  144.5225  139.1944  153.1491 H   0  0  0  0  0  0  0  0  0  0  0  0
  150.1412  140.8353  153.5436 H   0  0  0  0  0  0  0  0  0  0  0  0
  147.7813  141.5159  153.3919 H   0  0  0  0  0  0  0  0  0  0  0  0
  148.6467  142.6223  154.4419 H   0  0  0  0  0  0  0  0  0  0  0  0
  147.5930  141.3948  155.1386 H   0  0  0  0  0  0  0  0  0  0  0  0
  149.1669  142.3937  156.6345 H   0  0  0  0  0  0  0  0  0  0  0  0
  151.1769  142.1695  158.4630 H   0  0  0  0  0  0  0  0  0  0  0  0
  152.8070  140.2166  157.3614 H   0  0  0  0  0  0  0  0  0  0  0  0
  148.4219  137.9195  152.7907 H   0  0  0  0  0  0  0  0  0  0  0  0
  1  2  1  0  0  0  0
  1 16  1  0  0  0  0
  1 17  1  0  0  0  0
  1 18  1  0  0  0  0
  2  3  1  0  0  0  0
  2  9  1  0  0  0  0
  2 19  1  0  0  0  0
  3  4  1  0  0  0  0
  3 20  1  0  0  0  0
  3 37  1  0  0  0  0
  4  5  1  0  0  0  0
  4 21  1  0  0  0  0
  4 22  1  0  0  0  0
  5  6  1  0  0  0  0
  5  7  1  0  0  0  0
  5  8  1  0  0  0  0
  6 23  1  0  0  0  0
  6 24  1  0  0  0  0
  6 25  1  0  0  0  0
  7 26  1  0  0  0  0
  7 27  1  0  0  0  0
  7 28  1  0  0  0  0
  8 29  1  0  0  0  0
  9 10  1  0  0  0  0
  9 11  1  0  0  0  0
  9 30  1  0  0  0  0
 10 31  1  0  0  0  0
 10 32  1  0  0  0  0
 10 33  1  0  0  0  0
 11 15  1  0  0  0  0
 11 12  1  0  0  0  0
 12 13  2  0  0  0  0
 12 34  1  0  0  0  0
 13 14  1  0  0  0  0
 13 35  1  0  0  0  0
 14 15  2  0  0  0  0
 14 36  1  0  0  0  0
M  CHG  1   3   1
M  END
> <s_m_source_file>
AV-unprocessed.smi

> <i_m_source_file_index>
3117

> <i_lp_mmshare_version>
43012

> <i_f3d_flags>
0

> <s_epik_input>
W0NIM11DKFtDSDNdKShbT0hdKVtDSDJdW05IXVtDQEBIXShbQ0gzXSlbQ0BIXShbQ0gzXSluMVtjSF1bY0hdW2NIXW4x

> <s_epik_cmdline>
J2VwaWtfcHl0aG9uJywgJy1waCcsICc3LjAnLCAnLXRuJywgJzgnLCAnLW1hJywgJzIwMCcsICctbWV0YWxfYmluZGluZycsICctaW1hZScsICc8aW5maWxlLm1hZT4nLCAnLW9tYWUnLCAnPG91dGZpbGUubWFlPic=

> <r_lp_tautomer_probability>
1

> <r_epik_Ionization_Penalty>
0.0164263

> <r_epik_Ionization_Penalty_Charging>
0.0164138

> <r_epik_Ionization_Penalty_Neutral>
1.24697e-05

> <r_epik_State_Penalty>
0.0129543

> <r_epik_Charging_Adjusted_Penalty>
0.0293681

> <i_epik_Tot_Q>
1

> <i_epik_Tot_abs_Q>
1

> <r_epik_Metal_State_Penalty>
0.0129806

> <b_epik_Metal_Only>
0

> <s_lp_Force_Field>
OPLS_2005

> <r_lp_Energy>
14.6887

> <b_lp_Chiralities_Consistent>
1

> <s_lp_Variant>
AV-unprocessed.smi:3117-3

> <Gold.Version>
5.8.1

> <Gold.Id.Protein>
6NUR|6NUR_protein|mol2

> <Gold.PLP.Fitness>
42.2544

> <Gold.PLP.PLP>
-28.6739

> <Gold.PLP.part.hbond>
-2.9915

> <Gold.PLP.part.metal>
0.0000

> <Gold.PLP.part.buried>
-2.6756

> <Gold.PLP.part.nonpolar>
-23.4960

> <Gold.PLP.part.repulsive>
0.0731

> <Gold.PLP.ligand.clash>
0.0000

> <Gold.PLP.ligand.torsion>
0.7528

> <Gold.PLP.Chemscore.Hbond>
4.0000

> <Gold.PLP.Chemscore.CHOScore>
1.0000

> <Gold.PLP.Chemscore.Metal>
0.0000

> <Gold.Chemscore.Hbonds>
donor molecule, donor type, donor heavy atom, donor atom, acceptor molecule, acceptor atom, score
      L1  H     3    20       P1  7957  1.00
      L1  H     3    37       P1  7948  2.00
      L1  H     8    29       P1 10175  1.00
      L1  C    12    34       P1  8028  0.97

> <Gold.PLP.Chemscore.Internal.Correction>
0.0861

> <Gold.Rescore>
     Score         DG    S(hbond)    S(metal)    S(lipo)     H(rot)  DE(clash)    DE(int)     intcor
     14.95     -17.26       2.95        0.00      66.12       2.27       0.01       2.30       ----

> <Gold.Chemscore.Fitness>
14.9528

> <Gold.Chemscore.DG>
-17.2635

> <Gold.Chemscore.ZeroCoef>
-5.4800

> <Gold.Chemscore.Hbond>
2.9538

> <Gold.Chemscore.Metal>
0.0000

> <Gold.Chemscore.Lipo>
66.1159

> <Gold.Chemscore.Internal_Hbond>
0.0000

> <Gold.Chemscore.DEClash>
0.0122

> <Gold.Chemscore.DEInternal>
2.2986

> <Gold.Chemscore.Rot>
2.2725

> <Gold.Chemscore.Internal.Correction>
   9.000000E+99

> <Gold.Chemscore.Hbonds>
donor molecule, donor type, donor heavy atom, donor atom, acceptor molecule, acceptor atom, score
      L1  H     3    20       P1  7957  0.93
      L1  H     3    37       P1  7948  0.98
      L1  H     8    29       P1 10175  0.99

> <Gold.Chemscore.Hbond.Weighted>
-9.8656

> <Gold.Chemscore.Metal.Weighted>
-0.0000

> <Gold.Chemscore.Lipo.Weighted>
-7.7356

> <Gold.Chemscore.Internal_Hbond.Weighted>
0.0000

> <Gold.Chemscore.DEClash.Weighted>
0.0122

> <Gold.Chemscore.DEInternal.Weighted>
2.2986

> <Gold.Chemscore.Rot.Weighted>
5.8176

> <Gold.Chemscore.Internal.Correction.Weighted>
   9.000000E+99

> <Gold.Protein.RotatedTorsions>
[ 6907 6896 6895 6894 ] final -164.74 input  -60.11 | X-H torsion
[ 7974 7965 7964 7962 ] final -176.29 input  175.53 | X-H torsion
[ 8008 7997 7996 7995 ] final   90.95 input   59.86 | X-H torsion
[ 10167 10162 10161 10158 ] final  126.62 input  -65.29 | X-H torsion
[ 10718 10713 10712 10709 ] final -103.76 input   66.30 | X-H torsion
[ 10763 10752 10751 10750 ] final   -4.27 input  -60.55 | X-H torsion
[ 11005 11000 10999 10996 ] final   12.82 input  -57.11 | X-H torsion

> <Gold.Protein.ActiveResidues>
 VAL166  LYS551  ARG553  GLY616  TRP617  ASP618  TYR619  PRO620  LYS621  CYS622 
 ASP623  PHE694  ASN695  SER759  ASP760  ASP761  ALA762  ILE779  LEU786  VAL792 
 PHE793  MET794  SER795  GLU796  ALA797  LYS798  CYS799  TRP800  GLU811  SER814 

> <Gold.Protein.RotatedAtoms>
  151.4165  133.3711  159.2750 H   0  0  0  0  0  0  0  0  0  0  0  0  # atno 6907 bound_to 6896
  150.9324  134.8740  159.7570 H   0  0  0  0  0  0  0  0  0  0  0  0  # atno 6908 bound_to 6896
  152.5034  134.4111  159.9501 H   0  0  0  0  0  0  0  0  0  0  0  0  # atno 6909 bound_to 6896
  144.7127  140.1192  143.6406 H   0  0  0  0  0  0  0  0  0  0  0  0  # atno 7974 bound_to 7965
  156.0180  140.3343  155.7009 H   0  0  0  0  0  0  0  0  0  0  0  0  # atno 8008 bound_to 7997
  155.6063  140.0660  157.2736 H   0  0  0  0  0  0  0  0  0  0  0  0  # atno 8009 bound_to 7997
  154.4305  140.1801  156.1213 H   0  0  0  0  0  0  0  0  0  0  0  0  # atno 8010 bound_to 7997
  139.5621  144.6888  151.4013 H   0  0  0  0  0  0  0  0  0  0  0  0  # atno 10167 bound_to 10162
  156.0278  130.5482  150.7299 H   0  0  0  0  0  0  0  0  0  0  0  0  # atno 10718 bound_to 10713
  153.3826  135.6999  153.6554 H   0  0  0  0  0  0  0  0  0  0  0  0  # atno 10763 bound_to 10752
  153.5159  135.3622  155.2609 H   0  0  0  0  0  0  0  0  0  0  0  0  # atno 10764 bound_to 10752
  154.8694  135.4146  154.3127 H   0  0  0  0  0  0  0  0  0  0  0  0  # atno 10765 bound_to 10752
  140.4877  134.0871  155.7764 H   0  0  0  0  0  0  0  0  0  0  0  0  # atno 11005 bound_to 11000
  145.9386  139.2653  143.1282 LP  0  0  0  0  0  0  0  0  0  0  0  0  # atno 17320 bound_to 7965
  145.9448  140.8953  143.0289 LP  0  0  0  0  0  0  0  0  0  0  0  0  # atno 17321 bound_to 7965
  140.6902  143.7880  150.7244 LP  0  0  0  0  0  0  0  0  0  0  0  0  # atno 17342 bound_to 10162
  140.1360  143.4483  152.2224 LP  0  0  0  0  0  0  0  0  0  0  0  0  # atno 17343 bound_to 10162
  157.4894  131.0909  151.0445 LP  0  0  0  0  0  0  0  0  0  0  0  0  # atno 17370 bound_to 10713
  157.0856  130.5921  149.5429 LP  0  0  0  0  0  0  0  0  0  0  0  0  # atno 17371 bound_to 10713
  141.1500  133.8987  157.2122 LP  0  0  0  0  0  0  0  0  0  0  0  0  # atno 17394 bound_to 11000
  139.9788  135.0105  156.9697 LP  0  0  0  0  0  0  0  0  0  0  0  0  # atno 17395 bound_to 11000

$$$$
