#       Name:                AV-unprocessed.smi:1350
#       Creating user name   scv26
#       Creation time:       Fri Mar 27 05:11:02 2020


#       File generated by GOLD software.
#

@<TRIPOS>MOLECULE
AV-unprocessed.smi:1350
    50    52     1
SMALL
NO_CHARGES


@<TRIPOS>ATOM
      1 ****        -2.9724   2.9938   2.2131 C.3            1 S1                 0.0000
      2 ****        -2.5481   2.6593   0.9002 O.3            1 S1                 0.0000
      3 ****        -3.5108   2.4471  -0.0658 C.ar           1 S1                 0.0000
      4 ****        -4.9035   2.5712   0.1740 C.ar           1 S1                 0.0000
      5 ****        -5.8314   2.3448  -0.8603 C.ar           1 S1                 0.0000
      6 ****        -5.3832   1.9926  -2.1457 C.ar           1 S1                 0.0000
      7 ****        -4.0050   1.8656  -2.3956 C.ar           1 S1                 0.0000
      8 ****        -3.0702   2.0879  -1.3624 C.ar           1 S1                 0.0000
      9 ****        -1.5864   1.9498  -1.6530 C.3            1 S1                 0.0000
     10 ****        -1.0028   0.9115  -0.8836 O.3            1 S1                 0.0000
     11 ****         0.3968   0.7972  -1.0789 C.3            1 S1                 0.0000
     12 ****         0.9335  -0.3188  -0.1692 C.3            1 S1                 0.0000
     13 ****         0.6938  -1.5629  -0.7972 O.3            1 S1                 0.0000
     14 ****         2.4445  -0.1710   0.0938 C.3            1 S1                 0.0000
     15 ****         2.9567  -1.1971   0.9849 N.pl3          1 S1                 0.0000
     16 ****         2.8755  -1.2131   2.3292 C.2            1 S1                 0.0000
     17 ****         3.4154  -2.2514   2.9610 N.2            1 S1                 0.0000
     18 ****         3.9035  -2.9983   1.9026 C.ar           1 S1                 0.0000
     19 ****         4.5950  -4.2309   1.8929 C.ar           1 S1                 0.0000
     20 ****         4.9997  -4.8135   0.6738 C.ar           1 S1                 0.0000
     21 ****         4.7197  -4.1746  -0.5518 C.ar           1 S1                 0.0000
     22 ****         4.0323  -2.9457  -0.5674 C.ar           1 S1                 0.0000
     23 ****         3.6316  -2.3667   0.6513 C.ar           1 S1                 0.0000
     24 ****        -2.0980   3.1163   2.8522 H              1 S1                 0.0000
     25 ****        -3.5889   2.2049   2.6462 H              1 S1                 0.0000
     26 ****        -3.5246   3.9344   2.2265 H              1 S1                 0.0000
     27 ****        -5.2880   2.8416   1.1455 H              1 S1                 0.0000
     28 ****        -6.8894   2.4429  -0.6665 H              1 S1                 0.0000
     29 ****        -6.0955   1.8203  -2.9392 H              1 S1                 0.0000
     30 ****        -3.6686   1.5948  -3.3857 H              1 S1                 0.0000
     31 ****        -1.4291   1.7519  -2.7145 H              1 S1                 0.0000
     32 ****        -1.1022   2.9020  -1.4299 H              1 S1                 0.0000
     33 ****         0.6415   0.6105  -2.1262 H              1 S1                 0.0000
     34 ****         0.8585   1.7469  -0.8035 H              1 S1                 0.0000
     35 ****         0.4047  -0.2965   0.7849 H              1 S1                 0.0000
     36 ****        -0.2374  -1.6538  -0.9313 H              1 S1                 0.0000
     37 ****         3.0030  -0.2058  -0.8425 H              1 S1                 0.0000
     38 ****         2.6543   0.8002   0.5440 H              1 S1                 0.0000
     39 ****         2.3917  -0.4162   2.8747 H              1 S1                 0.0000
     40 ****         4.8137  -4.7295   2.8255 H              1 S1                 0.0000
     41 ****         5.5268  -5.7563   0.6790 H              1 S1                 0.0000
     42 ****         5.0325  -4.6291  -1.4805 H              1 S1                 0.0000
     43 ****         3.8129  -2.4547  -1.5038 H              1 S1                 0.0000
     44 ****        -2.0078   1.8206   0.9686 LP             1 S1                 0.0000
     45 ****        -1.9657   3.4057   0.5784 LP             1 S1                 0.0000
     46 ****        -1.4321   0.0453  -1.1395 LP             1 S1                 0.0000
     47 ****        -1.1756   1.0961   0.0839 LP             1 S1                 0.0000
     48 ****         1.0254  -2.3050  -0.2147 LP             1 S1                 0.0000
     49 ****         1.1666  -1.5937  -1.6778 LP             1 S1                 0.0000
     50 ****         3.4576  -2.4422   3.9417 LP             1 S1                 0.0000
@<TRIPOS>BOND
    1    1    2 1     
    2    1   24 1     
    3    1   25 1     
    4    1   26 1     
    5    2    3 1     
    6    3    8 ar    
    7    3    4 ar    
    8    4    5 ar    
    9    4   27 1     
   10    5    6 ar    
   11    5   28 1     
   12    6    7 ar    
   13    6   29 1     
   14    7    8 ar    
   15    7   30 1     
   16    8    9 1     
   17    9   10 1     
   18    9   31 1     
   19    9   32 1     
   20   10   11 1     
   21   11   12 1     
   22   11   33 1     
   23   11   34 1     
   24   12   13 1     
   25   12   14 1     
   26   12   35 1     
   27   13   36 1     
   28   14   15 1     
   29   14   37 1     
   30   14   38 1     
   31   15   23 1     
   32   15   16 1     
   33   16   17 2     
   34   16   39 1     
   35   17   18 1     
   36   18   23 ar    
   37   18   19 ar    
   38   19   20 ar    
   39   19   40 1     
   40   20   21 ar    
   41   20   41 1     
   42   21   22 ar    
   43   21   42 1     
   44   22   23 ar    
   45   22   43 1     
   46    2   44 1     
   47    2   45 1     
   48   10   46 1     
   49   10   47 1     
   50   13   48 1     
   51   13   49 1     
   52   17   50 1     
@<TRIPOS>SUBSTRUCTURE
      1 S1             1
@<TRIPOS>SET
LONE_PAIRS      STATIC     ATOMS    <user>   **** ""
7 44 45 46 47 48 49 50
DONOR_HYDROGENS      STATIC     ATOMS    <user>   **** ""
1 36
ATOM$BLUE        STATIC     ATOMS    COLORGROUP SYSTEM
7 44 45 46 47 48 49 50
ATOM$RED        STATIC     ATOMS    COLORGROUP SYSTEM
1 36
