AV-unprocessed.smi:937|AV-procd|sdf|4214|dock10
  -GOLD-   22720 2123D 1   1.00000     0.00000
 Structure written by MMmdl.
 46 47  0  0  0  0  0  0  0  0  2 V2000
  151.5165  143.4086  158.5985 C   0  0  0  0  0  0  0  0  0  0  0  0
  151.1719  142.3279  157.5958 C   0  0  0  0  0  0  0  0  0  0  0  0
  151.7618  141.0461  157.6399 C   0  0  0  0  0  0  0  0  0  0  0  0
  151.3918  140.0838  156.6773 C   0  0  0  0  0  0  0  0  0  0  0  0
  150.4390  140.4221  155.6917 C   0  0  0  0  0  0  0  0  0  0  0  0
  150.0177  139.4135  154.6417 C   0  0  0  0  0  0  0  0  0  0  0  0
  148.4909  139.2480  154.5756 C   0  0  0  0  0  0  0  0  0  0  0  0
  148.1187  138.0437  153.8438 N   0  0  0  0  0  0  0  0  0  0  0  0
  146.9294  137.4250  153.9397 C   0  0  0  0  0  0  0  0  0  0  0  0
  146.0144  137.8289  154.6553 O   0  0  0  0  0  0  0  0  0  0  0  0
  146.8074  136.3132  153.1923 N   0  0  0  0  0  0  0  0  0  0  0  0
  145.6550  135.4182  153.0718 C   0  0  1  0  0  0  0  0  0  0  0  0
  144.4380  136.1691  152.4930 C   0  0  0  0  0  0  0  0  0  0  0  0
  143.2483  135.2224  152.2781 C   0  0  0  0  0  0  0  0  0  0  0  0
  143.6356  134.0325  151.3864 C   0  0  0  0  0  0  0  0  0  0  0  0
  144.8432  133.2616  151.9601 C   0  0  1  0  0  0  0  0  0  0  0  0
  145.2287  132.0535  151.0814 C   0  0  0  0  0  0  0  0  0  0  0  0
  146.0404  131.2265  151.7409 F   0  0  0  0  0  0  0  0  0  0  0  0
  144.1340  131.3846  150.7190 F   0  0  0  0  0  0  0  0  0  0  0  0
  145.8449  132.4713  149.9755 F   0  0  0  0  0  0  0  0  0  0  0  0
  146.0315  134.2240  152.1740 C   0  0  0  0  0  0  0  0  0  0  0  0
  149.8833  141.7196  155.6960 C   0  0  0  0  0  0  0  0  0  0  0  0
  150.2641  142.6127  156.6353 N   0  3  0  0  0  0  0  0  0  0  0  0
  152.5122  143.2492  159.0132 H   0  0  0  0  0  0  0  0  0  0  0  0
  150.7987  143.4040  159.4189 H   0  0  0  0  0  0  0  0  0  0  0  0
  151.4988  144.3937  158.1307 H   0  0  0  0  0  0  0  0  0  0  0  0
  152.4879  140.8010  158.4014 H   0  0  0  0  0  0  0  0  0  0  0  0
  151.8350  139.0988  156.6969 H   0  0  0  0  0  0  0  0  0  0  0  0
  150.4026  139.7254  153.6696 H   0  0  0  0  0  0  0  0  0  0  0  0
  150.4933  138.4578  154.8670 H   0  0  0  0  0  0  0  0  0  0  0  0
  148.0646  139.2170  155.5799 H   0  0  0  0  0  0  0  0  0  0  0  0
  148.0430  140.1065  154.0745 H   0  0  0  0  0  0  0  0  0  0  0  0
  148.8136  137.6457  153.2288 H   0  0  0  0  0  0  0  0  0  0  0  0
  147.6108  136.0628  152.6337 H   0  0  0  0  0  0  0  0  0  0  0  0
  145.3970  135.0230  154.0560 H   0  0  0  0  0  0  0  0  0  0  0  0
  144.1396  136.9813  153.1566 H   0  0  0  0  0  0  0  0  0  0  0  0
  144.7074  136.6318  151.5425 H   0  0  0  0  0  0  0  0  0  0  0  0
  142.8930  134.8565  153.2422 H   0  0  0  0  0  0  0  0  0  0  0  0
  142.4175  135.7672  151.8290 H   0  0  0  0  0  0  0  0  0  0  0  0
  142.7788  133.3661  151.2826 H   0  0  0  0  0  0  0  0  0  0  0  0
  143.8691  134.3921  150.3836 H   0  0  0  0  0  0  0  0  0  0  0  0
  144.5532  132.8721  152.9374 H   0  0  0  0  0  0  0  0  0  0  0  0
  146.3831  134.5883  151.2074 H   0  0  0  0  0  0  0  0  0  0  0  0
  146.8675  133.6845  152.6206 H   0  0  0  0  0  0  0  0  0  0  0  0
  149.1516  142.0679  154.9812 H   0  0  0  0  0  0  0  0  0  0  0  0
  149.8472  143.5437  156.6187 H   0  0  0  0  0  0  0  0  0  0  0  0
  1  2  1  0  0  0  0
  1 24  1  0  0  0  0
  1 25  1  0  0  0  0
  1 26  1  0  0  0  0
  2 23  1  0  0  0  0
  2  3  2  0  0  0  0
  3  4  1  0  0  0  0
  3 27  1  0  0  0  0
  4  5  2  0  0  0  0
  4 28  1  0  0  0  0
  5  6  1  0  0  0  0
  5 22  1  0  0  0  0
  6  7  1  0  0  0  0
  6 29  1  0  0  0  0
  6 30  1  0  0  0  0
  7  8  1  0  0  0  0
  7 31  1  0  0  0  0
  7 32  1  0  0  0  0
  8  9  1  0  0  0  0
  8 33  1  0  0  0  0
  9 10  2  0  0  0  0
  9 11  1  0  0  0  0
 11 12  1  0  0  0  0
 11 34  1  0  0  0  0
 12 21  1  0  0  0  0
 12 13  1  0  0  0  0
 12 35  1  0  0  0  0
 13 14  1  0  0  0  0
 13 36  1  0  0  0  0
 13 37  1  0  0  0  0
 14 15  1  0  0  0  0
 14 38  1  0  0  0  0
 14 39  1  0  0  0  0
 15 16  1  0  0  0  0
 15 40  1  0  0  0  0
 15 41  1  0  0  0  0
 16 17  1  0  0  0  0
 16 21  1  0  0  0  0
 16 42  1  0  0  0  0
 17 18  1  0  0  0  0
 17 19  1  0  0  0  0
 17 20  1  0  0  0  0
 21 43  1  0  0  0  0
 21 44  1  0  0  0  0
 22 23  2  0  0  0  0
 22 45  1  0  0  0  0
 23 46  1  0  0  0  0
M  CHG  1  23   1
M  END
> <s_m_source_file>
AV-unprocessed.smi

> <i_m_source_file_index>
937

> <i_lp_mmshare_version>
43012

> <i_f3d_flags>
0

> <s_epik_input>
W0NIM11jMVtjSF1bY0hdYyhbY0hdbjEpW0NIMl1bQ0gyXVtOSF1DKD1PKVtOSF1bQ0BASF0yW0NIMl1bQ0gyXVtDSDJdW0NAQEhdKEMoRikoRilGKVtDSDJdMg==

> <s_epik_cmdline>
J2VwaWtfcHl0aG9uJywgJy1waCcsICc3LjAnLCAnLXRuJywgJzgnLCAnLW1hJywgJzIwMCcsICctbWV0YWxfYmluZGluZycsICctaW1hZScsICc8aW5maWxlLm1hZT4nLCAnLW9tYWUnLCAnPG91dGZpbGUubWFlPic=

> <r_epik_Ionization_Penalty>
1.4226

> <r_epik_Ionization_Penalty_Charging>
1.42255

> <r_epik_Ionization_Penalty_Neutral>
5.16456e-05

> <r_epik_State_Penalty>
1.50646

> <r_epik_Charging_Adjusted_Penalty>
2.92901

> <i_epik_Tot_Q>
1

> <i_epik_Tot_abs_Q>
1

> <r_epik_Metal_State_Penalty>
1.55846

> <b_epik_Metal_Only>
0

> <s_lp_Force_Field>
OPLS_2005

> <r_lp_Energy>
24.5693

> <b_lp_Chiralities_Consistent>
1

> <s_lp_Variant>
AV-unprocessed.smi:937-6

> <Gold.Version>
5.8.1

> <Gold.Id.Protein>
6NUR|6NUR_protein|mol2

> <Gold.PLP.Fitness>
50.3828

> <Gold.PLP.PLP>
-40.2016

> <Gold.PLP.part.hbond>
-2.8737

> <Gold.PLP.part.metal>
0.0000

> <Gold.PLP.part.buried>
-5.1600

> <Gold.PLP.part.nonpolar>
-33.4671

> <Gold.PLP.part.repulsive>
0.1757

> <Gold.PLP.ligand.clash>
0.0000

> <Gold.PLP.ligand.torsion>
0.5143

> <Gold.PLP.Chemscore.Hbond>
3.7273

> <Gold.PLP.Chemscore.CHOScore>
0.0000

> <Gold.PLP.Chemscore.Metal>
0.0000

> <Gold.Chemscore.Hbonds>
donor molecule, donor type, donor heavy atom, donor atom, acceptor molecule, acceptor atom, score
      L1  H     8    33       P1  7948  0.80
      L1  H    11    34       P1  7948  1.00
      L1  H    23    46       P1  8028  1.86

> <Gold.PLP.Chemscore.Internal.Correction>
0.0280

> <Gold.Rescore>
     Score         DG    S(hbond)    S(metal)    S(lipo)     H(rot)  DE(clash)    DE(int)     intcor
     20.64     -21.39       2.76        0.00      93.46       1.66       0.38       0.36       ----

> <Gold.Chemscore.Fitness>
20.6429

> <Gold.Chemscore.DG>
-21.3858

> <Gold.Chemscore.ZeroCoef>
-5.4800

> <Gold.Chemscore.Hbond>
2.7593

> <Gold.Chemscore.Metal>
0.0000

> <Gold.Chemscore.Lipo>
93.4645

> <Gold.Chemscore.Internal_Hbond>
0.0000

> <Gold.Chemscore.DEClash>
0.3806

> <Gold.Chemscore.DEInternal>
0.3624

> <Gold.Chemscore.Rot>
1.6585

> <Gold.Chemscore.Internal.Correction>
   9.000000E+99

> <Gold.Chemscore.Hbonds>
donor molecule, donor type, donor heavy atom, donor atom, acceptor molecule, acceptor atom, score
      L1  H     8    33       P1  7948  0.79
      L1  H    11    34       P1  7948  0.95
      L1  H    23    46       P1  8028  0.90

> <Gold.Chemscore.Hbond.Weighted>
-9.2162

> <Gold.Chemscore.Metal.Weighted>
-0.0000

> <Gold.Chemscore.Lipo.Weighted>
-10.9354

> <Gold.Chemscore.Internal_Hbond.Weighted>
0.0000

> <Gold.Chemscore.DEClash.Weighted>
0.3806

> <Gold.Chemscore.DEInternal.Weighted>
0.3624

> <Gold.Chemscore.Rot.Weighted>
4.2457

> <Gold.Chemscore.Internal.Correction.Weighted>
   9.000000E+99

> <Gold.Protein.RotatedTorsions>
[ 6907 6896 6895 6894 ] final  -44.70 input  -60.11 | X-H torsion
[ 7974 7965 7964 7962 ] final -148.46 input  175.53 | X-H torsion
[ 8008 7997 7996 7995 ] final  -95.89 input   59.86 | X-H torsion
[ 10167 10162 10161 10158 ] final  139.75 input  -65.29 | X-H torsion
[ 10718 10713 10712 10709 ] final  -10.33 input   66.30 | X-H torsion
[ 10763 10752 10751 10750 ] final   37.26 input  -60.55 | X-H torsion
[ 11005 11000 10999 10996 ] final -112.87 input  -57.11 | X-H torsion

> <Gold.Protein.ActiveResidues>
 VAL166  LYS551  ARG553  GLY616  TRP617  ASP618  TYR619  PRO620  LYS621  CYS622 
 ASP623  PHE694  ASN695  SER759  ASP760  ASP761  ALA762  ILE779  LEU786  VAL792 
 PHE793  MET794  SER795  GLU796  ALA797  LYS798  CYS799  TRP800  GLU811  SER814 

> <Gold.Protein.RotatedAtoms>
  150.9300  134.8715  159.7544 H   0  0  0  0  0  0  0  0  0  0  0  0  # atno 6907 bound_to 6896
  152.5033  134.4093  159.9453 H   0  0  0  0  0  0  0  0  0  0  0  0  # atno 6908 bound_to 6896
  151.4121  133.3684  159.2780 H   0  0  0  0  0  0  0  0  0  0  0  0  # atno 6909 bound_to 6896
  144.8028  140.5193  143.5695 H   0  0  0  0  0  0  0  0  0  0  0  0  # atno 7974 bound_to 7965
  154.7673  140.0476  157.1022 H   0  0  0  0  0  0  0  0  0  0  0  0  # atno 8008 bound_to 7997
  154.9864  140.3108  155.4905 H   0  0  0  0  0  0  0  0  0  0  0  0  # atno 8009 bound_to 7997
  156.2915  140.2226  156.4966 H   0  0  0  0  0  0  0  0  0  0  0  0  # atno 8010 bound_to 7997
  139.5069  144.6276  151.5899 H   0  0  0  0  0  0  0  0  0  0  0  0  # atno 10167 bound_to 10162
  156.6751  130.5020  149.5988 H   0  0  0  0  0  0  0  0  0  0  0  0  # atno 10718 bound_to 10713
  153.0044  135.6283  154.2116 H   0  0  0  0  0  0  0  0  0  0  0  0  # atno 10763 bound_to 10752
  154.1860  135.2811  155.3039 H   0  0  0  0  0  0  0  0  0  0  0  0  # atno 10764 bound_to 10752
  154.5797  135.5651  153.7233 H   0  0  0  0  0  0  0  0  0  0  0  0  # atno 10765 bound_to 10752
  141.0649  133.9475  157.2597 H   0  0  0  0  0  0  0  0  0  0  0  0  # atno 11005 bound_to 11000
  145.5511  139.1477  143.3393 LP  0  0  0  0  0  0  0  0  0  0  0  0  # atno 17320 bound_to 7965
  146.2313  140.5649  142.8974 LP  0  0  0  0  0  0  0  0  0  0  0  0  # atno 17321 bound_to 7965
  140.5997  143.9631  150.6378 LP  0  0  0  0  0  0  0  0  0  0  0  0  # atno 17342 bound_to 10162
  140.2839  143.3370  152.1125 LP  0  0  0  0  0  0  0  0  0  0  0  0  # atno 17343 bound_to 10162
  156.1910  130.6559  151.1061 LP  0  0  0  0  0  0  0  0  0  0  0  0  # atno 17370 bound_to 10713
  157.7063  131.0754  150.6654 LP  0  0  0  0  0  0  0  0  0  0  0  0  # atno 17371 bound_to 10713
  139.9467  135.0183  156.8873 LP  0  0  0  0  0  0  0  0  0  0  0  0  # atno 17394 bound_to 11000
  140.5793  134.0367  155.7458 LP  0  0  0  0  0  0  0  0  0  0  0  0  # atno 17395 bound_to 11000

$$$$
