AV-unprocessed.smi:2690|AV-procd|sdf|10389|dock4
  -GOLD-   2272014423D 1   1.00000     0.00000
 Structure written by MMmdl.
 47 49  0  0  0  0  0  0  0  0  1 V2000
  154.7131  141.7289  160.5295 C   0  0  0  0  0  0  0  0  0  0  0  0
  153.3625  142.3520  160.1499 C   0  0  2  0  0  0  0  0  0  0  0  0
  152.4022  141.2983  159.5667 C   0  0  0  0  0  0  0  0  0  0  0  0
  151.0537  141.9207  159.1640 C   0  0  0  0  0  0  0  0  0  0  0  0
  151.2136  143.1008  158.1787 C   0  0  2  0  0  0  0  0  0  0  0  0
  149.9459  143.7245  158.0887 O   0  0  0  0  0  0  0  0  0  0  0  0
  151.5984  142.6145  156.7538 C   0  0  0  0  0  0  0  0  0  0  0  0
  150.7264  141.5773  156.2198 N   0  0  0  0  0  0  0  0  0  0  0  0
  149.3780  141.6858  155.9585 C   0  0  0  0  0  0  0  0  0  0  0  0
  148.8117  140.6104  155.4822 N   0  0  0  0  0  0  0  0  0  0  0  0
  149.8467  139.6867  155.4200 C   0  0  0  0  0  0  0  0  0  0  0  0
  149.9321  138.3328  155.0034 C   0  0  0  0  0  0  0  0  0  0  0  0
  148.8436  137.6760  154.5435 N   0  0  0  0  0  0  0  0  0  0  0  0
  147.5097  137.9448  155.0740 C   0  0  0  0  0  0  0  0  0  0  0  0
  147.2547  137.1604  156.3720 C   0  0  0  0  0  0  0  0  0  0  0  0
  146.4499  137.6108  154.0161 C   0  0  0  0  0  0  0  0  0  0  0  0
  151.1425  137.7207  155.0896 N   0  0  0  0  0  0  0  0  0  0  0  0
  152.2018  138.3924  155.5514 C   0  0  0  0  0  0  0  0  0  0  0  0
  152.2691  139.6571  155.9731 N   0  0  0  0  0  0  0  0  0  0  0  0
  151.0560  140.2742  155.8865 C   0  0  0  0  0  0  0  0  0  0  0  0
  152.1904  144.1452  158.7703 C   0  0  0  0  0  0  0  0  0  0  0  0
  153.5415  143.5238  159.1666 C   0  0  0  0  0  0  0  0  0  0  0  0
  155.2165  141.3122  159.6566 H   0  0  0  0  0  0  0  0  0  0  0  0
  154.5847  140.9255  161.2552 H   0  0  0  0  0  0  0  0  0  0  0  0
  155.3771  142.4711  160.9735 H   0  0  0  0  0  0  0  0  0  0  0  0
  152.9142  142.7464  161.0630 H   0  0  0  0  0  0  0  0  0  0  0  0
  152.8610  140.8129  158.7050 H   0  0  0  0  0  0  0  0  0  0  0  0
  152.2301  140.5098  160.3003 H   0  0  0  0  0  0  0  0  0  0  0  0
  150.4051  141.1543  158.7376 H   0  0  0  0  0  0  0  0  0  0  0  0
  150.5545  142.2675  160.0704 H   0  0  0  0  0  0  0  0  0  0  0  0
  149.6648  143.7034  157.1868 H   0  0  0  0  0  0  0  0  0  0  0  0
  151.5981  143.4471  156.0509 H   0  0  0  0  0  0  0  0  0  0  0  0
  152.6180  142.2268  156.7530 H   0  0  0  0  0  0  0  0  0  0  0  0
  148.8230  142.5968  156.1293 H   0  0  0  0  0  0  0  0  0  0  0  0
  148.9012  136.9395  153.8550 H   0  0  0  0  0  0  0  0  0  0  0  0
  147.4238  139.0107  155.2881 H   0  0  0  0  0  0  0  0  0  0  0  0
  146.2598  137.3698  156.7656 H   0  0  0  0  0  0  0  0  0  0  0  0
  147.9728  137.4233  157.1490 H   0  0  0  0  0  0  0  0  0  0  0  0
  147.3257  136.0853  156.2052 H   0  0  0  0  0  0  0  0  0  0  0  0
  145.4478  137.8410  154.3789 H   0  0  0  0  0  0  0  0  0  0  0  0
  146.4726  136.5536  153.7493 H   0  0  0  0  0  0  0  0  0  0  0  0
  146.6096  138.1885  153.1052 H   0  0  0  0  0  0  0  0  0  0  0  0
  153.1273  137.8369  155.5876 H   0  0  0  0  0  0  0  0  0  0  0  0
  152.3482  144.9722  158.0778 H   0  0  0  0  0  0  0  0  0  0  0  0
  151.7468  144.5908  159.6622 H   0  0  0  0  0  0  0  0  0  0  0  0
  154.1734  144.2911  159.6152 H   0  0  0  0  0  0  0  0  0  0  0  0
  154.0681  143.1781  158.2776 H   0  0  0  0  0  0  0  0  0  0  0  0
  1  2  1  0  0  0  0
  1 23  1  0  0  0  0
  1 24  1  0  0  0  0
  1 25  1  0  0  0  0
  2 22  1  0  0  0  0
  2  3  1  0  0  0  0
  2 26  1  0  0  0  0
  3  4  1  0  0  0  0
  3 27  1  0  0  0  0
  3 28  1  0  0  0  0
  4  5  1  0  0  0  0
  4 29  1  0  0  0  0
  4 30  1  0  0  0  0
  5  6  1  0  0  0  0
  5  7  1  0  0  0  0
  5 21  1  0  0  0  0
  6 31  1  0  0  0  0
  7  8  1  0  0  0  0
  7 32  1  0  0  0  0
  7 33  1  0  0  0  0
  8 20  1  0  0  0  0
  8  9  1  0  0  0  0
  9 10  2  0  0  0  0
  9 34  1  0  0  0  0
 10 11  1  0  0  0  0
 11 20  2  0  0  0  0
 11 12  1  0  0  0  0
 12 13  1  0  0  0  0
 12 17  2  0  0  0  0
 13 14  1  0  0  0  0
 13 35  1  0  0  0  0
 14 15  1  0  0  0  0
 14 16  1  0  0  0  0
 14 36  1  0  0  0  0
 15 37  1  0  0  0  0
 15 38  1  0  0  0  0
 15 39  1  0  0  0  0
 16 40  1  0  0  0  0
 16 41  1  0  0  0  0
 16 42  1  0  0  0  0
 17 18  1  0  0  0  0
 18 19  2  0  0  0  0
 18 43  1  0  0  0  0
 19 20  1  0  0  0  0
 21 22  1  0  0  0  0
 21 44  1  0  0  0  0
 21 45  1  0  0  0  0
 22 46  1  0  0  0  0
 22 47  1  0  0  0  0
M  END
> <s_m_source_file>
AV-unprocessed.smi

> <i_m_source_file_index>
2690

> <i_lp_mmshare_version>
43012

> <i_f3d_flags>
0

> <s_epik_input>
W0NIMl0xW0NIMl1bQ0BIXShbQ0gzXSlbQ0gyXVtDSDJdW0NAQF0xKFtPSF0pW0NIMl1uKFtjSF1uMiljKGMyMyluW2NIXW5jM1tOSF1bQ0hdKFtDSDNdKVtDSDNd

> <s_epik_cmdline>
J2VwaWtfcHl0aG9uJywgJy1waCcsICc3LjAnLCAnLXRuJywgJzgnLCAnLW1hJywgJzIwMCcsICctbWV0YWxfYmluZGluZycsICctaW1hZScsICc8aW5maWxlLm1hZT4nLCAnLW9tYWUnLCAnPG91dGZpbGUubWFlPic=

> <r_lp_tautomer_probability>
1

> <r_epik_Ionization_Penalty>
0.00225104

> <r_epik_Ionization_Penalty_Charging>
0

> <r_epik_Ionization_Penalty_Neutral>
0.00225104

> <r_epik_State_Penalty>
-0

> <r_epik_Charging_Adjusted_Penalty>
0

> <i_epik_Tot_Q>
0

> <i_epik_Tot_abs_Q>
0

> <r_epik_Metal_State_Penalty>
-0

> <b_epik_Metal_Only>
0

> <s_lp_Force_Field>
OPLS_2005

> <r_lp_Energy>
15.1009

> <b_lp_Chiralities_Consistent>
1

> <s_lp_Variant>
AV-unprocessed.smi:2690-2

> <Gold.Version>
5.8.1

> <Gold.Id.Protein>
6NUR|6NUR_protein|mol2

> <Gold.PLP.Fitness>
50.5535

> <Gold.PLP.PLP>
-40.7000

> <Gold.PLP.part.hbond>
-4.6220

> <Gold.PLP.part.metal>
0.0000

> <Gold.PLP.part.buried>
-0.2532

> <Gold.PLP.part.nonpolar>
-35.6410

> <Gold.PLP.part.repulsive>
0.3577

> <Gold.PLP.ligand.clash>
0.0000

> <Gold.PLP.ligand.torsion>
0.6160

> <Gold.PLP.Chemscore.Hbond>
2.6825

> <Gold.PLP.Chemscore.CHOScore>
1.0000

> <Gold.PLP.Chemscore.Metal>
0.0000

> <Gold.Chemscore.Hbonds>
donor molecule, donor type, donor heavy atom, donor atom, acceptor molecule, acceptor atom, score
      L1  H     6    31       P1  8028  0.91
      L1  H    13    35       P1  7948  0.81
      P1  H  7997  8008       L1    19  0.71
      L1  C     9    34       P1  8028  1.00

> <Gold.PLP.Chemscore.Internal.Correction>
0.0381

> <Gold.Rescore>
     Score         DG    S(hbond)    S(metal)    S(lipo)     H(rot)  DE(clash)    DE(int)     intcor
     13.58     -16.76       1.43        0.00     100.50       2.05       2.14       1.04       ----

> <Gold.Chemscore.Fitness>
13.5841

> <Gold.Chemscore.DG>
-16.7634

> <Gold.Chemscore.ZeroCoef>
-5.4800

> <Gold.Chemscore.Hbond>
1.4310

> <Gold.Chemscore.Metal>
0.0000

> <Gold.Chemscore.Lipo>
100.5007

> <Gold.Chemscore.Internal_Hbond>
0.0000

> <Gold.Chemscore.DEClash>
2.1417

> <Gold.Chemscore.DEInternal>
1.0377

> <Gold.Chemscore.Rot>
2.0526

> <Gold.Chemscore.Internal.Correction>
   9.000000E+99

> <Gold.Chemscore.Hbonds>
donor molecule, donor type, donor heavy atom, donor atom, acceptor molecule, acceptor atom, score
      L1  H     6    31       P1  8028  0.75
      L1  H    13    35       P1  7948  0.78
      P1  H  7997  8008       L1    19  0.43

> <Gold.Chemscore.Hbond.Weighted>
-4.7795

> <Gold.Chemscore.Metal.Weighted>
-0.0000

> <Gold.Chemscore.Lipo.Weighted>
-11.7586

> <Gold.Chemscore.Internal_Hbond.Weighted>
0.0000

> <Gold.Chemscore.DEClash.Weighted>
2.1417

> <Gold.Chemscore.DEInternal.Weighted>
1.0377

> <Gold.Chemscore.Rot.Weighted>
5.2546

> <Gold.Chemscore.Internal.Correction.Weighted>
   9.000000E+99

> <Gold.Protein.RotatedTorsions>
[ 6907 6896 6895 6894 ] final  119.89 input  -60.11 | X-H torsion
[ 7974 7965 7964 7962 ] final -166.59 input  175.53 | X-H torsion
[ 8008 7997 7996 7995 ] final  -34.31 input   59.86 | X-H torsion
[ 10167 10162 10161 10158 ] final  -99.87 input  -65.29 | X-H torsion
[ 10718 10713 10712 10709 ] final  -43.61 input   66.30 | X-H torsion
[ 10763 10752 10751 10750 ] final   31.79 input  -60.55 | X-H torsion
[ 11005 11000 10999 10996 ] final -103.60 input  -57.11 | X-H torsion

> <Gold.Protein.ActiveResidues>
 VAL166  LYS551  ARG553  GLY616  TRP617  ASP618  TYR619  PRO620  LYS621  CYS622 
 ASP623  PHE694  ASN695  SER759  ASP760  ASP761  ALA762  ILE779  LEU786  VAL792 
 PHE793  MET794  SER795  GLU796  ALA797  LYS798  CYS799  TRP800  GLU811  SER814 

> <Gold.Protein.RotatedAtoms>
  152.4439  133.7499  159.6687 H   0  0  0  0  0  0  0  0  0  0  0  0  # atno 6907 bound_to 6896
  150.8335  133.8042  159.3095 H   0  0  0  0  0  0  0  0  0  0  0  0  # atno 6908 bound_to 6896
  151.5688  135.1065  160.0042 H   0  0  0  0  0  0  0  0  0  0  0  0  # atno 6909 bound_to 6896
  144.7242  140.2644  143.6260 H   0  0  0  0  0  0  0  0  0  0  0  0  # atno 7974 bound_to 7965
  154.4124  140.1687  156.2030 H   0  0  0  0  0  0  0  0  0  0  0  0  # atno 8008 bound_to 7997
  155.9508  140.3401  155.6383 H   0  0  0  0  0  0  0  0  0  0  0  0  # atno 8009 bound_to 7997
  155.6872  140.0729  157.2453 H   0  0  0  0  0  0  0  0  0  0  0  0  # atno 8010 bound_to 7997
  140.2579  143.3427  152.0653 H   0  0  0  0  0  0  0  0  0  0  0  0  # atno 10167 bound_to 10162
  156.2472  130.4185  149.8692 H   0  0  0  0  0  0  0  0  0  0  0  0  # atno 10718 bound_to 10713
  153.0297  135.6430  154.1254 H   0  0  0  0  0  0  0  0  0  0  0  0  # atno 10763 bound_to 10752
  154.0978  135.2861  155.3259 H   0  0  0  0  0  0  0  0  0  0  0  0  # atno 10764 bound_to 10752
  154.6420  135.5456  153.7863 H   0  0  0  0  0  0  0  0  0  0  0  0  # atno 10765 bound_to 10752
  141.1139  133.8653  157.1506 H   0  0  0  0  0  0  0  0  0  0  0  0  # atno 11005 bound_to 11000
  145.8104  139.2001  143.1996 LP  0  0  0  0  0  0  0  0  0  0  0  0  # atno 17320 bound_to 7965
  146.0600  140.7980  142.9739 LP  0  0  0  0  0  0  0  0  0  0  0  0  # atno 17321 bound_to 7965
  139.5026  144.6738  151.6179 LP  0  0  0  0  0  0  0  0  0  0  0  0  # atno 17342 bound_to 10162
  140.5989  143.9645  150.6373 LP  0  0  0  0  0  0  0  0  0  0  0  0  # atno 17343 bound_to 10162
  156.6253  130.8643  151.3484 LP  0  0  0  0  0  0  0  0  0  0  0  0  # atno 17370 bound_to 10713
  157.7200  130.9545  150.1400 LP  0  0  0  0  0  0  0  0  0  0  0  0  # atno 17371 bound_to 10713
  140.0048  135.0013  157.0269 LP  0  0  0  0  0  0  0  0  0  0  0  0  # atno 17394 bound_to 11000
  140.4701  134.1395  155.7202 LP  0  0  0  0  0  0  0  0  0  0  0  0  # atno 17395 bound_to 11000

$$$$
