AV-unprocessed.smi:1072|AV-procd|sdf|4686|dock6
  -GOLD-   22720 3203D 1   1.00000     0.00000
 Structure written by MMmdl.
 46 47  0  0  0  0  0  0  0  0  1 V2000
  152.2864  142.0853  157.9846 C   0  0  0  0  0  0  0  0  0  0  0  0
  151.9631  140.9688  157.0158 C   0  0  0  0  0  0  0  0  0  0  0  0
  150.8200  141.1951  156.2670 N   0  0  0  0  0  0  0  0  0  0  0  0
  150.4432  140.2275  155.3527 C   0  0  0  0  0  0  0  0  0  0  0  0
  149.1798  140.5523  154.5746 C   0  0  0  0  0  0  0  0  0  0  0  0
  151.1714  139.0940  155.1890 C   0  0  0  0  0  0  0  0  0  0  0  0
  150.7891  138.0052  154.1872 C   0  0  0  0  0  0  0  0  0  0  0  0
  150.5604  136.6105  154.7750 C   0  0  0  0  0  0  0  0  0  0  0  0
  151.4249  136.0906  155.4799 O   0  0  0  0  0  0  0  0  0  0  0  0
  149.3894  136.0266  154.4614 N   0  0  0  0  0  0  0  0  0  0  0  0
  148.8794  134.6996  154.8349 C   0  0  1  0  0  0  0  0  0  0  0  0
  148.7104  134.7449  156.3689 C   0  0  0  0  0  0  0  0  0  0  0  0
  147.5086  134.4361  154.1521 C   0  0  0  0  0  0  0  0  0  0  0  0
  146.9905  133.0025  154.3662 C   0  0  0  0  0  0  0  0  0  0  0  0
  148.0225  131.9517  153.9195 C   0  0  2  0  0  0  0  0  0  0  0  0
  147.4949  130.5245  154.1244 C   0  0  0  0  0  0  0  0  0  0  0  0
  149.3589  132.1691  154.6517 C   0  0  0  0  0  0  0  0  0  0  0  0
  149.8987  133.5950  154.4402 C   0  0  0  0  0  0  0  0  0  0  0  0
  152.3900  138.9123  156.0126 C   0  0  0  0  0  0  0  0  0  0  0  0
  153.1009  137.9145  155.9005 O   0  0  0  0  0  0  0  0  0  0  0  0
  152.7239  139.9200  156.9320 N   0  0  0  0  0  0  0  0  0  0  0  0
  150.2524  142.0259  156.3537 H   0  0  0  0  0  0  0  0  0  0  0  0
  153.0795  141.7878  158.6718 H   0  0  0  0  0  0  0  0  0  0  0  0
  151.4073  142.3477  158.5742 H   0  0  0  0  0  0  0  0  0  0  0  0
  152.6183  142.9709  157.4419 H   0  0  0  0  0  0  0  0  0  0  0  0
  148.4115  139.8028  154.7648 H   0  0  0  0  0  0  0  0  0  0  0  0
  149.3857  140.5725  153.5040 H   0  0  0  0  0  0  0  0  0  0  0  0
  148.7740  141.5252  154.8548 H   0  0  0  0  0  0  0  0  0  0  0  0
  151.5790  137.9426  153.4378 H   0  0  0  0  0  0  0  0  0  0  0  0
  149.8979  138.2890  153.6270 H   0  0  0  0  0  0  0  0  0  0  0  0
  148.7707  136.5691  153.8763 H   0  0  0  0  0  0  0  0  0  0  0  0
  148.3339  133.8081  156.7772 H   0  0  0  0  0  0  0  0  0  0  0  0
  148.0106  135.5273  156.6656 H   0  0  0  0  0  0  0  0  0  0  0  0
  149.6594  134.9518  156.8651 H   0  0  0  0  0  0  0  0  0  0  0  0
  146.7668  135.1518  154.5082 H   0  0  0  0  0  0  0  0  0  0  0  0
  147.5803  134.5956  153.0767 H   0  0  0  0  0  0  0  0  0  0  0  0
  146.7325  132.8493  155.4142 H   0  0  0  0  0  0  0  0  0  0  0  0
  146.0638  132.8692  153.8071 H   0  0  0  0  0  0  0  0  0  0  0  0
  148.1989  132.0863  152.8513 H   0  0  0  0  0  0  0  0  0  0  0  0
  147.2964  130.3226  155.1775 H   0  0  0  0  0  0  0  0  0  0  0  0
  148.2151  129.7851  153.7732 H   0  0  0  0  0  0  0  0  0  0  0  0
  146.5669  130.3669  153.5744 H   0  0  0  0  0  0  0  0  0  0  0  0
  149.2369  131.9690  155.7163 H   0  0  0  0  0  0  0  0  0  0  0  0
  150.0965  131.4499  154.2940 H   0  0  0  0  0  0  0  0  0  0  0  0
  150.1708  133.6838  153.3890 H   0  0  0  0  0  0  0  0  0  0  0  0
  150.8277  133.7230  154.9973 H   0  0  0  0  0  0  0  0  0  0  0  0
  1 23  1  0  0  0  0
  1 24  1  0  0  0  0
  1 25  1  0  0  0  0
  1  2  1  0  0  0  0
  2  3  1  0  0  0  0
  2 21  2  0  0  0  0
  3  4  1  0  0  0  0
  3 22  1  0  0  0  0
  4  6  2  0  0  0  0
  4  5  1  0  0  0  0
  5 26  1  0  0  0  0
  5 27  1  0  0  0  0
  5 28  1  0  0  0  0
  6 19  1  0  0  0  0
  6  7  1  0  0  0  0
  7  8  1  0  0  0  0
  7 29  1  0  0  0  0
  7 30  1  0  0  0  0
  8  9  2  0  0  0  0
  8 10  1  0  0  0  0
 10 11  1  0  0  0  0
 10 31  1  0  0  0  0
 11 18  1  0  0  0  0
 11 12  1  0  0  0  0
 11 13  1  0  0  0  0
 12 32  1  0  0  0  0
 12 33  1  0  0  0  0
 12 34  1  0  0  0  0
 13 14  1  0  0  0  0
 13 35  1  0  0  0  0
 13 36  1  0  0  0  0
 14 15  1  0  0  0  0
 14 37  1  0  0  0  0
 14 38  1  0  0  0  0
 15 16  1  0  0  0  0
 15 17  1  0  0  0  0
 15 39  1  0  0  0  0
 16 40  1  0  0  0  0
 16 41  1  0  0  0  0
 16 42  1  0  0  0  0
 17 18  1  0  0  0  0
 17 43  1  0  0  0  0
 17 44  1  0  0  0  0
 18 45  1  0  0  0  0
 18 46  1  0  0  0  0
 19 20  2  0  0  0  0
 19 21  1  0  0  0  0
M  END
> <s_m_source_file>
AV-unprocessed.smi

> <i_m_source_file_index>
1072

> <i_lp_mmshare_version>
43012

> <i_f3d_flags>
0

> <s_epik_input>
W0NIM11jMW5jKFtDSDNdKWMoYyg9TylbbkhdMSlbQ0gyXUMoPU8pW05IXVtDQEBdMihbQ0gzXSlbQ0gyXVtDSDJdW0NAQEhdKFtDSDNdKVtDSDJdW0NIMl0y

> <s_epik_cmdline>
J2VwaWtfcHl0aG9uJywgJy1waCcsICc3LjAnLCAnLXRuJywgJzgnLCAnLW1hJywgJzIwMCcsICctbWV0YWxfYmluZGluZycsICctaW1hZScsICc8aW5maWxlLm1hZT4nLCAnLW9tYWUnLCAnPG91dGZpbGUubWFlPic=

> <r_lp_tautomer_probability>
0.156392

> <r_epik_Ionization_Penalty>
0.0131066

> <r_epik_Ionization_Penalty_Charging>
0.0129643

> <r_epik_Ionization_Penalty_Neutral>
0.000142248

> <r_epik_State_Penalty>
1.15342

> <r_epik_Charging_Adjusted_Penalty>
1.16638

> <i_epik_Tot_Q>
0

> <i_epik_Tot_abs_Q>
0

> <r_epik_Metal_State_Penalty>
1.30766

> <b_epik_Metal_Only>
0

> <s_lp_Force_Field>
OPLS_2005

> <r_lp_Energy>
18.066

> <b_lp_Chiralities_Consistent>
1

> <s_lp_Variant>
AV-unprocessed.smi:1072-4

> <Gold.Version>
5.8.1

> <Gold.Id.Protein>
6NUR|6NUR_protein|mol2

> <Gold.PLP.Fitness>
38.3717

> <Gold.PLP.PLP>
-31.7919

> <Gold.PLP.part.hbond>
-3.0000

> <Gold.PLP.part.metal>
0.0000

> <Gold.PLP.part.buried>
-3.3648

> <Gold.PLP.part.nonpolar>
-25.0667

> <Gold.PLP.part.repulsive>
0.1976

> <Gold.PLP.ligand.clash>
0.0000

> <Gold.PLP.ligand.torsion>
0.0881

> <Gold.PLP.Chemscore.Hbond>
2.2500

> <Gold.PLP.Chemscore.CHOScore>
0.0000

> <Gold.PLP.Chemscore.Metal>
0.0000

> <Gold.Chemscore.Hbonds>
donor molecule, donor type, donor heavy atom, donor atom, acceptor molecule, acceptor atom, score
      L1  H    10    31       P1  7948  0.28
      P1  H  7997  8009       L1    21  1.00
      P1  H 10752 10763       L1     9  1.00

> <Gold.PLP.Chemscore.Internal.Correction>
0.0059

> <Gold.Rescore>
     Score         DG    S(hbond)    S(metal)    S(lipo)     H(rot)  DE(clash)    DE(int)     intcor
     13.54     -16.12       1.85        0.00      70.20       1.47       0.07       2.51       ----

> <Gold.Chemscore.Fitness>
13.5430

> <Gold.Chemscore.DG>
-16.1180

> <Gold.Chemscore.ZeroCoef>
-5.4800

> <Gold.Chemscore.Hbond>
1.8519

> <Gold.Chemscore.Metal>
0.0000

> <Gold.Chemscore.Lipo>
70.1989

> <Gold.Chemscore.Internal_Hbond>
0.0000

> <Gold.Chemscore.DEClash>
0.0669

> <Gold.Chemscore.DEInternal>
2.5081

> <Gold.Chemscore.Rot>
1.4690

> <Gold.Chemscore.Internal.Correction>
   9.000000E+99

> <Gold.Chemscore.Hbonds>
donor molecule, donor type, donor heavy atom, donor atom, acceptor molecule, acceptor atom, score
      L1  H    10    31       P1  7948  0.26
      P1  H  7997  8009       L1    21  0.42
      P1  H 10752 10763       L1     9  0.97

> <Gold.Chemscore.Hbond.Weighted>
-6.1854

> <Gold.Chemscore.Metal.Weighted>
-0.0000

> <Gold.Chemscore.Lipo.Weighted>
-8.2133

> <Gold.Chemscore.Internal_Hbond.Weighted>
0.0000

> <Gold.Chemscore.DEClash.Weighted>
0.0669

> <Gold.Chemscore.DEInternal.Weighted>
2.5081

> <Gold.Chemscore.Rot.Weighted>
3.7607

> <Gold.Chemscore.Internal.Correction.Weighted>
   9.000000E+99

> <Gold.Protein.RotatedTorsions>
[ 6907 6896 6895 6894 ] final   19.47 input  -60.11 | X-H torsion
[ 7974 7965 7964 7962 ] final  -28.37 input  175.53 | X-H torsion
[ 8008 7997 7996 7995 ] final  169.04 input   59.86 | X-H torsion
[ 10167 10162 10161 10158 ] final  119.09 input  -65.29 | X-H torsion
[ 10718 10713 10712 10709 ] final -147.70 input   66.30 | X-H torsion
[ 10763 10752 10751 10750 ] final   66.30 input  -60.55 | X-H torsion
[ 11005 11000 10999 10996 ] final   30.07 input  -57.11 | X-H torsion

> <Gold.Protein.ActiveResidues>
 VAL166  LYS551  ARG553  GLY616  TRP617  ASP618  TYR619  PRO620  LYS621  CYS622 
 ASP623  PHE694  ASN695  SER759  ASP760  ASP761  ALA762  ILE779  LEU786  VAL792 
 PHE793  MET794  SER795  GLU796  ALA797  LYS798  CYS799  TRP800  GLU811  SER814 

> <Gold.Protein.RotatedAtoms>
  151.8814  135.0452  160.0488 H   0  0  0  0  0  0  0  0  0  0  0  0  # atno 6907 bound_to 6896
  152.2509  133.5210  159.5333 H   0  0  0  0  0  0  0  0  0  0  0  0  # atno 6908 bound_to 6896
  150.7083  134.0877  159.3963 H   0  0  0  0  0  0  0  0  0  0  0  0  # atno 6909 bound_to 6896
  146.1293  140.5274  142.8700 H   0  0  0  0  0  0  0  0  0  0  0  0  # atno 7974 bound_to 7965
  156.1493  140.1574  156.8796 H   0  0  0  0  0  0  0  0  0  0  0  0  # atno 8008 bound_to 7997
  154.5056  140.0814  156.7925 H   0  0  0  0  0  0  0  0  0  0  0  0  # atno 8009 bound_to 7997
  155.3927  140.3410  155.4254 H   0  0  0  0  0  0  0  0  0  0  0  0  # atno 8010 bound_to 7997
  139.6069  144.7072  151.2933 H   0  0  0  0  0  0  0  0  0  0  0  0  # atno 10167 bound_to 10162
  156.4108  130.7980  151.2198 H   0  0  0  0  0  0  0  0  0  0  0  0  # atno 10718 bound_to 10713
  153.0134  135.5325  154.6801 H   0  0  0  0  0  0  0  0  0  0  0  0  # atno 10763 bound_to 10752
  154.5963  135.2864  155.0584 H   0  0  0  0  0  0  0  0  0  0  0  0  # atno 10764 bound_to 10752
  154.1658  135.6540  153.5049 H   0  0  0  0  0  0  0  0  0  0  0  0  # atno 10765 bound_to 10752
  140.2983  134.2786  155.7760 H   0  0  0  0  0  0  0  0  0  0  0  0  # atno 11005 bound_to 11000
  144.7674  140.5561  143.6694 LP  0  0  0  0  0  0  0  0  0  0  0  0  # atno 17320 bound_to 7965
  145.5296  139.1475  143.3507 LP  0  0  0  0  0  0  0  0  0  0  0  0  # atno 17321 bound_to 7965
  140.7291  143.6917  150.7917 LP  0  0  0  0  0  0  0  0  0  0  0  0  # atno 17342 bound_to 10162
  140.0504  143.5256  152.2676 LP  0  0  0  0  0  0  0  0  0  0  0  0  # atno 17343 bound_to 10162
  157.7507  131.0258  150.3935 LP  0  0  0  0  0  0  0  0  0  0  0  0  # atno 17370 bound_to 10713
  156.4233  130.3957  149.6810 LP  0  0  0  0  0  0  0  0  0  0  0  0  # atno 17371 bound_to 10713
  141.2133  133.7629  156.9728 LP  0  0  0  0  0  0  0  0  0  0  0  0  # atno 17394 bound_to 11000
  140.1132  134.9463  157.2097 LP  0  0  0  0  0  0  0  0  0  0  0  0  # atno 17395 bound_to 11000

$$$$
