AV-unprocessed.smi:2671|AV-procd|sdf|10353|dock5
  -GOLD-   2272014373D 1   1.00000     0.00000
 Structure written by MMmdl.
 29 30  0  0  0  0  0  0  0  0  1 V2000
  151.5744  137.1255  154.1427 O   0  0  0  0  0  0  0  0  0  0  0  0
  150.9717  138.2358  154.6560 C   0  0  0  0  0  0  0  0  0  0  0  0
  149.7436  138.6765  154.1209 C   0  0  0  0  0  0  0  0  0  0  0  0
  149.1786  139.8341  154.7042 C   0  0  0  0  0  0  0  0  0  0  0  0
  147.8578  140.4181  154.2266 C   0  0  0  0  0  0  0  0  0  0  0  0
  148.0562  141.6457  153.7458 F   0  0  0  0  0  0  0  0  0  0  0  0
  147.3107  139.6713  153.2664 F   0  0  0  0  0  0  0  0  0  0  0  0
  147.0028  140.4876  155.2468 F   0  0  0  0  0  0  0  0  0  0  0  0
  149.7902  140.4800  155.7234 N   0  0  0  0  0  0  0  0  0  0  0  0
  150.9478  139.9713  156.1474 C   0  0  0  0  0  0  0  0  0  0  0  0
  151.7173  140.8609  157.4907 S   0  0  0  0  0  0  0  0  0  0  0  0
  151.0206  142.5328  157.3235 C   0  0  0  0  0  0  0  0  0  0  0  0
  151.0553  143.2989  158.6527 C   0  0  1  0  0  0  0  0  0  0  0  0
  152.4590  143.6056  159.1774 C   0  0  0  0  0  0  0  0  0  0  0  0
  152.2714  144.8732  159.9984 C   0  0  0  0  0  0  0  0  0  0  0  0
  150.8627  145.3509  159.6363 C   0  0  0  0  0  0  0  0  0  0  0  0
  150.5025  144.5945  158.4897 O   0  0  0  0  0  0  0  0  0  0  0  0
  151.5720  138.8899  155.6733 N   0  0  0  0  0  0  0  0  0  0  0  0
  151.2550  136.8944  153.2843 H   0  0  0  0  0  0  0  0  0  0  0  0
  149.2638  138.1528  153.3073 H   0  0  0  0  0  0  0  0  0  0  0  0
  151.5698  143.0819  156.5580 H   0  0  0  0  0  0  0  0  0  0  0  0
  149.9885  142.4483  156.9824 H   0  0  0  0  0  0  0  0  0  0  0  0
  150.4769  142.7682  159.4113 H   0  0  0  0  0  0  0  0  0  0  0  0
  152.8762  142.7830  159.7591 H   0  0  0  0  0  0  0  0  0  0  0  0
  153.1389  143.8072  158.3484 H   0  0  0  0  0  0  0  0  0  0  0  0
  152.3519  144.6786  161.0684 H   0  0  0  0  0  0  0  0  0  0  0  0
  153.0248  145.6162  159.7346 H   0  0  0  0  0  0  0  0  0  0  0  0
  150.1636  145.1305  160.4442 H   0  0  0  0  0  0  0  0  0  0  0  0
  150.8208  146.4212  159.4333 H   0  0  0  0  0  0  0  0  0  0  0  0
  1  2  1  0  0  0  0
  1 19  1  0  0  0  0
  2 18  1  0  0  0  0
  2  3  2  0  0  0  0
  3  4  1  0  0  0  0
  3 20  1  0  0  0  0
  4  5  1  0  0  0  0
  4  9  2  0  0  0  0
  5  6  1  0  0  0  0
  5  7  1  0  0  0  0
  5  8  1  0  0  0  0
  9 10  1  0  0  0  0
 10 11  1  0  0  0  0
 10 18  2  0  0  0  0
 11 12  1  0  0  0  0
 12 13  1  0  0  0  0
 12 21  1  0  0  0  0
 12 22  1  0  0  0  0
 13 17  1  0  0  0  0
 13 14  1  0  0  0  0
 13 23  1  0  0  0  0
 14 15  1  0  0  0  0
 14 24  1  0  0  0  0
 14 25  1  0  0  0  0
 15 16  1  0  0  0  0
 15 26  1  0  0  0  0
 15 27  1  0  0  0  0
 16 17  1  0  0  0  0
 16 28  1  0  0  0  0
 16 29  1  0  0  0  0
M  END
> <s_m_source_file>
AV-unprocessed.smi

> <i_m_source_file_index>
2671

> <i_lp_mmshare_version>
43012

> <i_f3d_flags>
0

> <s_epik_input>
W09IXWMxW2NIXWMoQyhGKShGKUYpbmMobjEpU1tDSDJdW0NAQEhdMltDSDJdW0NIMl1bQ0gyXU8y

> <s_epik_cmdline>
J2VwaWtfcHl0aG9uJywgJy1waCcsICc3LjAnLCAnLXRuJywgJzgnLCAnLW1hJywgJzIwMCcsICctbWV0YWxfYmluZGluZycsICctaW1hZScsICc8aW5maWxlLm1hZT4nLCAnLW9tYWUnLCAnPG91dGZpbGUubWFlPic=

> <r_lp_tautomer_probability>
0.0660145

> <r_epik_Ionization_Penalty>
3.60098

> <r_epik_Ionization_Penalty_Charging>
0

> <r_epik_Ionization_Penalty_Neutral>
3.60098

> <r_epik_State_Penalty>
2.71709

> <r_epik_Charging_Adjusted_Penalty>
2.71709

> <i_epik_Tot_Q>
0

> <i_epik_Tot_abs_Q>
0

> <r_epik_Metal_State_Penalty>
3.44057

> <b_epik_Metal_Only>
0

> <s_lp_Force_Field>
OPLS_2005

> <r_lp_Energy>
10.3894

> <b_lp_Chiralities_Consistent>
1

> <s_lp_Variant>
AV-unprocessed.smi:2671-8

> <Gold.Version>
5.8.1

> <Gold.Id.Protein>
6NUR|6NUR_protein|mol2

> <Gold.PLP.Fitness>
42.8239

> <Gold.PLP.PLP>
-37.9339

> <Gold.PLP.part.hbond>
-2.0000

> <Gold.PLP.part.metal>
0.0000

> <Gold.PLP.part.buried>
-5.3835

> <Gold.PLP.part.nonpolar>
-30.9306

> <Gold.PLP.part.repulsive>
0.2435

> <Gold.PLP.ligand.clash>
0.0000

> <Gold.PLP.ligand.torsion>
0.5021

> <Gold.PLP.Chemscore.Hbond>
1.9600

> <Gold.PLP.Chemscore.CHOScore>
0.0000

> <Gold.PLP.Chemscore.Metal>
0.0000

> <Gold.Chemscore.Hbonds>
donor molecule, donor type, donor heavy atom, donor atom, acceptor molecule, acceptor atom, score
      L1  H     1    19       P1  7949  1.00
      P1  H 10752 10763       L1     1  0.90

> <Gold.PLP.Chemscore.Internal.Correction>
0.0142

> <Gold.Rescore>
     Score         DG    S(hbond)    S(metal)    S(lipo)     H(rot)  DE(clash)    DE(int)     intcor
     13.51     -14.38       1.65        0.00      78.45       2.27       0.36       0.51       ----

> <Gold.Chemscore.Fitness>
13.5050

> <Gold.Chemscore.DG>
-14.3760

> <Gold.Chemscore.ZeroCoef>
-5.4800

> <Gold.Chemscore.Hbond>
1.6515

> <Gold.Chemscore.Metal>
0.0000

> <Gold.Chemscore.Lipo>
78.4486

> <Gold.Chemscore.Internal_Hbond>
0.0000

> <Gold.Chemscore.DEClash>
0.3646

> <Gold.Chemscore.DEInternal>
0.5063

> <Gold.Chemscore.Rot>
2.2650

> <Gold.Chemscore.Internal.Correction>
   9.000000E+99

> <Gold.Chemscore.Hbonds>
donor molecule, donor type, donor heavy atom, donor atom, acceptor molecule, acceptor atom, score
      L1  H     1    19       P1  7949  0.62
      P1  H 10752 10763       L1     1  0.17

> <Gold.Chemscore.Hbond.Weighted>
-5.5159

> <Gold.Chemscore.Metal.Weighted>
-0.0000

> <Gold.Chemscore.Lipo.Weighted>
-9.1785

> <Gold.Chemscore.Internal_Hbond.Weighted>
0.0000

> <Gold.Chemscore.DEClash.Weighted>
0.3646

> <Gold.Chemscore.DEInternal.Weighted>
0.5063

> <Gold.Chemscore.Rot.Weighted>
5.7984

> <Gold.Chemscore.Internal.Correction.Weighted>
   9.000000E+99

> <Gold.Protein.RotatedTorsions>
[ 6907 6896 6895 6894 ] final  -97.97 input  -60.11 | X-H torsion
[ 7974 7965 7964 7962 ] final   24.73 input  175.53 | X-H torsion
[ 8008 7997 7996 7995 ] final -144.82 input   59.86 | X-H torsion
[ 10167 10162 10161 10158 ] final  115.34 input  -65.29 | X-H torsion
[ 10718 10713 10712 10709 ] final   79.32 input   66.30 | X-H torsion
[ 10763 10752 10751 10750 ] final   44.81 input  -60.55 | X-H torsion
[ 11005 11000 10999 10996 ] final   27.96 input  -57.11 | X-H torsion

> <Gold.Protein.ActiveResidues>
 VAL166  LYS551  ARG553  GLY616  TRP617  ASP618  TYR619  PRO620  LYS621  CYS622 
 ASP623  PHE694  ASN695  SER759  ASP760  ASP761  ALA762  ILE779  LEU786  VAL792 
 PHE793  MET794  SER795  GLU796  ALA797  LYS798  CYS799  TRP800  GLU811  SER814 

> <Gold.Protein.RotatedAtoms>
  150.7032  134.1267  159.4054 H   0  0  0  0  0  0  0  0  0  0  0  0  # atno 6907 bound_to 6896
  151.9253  135.0278  160.0534 H   0  0  0  0  0  0  0  0  0  0  0  0  # atno 6908 bound_to 6896
  152.2222  133.4957  159.5205 H   0  0  0  0  0  0  0  0  0  0  0  0  # atno 6909 bound_to 6896
  146.1923  139.7564  142.8823 H   0  0  0  0  0  0  0  0  0  0  0  0  # atno 7974 bound_to 7965
  155.5332  140.0601  157.2885 H   0  0  0  0  0  0  0  0  0  0  0  0  # atno 8008 bound_to 7997
  154.4477  140.1932  156.0560 H   0  0  0  0  0  0  0  0  0  0  0  0  # atno 8009 bound_to 7997
  156.0638  140.3269  155.7497 H   0  0  0  0  0  0  0  0  0  0  0  0  # atno 8010 bound_to 7997
  139.6324  144.7116  151.2405 H   0  0  0  0  0  0  0  0  0  0  0  0  # atno 10167 bound_to 10162
  157.6773  130.9909  150.1916 H   0  0  0  0  0  0  0  0  0  0  0  0  # atno 10718 bound_to 10713
  152.9834  135.6059  154.3335 H   0  0  0  0  0  0  0  0  0  0  0  0  # atno 10763 bound_to 10752
  154.3037  135.2772  155.2601 H   0  0  0  0  0  0  0  0  0  0  0  0  # atno 10764 bound_to 10752
  154.4842  135.5909  153.6467 H   0  0  0  0  0  0  0  0  0  0  0  0  # atno 10765 bound_to 10752
  140.3207  134.2547  155.7718 H   0  0  0  0  0  0  0  0  0  0  0  0  # atno 11005 bound_to 11000
  145.3753  141.0349  143.3208 LP  0  0  0  0  0  0  0  0  0  0  0  0  # atno 17320 bound_to 7965
  144.8511  139.5320  143.6856 LP  0  0  0  0  0  0  0  0  0  0  0  0  # atno 17321 bound_to 7965
  140.7446  143.6456  150.8295 LP  0  0  0  0  0  0  0  0  0  0  0  0  # atno 17342 bound_to 10162
  140.0083  143.5670  152.2849 LP  0  0  0  0  0  0  0  0  0  0  0  0  # atno 17343 bound_to 10162
  156.2626  130.3712  149.8114 LP  0  0  0  0  0  0  0  0  0  0  0  0  # atno 17370 bound_to 10713
  156.5855  130.8484  151.3394 LP  0  0  0  0  0  0  0  0  0  0  0  0  # atno 17371 bound_to 10713
  141.2087  133.7769  157.0041 LP  0  0  0  0  0  0  0  0  0  0  0  0  # atno 17394 bound_to 11000
  140.0945  134.9573  157.1827 LP  0  0  0  0  0  0  0  0  0  0  0  0  # atno 17395 bound_to 11000

$$$$
