#       Name:                AV-unprocessed.smi:903
#       Creating user name   scv26
#       Creation time:       Fri Mar 27 01:58:41 2020


#       File generated by GOLD software.
#

@<TRIPOS>MOLECULE
AV-unprocessed.smi:903
    37    38     1
SMALL
NO_CHARGES


@<TRIPOS>ATOM
      1 ****        -5.4038  -1.6492  -0.2334 O.co2          1 S1                 0.0000
      2 ****        -4.1597  -1.5275  -0.2268 C.2            1 S1                 0.0000
      3 ****        -3.4144  -2.5328  -0.1687 O.co2          1 S1                -1.0000
      4 ****        -3.5182  -0.1572  -0.2887 C.ar           1 S1                 0.0000
      5 ****        -2.1616  -0.1574  -0.2656 N.ar           1 S1                 0.0000
      6 ****        -1.4821   1.0120  -0.3153 C.ar           1 S1                 0.0000
      7 ****        -0.1030   0.9848  -0.2883 O.3            1 S1                 0.0000
      8 ****         0.5477  -0.2786  -0.1882 C.3            1 S1                 0.0000
      9 ****         2.0639  -0.0525  -0.1547 C.3            1 S1                 0.0000
     10 ****         2.8763  -1.3366  -0.3053 C.3            1 S1                 0.0000
     11 ****         4.1911  -0.9392   0.3257 C.3            1 S1                 0.0000
     12 ****         3.7322  -0.0625   1.4882 C.3            1 S1                 0.0000
     13 ****         2.4648   0.4700   1.1092 O.3            1 S1                 0.0000
     14 ****        -2.1315   2.2557  -0.3937 C.ar           1 S1                 0.0000
     15 ****        -3.5363   2.2756  -0.4182 C.ar           1 S1                 0.0000
     16 ****        -4.2539   1.0640  -0.3657 C.ar           1 S1                 0.0000
     17 ****        -5.9826   1.1704  -0.4006 Cl             1 S1                 0.0000
     18 ****         0.2283  -0.8192   0.7046 H              1 S1                 0.0000
     19 ****         0.2918  -0.8853  -1.0587 H              1 S1                 0.0000
     20 ****         2.3621   0.6512  -0.9337 H              1 S1                 0.0000
     21 ****         2.4204  -2.1497   0.2617 H              1 S1                 0.0000
     22 ****         2.9782  -1.6569  -1.3424 H              1 S1                 0.0000
     23 ****         4.7912  -1.7918   0.6444 H              1 S1                 0.0000
     24 ****         4.7798  -0.3503  -0.3790 H              1 S1                 0.0000
     25 ****         3.5995  -0.6601   2.3907 H              1 S1                 0.0000
     26 ****         4.4451   0.7319   1.7104 H              1 S1                 0.0000
     27 ****        -1.5652   3.1743  -0.4324 H              1 S1                 0.0000
     28 ****        -4.0610   3.2180  -0.4766 H              1 S1                 0.0000
     29 ****        -5.8174  -2.5587  -0.1919 LP             1 S1                 0.0000
     30 ****        -5.9854  -0.8371  -0.2801 LP             1 S1                 0.0000
     31 ****        -3.8130  -3.4490  -0.1267 LP             1 S1                 0.0000
     32 ****        -2.4209  -2.4191  -0.1642 LP             1 S1                 0.0000
     33 ****        -1.6632  -1.0227  -0.2117 LP             1 S1                 0.0000
     34 ****         0.1882   1.5304   0.4975 LP             1 S1                 0.0000
     35 ****         0.2179   1.4166  -1.1312 LP             1 S1                 0.0000
     36 ****         1.7841   0.2228   1.7988 LP             1 S1                 0.0000
     37 ****         2.5309   1.4659   1.0481 LP             1 S1                 0.0000
@<TRIPOS>BOND
    1    1    2 ar    
    2    2    3 ar    
    3    2    4 1     
    4    4   16 ar    
    5    4    5 ar    
    6    5    6 ar    
    7    6    7 1     
    8    6   14 ar    
    9    7    8 1     
   10    8    9 1     
   11    8   18 1     
   12    8   19 1     
   13    9   13 1     
   14    9   10 1     
   15    9   20 1     
   16   10   11 1     
   17   10   21 1     
   18   10   22 1     
   19   11   12 1     
   20   11   23 1     
   21   11   24 1     
   22   12   13 1     
   23   12   25 1     
   24   12   26 1     
   25   14   15 ar    
   26   14   27 1     
   27   15   16 ar    
   28   15   28 1     
   29   16   17 1     
   30    1   29 1     
   31    1   30 1     
   32    3   31 1     
   33    3   32 1     
   34    5   33 1     
   35    7   34 1     
   36    7   35 1     
   37   13   36 1     
   38   13   37 1     
@<TRIPOS>SUBSTRUCTURE
      1 S1             1
@<TRIPOS>SET
LONE_PAIRS      STATIC     ATOMS    <user>   **** ""
9 29 30 31 32 33 34 35 36 37
ATOM$BLUE        STATIC     ATOMS    COLORGROUP SYSTEM
9 29 30 31 32 33 34 35 36 37
