#       Name:                AV-unprocessed.smi:2538
#       Creating user name   scv26
#       Creation time:       Fri Mar 27 14:03:19 2020


#       File generated by GOLD software.
#

@<TRIPOS>MOLECULE
AV-unprocessed.smi:2538
    51    52     1
SMALL
NO_CHARGES


@<TRIPOS>ATOM
      1 ****        -1.6050   1.6021   5.1557 C.3            1 S1                 0.0000
      2 ****        -1.6532   1.5614   3.6380 C.ar           1 S1                 0.0000
      3 ****        -2.8907   1.2945   3.0095 C.ar           1 S1                 0.0000
      4 ****        -2.9030   1.2635   1.6202 C.ar           1 S1                 0.0000
      5 ****        -3.9432   1.0303   0.7175 N.pl3          1 S1                 1.0000
      6 ****        -3.4645   1.1001  -0.5557 C.2            1 S1                 0.0000
      7 ****        -2.1340   1.3744  -0.4782 N.pl3          1 S1                 0.0000
      8 ****        -1.1376   1.5456  -1.5436 C.3            1 S1                 0.0000
      9 ****        -0.2633   0.2918  -1.7462 C.3            1 S1                 0.0000
     10 ****        -1.1109  -0.7771  -2.1184 O.3            1 S1                 0.0000
     11 ****         0.7957   0.4995  -2.8507 C.3            1 S1                 0.0000
     12 ****         2.0762  -0.1753  -2.5643 N.pl3          1 S1                 0.0000
     13 ****         2.8592   0.3720  -1.4479 C.3            1 S1                 0.0000
     14 ****         2.3101  -1.8391  -3.0076 S.o2           1 S1                 0.0000
     15 ****         1.4970  -2.0962  -4.2068 O.2            1 S1                 0.0000
     16 ****         3.7628  -2.0688  -3.0498 O.2            1 S1                 0.0000
     17 ****         1.6008  -2.7830  -1.5707 C.3            1 S1                 0.0000
     18 ****         2.7198  -3.3920  -0.7137 C.3            1 S1                 0.0000
     19 ****         0.6202  -3.8577  -2.0620 C.3            1 S1                 0.0000
     20 ****        -1.7399   1.4869   0.8589 C.ar           1 S1                 0.0000
     21 ****        -0.5125   1.7522   1.4610 C.ar           1 S1                 0.0000
     22 ****        -0.4792   1.7872   2.8733 C.ar           1 S1                 0.0000
     23 ****         0.8462   2.0718   3.5593 C.3            1 S1                 0.0000
     24 ****        -2.5827   1.3955   5.5920 H              1 S1                 0.0000
     25 ****        -1.2867   2.5855   5.5023 H              1 S1                 0.0000
     26 ****        -0.9067   0.8570   5.5371 H              1 S1                 0.0000
     27 ****        -3.7883   1.1213   3.5852 H              1 S1                 0.0000
     28 ****        -4.0357   0.9579  -1.4620 H              1 S1                 0.0000
     29 ****        -1.6727   1.7925  -2.4619 H              1 S1                 0.0000
     30 ****        -0.5248   2.4141  -1.2981 H              1 S1                 0.0000
     31 ****         0.2082   0.0455  -0.7962 H              1 S1                 0.0000
     32 ****        -1.4839  -0.5844  -2.9650 H              1 S1                 0.0000
     33 ****         0.4184   0.1985  -3.8286 H              1 S1                 0.0000
     34 ****         1.0099   1.5643  -2.9508 H              1 S1                 0.0000
     35 ****         2.7627   1.4569  -1.3986 H              1 S1                 0.0000
     36 ****         3.9152   0.1340  -1.5751 H              1 S1                 0.0000
     37 ****         2.5254  -0.0520  -0.5010 H              1 S1                 0.0000
     38 ****         1.0462  -2.0800  -0.9537 H              1 S1                 0.0000
     39 ****         2.3109  -3.9091   0.1547 H              1 S1                 0.0000
     40 ****         3.3974  -2.6202  -0.3474 H              1 S1                 0.0000
     41 ****         3.3080  -4.1130  -1.2822 H              1 S1                 0.0000
     42 ****         0.1957  -4.4131  -1.2253 H              1 S1                 0.0000
     43 ****         1.1159  -4.5724  -2.7198 H              1 S1                 0.0000
     44 ****        -0.2094  -3.4158  -2.6141 H              1 S1                 0.0000
     45 ****         0.3803   1.9226   0.8775 H              1 S1                 0.0000
     46 ****         1.6434   2.2382   2.8341 H              1 S1                 0.0000
     47 ****         1.1388   1.2314   4.1890 H              1 S1                 0.0000
     48 ****         0.7723   2.9633   4.1823 H              1 S1                 0.0000
     49 ****        -4.9087   0.8357   0.9502 H              1 S1                 0.0000
     50 ****        -1.8416  -0.8786  -1.4434 LP             1 S1                 0.0000
     51 ****        -0.5826  -1.6247  -2.1679 LP             1 S1                 0.0000
@<TRIPOS>BOND
    1    1    2 1     
    2    1   24 1     
    3    1   25 1     
    4    1   26 1     
    5    2   22 ar    
    6    2    3 ar    
    7    3    4 ar    
    8    3   27 1     
    9    4   20 ar    
   10    4    5 1     
   11    5    6 2     
   12    5   49 1     
   13    6    7 1     
   14    6   28 1     
   15    7    8 1     
   16    7   20 1     
   17    8    9 1     
   18    8   29 1     
   19    8   30 1     
   20    9   10 1     
   21    9   11 1     
   22    9   31 1     
   23   10   32 1     
   24   11   12 1     
   25   11   33 1     
   26   11   34 1     
   27   12   13 1     
   28   12   14 1     
   29   13   35 1     
   30   13   36 1     
   31   13   37 1     
   32   14   15 2     
   33   14   16 2     
   34   14   17 1     
   35   17   18 1     
   36   17   19 1     
   37   17   38 1     
   38   18   39 1     
   39   18   40 1     
   40   18   41 1     
   41   19   42 1     
   42   19   43 1     
   43   19   44 1     
   44   20   21 ar    
   45   21   22 ar    
   46   21   45 1     
   47   22   23 1     
   48   23   46 1     
   49   23   47 1     
   50   23   48 1     
   51   10   50 1     
   52   10   51 1     
@<TRIPOS>SUBSTRUCTURE
      1 S1             1
@<TRIPOS>SET
LONE_PAIRS      STATIC     ATOMS    <user>   **** ""
4 50 51 15 16
DONOR_HYDROGENS      STATIC     ATOMS    <user>   **** ""
2 49 32
ATOM$BLUE        STATIC     ATOMS    COLORGROUP SYSTEM
4 50 51 15 16
ATOM$RED        STATIC     ATOMS    COLORGROUP SYSTEM
2 49 32
