AV-unprocessed.smi:1592|AV-procd|sdf|6407|dock4
  -GOLD-   22720 7 43D 1   1.00000     0.00000
 Structure written by MMmdl.
 26 27  0  0  0  0  0  0  0  0  2 V2000
  151.0314  141.3693  158.4802 O   0  0  0  0  0  0  0  0  0  0  0  0
  151.2012  142.1386  157.5329 C   0  0  0  0  0  0  0  0  0  0  0  0
  151.2985  141.7609  156.2451 N   0  0  0  0  0  0  0  0  0  0  0  0
  151.2513  140.4501  155.6946 C   0  0  0  0  0  0  0  0  0  0  0  0
  150.5178  140.1381  154.5962 N   0  0  0  0  0  0  0  0  0  0  0  0
  150.5248  138.8710  154.1340 C   0  0  0  0  0  0  0  0  0  0  0  0
  151.2605  137.8350  154.7355 C   0  0  0  0  0  0  0  0  0  0  0  0
  152.0251  138.1420  155.8742 C   0  0  0  0  0  0  0  0  0  0  0  0
  152.0235  139.4637  156.3637 C   0  0  0  0  0  0  0  0  0  0  0  0
  152.7674  139.7606  157.4738 O   0  5  0  0  0  0  0  0  0  0  0  0
  151.3011  143.6465  157.7891 C   0  0  2  0  0  0  0  0  0  0  0  0
  152.5684  144.0649  158.5586 C   0  0  0  0  0  0  0  0  0  0  0  0
  152.0400  144.5429  159.8976 C   0  0  0  0  0  0  0  0  0  0  0  0
  150.6420  145.0202  159.5327 C   0  0  0  0  0  0  0  0  0  0  0  0
  150.2032  144.0337  158.6131 O   0  0  0  0  0  0  0  0  0  0  0  0
  151.4288  142.4981  155.5673 H   0  0  0  0  0  0  0  0  0  0  0  0
  149.9244  138.6781  153.2574 H   0  0  0  0  0  0  0  0  0  0  0  0
  151.2392  136.8327  154.3348 H   0  0  0  0  0  0  0  0  0  0  0  0
  152.6036  137.3724  156.3646 H   0  0  0  0  0  0  0  0  0  0  0  0
  151.2465  144.1970  156.8480 H   0  0  0  0  0  0  0  0  0  0  0  0
  153.3043  143.2676  158.6732 H   0  0  0  0  0  0  0  0  0  0  0  0
  153.0595  144.8862  158.0350 H   0  0  0  0  0  0  0  0  0  0  0  0
  151.9771  143.7069  160.5957 H   0  0  0  0  0  0  0  0  0  0  0  0
  152.6548  145.3225  160.3480 H   0  0  0  0  0  0  0  0  0  0  0  0
  149.9793  145.0898  160.3954 H   0  0  0  0  0  0  0  0  0  0  0  0
  150.6762  145.9930  159.0399 H   0  0  0  0  0  0  0  0  0  0  0  0
  1  2  2  0  0  0  0
  2  3  1  0  0  0  0
  2 11  1  0  0  0  0
  3 16  1  0  0  0  0
  3  4  1  0  0  0  0
  4  9  2  0  0  0  0
  4  5  1  0  0  0  0
  5  6  2  0  0  0  0
  6 17  1  0  0  0  0
  6  7  1  0  0  0  0
  7 18  1  0  0  0  0
  7  8  2  0  0  0  0
  8  9  1  0  0  0  0
  8 19  1  0  0  0  0
  9 10  1  0  0  0  0
 11 15  1  0  0  0  0
 11 12  1  0  0  0  0
 11 20  1  0  0  0  0
 12 13  1  0  0  0  0
 12 21  1  0  0  0  0
 12 22  1  0  0  0  0
 13 14  1  0  0  0  0
 13 23  1  0  0  0  0
 13 24  1  0  0  0  0
 14 15  1  0  0  0  0
 14 25  1  0  0  0  0
 14 26  1  0  0  0  0
M  CHG  1  10  -1
M  END
> <s_m_source_file>
AV-unprocessed.smi

> <i_m_source_file_index>
1592

> <i_lp_mmshare_version>
43012

> <i_f3d_flags>
0

> <s_epik_input>
TzFbQ0gyXVtDSDJdW0NIMl1bQ0BIXTFDKD1PKVtOSF1jMm5bY0hdW2NIXVtjSF1jMltPSF0=

> <s_epik_cmdline>
J2VwaWtfcHl0aG9uJywgJy1waCcsICc3LjAnLCAnLXRuJywgJzgnLCAnLW1hJywgJzIwMCcsICctbWV0YWxfYmluZGluZycsICctaW1hZScsICc8aW5maWxlLm1hZT4nLCAnLW9tYWUnLCAnPG91dGZpbGUubWFlPic=

> <r_epik_Ionization_Penalty>
4.05601

> <r_epik_Ionization_Penalty_Charging>
2.06015

> <r_epik_Ionization_Penalty_Neutral>
1.99585

> <r_epik_State_Penalty>
2.62166

> <r_epik_Charging_Adjusted_Penalty>
4.68182

> <i_epik_Tot_Q>
-1

> <i_epik_Tot_abs_Q>
1

> <r_epik_Metal_State_Penalty>
0.603772

> <b_epik_Metal_Only>
0

> <s_lp_Force_Field>
OPLS_2005

> <r_lp_Energy>
18.4071

> <b_lp_Chiralities_Consistent>
1

> <s_lp_Variant>
AV-unprocessed.smi:1592-7

> <Gold.Version>
5.8.1

> <Gold.Id.Protein>
6NUR|6NUR_protein|mol2

> <Gold.PLP.Fitness>
41.7125

> <Gold.PLP.PLP>
-31.3627

> <Gold.PLP.part.hbond>
-2.0000

> <Gold.PLP.part.metal>
0.0000

> <Gold.PLP.part.buried>
-2.3729

> <Gold.PLP.part.nonpolar>
-27.2998

> <Gold.PLP.part.repulsive>
0.4004

> <Gold.PLP.ligand.clash>
0.0000

> <Gold.PLP.ligand.torsion>
0.5292

> <Gold.PLP.Chemscore.Hbond>
2.8000

> <Gold.PLP.Chemscore.CHOScore>
1.0000

> <Gold.PLP.Chemscore.Metal>
0.0000

> <Gold.Chemscore.Hbonds>
donor molecule, donor type, donor heavy atom, donor atom, acceptor molecule, acceptor atom, score
      P1  H  7989  7998       L1     5  0.70
      P1  H  7997  8010       L1    10  1.98
      L1  C     6    17       P1  7957  1.00

> <Gold.PLP.Chemscore.Internal.Correction>
0.0082

> <Gold.Rescore>
     Score         DG    S(hbond)    S(metal)    S(lipo)     H(rot)  DE(clash)    DE(int)     intcor
     11.85     -15.00       0.95        0.00      76.17       1.00       0.02       3.13       ----

> <Gold.Chemscore.Fitness>
11.8463

> <Gold.Chemscore.DG>
-14.9975

> <Gold.Chemscore.ZeroCoef>
-5.4800

> <Gold.Chemscore.Hbond>
0.9478

> <Gold.Chemscore.Metal>
0.0000

> <Gold.Chemscore.Lipo>
76.1705

> <Gold.Chemscore.Internal_Hbond>
0.0000

> <Gold.Chemscore.DEClash>
0.0234

> <Gold.Chemscore.DEInternal>
3.1278

> <Gold.Chemscore.Rot>
1.0000

> <Gold.Chemscore.Internal.Correction>
   9.000000E+99

> <Gold.Chemscore.Hbonds>
donor molecule, donor type, donor heavy atom, donor atom, acceptor molecule, acceptor atom, score
      P1  H  7989  7998       L1     5  0.02
      P1  H  7997  8010       L1    10  0.73

> <Gold.Chemscore.Hbond.Weighted>
-3.1656

> <Gold.Chemscore.Metal.Weighted>
-0.0000

> <Gold.Chemscore.Lipo.Weighted>
-8.9120

> <Gold.Chemscore.Internal_Hbond.Weighted>
0.0000

> <Gold.Chemscore.DEClash.Weighted>
0.0234

> <Gold.Chemscore.DEInternal.Weighted>
3.1278

> <Gold.Chemscore.Rot.Weighted>
2.5600

> <Gold.Chemscore.Internal.Correction.Weighted>
   9.000000E+99

> <Gold.Protein.RotatedTorsions>
[ 6907 6896 6895 6894 ] final   52.00 input  -60.11 | X-H torsion
[ 7974 7965 7964 7962 ] final -119.19 input  175.53 | X-H torsion
[ 8008 7997 7996 7995 ] final   34.25 input   59.86 | X-H torsion
[ 10167 10162 10161 10158 ] final -110.69 input  -65.29 | X-H torsion
[ 10718 10713 10712 10709 ] final  177.06 input   66.30 | X-H torsion
[ 10763 10752 10751 10750 ] final   70.36 input  -60.55 | X-H torsion
[ 11005 11000 10999 10996 ] final   45.44 input  -57.11 | X-H torsion

> <Gold.Protein.ActiveResidues>
 VAL166  LYS551  ARG553  GLY616  TRP617  ASP618  TYR619  PRO620  LYS621  CYS622 
 ASP623  PHE694  ASN695  SER759  ASP760  ASP761  ALA762  ILE779  LEU786  VAL792 
 PHE793  MET794  SER795  GLU796  ALA797  LYS798  CYS799  TRP800  GLU811  SER814 

> <Gold.Protein.RotatedAtoms>
  152.3187  134.7407  160.0318 H   0  0  0  0  0  0  0  0  0  0  0  0  # atno 6907 bound_to 6896
  151.7863  133.3349  159.3494 H   0  0  0  0  0  0  0  0  0  0  0  0  # atno 6908 bound_to 6896
  150.7358  134.5815  159.5985 H   0  0  0  0  0  0  0  0  0  0  0  0  # atno 6909 bound_to 6896
  145.0653  140.8320  143.4128 H   0  0  0  0  0  0  0  0  0  0  0  0  # atno 7974 bound_to 7965
  155.1518  140.3275  155.4429 H   0  0  0  0  0  0  0  0  0  0  0  0  # atno 8008 bound_to 7997
  156.2571  140.1975  156.6580 H   0  0  0  0  0  0  0  0  0  0  0  0  # atno 8009 bound_to 7997
  154.6467  140.0563  156.9895 H   0  0  0  0  0  0  0  0  0  0  0  0  # atno 8010 bound_to 7997
  140.1417  143.4274  152.1557 H   0  0  0  0  0  0  0  0  0  0  0  0  # atno 10167 bound_to 10162
  156.9109  130.9909  151.3021 H   0  0  0  0  0  0  0  0  0  0  0  0  # atno 10718 bound_to 10713
  153.0337  135.5177  154.7429 H   0  0  0  0  0  0  0  0  0  0  0  0  # atno 10763 bound_to 10752
  154.6423  135.2914  155.0091 H   0  0  0  0  0  0  0  0  0  0  0  0  # atno 10764 bound_to 10752
  154.1004  135.6637  153.4920 H   0  0  0  0  0  0  0  0  0  0  0  0  # atno 10765 bound_to 10752
  140.1459  134.4523  155.8416 H   0  0  0  0  0  0  0  0  0  0  0  0  # atno 11005 bound_to 11000
  145.1358  139.2603  143.5516 LP  0  0  0  0  0  0  0  0  0  0  0  0  # atno 17320 bound_to 7965
  146.3526  140.1022  142.8607 LP  0  0  0  0  0  0  0  0  0  0  0  0  # atno 17321 bound_to 7965
  139.5469  144.7306  151.4556 LP  0  0  0  0  0  0  0  0  0  0  0  0  # atno 17342 bound_to 10162
  140.6756  143.8196  150.7055 LP  0  0  0  0  0  0  0  0  0  0  0  0  # atno 17343 bound_to 10162
  157.5968  130.8483  149.8741 LP  0  0  0  0  0  0  0  0  0  0  0  0  # atno 17370 bound_to 10713
  156.0536  130.3712  150.1142 LP  0  0  0  0  0  0  0  0  0  0  0  0  # atno 17371 bound_to 10713
  141.2192  133.6852  156.7333 LP  0  0  0  0  0  0  0  0  0  0  0  0  # atno 17394 bound_to 11000
  140.2664  134.8426  157.3807 LP  0  0  0  0  0  0  0  0  0  0  0  0  # atno 17395 bound_to 11000

$$$$
