AV-unprocessed.smi:212|AV-procd|sdf|1627|dock6
  -GOLD-   2262019573D 1   1.00000     0.00000
 Structure written by MMmdl.
 65 68  0  0  0  0  0  0  0  0  2 V2000
  143.3096  136.6864  152.6799 C   0  0  0  0  0  0  0  0  0  0  0  0
  144.8099  137.0051  152.5648 C   0  0  2  0  0  0  0  0  0  0  0  0
  145.5069  136.1446  151.4899 C   0  0  0  0  0  0  0  0  0  0  0  0
  145.6561  134.7324  151.9315 N   0  3  1  0  0  0  0  0  0  0  0  0
  146.2016  133.8388  150.8758 C   0  0  0  0  0  0  0  0  0  0  0  0
  145.6176  132.4081  150.9462 C   0  0  0  0  0  0  0  0  0  0  0  0
  145.9400  131.7715  152.3086 C   0  0  0  0  0  0  0  0  0  0  0  0
  144.0986  132.3841  150.6941 C   0  0  0  0  0  0  0  0  0  0  0  0
  146.2428  131.6014  149.9680 O   0  0  0  0  0  0  0  0  0  0  0  0
  146.3813  134.6262  153.2224 C   0  0  0  0  0  0  0  0  0  0  0  0
  145.7028  135.4817  154.3081 C   0  0  0  0  0  0  0  0  0  0  0  0
  145.4954  136.8572  153.8516 N   0  0  0  0  0  0  0  0  0  0  0  0
  146.4414  137.7912  154.1345 C   0  0  0  0  0  0  0  0  0  0  0  0
  146.8070  138.6958  153.1875 N   0  0  0  0  0  0  0  0  0  0  0  0
  147.7278  139.6253  153.4603 C   0  0  0  0  0  0  0  0  0  0  0  0
  148.3997  139.8262  154.5951 N   0  0  0  0  0  0  0  0  0  0  0  0
  148.0447  138.9167  155.5469 C   0  0  0  0  0  0  0  0  0  0  0  0
  147.0833  137.8770  155.4025 C   0  0  0  0  0  0  0  0  0  0  0  0
  146.9956  137.1471  156.5825 N   0  0  0  0  0  0  0  0  0  0  0  0
  147.8487  137.7281  157.3815 C   0  0  0  0  0  0  0  0  0  0  0  0
  148.5193  138.8015  156.8416 N   0  0  0  0  0  0  0  0  0  0  0  0
  149.5191  139.6188  157.5063 C   0  0  0  0  0  0  0  0  0  0  0  0
  150.5454  140.2362  156.5196 C   0  0  2  0  0  0  0  0  0  0  0  0
  151.3919  139.1444  155.8221 C   0  0  0  0  0  0  0  0  0  0  0  0
  152.0555  139.6576  154.6858 O   0  0  0  0  0  0  0  0  0  0  0  0
  151.4355  141.3289  157.1780 C   0  0  1  0  0  0  0  0  0  0  0  0
  150.6841  142.6151  157.5348 C   0  0  0  0  0  0  0  0  0  0  0  0
  151.0754  142.8880  158.9852 C   0  0  0  0  0  0  0  0  0  0  0  0
  151.3571  141.5983  159.5002 O   0  0  0  0  0  0  0  0  0  0  0  0
  152.1009  140.9183  158.5020 C   0  0  0  0  0  0  0  0  0  0  0  0
  142.8024  136.8578  151.7303 H   0  0  0  0  0  0  0  0  0  0  0  0
  142.8328  137.3240  153.4249 H   0  0  0  0  0  0  0  0  0  0  0  0
  143.1296  135.6495  152.9643 H   0  0  0  0  0  0  0  0  0  0  0  0
  144.8794  138.0390  152.2276 H   0  0  0  0  0  0  0  0  0  0  0  0
  144.9483  136.1963  150.5553 H   0  0  0  0  0  0  0  0  0  0  0  0
  146.4967  136.5542  151.2812 H   0  0  0  0  0  0  0  0  0  0  0  0
  146.0362  134.2766  149.8899 H   0  0  0  0  0  0  0  0  0  0  0  0
  147.2856  133.7675  150.9810 H   0  0  0  0  0  0  0  0  0  0  0  0
  145.4821  132.3324  153.1242 H   0  0  0  0  0  0  0  0  0  0  0  0
  147.0148  131.7427  152.4919 H   0  0  0  0  0  0  0  0  0  0  0  0
  145.5696  130.7473  152.3684 H   0  0  0  0  0  0  0  0  0  0  0  0
  143.5703  133.0060  151.4174 H   0  0  0  0  0  0  0  0  0  0  0  0
  143.6992  131.3726  150.7784 H   0  0  0  0  0  0  0  0  0  0  0  0
  143.8456  132.7486  149.6980 H   0  0  0  0  0  0  0  0  0  0  0  0
  147.1098  131.3770  150.2706 H   0  0  0  0  0  0  0  0  0  0  0  0
  146.4065  133.5855  153.5474 H   0  0  0  0  0  0  0  0  0  0  0  0
  147.4164  134.9403  153.0806 H   0  0  0  0  0  0  0  0  0  0  0  0
  144.7321  135.0535  154.5580 H   0  0  0  0  0  0  0  0  0  0  0  0
  146.2815  135.4574  155.2325 H   0  0  0  0  0  0  0  0  0  0  0  0
  147.9585  140.3062  152.6542 H   0  0  0  0  0  0  0  0  0  0  0  0
  148.0138  137.3885  158.3940 H   0  0  0  0  0  0  0  0  0  0  0  0
  148.9887  140.3910  158.0620 H   0  0  0  0  0  0  0  0  0  0  0  0
  150.0225  139.0052  158.2532 H   0  0  0  0  0  0  0  0  0  0  0  0
  149.9716  140.7328  155.7351 H   0  0  0  0  0  0  0  0  0  0  0  0
  152.1250  138.7182  156.5072 H   0  0  0  0  0  0  0  0  0  0  0  0
  150.7665  138.3217  155.4776 H   0  0  0  0  0  0  0  0  0  0  0  0
  152.7650  139.0742  154.4631 H   0  0  0  0  0  0  0  0  0  0  0  0
  152.2273  141.5988  156.4787 H   0  0  0  0  0  0  0  0  0  0  0  0
  150.9545  143.4472  156.8839 H   0  0  0  0  0  0  0  0  0  0  0  0
  149.6050  142.4889  157.4570 H   0  0  0  0  0  0  0  0  0  0  0  0
  151.9740  143.5050  159.0367 H   0  0  0  0  0  0  0  0  0  0  0  0
  150.2853  143.3838  159.5492 H   0  0  0  0  0  0  0  0  0  0  0  0
  152.1172  139.8431  158.6782 H   0  0  0  0  0  0  0  0  0  0  0  0
  153.1336  141.2695  158.5320 H   0  0  0  0  0  0  0  0  0  0  0  0
  144.7216  134.3964  152.1160 H   0  0  0  0  0  0  0  0  0  0  0  0
  1  2  1  0  0  0  0
  1 31  1  0  0  0  0
  1 32  1  0  0  0  0
  1 33  1  0  0  0  0
  2 12  1  0  0  0  0
  2  3  1  0  0  0  0
  2 34  1  0  0  0  0
  3  4  1  0  0  0  0
  3 35  1  0  0  0  0
  3 36  1  0  0  0  0
  4  5  1  0  0  0  0
  4 10  1  0  0  0  0
  4 65  1  0  0  0  0
  5  6  1  0  0  0  0
  5 37  1  0  0  0  0
  5 38  1  0  0  0  0
  6  7  1  0  0  0  0
  6  8  1  0  0  0  0
  6  9  1  0  0  0  0
  7 39  1  0  0  0  0
  7 40  1  0  0  0  0
  7 41  1  0  0  0  0
  8 42  1  0  0  0  0
  8 43  1  0  0  0  0
  8 44  1  0  0  0  0
  9 45  1  0  0  0  0
 10 11  1  0  0  0  0
 10 46  1  0  0  0  0
 10 47  1  0  0  0  0
 11 12  1  0  0  0  0
 11 48  1  0  0  0  0
 11 49  1  0  0  0  0
 12 13  1  0  0  0  0
 13 18  1  0  0  0  0
 13 14  2  0  0  0  0
 14 15  1  0  0  0  0
 15 16  2  0  0  0  0
 15 50  1  0  0  0  0
 16 17  1  0  0  0  0
 17 21  1  0  0  0  0
 17 18  2  0  0  0  0
 18 19  1  0  0  0  0
 19 20  2  0  0  0  0
 20 21  1  0  0  0  0
 20 51  1  0  0  0  0
 21 22  1  0  0  0  0
 22 23  1  0  0  0  0
 22 52  1  0  0  0  0
 22 53  1  0  0  0  0
 23 24  1  0  0  0  0
 23 26  1  0  0  0  0
 23 54  1  0  0  0  0
 24 25  1  0  0  0  0
 24 55  1  0  0  0  0
 24 56  1  0  0  0  0
 25 57  1  0  0  0  0
 26 30  1  0  0  0  0
 26 27  1  0  0  0  0
 26 58  1  0  0  0  0
 27 28  1  0  0  0  0
 27 59  1  0  0  0  0
 27 60  1  0  0  0  0
 28 29  1  0  0  0  0
 28 61  1  0  0  0  0
 28 62  1  0  0  0  0
 29 30  1  0  0  0  0
 30 63  1  0  0  0  0
 30 64  1  0  0  0  0
M  CHG  1   4   1
M  END
> <s_m_source_file>
AV-unprocessed.smi

> <i_m_source_file_index>
212

> <i_lp_mmshare_version>
43012

> <i_f3d_flags>
0

> <s_epik_input>
W0NIM11bQ0BASF0xW0NIMl1OKFtDSDJdQyhbQ0gzXSkoW0NIM10pW09IXSlbQ0gyXVtDSDJdTjFjKG5bY0hdbjIpYyhjMjMpbltjSF1uM1tDSDJdW0NASF0oW0NIMl1bT0hdKVtDQEBIXTRbQ0gyXVtDSDJdT1tDSDJdNA==

> <s_epik_cmdline>
J2VwaWtfcHl0aG9uJywgJy1waCcsICc3LjAnLCAnLXRuJywgJzgnLCAnLW1hJywgJzIwMCcsICctbWV0YWxfYmluZGluZycsICctaW1hZScsICc8aW5maWxlLm1hZT4nLCAnLW9tYWUnLCAnPG91dGZpbGUubWFlPic=

> <r_lp_tautomer_probability>
1

> <r_epik_Ionization_Penalty>
0.00182193

> <r_epik_Ionization_Penalty_Charging>
0.00173996

> <r_epik_Ionization_Penalty_Neutral>
8.19718e-05

> <r_epik_State_Penalty>
-0

> <r_epik_Charging_Adjusted_Penalty>
0.00173996

> <i_epik_Tot_Q>
1

> <i_epik_Tot_abs_Q>
1

> <r_epik_Metal_State_Penalty>
-0

> <b_epik_Metal_Only>
0

> <s_lp_Force_Field>
OPLS_2005

> <r_lp_Energy>
60.0337

> <b_lp_Chiralities_Consistent>
1

> <s_lp_Variant>
AV-unprocessed.smi:212-11

> <Gold.Version>
5.8.1

> <Gold.Id.Protein>
6NUR|6NUR_protein|mol2

> <Gold.PLP.Fitness>
43.9469

> <Gold.PLP.PLP>
-37.3133

> <Gold.PLP.part.hbond>
-2.7098

> <Gold.PLP.part.metal>
0.0000

> <Gold.PLP.part.buried>
-6.4495

> <Gold.PLP.part.nonpolar>
-28.7520

> <Gold.PLP.part.repulsive>
0.3512

> <Gold.PLP.ligand.clash>
0.0000

> <Gold.PLP.ligand.torsion>
1.3875

> <Gold.PLP.Chemscore.Hbond>
1.8800

> <Gold.PLP.Chemscore.CHOScore>
0.9310

> <Gold.PLP.Chemscore.Metal>
0.0000

> <Gold.Chemscore.Hbonds>
donor molecule, donor type, donor heavy atom, donor atom, acceptor molecule, acceptor atom, score
      L1  H     9    45       P1 10747  1.00
      P1  H  7989  7998       L1    25  0.86
      L1  C    15    50       P1  7957  0.92

> <Gold.PLP.Chemscore.Internal.Correction>
0.9754

> <Gold.Rescore>
     Score         DG    S(hbond)    S(metal)    S(lipo)     H(rot)  DE(clash)    DE(int)     intcor
     10.75     -13.30       1.81        0.00      89.58       3.40       0.01       2.54       ----

> <Gold.Chemscore.Fitness>
10.7466

> <Gold.Chemscore.DG>
-13.3011

> <Gold.Chemscore.ZeroCoef>
-5.4800

> <Gold.Chemscore.Hbond>
1.8088

> <Gold.Chemscore.Metal>
0.0000

> <Gold.Chemscore.Lipo>
89.5752

> <Gold.Chemscore.Internal_Hbond>
0.0000

> <Gold.Chemscore.DEClash>
0.0147

> <Gold.Chemscore.DEInternal>
2.5398

> <Gold.Chemscore.Rot>
3.3986

> <Gold.Chemscore.Internal.Correction>
   9.000000E+99

> <Gold.Chemscore.Hbonds>
donor molecule, donor type, donor heavy atom, donor atom, acceptor molecule, acceptor atom, score
      L1  H     9    45       P1 10747  0.99
      P1  H  7989  7998       L1    25  0.77

> <Gold.Chemscore.Hbond.Weighted>
-6.0413

> <Gold.Chemscore.Metal.Weighted>
-0.0000

> <Gold.Chemscore.Lipo.Weighted>
-10.4803

> <Gold.Chemscore.Internal_Hbond.Weighted>
0.0000

> <Gold.Chemscore.DEClash.Weighted>
0.0147

> <Gold.Chemscore.DEInternal.Weighted>
2.5398

> <Gold.Chemscore.Rot.Weighted>
8.7005

> <Gold.Chemscore.Internal.Correction.Weighted>
   9.000000E+99

> <Gold.Protein.RotatedTorsions>
[ 6907 6896 6895 6894 ] final  -82.88 input  -60.11 | X-H torsion
[ 7974 7965 7964 7962 ] final  -91.33 input  175.53 | X-H torsion
[ 8008 7997 7996 7995 ] final -100.31 input   59.86 | X-H torsion
[ 10167 10162 10161 10158 ] final -119.95 input  -65.29 | X-H torsion
[ 10718 10713 10712 10709 ] final  140.77 input   66.30 | X-H torsion
[ 10763 10752 10751 10750 ] final   77.14 input  -60.55 | X-H torsion
[ 11005 11000 10999 10996 ] final  -10.25 input  -57.11 | X-H torsion

> <Gold.Protein.ActiveResidues>
 VAL166  LYS551  ARG553  GLY616  TRP617  ASP618  TYR619  PRO620  LYS621  CYS622 
 ASP623  PHE694  ASN695  SER759  ASP760  ASP761  ALA762  ILE779  LEU786  VAL792 
 PHE793  MET794  SER795  GLU796  ALA797  LYS798  CYS799  TRP800  GLU811  SER814 

> <Gold.Protein.RotatedAtoms>
  150.6892  134.3598  159.4945 H   0  0  0  0  0  0  0  0  0  0  0  0  # atno 6907 bound_to 6896
  152.1428  134.9046  160.0562 H   0  0  0  0  0  0  0  0  0  0  0  0  # atno 6908 bound_to 6896
  152.0174  133.3850  159.4281 H   0  0  0  0  0  0  0  0  0  0  0  0  # atno 6909 bound_to 6896
  145.4145  140.9547  143.2215 H   0  0  0  0  0  0  0  0  0  0  0  0  # atno 7974 bound_to 7965
  154.8268  140.0442  157.1449 H   0  0  0  0  0  0  0  0  0  0  0  0  # atno 8008 bound_to 7997
  154.9197  140.3025  155.5202 H   0  0  0  0  0  0  0  0  0  0  0  0  # atno 8009 bound_to 7997
  156.2984  140.2343  156.4245 H   0  0  0  0  0  0  0  0  0  0  0  0  # atno 8010 bound_to 7997
  140.0411  143.5152  152.2129 H   0  0  0  0  0  0  0  0  0  0  0  0  # atno 10167 bound_to 10162
  157.3995  131.1015  151.0566 H   0  0  0  0  0  0  0  0  0  0  0  0  # atno 10718 bound_to 10713
  153.0777  135.4925  154.8438 H   0  0  0  0  0  0  0  0  0  0  0  0  # atno 10763 bound_to 10752
  154.7109  135.3020  154.9201 H   0  0  0  0  0  0  0  0  0  0  0  0  # atno 10764 bound_to 10752
  153.9895  135.6780  153.4806 H   0  0  0  0  0  0  0  0  0  0  0  0  # atno 10765 bound_to 10752
  140.7428  133.8656  155.8981 H   0  0  0  0  0  0  0  0  0  0  0  0  # atno 11005 bound_to 11000
  144.8286  139.5667  143.6954 LP  0  0  0  0  0  0  0  0  0  0  0  0  # atno 17320 bound_to 7965
  146.2688  139.6584  142.9311 LP  0  0  0  0  0  0  0  0  0  0  0  0  # atno 17321 bound_to 7965
  139.6013  144.7583  151.3165 LP  0  0  0  0  0  0  0  0  0  0  0  0  # atno 17342 bound_to 10162
  140.7260  143.7003  150.7850 LP  0  0  0  0  0  0  0  0  0  0  0  0  # atno 17343 bound_to 10162
  157.1570  130.6209  149.5599 LP  0  0  0  0  0  0  0  0  0  0  0  0  # atno 17370 bound_to 10713
  155.9819  130.4830  150.6854 LP  0  0  0  0  0  0  0  0  0  0  0  0  # atno 17371 bound_to 10713
  140.9822  134.1391  157.4484 LP  0  0  0  0  0  0  0  0  0  0  0  0  # atno 17394 bound_to 11000
  139.8803  135.0014  156.6065 LP  0  0  0  0  0  0  0  0  0  0  0  0  # atno 17395 bound_to 11000

$$$$
