AV-unprocessed.smi:2510|AV-procd|sdf|9876|dock1
  -GOLD-   2272013513D 1   1.00000     0.00000
 Structure written by MMmdl.
 48 49  0  0  0  0  0  0  0  0  1 V2000
  149.3958  141.3820  154.8789 C   0  0  0  0  0  0  0  0  0  0  0  0
  149.2343  140.4325  156.0807 C   0  0  0  0  0  0  0  0  0  0  0  0
  149.8904  140.8721  157.4211 C   0  0  0  0  0  0  0  0  0  0  0  0
  149.1908  142.1490  157.9364 C   0  0  0  0  0  0  0  0  0  0  0  0
  147.6547  142.1088  157.8809 C   0  0  0  0  0  0  0  0  0  0  0  0
  150.1496  139.7814  158.4988 C   0  0  1  0  0  0  0  0  0  0  0  0
  149.2635  138.6247  158.4548 N   0  0  0  0  0  0  0  0  0  0  0  0
  149.5727  137.4120  158.9378 C   0  0  0  0  0  0  0  0  0  0  0  0
  150.6287  137.1618  159.5182 O   0  0  0  0  0  0  0  0  0  0  0  0
  148.5285  136.3135  158.7376 C   0  0  0  0  0  0  0  0  0  0  0  0
  147.6932  136.1625  159.9812 C   0  0  0  0  0  0  0  0  0  0  0  0
  147.0673  134.9826  160.4839 C   0  0  0  0  0  0  0  0  0  0  0  0
  146.4442  135.3910  161.6294 C   0  0  0  0  0  0  0  0  0  0  0  0
  145.6230  134.6470  162.6268 C   0  0  0  0  0  0  0  0  0  0  0  0
  146.7087  136.7353  161.7517 N   0  0  0  0  0  0  0  0  0  0  0  0
  147.4672  137.2184  160.7510 N   0  0  0  0  0  0  0  0  0  0  0  0
  151.5118  139.4942  157.8603 C   0  0  2  0  0  0  0  0  0  0  0  0
  152.6681  139.0212  158.7324 C   0  0  0  0  0  0  0  0  0  0  0  0
  151.4431  140.9433  157.3439 C   0  0  2  0  0  0  0  0  0  0  0  0
  151.9851  141.8780  158.2720 O   0  0  0  0  0  0  0  0  0  0  0  0
  152.0097  143.2054  157.7760 C   0  0  0  0  0  0  0  0  0  0  0  0
  146.3827  137.3274  162.5024 H   0  0  0  0  0  0  0  0  0  0  0  0
  148.8021  141.0276  154.0363 H   0  0  0  0  0  0  0  0  0  0  0  0
  150.4287  141.4333  154.5360 H   0  0  0  0  0  0  0  0  0  0  0  0
  149.0662  142.3944  155.1027 H   0  0  0  0  0  0  0  0  0  0  0  0
  148.1655  140.2750  156.2225 H   0  0  0  0  0  0  0  0  0  0  0  0
  149.6127  139.4522  155.7907 H   0  0  0  0  0  0  0  0  0  0  0  0
  149.5143  142.3875  158.9490 H   0  0  0  0  0  0  0  0  0  0  0  0
  149.5179  143.0081  157.3500 H   0  0  0  0  0  0  0  0  0  0  0  0
  147.2353  143.0660  158.1906 H   0  0  0  0  0  0  0  0  0  0  0  0
  147.2435  141.3471  158.5424 H   0  0  0  0  0  0  0  0  0  0  0  0
  147.2974  141.9057  156.8713 H   0  0  0  0  0  0  0  0  0  0  0  0
  150.2698  140.2040  159.4997 H   0  0  0  0  0  0  0  0  0  0  0  0
  148.3708  138.7456  157.9990 H   0  0  0  0  0  0  0  0  0  0  0  0
  147.9075  136.5616  157.8756 H   0  0  0  0  0  0  0  0  0  0  0  0
  149.0268  135.3734  158.4976 H   0  0  0  0  0  0  0  0  0  0  0  0
  147.0802  133.9863  160.0674 H   0  0  0  0  0  0  0  0  0  0  0  0
  145.5035  133.6036  162.3334 H   0  0  0  0  0  0  0  0  0  0  0  0
  144.6296  135.0870  162.7172 H   0  0  0  0  0  0  0  0  0  0  0  0
  146.0944  134.6688  163.6096 H   0  0  0  0  0  0  0  0  0  0  0  0
  151.3928  138.8164  157.0132 H   0  0  0  0  0  0  0  0  0  0  0  0
  152.8141  139.6710  159.5955 H   0  0  0  0  0  0  0  0  0  0  0  0
  153.6021  138.9970  158.1713 H   0  0  0  0  0  0  0  0  0  0  0  0
  152.4863  138.0147  159.1091 H   0  0  0  0  0  0  0  0  0  0  0  0
  151.8140  141.0771  156.3259 H   0  0  0  0  0  0  0  0  0  0  0  0
  152.4703  143.8623  158.5136 H   0  0  0  0  0  0  0  0  0  0  0  0
  150.9989  143.5691  157.5877 H   0  0  0  0  0  0  0  0  0  0  0  0
  152.5843  143.2797  156.8528 H   0  0  0  0  0  0  0  0  0  0  0  0
  1  2  1  0  0  0  0
  1 23  1  0  0  0  0
  1 24  1  0  0  0  0
  1 25  1  0  0  0  0
  2  3  1  0  0  0  0
  2 26  1  0  0  0  0
  2 27  1  0  0  0  0
  3 19  1  0  0  0  0
  3  4  1  0  0  0  0
  3  6  1  0  0  0  0
  4  5  1  0  0  0  0
  4 28  1  0  0  0  0
  4 29  1  0  0  0  0
  5 30  1  0  0  0  0
  5 31  1  0  0  0  0
  5 32  1  0  0  0  0
  6  7  1  0  0  0  0
  6 17  1  0  0  0  0
  6 33  1  0  0  0  0
  7  8  1  0  0  0  0
  7 34  1  0  0  0  0
  8  9  2  0  0  0  0
  8 10  1  0  0  0  0
 10 11  1  0  0  0  0
 10 35  1  0  0  0  0
 10 36  1  0  0  0  0
 11 16  2  0  0  0  0
 11 12  1  0  0  0  0
 12 13  2  0  0  0  0
 12 37  1  0  0  0  0
 13 14  1  0  0  0  0
 13 15  1  0  0  0  0
 14 38  1  0  0  0  0
 14 39  1  0  0  0  0
 14 40  1  0  0  0  0
 15 22  1  0  0  0  0
 15 16  1  0  0  0  0
 17 18  1  0  0  0  0
 17 19  1  0  0  0  0
 17 41  1  0  0  0  0
 18 42  1  0  0  0  0
 18 43  1  0  0  0  0
 18 44  1  0  0  0  0
 19 20  1  0  0  0  0
 19 45  1  0  0  0  0
 20 21  1  0  0  0  0
 21 46  1  0  0  0  0
 21 47  1  0  0  0  0
 21 48  1  0  0  0  0
M  END
> <s_m_source_file>
AV-unprocessed.smi

> <i_m_source_file_index>
2510

> <i_lp_mmshare_version>
43012

> <i_f3d_flags>
0

> <s_epik_input>
W0NIM11PW0NAQEhdMVtDQEhdKFtDSDNdKVtDQEBIXShDMShbQ0gyXVtDSDNdKVtDSDJdW0NIM10pW05IXUMoPU8pW0NIMl1jMltjSF1jKFtDSDNdKVtuSF1uMg==

> <s_epik_cmdline>
J2VwaWtfcHl0aG9uJywgJy1waCcsICc3LjAnLCAnLXRuJywgJzgnLCAnLW1hJywgJzIwMCcsICctbWV0YWxfYmluZGluZycsICctaW1hZScsICc8aW5maWxlLm1hZT4nLCAnLW9tYWUnLCAnPG91dGZpbGUubWFlPic=

> <r_lp_tautomer_probability>
0.5

> <r_epik_Ionization_Penalty>
9.73156e-05

> <r_epik_Ionization_Penalty_Charging>
0

> <r_epik_Ionization_Penalty_Neutral>
9.73156e-05

> <r_epik_State_Penalty>
0.41068

> <r_epik_Charging_Adjusted_Penalty>
0.41068

> <i_epik_Tot_Q>
0

> <i_epik_Tot_abs_Q>
0

> <r_epik_Metal_State_Penalty>
0.410699

> <b_epik_Metal_Only>
0

> <s_lp_Force_Field>
OPLS_2005

> <r_lp_Energy>
28.6218

> <b_lp_Chiralities_Consistent>
1

> <s_lp_Variant>
AV-unprocessed.smi:2510-7

> <Gold.Version>
5.8.1

> <Gold.Id.Protein>
6NUR|6NUR_protein|mol2

> <Gold.PLP.Fitness>
37.1464

> <Gold.PLP.PLP>
-31.5524

> <Gold.PLP.part.hbond>
-2.6607

> <Gold.PLP.part.metal>
0.0000

> <Gold.PLP.part.buried>
-6.7565

> <Gold.PLP.part.nonpolar>
-23.8011

> <Gold.PLP.part.repulsive>
0.3546

> <Gold.PLP.ligand.clash>
0.0000

> <Gold.PLP.ligand.torsion>
1.3700

> <Gold.PLP.Chemscore.Hbond>
2.5322

> <Gold.PLP.Chemscore.CHOScore>
0.0000

> <Gold.PLP.Chemscore.Metal>
0.0000

> <Gold.Chemscore.Hbonds>
donor molecule, donor type, donor heavy atom, donor atom, acceptor molecule, acceptor atom, score
      P1  H  6896  6908       L1     9  0.67
      P1  H  6931  6943       L1    16  0.46
      P1  H  6934  6947       L1    16  1.00

> <Gold.PLP.Chemscore.Internal.Correction>
0.7374

> <Gold.Rescore>
     Score         DG    S(hbond)    S(metal)    S(lipo)     H(rot)  DE(clash)    DE(int)     intcor
     12.44     -17.69       2.18        0.00      81.66       1.81       0.26       4.99       ----

> <Gold.Chemscore.Fitness>
12.4421

> <Gold.Chemscore.DG>
-17.6907

> <Gold.Chemscore.ZeroCoef>
-5.4800

> <Gold.Chemscore.Hbond>
2.1828

> <Gold.Chemscore.Metal>
0.0000

> <Gold.Chemscore.Lipo>
81.6609

> <Gold.Chemscore.Internal_Hbond>
0.0000

> <Gold.Chemscore.DEClash>
0.2618

> <Gold.Chemscore.DEInternal>
4.9868

> <Gold.Chemscore.Rot>
1.8102

> <Gold.Chemscore.Internal.Correction>
   9.000000E+99

> <Gold.Chemscore.Hbonds>
donor molecule, donor type, donor heavy atom, donor atom, acceptor molecule, acceptor atom, score
      P1  H  6896  6908       L1     9  0.66
      P1  H  6931  6943       L1    16  0.14
      P1  H  6934  6947       L1    16  0.29

> <Gold.Chemscore.Hbond.Weighted>
-7.2904

> <Gold.Chemscore.Metal.Weighted>
-0.0000

> <Gold.Chemscore.Lipo.Weighted>
-9.5543

> <Gold.Chemscore.Internal_Hbond.Weighted>
0.0000

> <Gold.Chemscore.DEClash.Weighted>
0.2618

> <Gold.Chemscore.DEInternal.Weighted>
4.9868

> <Gold.Chemscore.Rot.Weighted>
4.6341

> <Gold.Chemscore.Internal.Correction.Weighted>
   9.000000E+99

> <Gold.Protein.RotatedTorsions>
[ 6907 6896 6895 6894 ] final -134.06 input  -60.11 | X-H torsion
[ 7974 7965 7964 7962 ] final    6.93 input  175.53 | X-H torsion
[ 8008 7997 7996 7995 ] final   60.22 input   59.86 | X-H torsion
[ 10167 10162 10161 10158 ] final  -54.73 input  -65.29 | X-H torsion
[ 10718 10713 10712 10709 ] final  -11.89 input   66.30 | X-H torsion
[ 10763 10752 10751 10750 ] final  -59.75 input  -60.55 | X-H torsion
[ 11005 11000 10999 10996 ] final  103.84 input  -57.11 | X-H torsion

> <Gold.Protein.ActiveResidues>
 VAL166  LYS551  ARG553  GLY616  TRP617  ASP618  TYR619  PRO620  LYS621  CYS622 
 ASP623  PHE694  ASN695  SER759  ASP760  ASP761  ALA762  ILE779  LEU786  VAL792 
 PHE793  MET794  SER795  GLU796  ALA797  LYS798  CYS799  TRP800  GLU811  SER814 

> <Gold.Protein.RotatedAtoms>
  150.9814  133.6241  159.2721 H   0  0  0  0  0  0  0  0  0  0  0  0  # atno 6907 bound_to 6896
  151.3495  135.0880  159.9408 H   0  0  0  0  0  0  0  0  0  0  0  0  # atno 6908 bound_to 6896
  152.5217  133.9410  159.7680 H   0  0  0  0  0  0  0  0  0  0  0  0  # atno 6909 bound_to 6896
  146.2431  140.0159  142.8402 H   0  0  0  0  0  0  0  0  0  0  0  0  # atno 7974 bound_to 7965
  155.5788  140.3491  155.4535 H   0  0  0  0  0  0  0  0  0  0  0  0  # atno 8008 bound_to 7997
  156.0389  140.1291  157.0203 H   0  0  0  0  0  0  0  0  0  0  0  0  # atno 8009 bound_to 7997
  154.4383  140.1028  156.6193 H   0  0  0  0  0  0  0  0  0  0  0  0  # atno 8010 bound_to 7997
  140.6414  143.2510  151.4978 H   0  0  0  0  0  0  0  0  0  0  0  0  # atno 10167 bound_to 10162
  156.6525  130.4959  149.6057 H   0  0  0  0  0  0  0  0  0  0  0  0  # atno 10718 bound_to 10713
  154.2585  135.6312  153.5266 H   0  0  0  0  0  0  0  0  0  0  0  0  # atno 10763 bound_to 10752
  152.9900  135.5582  154.5730 H   0  0  0  0  0  0  0  0  0  0  0  0  # atno 10764 bound_to 10752
  154.5273  135.2886  155.1185 H   0  0  0  0  0  0  0  0  0  0  0  0  # atno 10765 bound_to 10752
  139.8787  134.9278  156.5270 H   0  0  0  0  0  0  0  0  0  0  0  0  # atno 11005 bound_to 11000
  145.1285  140.9504  143.4558 LP  0  0  0  0  0  0  0  0  0  0  0  0  # atno 17320 bound_to 7965
  145.0411  139.3259  143.5976 LP  0  0  0  0  0  0  0  0  0  0  0  0  # atno 17321 bound_to 7965
  139.5624  144.2125  152.1712 LP  0  0  0  0  0  0  0  0  0  0  0  0  # atno 17342 bound_to 10162
  140.1396  144.5214  150.6752 LP  0  0  0  0  0  0  0  0  0  0  0  0  # atno 17343 bound_to 10162
  156.2073  130.6657  151.1232 LP  0  0  0  0  0  0  0  0  0  0  0  0  # atno 17370 bound_to 10713
  157.7136  131.0721  150.6410 LP  0  0  0  0  0  0  0  0  0  0  0  0  # atno 17371 bound_to 10713
  140.8408  133.8206  155.9073 LP  0  0  0  0  0  0  0  0  0  0  0  0  # atno 17394 bound_to 11000
  140.9239  134.2107  157.4909 LP  0  0  0  0  0  0  0  0  0  0  0  0  # atno 17395 bound_to 11000

$$$$
