AV-unprocessed.smi:2913|AV-procd|sdf|11184|dock7
  -GOLD-   2272016 73D 1   1.00000     0.00000
 Structure written by MMmdl.
 41 42  0  0  0  0  0  0  0  0  1 V2000
  146.6111  141.9822  153.5932 C   0  0  0  0  0  0  0  0  0  0  0  0
  147.7584  141.0496  153.9451 C   0  0  0  0  0  0  0  0  0  0  0  0
  148.8483  141.5354  154.5802 C   0  0  0  0  0  0  0  0  0  0  0  0
  149.9902  140.6968  154.9489 C   0  0  0  0  0  0  0  0  0  0  0  0
  150.9767  141.1481  155.5314 O   0  0  0  0  0  0  0  0  0  0  0  0
  149.8904  139.3842  154.6021 N   0  0  0  0  0  0  0  0  0  0  0  0
  150.9860  138.4629  154.9157 C   0  0  0  0  0  0  0  0  0  0  0  0
  148.7634  138.8662  153.9421 C   0  0  0  0  0  0  0  0  0  0  0  0
  147.7008  139.6324  153.6094 C   0  0  0  0  0  0  0  0  0  0  0  0
  146.5593  139.1582  152.9409 N   0  0  0  0  0  0  0  0  0  0  0  0
  145.7100  138.1725  153.2868 C   0  0  0  0  0  0  0  0  0  0  0  0
  145.7631  137.5036  154.3184 O   0  0  0  0  0  0  0  0  0  0  0  0
  144.7601  138.0185  152.3532 N   0  0  0  0  0  0  0  0  0  0  0  0
  143.6376  137.0849  152.4153 C   0  0  2  0  0  0  0  0  0  0  0  0
  142.8491  137.3433  153.7087 C   0  0  0  0  0  0  0  0  0  0  0  0
  144.1737  135.6425  152.3273 C   0  0  1  0  0  0  0  0  0  0  0  0
  143.0946  134.5589  152.3036 C   0  0  0  0  0  0  0  0  0  0  0  0
  143.8234  133.4165  151.6350 C   0  0  0  0  0  0  0  0  0  0  0  0
  144.6503  134.1492  150.5833 C   0  0  0  0  0  0  0  0  0  0  0  0
  144.8945  135.4507  151.1108 O   0  0  0  0  0  0  0  0  0  0  0  0
  146.8028  143.0030  153.9258 H   0  0  0  0  0  0  0  0  0  0  0  0
  145.6885  141.6438  154.0657 H   0  0  0  0  0  0  0  0  0  0  0  0
  146.4579  142.0043  152.5138 H   0  0  0  0  0  0  0  0  0  0  0  0
  148.8902  142.5855  154.8311 H   0  0  0  0  0  0  0  0  0  0  0  0
  150.7871  137.4407  154.5925 H   0  0  0  0  0  0  0  0  0  0  0  0
  151.1651  138.4332  155.9913 H   0  0  0  0  0  0  0  0  0  0  0  0
  151.9068  138.7837  154.4266 H   0  0  0  0  0  0  0  0  0  0  0  0
  148.8432  137.8135  153.7239 H   0  0  0  0  0  0  0  0  0  0  0  0
  146.3435  139.6472  152.0845 H   0  0  0  0  0  0  0  0  0  0  0  0
  144.7985  138.6176  151.5420 H   0  0  0  0  0  0  0  0  0  0  0  0
  142.9618  137.2492  151.5743 H   0  0  0  0  0  0  0  0  0  0  0  0
  141.9697  136.7028  153.7730 H   0  0  0  0  0  0  0  0  0  0  0  0
  142.5014  138.3759  153.7553 H   0  0  0  0  0  0  0  0  0  0  0  0
  143.4618  137.1578  154.5916 H   0  0  0  0  0  0  0  0  0  0  0  0
  144.8605  135.4434  153.1521 H   0  0  0  0  0  0  0  0  0  0  0  0
  142.7241  134.3029  153.2966 H   0  0  0  0  0  0  0  0  0  0  0  0
  142.2477  134.8701  151.6899 H   0  0  0  0  0  0  0  0  0  0  0  0
  144.4794  132.9203  152.3519 H   0  0  0  0  0  0  0  0  0  0  0  0
  143.1542  132.6691  151.2081 H   0  0  0  0  0  0  0  0  0  0  0  0
  145.5818  133.6313  150.3545 H   0  0  0  0  0  0  0  0  0  0  0  0
  144.0843  134.2530  149.6567 H   0  0  0  0  0  0  0  0  0  0  0  0
  1  2  1  0  0  0  0
  1 21  1  0  0  0  0
  1 22  1  0  0  0  0
  1 23  1  0  0  0  0
  2  9  1  0  0  0  0
  2  3  2  0  0  0  0
  3  4  1  0  0  0  0
  3 24  1  0  0  0  0
  4  5  2  0  0  0  0
  4  6  1  0  0  0  0
  6  7  1  0  0  0  0
  6  8  1  0  0  0  0
  7 25  1  0  0  0  0
  7 26  1  0  0  0  0
  7 27  1  0  0  0  0
  8  9  2  0  0  0  0
  8 28  1  0  0  0  0
  9 10  1  0  0  0  0
 10 11  1  0  0  0  0
 10 29  1  0  0  0  0
 11 12  2  0  0  0  0
 11 13  1  0  0  0  0
 13 14  1  0  0  0  0
 13 30  1  0  0  0  0
 14 15  1  0  0  0  0
 14 16  1  0  0  0  0
 14 31  1  0  0  0  0
 15 32  1  0  0  0  0
 15 33  1  0  0  0  0
 15 34  1  0  0  0  0
 16 20  1  0  0  0  0
 16 17  1  0  0  0  0
 16 35  1  0  0  0  0
 17 18  1  0  0  0  0
 17 36  1  0  0  0  0
 17 37  1  0  0  0  0
 18 19  1  0  0  0  0
 18 38  1  0  0  0  0
 18 39  1  0  0  0  0
 19 20  1  0  0  0  0
 19 40  1  0  0  0  0
 19 41  1  0  0  0  0
M  END
> <s_m_source_file>
AV-unprocessed.smi

> <i_m_source_file_index>
2913

> <i_lp_mmshare_version>
43012

> <i_f3d_flags>
0

> <s_epik_input>
W0NIM11jMVtjSF1jKD1PKW4oW0NIM10pW2NIXWMxW05IXUMoPU8pW05IXVtDQEhdKFtDSDNdKVtDQEBIXTJbQ0gyXVtDSDJdW0NIMl1PMg==

> <s_epik_cmdline>
J2VwaWtfcHl0aG9uJywgJy1waCcsICc3LjAnLCAnLXRuJywgJzgnLCAnLW1hJywgJzIwMCcsICctbWV0YWxfYmluZGluZycsICctaW1hZScsICc8aW5maWxlLm1hZT4nLCAnLW9tYWUnLCAnPG91dGZpbGUubWFlPic=

> <r_lp_tautomer_probability>
1

> <r_epik_Ionization_Penalty>
2.72039e-05

> <r_epik_Ionization_Penalty_Charging>
8.03976e-06

> <r_epik_Ionization_Penalty_Neutral>
1.91642e-05

> <r_epik_State_Penalty>
-0

> <r_epik_Charging_Adjusted_Penalty>
8.03976e-06

> <i_epik_Tot_Q>
0

> <i_epik_Tot_abs_Q>
0

> <r_epik_Metal_State_Penalty>
-0

> <b_epik_Metal_Only>
0

> <s_lp_Force_Field>
OPLS_2005

> <r_lp_Energy>
32.0319

> <b_lp_Chiralities_Consistent>
1

> <s_lp_Variant>
AV-unprocessed.smi:2913-3

> <Gold.Version>
5.8.1

> <Gold.Id.Protein>
6NUR|6NUR_protein|mol2

> <Gold.PLP.Fitness>
39.9718

> <Gold.PLP.PLP>
-35.9338

> <Gold.PLP.part.hbond>
-3.6402

> <Gold.PLP.part.metal>
0.0000

> <Gold.PLP.part.buried>
-2.4135

> <Gold.PLP.part.nonpolar>
-30.6759

> <Gold.PLP.part.repulsive>
0.3806

> <Gold.PLP.ligand.clash>
0.0000

> <Gold.PLP.ligand.torsion>
0.5671

> <Gold.PLP.Chemscore.Hbond>
0.7200

> <Gold.PLP.Chemscore.CHOScore>
1.0000

> <Gold.PLP.Chemscore.Metal>
0.0000

> <Gold.Chemscore.Hbonds>
donor molecule, donor type, donor heavy atom, donor atom, acceptor molecule, acceptor atom, score
      L1  H    13    30       P1 10171  0.67
      L1  C     8    28       P1  7948  1.00

> <Gold.PLP.Chemscore.Internal.Correction>
0.0123

> <Gold.Rescore>
     Score         DG    S(hbond)    S(metal)    S(lipo)     H(rot)  DE(clash)    DE(int)     intcor
     11.70     -13.24       0.83        0.00      69.07       1.21       0.08       1.46       ----

> <Gold.Chemscore.Fitness>
11.6995

> <Gold.Chemscore.DG>
-13.2375

> <Gold.Chemscore.ZeroCoef>
-5.4800

> <Gold.Chemscore.Hbond>
0.8305

> <Gold.Chemscore.Metal>
0.0000

> <Gold.Chemscore.Lipo>
69.0734

> <Gold.Chemscore.Internal_Hbond>
0.0000

> <Gold.Chemscore.DEClash>
0.0788

> <Gold.Chemscore.DEInternal>
1.4592

> <Gold.Chemscore.Rot>
1.2101

> <Gold.Chemscore.Internal.Correction>
   9.000000E+99

> <Gold.Chemscore.Hbonds>
donor molecule, donor type, donor heavy atom, donor atom, acceptor molecule, acceptor atom, score
      L1  H    13    30       P1 10171  0.67

> <Gold.Chemscore.Hbond.Weighted>
-2.7738

> <Gold.Chemscore.Metal.Weighted>
-0.0000

> <Gold.Chemscore.Lipo.Weighted>
-8.0816

> <Gold.Chemscore.Internal_Hbond.Weighted>
0.0000

> <Gold.Chemscore.DEClash.Weighted>
0.0788

> <Gold.Chemscore.DEInternal.Weighted>
1.4592

> <Gold.Chemscore.Rot.Weighted>
3.0979

> <Gold.Chemscore.Internal.Correction.Weighted>
   9.000000E+99

> <Gold.Protein.RotatedTorsions>
[ 6907 6896 6895 6894 ] final   99.50 input  -60.11 | X-H torsion
[ 7974 7965 7964 7962 ] final  161.24 input  175.53 | X-H torsion
[ 8008 7997 7996 7995 ] final  -70.94 input   59.86 | X-H torsion
[ 10167 10162 10161 10158 ] final -145.03 input  -65.29 | X-H torsion
[ 10718 10713 10712 10709 ] final    6.61 input   66.30 | X-H torsion
[ 10763 10752 10751 10750 ] final -136.82 input  -60.55 | X-H torsion
[ 11005 11000 10999 10996 ] final   78.63 input  -57.11 | X-H torsion

> <Gold.Protein.ActiveResidues>
 VAL166  LYS551  ARG553  GLY616  TRP617  ASP618  TYR619  PRO620  LYS621  CYS622 
 ASP623  PHE694  ASN695  SER759  ASP760  ASP761  ALA762  ILE779  LEU786  VAL792 
 PHE793  MET794  SER795  GLU796  ALA797  LYS798  CYS799  TRP800  GLU811  SER814 

> <Gold.Protein.RotatedAtoms>
  152.5391  134.0419  159.8071 H   0  0  0  0  0  0  0  0  0  0  0  0  # atno 6907 bound_to 6896
  151.0574  133.5565  159.2644 H   0  0  0  0  0  0  0  0  0  0  0  0  # atno 6908 bound_to 6896
  151.2477  135.0619  159.9103 H   0  0  0  0  0  0  0  0  0  0  0  0  # atno 6909 bound_to 6896
  144.7695  139.7871  143.6302 H   0  0  0  0  0  0  0  0  0  0  0  0  # atno 7974 bound_to 7965
  154.5049  140.0825  156.7875 H   0  0  0  0  0  0  0  0  0  0  0  0  # atno 8008 bound_to 7997
  155.3916  140.3433  155.4233 H   0  0  0  0  0  0  0  0  0  0  0  0  # atno 8009 bound_to 7997
  156.1503  140.1556  156.8767 H   0  0  0  0  0  0  0  0  0  0  0  0  # atno 8010 bound_to 7997
  139.7843  143.8056  152.2642 H   0  0  0  0  0  0  0  0  0  0  0  0  # atno 10167 bound_to 10162
  156.9247  130.5804  149.5648 H   0  0  0  0  0  0  0  0  0  0  0  0  # atno 10718 bound_to 10713
  154.8675  135.3661  154.5123 H   0  0  0  0  0  0  0  0  0  0  0  0  # atno 10763 bound_to 10752
  153.5758  135.7019  153.5489 H   0  0  0  0  0  0  0  0  0  0  0  0  # atno 10764 bound_to 10752
  153.3501  135.4074  155.1602 H   0  0  0  0  0  0  0  0  0  0  0  0  # atno 10765 bound_to 10752
  139.9205  134.7779  156.1674 H   0  0  0  0  0  0  0  0  0  0  0  0  # atno 11005 bound_to 11000
  146.1831  139.5033  142.9854 LP  0  0  0  0  0  0  0  0  0  0  0  0  # atno 17320 bound_to 7965
  145.6366  141.0293  143.1834 LP  0  0  0  0  0  0  0  0  0  0  0  0  # atno 17321 bound_to 7965
  139.8128  144.7329  150.9675 LP  0  0  0  0  0  0  0  0  0  0  0  0  # atno 17342 bound_to 10162
  140.7819  143.4234  151.0806 LP  0  0  0  0  0  0  0  0  0  0  0  0  # atno 17343 bound_to 10162
  156.0475  130.5549  150.8913 LP  0  0  0  0  0  0  0  0  0  0  0  0  # atno 17370 bound_to 10713
  157.5885  131.0945  150.9157 LP  0  0  0  0  0  0  0  0  0  0  0  0  # atno 17371 bound_to 10713
  141.0721  133.6792  156.2161 LP  0  0  0  0  0  0  0  0  0  0  0  0  # atno 17394 bound_to 11000
  140.6490  134.5087  157.5576 LP  0  0  0  0  0  0  0  0  0  0  0  0  # atno 17395 bound_to 11000

$$$$
