#       Name:                AV-unprocessed.smi:2514
#       Creating user name   scv26
#       Creation time:       Fri Mar 27 13:53:08 2020


#       File generated by GOLD software.
#

@<TRIPOS>MOLECULE
AV-unprocessed.smi:2514
    29    30     1
SMALL
NO_CHARGES


@<TRIPOS>ATOM
      1 ****        -3.6955   0.5179   1.1371 C.3            1 S1                 0.0000
      2 ****        -2.9814   0.9788  -0.1397 C.3            1 S1                 0.0000
      3 ****        -3.2817   2.3376  -0.3865 O.3            1 S1                 0.0000
      4 ****        -1.4854   0.8664  -0.0389 C.2            1 S1                 0.0000
      5 ****        -0.6572  -0.0444  -0.6316 C.2            1 S1                 0.0000
      6 ****         0.5933   0.3145  -0.1744 N.pl3          1 S1                 0.0000
      7 ****         1.8547  -0.2625  -0.5333 C.3            1 S1                 0.0000
      8 ****         2.0587  -1.7753  -0.4861 C.3            1 S1                 0.0000
      9 ****         3.4425  -1.5169  -0.1069 N.4            1 S1                 1.0000
     10 ****         3.0565  -0.2103   0.4109 C.3            1 S1                 0.0000
     11 ****         0.5398   1.4105   0.6182 N.2            1 S1                 0.0000
     12 ****        -0.7085   1.7385   0.7283 N.2            1 S1                 0.0000
     13 ****        -3.4766  -0.5287   1.3502 H              1 S1                 0.0000
     14 ****        -4.7769   0.6159   1.0378 H              1 S1                 0.0000
     15 ****        -3.3862   1.1055   2.0023 H              1 S1                 0.0000
     16 ****        -3.3460   0.3955  -0.9860 H              1 S1                 0.0000
     17 ****        -2.8684   2.5938  -1.1967 H              1 S1                 0.0000
     18 ****        -0.8412  -0.8716  -1.3012 H              1 S1                 0.0000
     19 ****         2.1120   0.1375  -1.5168 H              1 S1                 0.0000
     20 ****         1.4980  -2.2667   0.3116 H              1 S1                 0.0000
     21 ****         1.9464  -2.2855  -1.4431 H              1 S1                 0.0000
     22 ****         3.8020  -2.1480   0.5953 H              1 S1                 0.0000
     23 ****         3.7748   0.5824   0.1994 H              1 S1                 0.0000
     24 ****         2.7884  -0.2520   1.4685 H              1 S1                 0.0000
     25 ****         4.0390  -1.4319  -0.9177 H              1 S1                 0.0000
     26 ****        -2.9339   2.9013   0.3626 LP             1 S1                 0.0000
     27 ****        -4.2719   2.4560  -0.4608 LP             1 S1                 0.0000
     28 ****         1.3169   1.8784   1.0391 LP             1 S1                 0.0000
     29 ****        -1.0610   2.4969   1.2764 LP             1 S1                 0.0000
@<TRIPOS>BOND
    1    1    2 1     
    2    1   13 1     
    3    1   14 1     
    4    1   15 1     
    5    2    3 1     
    6    2    4 1     
    7    2   16 1     
    8    3   17 1     
    9    4   12 1     
   10    4    5 2     
   11    5    6 1     
   12    5   18 1     
   13    6    7 1     
   14    6   11 1     
   15    7   10 1     
   16    7    8 1     
   17    7   19 1     
   18    8    9 1     
   19    8   20 1     
   20    8   21 1     
   21    9   10 1     
   22    9   22 1     
   23    9   25 1     
   24   10   23 1     
   25   10   24 1     
   26   11   12 2     
   27    3   26 1     
   28    3   27 1     
   29   11   28 1     
   30   12   29 1     
@<TRIPOS>SUBSTRUCTURE
      1 S1             1
@<TRIPOS>SET
LONE_PAIRS      STATIC     ATOMS    <user>   **** ""
4 26 27 28 29
DONOR_HYDROGENS      STATIC     ATOMS    <user>   **** ""
3 17 22 25
ATOM$BLUE        STATIC     ATOMS    COLORGROUP SYSTEM
4 26 27 28 29
ATOM$RED        STATIC     ATOMS    COLORGROUP SYSTEM
3 17 22 25
