AV-unprocessed.smi:1367|AV-procd|sdf|5573|dock5
  -GOLD-   22720 5163D 1   1.00000     0.00000
 Structure written by MMmdl.
 30 30  0  0  0  0  0  0  0  0  1 V2000
  146.7908  138.9411  152.3087 C   0  0  0  0  0  0  0  0  0  0  0  0
  147.9395  139.4048  153.1779 C   0  0  0  0  0  0  0  0  0  0  0  0
  148.8469  138.4033  153.4812 N   0  0  0  0  0  0  0  0  0  0  0  0
  149.9359  138.7330  154.2686 C   0  0  0  0  0  0  0  0  0  0  0  0
  150.8811  137.5784  154.5517 C   0  0  0  0  0  0  0  0  0  0  0  0
  150.1099  139.9959  154.7343 C   0  0  0  0  0  0  0  0  0  0  0  0
  151.2989  140.3987  155.6072 C   0  0  0  0  0  0  0  0  0  0  0  0
  150.9499  140.9735  156.9813 C   0  0  0  0  0  0  0  0  0  0  0  0
  150.5007  140.2373  157.8592 O   0  0  0  0  0  0  0  0  0  0  0  0
  151.1594  142.2873  157.1538 N   0  0  0  0  0  0  0  0  0  0  0  0
  150.8429  143.0386  158.3632 C   0  0  0  0  0  0  0  0  0  0  0  0
  152.0692  143.7887  158.9110 C   0  0  0  0  0  0  0  0  0  0  0  0
  153.0279  142.9084  159.1954 F   0  0  0  0  0  0  0  0  0  0  0  0
  152.5320  144.6445  157.9995 F   0  0  0  0  0  0  0  0  0  0  0  0
  151.7633  144.4571  160.0230 F   0  0  0  0  0  0  0  0  0  0  0  0
  149.0999  141.0226  154.3833 C   0  0  0  0  0  0  0  0  0  0  0  0
  149.1908  142.1807  154.7886 O   0  0  0  0  0  0  0  0  0  0  0  0
  148.0174  140.6381  153.5759 N   0  0  0  0  0  0  0  0  0  0  0  0
  148.7558  137.4511  153.1572 H   0  0  0  0  0  0  0  0  0  0  0  0
  146.1496  139.7784  152.0302 H   0  0  0  0  0  0  0  0  0  0  0  0
  146.1837  138.2087  152.8416 H   0  0  0  0  0  0  0  0  0  0  0  0
  147.1657  138.4813  151.3937 H   0  0  0  0  0  0  0  0  0  0  0  0
  151.8802  137.8014  154.1766 H   0  0  0  0  0  0  0  0  0  0  0  0
  150.5435  136.6573  154.0750 H   0  0  0  0  0  0  0  0  0  0  0  0
  150.9475  137.3941  155.6241 H   0  0  0  0  0  0  0  0  0  0  0  0
  151.9395  141.1133  155.0899 H   0  0  0  0  0  0  0  0  0  0  0  0
  151.9292  139.5207  155.7528 H   0  0  0  0  0  0  0  0  0  0  0  0
  151.5354  142.8124  156.3777 H   0  0  0  0  0  0  0  0  0  0  0  0
  150.0210  143.7326  158.1796 H   0  0  0  0  0  0  0  0  0  0  0  0
  150.4842  142.3298  159.1101 H   0  0  0  0  0  0  0  0  0  0  0  0
  1 20  1  0  0  0  0
  1 21  1  0  0  0  0
  1 22  1  0  0  0  0
  1  2  1  0  0  0  0
  2  3  1  0  0  0  0
  2 18  2  0  0  0  0
  3  4  1  0  0  0  0
  3 19  1  0  0  0  0
  4  6  2  0  0  0  0
  4  5  1  0  0  0  0
  5 23  1  0  0  0  0
  5 24  1  0  0  0  0
  5 25  1  0  0  0  0
  6 16  1  0  0  0  0
  6  7  1  0  0  0  0
  7  8  1  0  0  0  0
  7 26  1  0  0  0  0
  7 27  1  0  0  0  0
  8  9  2  0  0  0  0
  8 10  1  0  0  0  0
 10 11  1  0  0  0  0
 10 28  1  0  0  0  0
 11 12  1  0  0  0  0
 11 29  1  0  0  0  0
 11 30  1  0  0  0  0
 12 13  1  0  0  0  0
 12 14  1  0  0  0  0
 12 15  1  0  0  0  0
 16 17  2  0  0  0  0
 16 18  1  0  0  0  0
M  END
> <s_m_source_file>
AV-unprocessed.smi

> <i_m_source_file_index>
1367

> <i_lp_mmshare_version>
43012

> <i_f3d_flags>
0

> <s_epik_input>
W0NIM11jMW5jKFtDSDNdKWMoYyg9TylbbkhdMSlbQ0gyXUMoPU8pW05IXVtDSDJdQyhGKShGKUY=

> <s_epik_cmdline>
J2VwaWtfcHl0aG9uJywgJy1waCcsICc3LjAnLCAnLXRuJywgJzgnLCAnLW1hJywgJzIwMCcsICctbWV0YWxfYmluZGluZycsICctaW1hZScsICc8aW5maWxlLm1hZT4nLCAnLW9tYWUnLCAnPG91dGZpbGUubWFlPic=

> <r_lp_tautomer_probability>
0.156392

> <r_epik_Ionization_Penalty>
0.0162169

> <r_epik_Ionization_Penalty_Charging>
0.0161253

> <r_epik_Ionization_Penalty_Neutral>
9.15634e-05

> <r_epik_State_Penalty>
1.51104

> <r_epik_Charging_Adjusted_Penalty>
1.52717

> <i_epik_Tot_Q>
0

> <i_epik_Tot_abs_Q>
0

> <r_epik_Metal_State_Penalty>
1.71038

> <b_epik_Metal_Only>
0

> <s_lp_Force_Field>
OPLS_2005

> <r_lp_Energy>
7.37455

> <b_lp_Chiralities_Consistent>
1

> <s_lp_Variant>
AV-unprocessed.smi:1367-2

> <Gold.Version>
5.8.1

> <Gold.Id.Protein>
6NUR|6NUR_protein|mol2

> <Gold.PLP.Fitness>
42.2393

> <Gold.PLP.PLP>
-39.5618

> <Gold.PLP.part.hbond>
-2.9311

> <Gold.PLP.part.metal>
0.0000

> <Gold.PLP.part.buried>
-0.1262

> <Gold.PLP.part.nonpolar>
-39.6472

> <Gold.PLP.part.repulsive>
4.3112

> <Gold.PLP.ligand.clash>
0.0000

> <Gold.PLP.ligand.torsion>
0.1282

> <Gold.PLP.Chemscore.Hbond>
0.9760

> <Gold.PLP.Chemscore.CHOScore>
0.0000

> <Gold.PLP.Chemscore.Metal>
0.0000

> <Gold.Chemscore.Hbonds>
donor molecule, donor type, donor heavy atom, donor atom, acceptor molecule, acceptor atom, score
      L1  H     3    19       P1  7948  0.98

> <Gold.PLP.Chemscore.Internal.Correction>
0.0059

> <Gold.Rescore>
     Score         DG    S(hbond)    S(metal)    S(lipo)     H(rot)  DE(clash)    DE(int)     intcor
      7.67     -10.29       0.88        0.00      57.57       1.90       2.50       0.12       ----

> <Gold.Chemscore.Fitness>
7.6705

> <Gold.Chemscore.DG>
-10.2874

> <Gold.Chemscore.ZeroCoef>
-5.4800

> <Gold.Chemscore.Hbond>
0.8766

> <Gold.Chemscore.Metal>
0.0000

> <Gold.Chemscore.Lipo>
57.5684

> <Gold.Chemscore.Internal_Hbond>
0.0000

> <Gold.Chemscore.DEClash>
2.4953

> <Gold.Chemscore.DEInternal>
0.1215

> <Gold.Chemscore.Rot>
1.8968

> <Gold.Chemscore.Internal.Correction>
   9.000000E+99

> <Gold.Chemscore.Hbonds>
donor molecule, donor type, donor heavy atom, donor atom, acceptor molecule, acceptor atom, score
      L1  H     3    19       P1  7948  0.93

> <Gold.Chemscore.Hbond.Weighted>
-2.9278

> <Gold.Chemscore.Metal.Weighted>
-0.0000

> <Gold.Chemscore.Lipo.Weighted>
-6.7355

> <Gold.Chemscore.Internal_Hbond.Weighted>
0.0000

> <Gold.Chemscore.DEClash.Weighted>
2.4953

> <Gold.Chemscore.DEInternal.Weighted>
0.1215

> <Gold.Chemscore.Rot.Weighted>
4.8559

> <Gold.Chemscore.Internal.Correction.Weighted>
   9.000000E+99

> <Gold.Protein.RotatedTorsions>
[ 6907 6896 6895 6894 ] final  -91.80 input  -60.11 | X-H torsion
[ 7974 7965 7964 7962 ] final  153.01 input  175.53 | X-H torsion
[ 8008 7997 7996 7995 ] final  -55.12 input   59.86 | X-H torsion
[ 10167 10162 10161 10158 ] final  -20.80 input  -65.29 | X-H torsion
[ 10718 10713 10712 10709 ] final -121.10 input   66.30 | X-H torsion
[ 10763 10752 10751 10750 ] final -160.42 input  -60.55 | X-H torsion
[ 11005 11000 10999 10996 ] final  136.01 input  -57.11 | X-H torsion

> <Gold.Protein.ActiveResidues>
 VAL166  LYS551  ARG553  GLY616  TRP617  ASP618  TYR619  PRO620  LYS621  CYS622 
 ASP623  PHE694  ASN695  SER759  ASP760  ASP761  ALA762  ILE779  LEU786  VAL792 
 PHE793  MET794  SER795  GLU796  ALA797  LYS798  CYS799  TRP800  GLU811  SER814 

> <Gold.Protein.RotatedAtoms>
  150.6897  134.2220  159.4400 H   0  0  0  0  0  0  0  0  0  0  0  0  # atno 6907 bound_to 6896
  152.0176  134.9838  160.0579 H   0  0  0  0  0  0  0  0  0  0  0  0  # atno 6908 bound_to 6896
  152.1428  133.4439  159.4812 H   0  0  0  0  0  0  0  0  0  0  0  0  # atno 6909 bound_to 6896
  144.8183  139.6744  143.6111 H   0  0  0  0  0  0  0  0  0  0  0  0  # atno 7974 bound_to 7965
  154.4184  140.1160  156.5426 H   0  0  0  0  0  0  0  0  0  0  0  0  # atno 8008 bound_to 7997
  155.6492  140.3496  155.4723 H   0  0  0  0  0  0  0  0  0  0  0  0  # atno 8009 bound_to 7997
  155.9806  140.1159  157.0719 H   0  0  0  0  0  0  0  0  0  0  0  0  # atno 8010 bound_to 7997
  140.7278  143.4688  151.0276 H   0  0  0  0  0  0  0  0  0  0  0  0  # atno 10167 bound_to 10162
  156.1310  130.6395  150.9621 H   0  0  0  0  0  0  0  0  0  0  0  0  # atno 10718 bound_to 10713
  154.7392  135.3064  154.8758 H   0  0  0  0  0  0  0  0  0  0  0  0  # atno 10763 bound_to 10752
  153.9577  135.6756  153.4749 H   0  0  0  0  0  0  0  0  0  0  0  0  # atno 10764 bound_to 10752
  153.0992  135.4920  154.8760 H   0  0  0  0  0  0  0  0  0  0  0  0  # atno 10765 bound_to 10752
  140.0017  134.9475  157.0087 H   0  0  0  0  0  0  0  0  0  0  0  0  # atno 11005 bound_to 11000
  146.2488  139.6154  142.9441 LP  0  0  0  0  0  0  0  0  0  0  0  0  # atno 17320 bound_to 7965
  145.5163  141.0433  143.2460 LP  0  0  0  0  0  0  0  0  0  0  0  0  # atno 17321 bound_to 7965
  139.8378  143.7604  152.3180 LP  0  0  0  0  0  0  0  0  0  0  0  0  # atno 17342 bound_to 10162
  139.7742  144.7466  151.0180 LP  0  0  0  0  0  0  0  0  0  0  0  0  # atno 17343 bound_to 10162
  157.6488  131.0900  150.8096 LP  0  0  0  0  0  0  0  0  0  0  0  0  # atno 17370 bound_to 10713
  156.8181  130.4974  149.5347 LP  0  0  0  0  0  0  0  0  0  0  0  0  # atno 17371 bound_to 10713
  140.4715  134.1382  155.7204 LP  0  0  0  0  0  0  0  0  0  0  0  0  # atno 17394 bound_to 11000
  141.1647  133.8726  157.1749 LP  0  0  0  0  0  0  0  0  0  0  0  0  # atno 17395 bound_to 11000

$$$$
