AV-unprocessed.smi:107|AV-procd|sdf|1026|dock8
  -GOLD-   2262018 23D 1   1.00000     0.00000
 Structure written by MMmdl.
 30 31  0  0  0  0  0  0  0  0  2 V2000
  152.1067  137.8959  154.4326 C   0  0  0  0  0  0  0  0  0  0  0  0
  151.0501  138.8451  154.9699 C   0  0  0  0  0  0  0  0  0  0  0  0
  149.7983  138.8926  154.4631 C   0  0  0  0  0  0  0  0  0  0  0  0
  148.8391  139.7607  154.9536 N   0  0  0  0  0  0  0  0  0  0  0  0
  147.4523  139.7855  154.3517 C   0  0  1  0  0  0  0  0  0  0  0  0
  147.5234  139.9228  152.8291 C   0  0  0  0  0  0  0  0  0  0  0  0
  146.3977  139.0100  152.3892 C   0  0  1  0  0  0  0  0  0  0  0  0
  146.6192  138.5343  151.0773 O   0  0  0  0  0  0  0  0  0  0  0  0
  146.4674  137.8958  153.4379 C   0  0  2  0  0  0  0  0  0  0  0  0
  145.1552  137.1247  153.6483 C   0  0  0  0  0  0  0  0  0  0  0  0
  144.1921  137.9423  154.2790 O   0  0  0  0  0  0  0  0  0  0  0  0
  146.8074  138.5788  154.6423 O   0  0  0  0  0  0  0  0  0  0  0  0
  149.1729  140.6531  156.0062 C   0  0  0  0  0  0  0  0  0  0  0  0
  148.3126  141.4415  156.3983 O   0  0  0  0  0  0  0  0  0  0  0  0
  150.4310  140.6058  156.5303 N   0  5  0  0  0  0  0  0  0  0  0  0
  151.3900  139.7493  156.0751 C   0  0  0  0  0  0  0  0  0  0  0  0
  152.5206  139.7158  156.5598 O   0  0  0  0  0  0  0  0  0  0  0  0
  151.7142  137.2857  153.6188 H   0  0  0  0  0  0  0  0  0  0  0  0
  152.4531  137.2261  155.2201 H   0  0  0  0  0  0  0  0  0  0  0  0
  152.9634  138.4543  154.0536 H   0  0  0  0  0  0  0  0  0  0  0  0
  149.5440  138.2349  153.6461 H   0  0  0  0  0  0  0  0  0  0  0  0
  146.8889  140.5833  154.8364 H   0  0  0  0  0  0  0  0  0  0  0  0
  147.4020  140.9608  152.5182 H   0  0  0  0  0  0  0  0  0  0  0  0
  148.4857  139.5533  152.4700 H   0  0  0  0  0  0  0  0  0  0  0  0
  145.4444  139.5372  152.4461 H   0  0  0  0  0  0  0  0  0  0  0  0
  145.8037  138.5835  150.6018 H   0  0  0  0  0  0  0  0  0  0  0  0
  147.2822  137.2076  153.2062 H   0  0  0  0  0  0  0  0  0  0  0  0
  144.7533  136.8053  152.6866 H   0  0  0  0  0  0  0  0  0  0  0  0
  145.3204  136.2256  154.2425 H   0  0  0  0  0  0  0  0  0  0  0  0
  143.9385  138.6256  153.6771 H   0  0  0  0  0  0  0  0  0  0  0  0
  1  2  1  0  0  0  0
  1 18  1  0  0  0  0
  1 19  1  0  0  0  0
  1 20  1  0  0  0  0
  2 16  1  0  0  0  0
  2  3  2  0  0  0  0
  3  4  1  0  0  0  0
  3 21  1  0  0  0  0
  4  5  1  0  0  0  0
  4 13  1  0  0  0  0
  5 12  1  0  0  0  0
  5  6  1  0  0  0  0
  5 22  1  0  0  0  0
  6  7  1  0  0  0  0
  6 23  1  0  0  0  0
  6 24  1  0  0  0  0
  7  8  1  0  0  0  0
  7  9  1  0  0  0  0
  7 25  1  0  0  0  0
  8 26  1  0  0  0  0
  9 10  1  0  0  0  0
  9 12  1  0  0  0  0
  9 27  1  0  0  0  0
 10 11  1  0  0  0  0
 10 28  1  0  0  0  0
 10 29  1  0  0  0  0
 11 30  1  0  0  0  0
 13 14  2  0  0  0  0
 13 15  1  0  0  0  0
 15 16  1  0  0  0  0
 16 17  2  0  0  0  0
M  CHG  1  15  -1
M  END
> <s_m_source_file>
AV-unprocessed.smi

> <i_m_source_file_index>
107

> <i_lp_mmshare_version>
43012

> <i_f3d_flags>
0

> <s_epik_input>
Tz1jMVtuSF1jKD1PKW4oW2NIXWMxW0NIM10pW0NAQEhdMltDSDJdW0NAQEhdKFtPSF0pW0NASF0oTzIpW0NIMl1bT0hd

> <s_epik_cmdline>
J2VwaWtfcHl0aG9uJywgJy1waCcsICc3LjAnLCAnLXRuJywgJzgnLCAnLW1hJywgJzIwMCcsICctbWV0YWxfYmluZGluZycsICctaW1hZScsICc8aW5maWxlLm1hZT4nLCAnLW9tYWUnLCAnPG91dGZpbGUubWFlPic=

> <r_lp_tautomer_probability>
0.999537

> <r_epik_Ionization_Penalty>
3.66603

> <r_epik_Ionization_Penalty_Charging>
1.09773e-07

> <r_epik_Ionization_Penalty_Neutral>
3.66603

> <r_epik_State_Penalty>
3.66562

> <r_epik_Charging_Adjusted_Penalty>
3.66562

> <i_epik_Tot_Q>
-1

> <i_epik_Tot_abs_Q>
1

> <r_epik_Metal_State_Penalty>
0.234536

> <b_epik_Metal_Only>
1

> <s_epik_Chemistry_Notes>
This compound contains an acetal/aminal-like group ( X-CH(R)-Y where X, Y are N, S, or O) that may be acid/base labile, releasing an aldehyde.

> <s_lp_Force_Field>
OPLS_2005

> <r_lp_Energy>
34.2111

> <b_lp_Chiralities_Consistent>
1

> <s_lp_Variant>
AV-unprocessed.smi:107-14

> <Gold.Version>
5.8.1

> <Gold.Id.Protein>
6NUR|6NUR_protein|mol2

> <Gold.PLP.Fitness>
41.1008

> <Gold.PLP.PLP>
-26.4816

> <Gold.PLP.part.hbond>
-4.7425

> <Gold.PLP.part.metal>
0.0000

> <Gold.PLP.part.buried>
2.9237

> <Gold.PLP.part.nonpolar>
-25.9746

> <Gold.PLP.part.repulsive>
1.0615

> <Gold.PLP.ligand.clash>
0.0000

> <Gold.PLP.ligand.torsion>
0.1816

> <Gold.PLP.Chemscore.Hbond>
3.9913

> <Gold.PLP.Chemscore.CHOScore>
1.0000

> <Gold.PLP.Chemscore.Metal>
0.0000

> <Gold.Chemscore.Hbonds>
donor molecule, donor type, donor heavy atom, donor atom, acceptor molecule, acceptor atom, score
      L1  H     8    26       P1 10171  0.91
      L1  H    11    30       P1 10175  0.59
      P1  H  7954  7966       L1     8  0.94
      P1  H  7997  8010       L1    17  1.00
      L1  C     3    21       P1  7948  0.54

> <Gold.PLP.Chemscore.Internal.Correction>
0.0085

> <Gold.Rescore>
     Score         DG    S(hbond)    S(metal)    S(lipo)     H(rot)  DE(clash)    DE(int)     intcor
     15.63     -17.74       3.90        0.00      52.19       2.69       1.82       0.29       ----

> <Gold.Chemscore.Fitness>
15.6344

> <Gold.Chemscore.DG>
-17.7427

> <Gold.Chemscore.ZeroCoef>
-5.4800

> <Gold.Chemscore.Hbond>
3.9029

> <Gold.Chemscore.Metal>
0.0000

> <Gold.Chemscore.Lipo>
52.1871

> <Gold.Chemscore.Internal_Hbond>
0.0000

> <Gold.Chemscore.DEClash>
1.8228

> <Gold.Chemscore.DEInternal>
0.2855

> <Gold.Chemscore.Rot>
2.6871

> <Gold.Chemscore.Internal.Correction>
   9.000000E+99

> <Gold.Chemscore.Hbonds>
donor molecule, donor type, donor heavy atom, donor atom, acceptor molecule, acceptor atom, score
      L1  H     8    26       P1 10171  0.87
      L1  H    11    30       P1 10175  0.58
      P1  H  7954  7966       L1     8  0.71
      P1  H  7997  8010       L1    17  1.00

> <Gold.Chemscore.Hbond.Weighted>
-13.0358

> <Gold.Chemscore.Metal.Weighted>
-0.0000

> <Gold.Chemscore.Lipo.Weighted>
-6.1059

> <Gold.Chemscore.Internal_Hbond.Weighted>
0.0000

> <Gold.Chemscore.DEClash.Weighted>
1.8228

> <Gold.Chemscore.DEInternal.Weighted>
0.2855

> <Gold.Chemscore.Rot.Weighted>
6.8791

> <Gold.Chemscore.Internal.Correction.Weighted>
   9.000000E+99

> <Gold.Protein.RotatedTorsions>
[ 6907 6896 6895 6894 ] final -165.85 input  -60.11 | X-H torsion
[ 7974 7965 7964 7962 ] final  145.19 input  175.53 | X-H torsion
[ 8008 7997 7996 7995 ] final   69.01 input   59.86 | X-H torsion
[ 10167 10162 10161 10158 ] final  -68.66 input  -65.29 | X-H torsion
[ 10718 10713 10712 10709 ] final  -20.92 input   66.30 | X-H torsion
[ 10763 10752 10751 10750 ] final -169.21 input  -60.55 | X-H torsion
[ 11005 11000 10999 10996 ] final   17.68 input  -57.11 | X-H torsion

> <Gold.Protein.ActiveResidues>
 VAL166  LYS551  ARG553  GLY616  TRP617  ASP618  TYR619  PRO620  LYS621  CYS622 
 ASP623  PHE694  ASN695  SER759  ASP760  ASP761  ALA762  ILE779  LEU786  VAL792 
 PHE793  MET794  SER795  GLU796  ALA797  LYS798  CYS799  TRP800  GLU811  SER814 

> <Gold.Protein.RotatedAtoms>
  151.4343  133.3661  159.2772 H   0  0  0  0  0  0  0  0  0  0  0  0  # atno 6907 bound_to 6896
  150.9203  134.8622  159.7495 H   0  0  0  0  0  0  0  0  0  0  0  0  # atno 6908 bound_to 6896
  152.4978  134.4280  159.9554 H   0  0  0  0  0  0  0  0  0  0  0  0  # atno 6909 bound_to 6896
  144.8773  139.5753  143.5859 H   0  0  0  0  0  0  0  0  0  0  0  0  # atno 7974 bound_to 7965
  155.7171  140.3493  155.4999 H   0  0  0  0  0  0  0  0  0  0  0  0  # atno 8008 bound_to 7997
  155.9303  140.1083  157.1159 H   0  0  0  0  0  0  0  0  0  0  0  0  # atno 8009 bound_to 7997
  154.4084  140.1232  156.4781 H   0  0  0  0  0  0  0  0  0  0  0  0  # atno 8010 bound_to 7997
  140.5490  143.2312  151.6947 H   0  0  0  0  0  0  0  0  0  0  0  0  # atno 10167 bound_to 10162
  156.5252  130.4642  149.6576 H   0  0  0  0  0  0  0  0  0  0  0  0  # atno 10718 bound_to 10713
  154.6547  135.2916  154.9943 H   0  0  0  0  0  0  0  0  0  0  0  0  # atno 10763 bound_to 10752
  154.1023  135.6575  153.4874 H   0  0  0  0  0  0  0  0  0  0  0  0  # atno 10764 bound_to 10752
  153.0396  135.5245  154.7471 H   0  0  0  0  0  0  0  0  0  0  0  0  # atno 10765 bound_to 10752
  140.4333  134.1398  155.7682 H   0  0  0  0  0  0  0  0  0  0  0  0  # atno 11005 bound_to 11000
  146.2971  139.7311  142.9119 LP  0  0  0  0  0  0  0  0  0  0  0  0  # atno 17320 bound_to 7965
  145.4020  141.0386  143.3065 LP  0  0  0  0  0  0  0  0  0  0  0  0  # atno 17321 bound_to 7965
  139.5019  144.3848  152.0340 LP  0  0  0  0  0  0  0  0  0  0  0  0  # atno 17342 bound_to 10162
  140.2963  144.3697  150.6073 LP  0  0  0  0  0  0  0  0  0  0  0  0  # atno 17343 bound_to 10162
  156.3112  130.7230  151.2123 LP  0  0  0  0  0  0  0  0  0  0  0  0  # atno 17370 bound_to 10713
  157.7430  131.0481  150.4976 LP  0  0  0  0  0  0  0  0  0  0  0  0  # atno 17371 bound_to 10713
  141.1736  133.8558  157.1491 LP  0  0  0  0  0  0  0  0  0  0  0  0  # atno 17394 bound_to 11000
  140.0120  134.9984  157.0414 LP  0  0  0  0  0  0  0  0  0  0  0  0  # atno 17395 bound_to 11000

$$$$
