AV-unprocessed.smi:1900|AV-procd|sdf|7713|dock9
  -GOLD-   22720 9453D 1   1.00000     0.00000
 Structure written by MMmdl.
 43 44  0  0  0  0  0  0  0  0  1 V2000
  151.2852  138.1819  154.1072 C   0  0  0  0  0  0  0  0  0  0  0  0
  150.2196  139.1099  154.6992 C   0  0  2  0  0  0  0  0  0  0  0  0
  149.1290  139.4677  153.6733 C   0  0  0  0  0  0  0  0  0  0  0  0
  148.1662  140.4178  154.2136 N   0  0  0  0  0  0  0  0  0  0  0  0
  147.1023  140.7006  153.2499 C   0  0  0  0  0  0  0  0  0  0  0  0
  146.7437  139.5385  152.3058 C   0  0  0  0  0  0  0  0  0  0  0  0
  146.1553  138.3228  153.0443 C   0  0  0  0  0  0  0  0  0  0  0  0
  146.4927  137.0728  152.3738 N   0  0  0  0  0  0  0  0  0  0  0  0
  145.6005  136.1519  151.9811 C   0  0  0  0  0  0  0  0  0  0  0  0
  144.3855  136.2697  152.1423 O   0  0  0  0  0  0  0  0  0  0  0  0
  146.2039  135.1042  151.3966 N   0  0  0  0  0  0  0  0  0  0  0  0
  145.5841  133.9482  150.8598 C   0  0  0  0  0  0  0  0  0  0  0  0
  146.1568  132.6811  150.5434 C   0  0  0  0  0  0  0  0  0  0  0  0
  145.2453  131.8509  150.0564 N   0  0  0  0  0  0  0  0  0  0  0  0
  144.1017  132.5721  150.0587 N   0  0  0  0  0  0  0  0  0  0  0  0
  144.2630  133.8531  150.5388 C   0  0  0  0  0  0  0  0  0  0  0  0
  148.8751  141.6201  154.6464 C   0  0  0  0  0  0  0  0  0  0  0  0
  149.9989  141.3133  155.6554 C   0  0  1  0  0  0  0  0  0  0  0  0
  149.4724  140.9564  157.0562 C   0  0  0  0  0  0  0  0  0  0  0  0
  150.8671  140.3024  155.1396 O   0  0  0  0  0  0  0  0  0  0  0  0
  143.2296  132.1801  149.7331 H   0  0  0  0  0  0  0  0  0  0  0  0
  150.8437  137.2474  153.7604 H   0  0  0  0  0  0  0  0  0  0  0  0
  152.0432  137.9357  154.8510 H   0  0  0  0  0  0  0  0  0  0  0  0
  151.7885  138.6494  153.2606 H   0  0  0  0  0  0  0  0  0  0  0  0
  149.7647  138.6084  155.5539 H   0  0  0  0  0  0  0  0  0  0  0  0
  149.5919  139.8820  152.7760 H   0  0  0  0  0  0  0  0  0  0  0  0
  148.6146  138.5566  153.3660 H   0  0  0  0  0  0  0  0  0  0  0  0
  146.2048  141.0184  153.7824 H   0  0  0  0  0  0  0  0  0  0  0  0
  147.3979  141.5503  152.6329 H   0  0  0  0  0  0  0  0  0  0  0  0
  146.0610  139.8791  151.5278 H   0  0  0  0  0  0  0  0  0  0  0  0
  147.6474  139.2271  151.7811 H   0  0  0  0  0  0  0  0  0  0  0  0
  146.5438  138.2828  154.0620 H   0  0  0  0  0  0  0  0  0  0  0  0
  145.0708  138.4096  153.1312 H   0  0  0  0  0  0  0  0  0  0  0  0
  147.4715  136.8961  152.2014 H   0  0  0  0  0  0  0  0  0  0  0  0
  147.2104  135.1370  151.3278 H   0  0  0  0  0  0  0  0  0  0  0  0
  147.1744  132.3350  150.6444 H   0  0  0  0  0  0  0  0  0  0  0  0
  143.4489  134.5594  150.6073 H   0  0  0  0  0  0  0  0  0  0  0  0
  149.3059  142.1192  153.7771 H   0  0  0  0  0  0  0  0  0  0  0  0
  148.1856  142.3310  155.1002 H   0  0  0  0  0  0  0  0  0  0  0  0
  150.6061  142.2124  155.7640 H   0  0  0  0  0  0  0  0  0  0  0  0
  148.9023  141.7847  157.4777 H   0  0  0  0  0  0  0  0  0  0  0  0
  150.2947  140.7399  157.7381 H   0  0  0  0  0  0  0  0  0  0  0  0
  148.8148  140.0877  157.0376 H   0  0  0  0  0  0  0  0  0  0  0  0
  1  2  1  0  0  0  0
  1 22  1  0  0  0  0
  1 23  1  0  0  0  0
  1 24  1  0  0  0  0
  2 20  1  0  0  0  0
  2  3  1  0  0  0  0
  2 25  1  0  0  0  0
  3  4  1  0  0  0  0
  3 26  1  0  0  0  0
  3 27  1  0  0  0  0
  4  5  1  0  0  0  0
  4 17  1  0  0  0  0
  5  6  1  0  0  0  0
  5 28  1  0  0  0  0
  5 29  1  0  0  0  0
  6  7  1  0  0  0  0
  6 30  1  0  0  0  0
  6 31  1  0  0  0  0
  7  8  1  0  0  0  0
  7 32  1  0  0  0  0
  7 33  1  0  0  0  0
  8  9  1  0  0  0  0
  8 34  1  0  0  0  0
  9 10  2  0  0  0  0
  9 11  1  0  0  0  0
 11 12  1  0  0  0  0
 11 35  1  0  0  0  0
 12 16  2  0  0  0  0
 12 13  1  0  0  0  0
 13 14  2  0  0  0  0
 13 36  1  0  0  0  0
 14 15  1  0  0  0  0
 15 21  1  0  0  0  0
 15 16  1  0  0  0  0
 16 37  1  0  0  0  0
 17 18  1  0  0  0  0
 17 38  1  0  0  0  0
 17 39  1  0  0  0  0
 18 19  1  0  0  0  0
 18 20  1  0  0  0  0
 18 40  1  0  0  0  0
 19 41  1  0  0  0  0
 19 42  1  0  0  0  0
 19 43  1  0  0  0  0
M  END
> <s_m_source_file>
AV-unprocessed.smi

> <i_m_source_file_index>
1900

> <i_lp_mmshare_version>
43012

> <i_f3d_flags>
0

> <s_epik_input>
W0NIM11bQ0BASF0xW0NIMl1OKFtDSDJdW0NASF0oTzEpW0NIM10pW0NIMl1bQ0gyXVtDSDJdW05IXUMoPU8pW05IXWMyW2NIXW5bbkhdW2NIXTI=

> <s_epik_cmdline>
J2VwaWtfcHl0aG9uJywgJy1waCcsICc3LjAnLCAnLXRuJywgJzgnLCAnLW1hJywgJzIwMCcsICctbWV0YWxfYmluZGluZycsICctaW1hZScsICc8aW5maWxlLm1hZT4nLCAnLW9tYWUnLCAnPG91dGZpbGUubWFlPic=

> <r_lp_tautomer_probability>
0.5

> <r_epik_Ionization_Penalty>
0.594715

> <r_epik_Ionization_Penalty_Charging>
0

> <r_epik_Ionization_Penalty_Neutral>
0.594715

> <r_epik_State_Penalty>
0.608529

> <r_epik_Charging_Adjusted_Penalty>
0.608529

> <i_epik_Tot_Q>
0

> <i_epik_Tot_abs_Q>
0

> <r_epik_Metal_State_Penalty>
0.608528

> <b_epik_Metal_Only>
0

> <s_lp_Force_Field>
OPLS_2005

> <r_lp_Energy>
27.7437

> <b_lp_Chiralities_Consistent>
1

> <s_lp_Variant>
AV-unprocessed.smi:1900-5

> <Gold.Version>
5.8.1

> <Gold.Id.Protein>
6NUR|6NUR_protein|mol2

> <Gold.PLP.Fitness>
46.0809

> <Gold.PLP.PLP>
-33.6341

> <Gold.PLP.part.hbond>
-3.0000

> <Gold.PLP.part.metal>
0.0000

> <Gold.PLP.part.buried>
-1.6753

> <Gold.PLP.part.nonpolar>
-30.5685

> <Gold.PLP.part.repulsive>
0.6797

> <Gold.PLP.ligand.clash>
0.0000

> <Gold.PLP.ligand.torsion>
0.6127

> <Gold.PLP.Chemscore.Hbond>
2.7706

> <Gold.PLP.Chemscore.CHOScore>
1.7766

> <Gold.PLP.Chemscore.Metal>
0.0000

> <Gold.Chemscore.Hbonds>
donor molecule, donor type, donor heavy atom, donor atom, acceptor molecule, acceptor atom, score
      L1  H     8    34       P1  7948  1.00
      L1  H    11    35       P1  7948  0.83
      P1  H  7989  7998       L1    20  1.00
      L1  C    13    36       P1 10747  1.00
      L1  C    16    37       P1 10186  0.69

> <Gold.PLP.Chemscore.Internal.Correction>
0.0303

> <Gold.Rescore>
     Score         DG    S(hbond)    S(metal)    S(lipo)     H(rot)  DE(clash)    DE(int)     intcor
     14.01     -15.97       1.92        0.00      76.04       1.88       0.09       1.88       ----

> <Gold.Chemscore.Fitness>
14.0058

> <Gold.Chemscore.DG>
-15.9713

> <Gold.Chemscore.ZeroCoef>
-5.4800

> <Gold.Chemscore.Hbond>
1.9182

> <Gold.Chemscore.Metal>
0.0000

> <Gold.Chemscore.Lipo>
76.0421

> <Gold.Chemscore.Internal_Hbond>
0.0000

> <Gold.Chemscore.DEClash>
0.0853

> <Gold.Chemscore.DEInternal>
1.8802

> <Gold.Chemscore.Rot>
1.8799

> <Gold.Chemscore.Internal.Correction>
   9.000000E+99

> <Gold.Chemscore.Hbonds>
donor molecule, donor type, donor heavy atom, donor atom, acceptor molecule, acceptor atom, score
      L1  H     8    34       P1  7948  1.00
      L1  H    11    35       P1  7948  0.58
      P1  H  7989  7998       L1    20  0.19

> <Gold.Chemscore.Hbond.Weighted>
-6.4069

> <Gold.Chemscore.Metal.Weighted>
-0.0000

> <Gold.Chemscore.Lipo.Weighted>
-8.8969

> <Gold.Chemscore.Internal_Hbond.Weighted>
0.0000

> <Gold.Chemscore.DEClash.Weighted>
0.0853

> <Gold.Chemscore.DEInternal.Weighted>
1.8802

> <Gold.Chemscore.Rot.Weighted>
4.8126

> <Gold.Chemscore.Internal.Correction.Weighted>
   9.000000E+99

> <Gold.Protein.RotatedTorsions>
[ 6907 6896 6895 6894 ] final  107.58 input  -60.11 | X-H torsion
[ 7974 7965 7964 7962 ] final   68.63 input  175.53 | X-H torsion
[ 8008 7997 7996 7995 ] final -139.41 input   59.86 | X-H torsion
[ 10167 10162 10161 10158 ] final  173.82 input  -65.29 | X-H torsion
[ 10718 10713 10712 10709 ] final  -27.32 input   66.30 | X-H torsion
[ 10763 10752 10751 10750 ] final  -13.48 input  -60.55 | X-H torsion
[ 11005 11000 10999 10996 ] final   36.45 input  -57.11 | X-H torsion

> <Gold.Protein.ActiveResidues>
 VAL166  LYS551  ARG553  GLY616  TRP617  ASP618  TYR619  PRO620  LYS621  CYS622 
 ASP623  PHE694  ASN695  SER759  ASP760  ASP761  ALA762  ILE779  LEU786  VAL792 
 PHE793  MET794  SER795  GLU796  ALA797  LYS798  CYS799  TRP800  GLU811  SER814 

> <Gold.Protein.RotatedAtoms>
  152.5148  133.9214  159.7535 H   0  0  0  0  0  0  0  0  0  0  0  0  # atno 6907 bound_to 6896
  150.9585  133.6463  159.2765 H   0  0  0  0  0  0  0  0  0  0  0  0  # atno 6908 bound_to 6896
  151.3716  135.0929  159.9520 H   0  0  0  0  0  0  0  0  0  0  0  0  # atno 6909 bound_to 6896
  145.8003  139.2979  143.1159 H   0  0  0  0  0  0  0  0  0  0  0  0  # atno 7974 bound_to 7965
  155.4444  140.0534  157.3007 H   0  0  0  0  0  0  0  0  0  0  0  0  # atno 8008 bound_to 7997
  154.4804  140.2079  155.9734 H   0  0  0  0  0  0  0  0  0  0  0  0  # atno 8009 bound_to 7997
  156.1197  140.3190  155.8194 H   0  0  0  0  0  0  0  0  0  0  0  0  # atno 8010 bound_to 7997
  139.5121  144.3217  152.0196 H   0  0  0  0  0  0  0  0  0  0  0  0  # atno 10167 bound_to 10162
  156.4396  130.4461  149.7061 H   0  0  0  0  0  0  0  0  0  0  0  0  # atno 10718 bound_to 10713
  153.5139  135.7016  153.5766 H   0  0  0  0  0  0  0  0  0  0  0  0  # atno 10763 bound_to 10752
  153.3844  135.3912  155.1880 H   0  0  0  0  0  0  0  0  0  0  0  0  # atno 10764 bound_to 10752
  154.8701  135.3843  154.4622 H   0  0  0  0  0  0  0  0  0  0  0  0  # atno 10765 bound_to 10752
  140.2324  134.3512  155.7958 H   0  0  0  0  0  0  0  0  0  0  0  0  # atno 11005 bound_to 11000
  145.9885  140.8623  143.0078 LP  0  0  0  0  0  0  0  0  0  0  0  0  # atno 17320 bound_to 7965
  144.6769  140.2181  143.7369 LP  0  0  0  0  0  0  0  0  0  0  0  0  # atno 17321 bound_to 7965
  140.2658  144.4017  150.6169 LP  0  0  0  0  0  0  0  0  0  0  0  0  # atno 17342 bound_to 10162
  140.6124  143.2170  151.6860 LP  0  0  0  0  0  0  0  0  0  0  0  0  # atno 17343 bound_to 10162
  156.3931  130.7637  151.2640 LP  0  0  0  0  0  0  0  0  0  0  0  0  # atno 17370 bound_to 10713
  157.7506  131.0262  150.3951 LP  0  0  0  0  0  0  0  0  0  0  0  0  # atno 17371 bound_to 10713
  141.2217  133.7253  156.8753 LP  0  0  0  0  0  0  0  0  0  0  0  0  # atno 17394 bound_to 11000
  140.1737  134.9082  157.2864 LP  0  0  0  0  0  0  0  0  0  0  0  0  # atno 17395 bound_to 11000

$$$$
