AV-unprocessed.smi:852|AV-procd|sdf|3952|dock4
  -GOLD-   22720 1423D 1   1.00000     0.00000
 Structure written by MMmdl.
 30 31  0  0  0  0  0  0  0  0  1 V2000
  153.6890  143.6758  159.1514 C   0  0  0  0  0  0  0  0  0  0  0  0
  152.8026  142.4303  159.3484 C   0  0  2  0  0  0  0  0  0  0  0  0
  153.6450  141.2183  159.2680 C   0  0  0  0  0  0  0  0  0  0  0  0
  154.3041  140.2687  159.2051 N   0  0  0  0  0  0  0  0  0  0  0  0
  151.7663  142.4067  158.3144 N   0  0  0  0  0  0  0  0  0  0  0  0
  150.8892  141.4207  158.0555 C   0  0  0  0  0  0  0  0  0  0  0  0
  150.8763  140.3461  158.6537 O   0  0  0  0  0  0  0  0  0  0  0  0
  149.8710  141.6834  156.9426 C   0  0  0  0  0  0  0  0  0  0  0  0
  149.9503  140.6817  155.8934 N   0  0  0  0  0  0  0  0  0  0  0  0
  149.1847  140.4930  154.8134 C   0  0  0  0  0  0  0  0  0  0  0  0
  149.5438  139.4527  154.0720 N   0  0  0  0  0  0  0  0  0  0  0  0
  150.6112  139.0269  154.8082 C   0  0  0  0  0  0  0  0  0  0  0  0
  151.3902  137.8655  154.4139 C   0  0  0  0  0  0  0  0  0  0  0  0
  152.0109  136.9407  154.0999 N   0  0  0  0  0  0  0  0  0  0  0  0
  150.9055  139.7201  155.9061 N   0  0  0  0  0  0  0  0  0  0  0  0
  152.1550  142.5092  160.7292 C   0  0  0  0  0  0  0  0  0  0  0  0
  152.1825  143.7645  161.5730 C   0  0  0  0  0  0  0  0  0  0  0  0
  152.9611  142.5420  162.0083 C   0  0  0  0  0  0  0  0  0  0  0  0
  154.4362  143.7526  159.9420 H   0  0  0  0  0  0  0  0  0  0  0  0
  153.0978  144.5922  159.1679 H   0  0  0  0  0  0  0  0  0  0  0  0
  154.2278  143.6466  158.2040 H   0  0  0  0  0  0  0  0  0  0  0  0
  151.6889  143.2441  157.7559 H   0  0  0  0  0  0  0  0  0  0  0  0
  148.8640  141.6803  157.3614 H   0  0  0  0  0  0  0  0  0  0  0  0
  150.0353  142.6695  156.5050 H   0  0  0  0  0  0  0  0  0  0  0  0
  148.3440  141.1257  154.5688 H   0  0  0  0  0  0  0  0  0  0  0  0
  151.2277  141.9416  160.7883 H   0  0  0  0  0  0  0  0  0  0  0  0
  152.7504  144.6194  161.2114 H   0  0  0  0  0  0  0  0  0  0  0  0
  151.2826  144.0112  162.1326 H   0  0  0  0  0  0  0  0  0  0  0  0
  152.5766  141.9766  162.8545 H   0  0  0  0  0  0  0  0  0  0  0  0
  154.0458  142.5834  161.9354 H   0  0  0  0  0  0  0  0  0  0  0  0
  1  2  1  0  0  0  0
  1 19  1  0  0  0  0
  1 20  1  0  0  0  0
  1 21  1  0  0  0  0
  2  3  1  0  0  0  0
  2  5  1  0  0  0  0
  2 16  1  0  0  0  0
  3  4  3  0  0  0  0
  5  6  1  0  0  0  0
  5 22  1  0  0  0  0
  6  7  2  0  0  0  0
  6  8  1  0  0  0  0
  8  9  1  0  0  0  0
  8 23  1  0  0  0  0
  8 24  1  0  0  0  0
  9 15  1  0  0  0  0
  9 10  1  0  0  0  0
 10 11  2  0  0  0  0
 10 25  1  0  0  0  0
 11 12  1  0  0  0  0
 12 13  1  0  0  0  0
 12 15  2  0  0  0  0
 13 14  3  0  0  0  0
 16 18  1  0  0  0  0
 16 17  1  0  0  0  0
 16 26  1  0  0  0  0
 17 18  1  0  0  0  0
 17 27  1  0  0  0  0
 17 28  1  0  0  0  0
 18 29  1  0  0  0  0
 18 30  1  0  0  0  0
M  END
> <s_m_source_file>
AV-unprocessed.smi

> <i_m_source_file_index>
852

> <i_lp_mmshare_version>
43012

> <i_f3d_flags>
0

> <s_epik_input>
W0NIMl0xW0NIMl1bQ0hdMVtDQF0oW0NIM10pKEMjTilbTkhdQyg9TylbQ0gyXW4yW2NIXW5jKG4yKUMjTg==

> <s_epik_cmdline>
J2VwaWtfcHl0aG9uJywgJy1waCcsICc3LjAnLCAnLXRuJywgJzgnLCAnLW1hJywgJzIwMCcsICctbWV0YWxfYmluZGluZycsICctaW1hZScsICc8aW5maWxlLm1hZT4nLCAnLW9tYWUnLCAnPG91dGZpbGUubWFlPic=

> <r_lp_tautomer_probability>
1

> <r_epik_Ionization_Penalty>
2.64294e-06

> <r_epik_Ionization_Penalty_Charging>
0

> <r_epik_Ionization_Penalty_Neutral>
2.64294e-06

> <r_epik_State_Penalty>
-0

> <r_epik_Charging_Adjusted_Penalty>
0

> <i_epik_Tot_Q>
0

> <i_epik_Tot_abs_Q>
0

> <r_epik_Metal_State_Penalty>
-0

> <b_epik_Metal_Only>
0

> <s_lp_Force_Field>
OPLS_2005

> <r_lp_Energy>
16.3367

> <b_lp_Chiralities_Consistent>
1

> <s_lp_Variant>
AV-unprocessed.smi:852-2

> <Gold.Version>
5.8.1

> <Gold.Id.Protein>
6NUR|6NUR_protein|mol2

> <Gold.PLP.Fitness>
36.1515

> <Gold.PLP.PLP>
-31.1527

> <Gold.PLP.part.hbond>
-2.0000

> <Gold.PLP.part.metal>
0.0000

> <Gold.PLP.part.buried>
-6.2032

> <Gold.PLP.part.nonpolar>
-24.5834

> <Gold.PLP.part.repulsive>
3.0698

> <Gold.PLP.ligand.clash>
0.0000

> <Gold.PLP.ligand.torsion>
1.1493

> <Gold.PLP.Chemscore.Hbond>
1.9280

> <Gold.PLP.Chemscore.CHOScore>
0.0000

> <Gold.PLP.Chemscore.Metal>
0.0000

> <Gold.Chemscore.Hbonds>
donor molecule, donor type, donor heavy atom, donor atom, acceptor molecule, acceptor atom, score
      P1  H  7997  8009       L1     4  0.90
      P1  H 10752 10764       L1    14  1.00

> <Gold.PLP.Chemscore.Internal.Correction>
1.5134

> <Gold.Rescore>
     Score         DG    S(hbond)    S(metal)    S(lipo)     H(rot)  DE(clash)    DE(int)     intcor
      8.26     -12.50       1.72        0.00      64.79       2.46       0.58       3.66       ----

> <Gold.Chemscore.Fitness>
8.2640

> <Gold.Chemscore.DG>
-12.5047

> <Gold.Chemscore.ZeroCoef>
-5.4800

> <Gold.Chemscore.Hbond>
1.7169

> <Gold.Chemscore.Metal>
0.0000

> <Gold.Chemscore.Lipo>
64.7903

> <Gold.Chemscore.Internal_Hbond>
0.0000

> <Gold.Chemscore.DEClash>
0.5770

> <Gold.Chemscore.DEInternal>
3.6637

> <Gold.Chemscore.Rot>
2.4571

> <Gold.Chemscore.Internal.Correction>
   9.000000E+99

> <Gold.Chemscore.Hbonds>
donor molecule, donor type, donor heavy atom, donor atom, acceptor molecule, acceptor atom, score
      P1  H  7997  8009       L1     4  0.58
      P1  H 10752 10764       L1    14  0.95

> <Gold.Chemscore.Hbond.Weighted>
-5.7343

> <Gold.Chemscore.Metal.Weighted>
-0.0000

> <Gold.Chemscore.Lipo.Weighted>
-7.5805

> <Gold.Chemscore.Internal_Hbond.Weighted>
0.0000

> <Gold.Chemscore.DEClash.Weighted>
0.5770

> <Gold.Chemscore.DEInternal.Weighted>
3.6637

> <Gold.Chemscore.Rot.Weighted>
6.2901

> <Gold.Chemscore.Internal.Correction.Weighted>
   9.000000E+99

> <Gold.Protein.RotatedTorsions>
[ 6907 6896 6895 6894 ] final   18.34 input  -60.11 | X-H torsion
[ 7974 7965 7964 7962 ] final   70.14 input  175.53 | X-H torsion
[ 8008 7997 7996 7995 ] final  127.32 input   59.86 | X-H torsion
[ 10167 10162 10161 10158 ] final  161.05 input  -65.29 | X-H torsion
[ 10718 10713 10712 10709 ] final -132.82 input   66.30 | X-H torsion
[ 10763 10752 10751 10750 ] final  -81.35 input  -60.55 | X-H torsion
[ 11005 11000 10999 10996 ] final -119.13 input  -57.11 | X-H torsion

> <Gold.Protein.ActiveResidues>
 VAL166  LYS551  ARG553  GLY616  TRP617  ASP618  TYR619  PRO620  LYS621  CYS622 
 ASP623  PHE694  ASN695  SER759  ASP760  ASP761  ALA762  ILE779  LEU786  VAL792 
 PHE793  MET794  SER795  GLU796  ALA797  LYS798  CYS799  TRP800  GLU811  SER814 

> <Gold.Protein.RotatedAtoms>
  151.8637  135.0514  160.0471 H   0  0  0  0  0  0  0  0  0  0  0  0  # atno 6907 bound_to 6896
  152.2642  133.5320  159.5408 H   0  0  0  0  0  0  0  0  0  0  0  0  # atno 6908 bound_to 6896
  150.7127  134.0703  159.3904 H   0  0  0  0  0  0  0  0  0  0  0  0  # atno 6909 bound_to 6896
  145.7818  139.2891  143.1261 H   0  0  0  0  0  0  0  0  0  0  0  0  # atno 7974 bound_to 7965
  156.2887  140.2671  156.2254 H   0  0  0  0  0  0  0  0  0  0  0  0  # atno 8008 bound_to 7997
  155.0126  140.0387  157.2423 H   0  0  0  0  0  0  0  0  0  0  0  0  # atno 8009 bound_to 7997
  154.7505  140.2742  155.6302 H   0  0  0  0  0  0  0  0  0  0  0  0  # atno 8010 bound_to 7997
  139.4845  144.4574  151.8749 H   0  0  0  0  0  0  0  0  0  0  0  0  # atno 10167 bound_to 10162
  156.2385  130.7081  151.0932 H   0  0  0  0  0  0  0  0  0  0  0  0  # atno 10718 bound_to 10713
  154.5625  135.5629  153.7020 H   0  0  0  0  0  0  0  0  0  0  0  0  # atno 10763 bound_to 10752
  153.0022  135.6277  154.2225 H   0  0  0  0  0  0  0  0  0  0  0  0  # atno 10764 bound_to 10752
  154.2163  135.2871  155.2920 H   0  0  0  0  0  0  0  0  0  0  0  0  # atno 10765 bound_to 10752
  141.0237  134.0085  157.3245 H   0  0  0  0  0  0  0  0  0  0  0  0  # atno 11005 bound_to 11000
  146.0067  140.8472  142.9991 LP  0  0  0  0  0  0  0  0  0  0  0  0  # atno 17320 bound_to 7965
  144.6795  140.2430  143.7341 LP  0  0  0  0  0  0  0  0  0  0  0  0  # atno 17321 bound_to 7965
  140.4035  144.2462  150.5892 LP  0  0  0  0  0  0  0  0  0  0  0  0  # atno 17342 bound_to 10162
  140.5035  143.2311  151.8643 LP  0  0  0  0  0  0  0  0  0  0  0  0  # atno 17343 bound_to 10162
  157.7165  131.0707  150.6307 LP  0  0  0  0  0  0  0  0  0  0  0  0  # atno 17370 bound_to 10713
  156.6379  130.4450  149.5763 LP  0  0  0  0  0  0  0  0  0  0  0  0  # atno 17371 bound_to 10713
  139.9162  135.0197  156.7891 LP  0  0  0  0  0  0  0  0  0  0  0  0  # atno 17394 bound_to 11000
  140.6528  133.9716  155.7764 LP  0  0  0  0  0  0  0  0  0  0  0  0  # atno 17395 bound_to 11000

$$$$
