AV-unprocessed.smi:1984|AV-procd|sdf|8041|dock1
  -GOLD-   2272010233D 1   1.00000     0.00000
 Structure written by MMmdl.
 38 39  0  0  0  0  0  0  0  0  1 V2000
  151.2334  145.1843  158.5595 C   0  0  0  0  0  0  0  0  0  0  0  0
  151.8136  144.0035  159.2801 C   0  0  0  0  0  0  0  0  0  0  0  0
  152.4554  143.9729  160.5498 C   0  0  0  0  0  0  0  0  0  0  0  0
  152.7909  142.6602  160.7274 C   0  0  0  0  0  0  0  0  0  0  0  0
  153.4878  141.9901  161.8659 C   0  0  0  0  0  0  0  0  0  0  0  0
  152.3577  141.9796  159.6027 N   0  0  0  0  0  0  0  0  0  0  0  0
  152.4681  140.5633  159.2861 C   0  0  0  0  0  0  0  0  0  0  0  0
  152.0806  140.2767  157.8325 C   0  0  0  0  0  0  0  0  0  0  0  0
  152.8598  139.6838  157.0864 O   0  0  0  0  0  0  0  0  0  0  0  0
  150.8698  140.7004  157.4425 N   0  0  0  0  0  0  0  0  0  0  0  0
  150.3223  140.5094  156.1055 C   0  0  0  0  0  0  0  0  0  0  0  0
  149.0566  141.3576  155.8908 C   0  0  1  0  0  0  0  0  0  0  0  0
  148.5126  141.2953  154.4476 C   0  0  0  0  0  0  0  0  0  0  0  0
  147.1147  141.9217  154.4221 C   0  0  0  0  0  0  0  0  0  0  0  0
  146.3625  141.5186  156.0423 S   0  0  0  0  0  0  0  0  0  0  0  0
  145.9065  142.7623  156.6809 O   0  0  0  0  0  0  0  0  0  0  0  0
  145.4580  140.3689  155.8909 O   0  0  0  0  0  0  0  0  0  0  0  0
  147.9151  140.9536  156.8374 C   0  0  0  0  0  0  0  0  0  0  0  0
  151.7555  142.8067  158.7201 N   0  0  0  0  0  0  0  0  0  0  0  0
  151.3755  146.1027  159.1292 H   0  0  0  0  0  0  0  0  0  0  0  0
  150.1629  145.0576  158.3961 H   0  0  0  0  0  0  0  0  0  0  0  0
  151.7062  145.3213  157.5866 H   0  0  0  0  0  0  0  0  0  0  0  0
  152.6421  144.7922  161.2280 H   0  0  0  0  0  0  0  0  0  0  0  0
  153.6776  142.6952  162.6754 H   0  0  0  0  0  0  0  0  0  0  0  0
  154.4466  141.5804  161.5480 H   0  0  0  0  0  0  0  0  0  0  0  0
  152.8853  141.1754  162.2674 H   0  0  0  0  0  0  0  0  0  0  0  0
  153.4896  140.2385  159.4877 H   0  0  0  0  0  0  0  0  0  0  0  0
  151.8175  139.9903  159.9489 H   0  0  0  0  0  0  0  0  0  0  0  0
  150.2891  141.1790  158.1159 H   0  0  0  0  0  0  0  0  0  0  0  0
  151.0761  140.7676  155.3596 H   0  0  0  0  0  0  0  0  0  0  0  0
  150.0885  139.4523  155.9703 H   0  0  0  0  0  0  0  0  0  0  0  0
  149.2986  142.4002  156.1029 H   0  0  0  0  0  0  0  0  0  0  0  0
  149.1772  141.7890  153.7381 H   0  0  0  0  0  0  0  0  0  0  0  0
  148.4366  140.2520  154.1386 H   0  0  0  0  0  0  0  0  0  0  0  0
  147.1783  143.0070  154.3399 H   0  0  0  0  0  0  0  0  0  0  0  0
  146.4912  141.5451  153.6111 H   0  0  0  0  0  0  0  0  0  0  0  0
  147.8568  139.8699  156.9437 H   0  0  0  0  0  0  0  0  0  0  0  0
  148.0112  141.3933  157.8304 H   0  0  0  0  0  0  0  0  0  0  0  0
  1  2  1  0  0  0  0
  1 20  1  0  0  0  0
  1 21  1  0  0  0  0
  1 22  1  0  0  0  0
  2 19  2  0  0  0  0
  2  3  1  0  0  0  0
  3  4  2  0  0  0  0
  3 23  1  0  0  0  0
  4  5  1  0  0  0  0
  4  6  1  0  0  0  0
  5 24  1  0  0  0  0
  5 25  1  0  0  0  0
  5 26  1  0  0  0  0
  6  7  1  0  0  0  0
  6 19  1  0  0  0  0
  7  8  1  0  0  0  0
  7 27  1  0  0  0  0
  7 28  1  0  0  0  0
  8  9  2  0  0  0  0
  8 10  1  0  0  0  0
 10 11  1  0  0  0  0
 10 29  1  0  0  0  0
 11 12  1  0  0  0  0
 11 30  1  0  0  0  0
 11 31  1  0  0  0  0
 12 18  1  0  0  0  0
 12 13  1  0  0  0  0
 12 32  1  0  0  0  0
 13 14  1  0  0  0  0
 13 33  1  0  0  0  0
 13 34  1  0  0  0  0
 14 15  1  0  0  0  0
 14 35  1  0  0  0  0
 14 36  1  0  0  0  0
 15 16  2  0  0  0  0
 15 17  2  0  0  0  0
 15 18  1  0  0  0  0
 18 37  1  0  0  0  0
 18 38  1  0  0  0  0
M  END
> <s_m_source_file>
AV-unprocessed.smi

> <i_m_source_file_index>
1984

> <i_lp_mmshare_version>
43012

> <i_f3d_flags>
0

> <s_epik_input>
W0NIM11jMVtjSF1jKFtDSDNdKW4objEpW0NIMl1DKD1PKVtOSF1bQ0gyXVtDQEBIXShbQ0gyXTIpW0NIMl1bQ0gyXVMyKD1PKT1P

> <s_epik_cmdline>
J2VwaWtfcHl0aG9uJywgJy1waCcsICc3LjAnLCAnLXRuJywgJzgnLCAnLW1hJywgJzIwMCcsICctbWV0YWxfYmluZGluZycsICctaW1hZScsICc8aW5maWxlLm1hZT4nLCAnLW9tYWUnLCAnPG91dGZpbGUubWFlPic=

> <r_lp_tautomer_probability>
1

> <r_epik_Ionization_Penalty>
0.000335865

> <r_epik_Ionization_Penalty_Charging>
0

> <r_epik_Ionization_Penalty_Neutral>
0.000335865

> <r_epik_State_Penalty>
-0

> <r_epik_Charging_Adjusted_Penalty>
0

> <i_epik_Tot_Q>
0

> <i_epik_Tot_abs_Q>
0

> <r_epik_Metal_State_Penalty>
-0

> <b_epik_Metal_Only>
0

> <s_lp_Force_Field>
OPLS_2005

> <r_lp_Energy>
4.96267

> <b_lp_Chiralities_Consistent>
1

> <s_lp_Variant>
AV-unprocessed.smi:1984-2

> <Gold.Version>
5.8.1

> <Gold.Id.Protein>
6NUR|6NUR_protein|mol2

> <Gold.PLP.Fitness>
42.4537

> <Gold.PLP.PLP>
-39.8461

> <Gold.PLP.part.hbond>
-0.9951

> <Gold.PLP.part.metal>
0.0000

> <Gold.PLP.part.buried>
-4.2744

> <Gold.PLP.part.nonpolar>
-33.5161

> <Gold.PLP.part.repulsive>
0.3074

> <Gold.PLP.ligand.clash>
0.0000

> <Gold.PLP.ligand.torsion>
0.1995

> <Gold.PLP.Chemscore.Hbond>
1.0000

> <Gold.PLP.Chemscore.CHOScore>
0.0000

> <Gold.PLP.Chemscore.Metal>
0.0000

> <Gold.Chemscore.Hbonds>
donor molecule, donor type, donor heavy atom, donor atom, acceptor molecule, acceptor atom, score
      P1  H  7997  8008       L1     9  1.00

> <Gold.PLP.Chemscore.Internal.Correction>
0.0065

> <Gold.Rescore>
     Score         DG    S(hbond)    S(metal)    S(lipo)     H(rot)  DE(clash)    DE(int)     intcor
     14.35     -15.95       1.00        0.00      97.72       1.68       0.02       1.58       ----

> <Gold.Chemscore.Fitness>
14.3493

> <Gold.Chemscore.DG>
-15.9486

> <Gold.Chemscore.ZeroCoef>
-5.4800

> <Gold.Chemscore.Hbond>
0.9985

> <Gold.Chemscore.Metal>
0.0000

> <Gold.Chemscore.Lipo>
97.7203

> <Gold.Chemscore.Internal_Hbond>
0.0000

> <Gold.Chemscore.DEClash>
0.0222

> <Gold.Chemscore.DEInternal>
1.5771

> <Gold.Chemscore.Rot>
1.6795

> <Gold.Chemscore.Internal.Correction>
   9.000000E+99

> <Gold.Chemscore.Hbonds>
donor molecule, donor type, donor heavy atom, donor atom, acceptor molecule, acceptor atom, score
      P1  H  7997  8008       L1     9  0.95

> <Gold.Chemscore.Hbond.Weighted>
-3.3348

> <Gold.Chemscore.Metal.Weighted>
-0.0000

> <Gold.Chemscore.Lipo.Weighted>
-11.4333

> <Gold.Chemscore.Internal_Hbond.Weighted>
0.0000

> <Gold.Chemscore.DEClash.Weighted>
0.0222

> <Gold.Chemscore.DEInternal.Weighted>
1.5771

> <Gold.Chemscore.Rot.Weighted>
4.2995

> <Gold.Chemscore.Internal.Correction.Weighted>
   9.000000E+99

> <Gold.Protein.RotatedTorsions>
[ 6907 6896 6895 6894 ] final  110.59 input  -60.11 | X-H torsion
[ 7974 7965 7964 7962 ] final  131.28 input  175.53 | X-H torsion
[ 8008 7997 7996 7995 ] final  -79.54 input   59.86 | X-H torsion
[ 10167 10162 10161 10158 ] final -172.17 input  -65.29 | X-H torsion
[ 10718 10713 10712 10709 ] final  178.04 input   66.30 | X-H torsion
[ 10763 10752 10751 10750 ] final -178.10 input  -60.55 | X-H torsion
[ 11005 11000 10999 10996 ] final  -21.71 input  -57.11 | X-H torsion

> <Gold.Protein.ActiveResidues>
 VAL166  LYS551  ARG553  GLY616  TRP617  ASP618  TYR619  PRO620  LYS621  CYS622 
 ASP623  PHE694  ASN695  SER759  ASP760  ASP761  ALA762  ILE779  LEU786  VAL792 
 PHE793  MET794  SER795  GLU796  ALA797  LYS798  CYS799  TRP800  GLU811  SER814 

> <Gold.Protein.RotatedAtoms>
  152.5012  133.8779  159.7331 H   0  0  0  0  0  0  0  0  0  0  0  0  # atno 6907 bound_to 6896
  150.9249  133.6827  159.2830 H   0  0  0  0  0  0  0  0  0  0  0  0  # atno 6908 bound_to 6896
  151.4192  135.1000  159.9661 H   0  0  0  0  0  0  0  0  0  0  0  0  # atno 6909 bound_to 6896
  145.0090  139.4238  143.5254 H   0  0  0  0  0  0  0  0  0  0  0  0  # atno 7974 bound_to 7965
  154.5795  140.0677  156.9083 H   0  0  0  0  0  0  0  0  0  0  0  0  # atno 8008 bound_to 7997
  155.2488  140.3350  155.4266 H   0  0  0  0  0  0  0  0  0  0  0  0  # atno 8009 bound_to 7997
  156.2179  140.1786  156.7531 H   0  0  0  0  0  0  0  0  0  0  0  0  # atno 8010 bound_to 7997
  139.5760  144.1531  152.1451 H   0  0  0  0  0  0  0  0  0  0  0  0  # atno 10167 bound_to 10162
  156.8965  130.9864  151.3042 H   0  0  0  0  0  0  0  0  0  0  0  0  # atno 10718 bound_to 10713
  154.5519  135.2813  155.1000 H   0  0  0  0  0  0  0  0  0  0  0  0  # atno 10763 bound_to 10752
  154.2443  135.6351  153.5221 H   0  0  0  0  0  0  0  0  0  0  0  0  # atno 10764 bound_to 10752
  153.0005  135.5567  154.6088 H   0  0  0  0  0  0  0  0  0  0  0  0  # atno 10765 bound_to 10752
  140.8587  133.7804  156.0049 H   0  0  0  0  0  0  0  0  0  0  0  0  # atno 11005 bound_to 11000
  146.3466  139.9523  142.8727 LP  0  0  0  0  0  0  0  0  0  0  0  0  # atno 17320 bound_to 7965
  145.2049  140.9870  143.4134 LP  0  0  0  0  0  0  0  0  0  0  0  0  # atno 17321 bound_to 7965
  140.1074  144.5486  150.6947 LP  0  0  0  0  0  0  0  0  0  0  0  0  # atno 17342 bound_to 10162
  140.7042  143.2456  151.4774 LP  0  0  0  0  0  0  0  0  0  0  0  0  # atno 17343 bound_to 10162
  157.6052  130.8542  149.8864 LP  0  0  0  0  0  0  0  0  0  0  0  0  # atno 17370 bound_to 10713
  156.0603  130.3701  150.0997 LP  0  0  0  0  0  0  0  0  0  0  0  0  # atno 17371 bound_to 10713
  140.8708  134.2729  157.5192 LP  0  0  0  0  0  0  0  0  0  0  0  0  # atno 17394 bound_to 11000
  139.8706  134.9566  156.4242 LP  0  0  0  0  0  0  0  0  0  0  0  0  # atno 17395 bound_to 11000

$$$$
