AV-unprocessed.smi:1790|AV-procd|sdf|7217|dock1
  -GOLD-   22720 8453D 1   1.00000     0.00000
 Structure written by MMmdl.
 32 33  0  0  0  0  0  0  0  0  2 V2000
  153.7020  138.5911  157.5355 O   0  0  0  0  0  0  0  0  0  0  0  0
  152.4771  138.6180  157.6471 C   0  0  0  0  0  0  0  0  0  0  0  0
  151.6494  137.5082  157.0007 C   0  0  0  0  0  0  0  0  0  0  0  0
  152.0083  137.3979  155.6322 O   0  0  0  0  0  0  0  0  0  0  0  0
  151.8507  138.6156  154.9261 C   0  0  0  0  0  0  0  0  0  0  0  0
  150.4839  138.6315  154.2763 C   0  0  0  0  0  0  0  0  0  0  0  0
  149.5902  139.8452  154.3922 C   0  0  0  0  0  0  0  0  0  0  0  0
  149.2333  138.5766  155.1242 C   0  0  0  0  0  0  0  0  0  0  0  0
  151.7710  139.5418  158.3289 N   0  0  0  0  0  0  0  0  0  0  0  0
  152.2090  140.6819  159.0253 C   0  0  0  0  0  0  0  0  0  0  0  0
  151.7116  141.9393  158.8602 C   0  0  0  0  0  0  0  0  0  0  0  0
  152.2048  143.0801  159.6219 C   0  0  0  0  0  0  0  0  0  0  0  0
  151.6207  144.4783  159.5211 C   0  0  0  0  0  0  0  0  0  0  0  0
  150.3033  144.4634  159.7255 F   0  0  0  0  0  0  0  0  0  0  0  0
  152.1743  145.2687  160.4395 F   0  0  0  0  0  0  0  0  0  0  0  0
  151.8537  145.0090  158.3205 F   0  0  0  0  0  0  0  0  0  0  0  0
  153.1884  142.7226  160.5236 C   0  0  0  0  0  0  0  0  0  0  0  0
  153.7414  141.5098  160.7426 N   0  5  0  0  0  0  0  0  0  0  0  0
  153.2779  140.4514  160.0196 C   0  0  0  0  0  0  0  0  0  0  0  0
  153.7301  139.3168  160.1777 O   0  0  0  0  0  0  0  0  0  0  0  0
  151.8267  136.5633  157.5174 H   0  0  0  0  0  0  0  0  0  0  0  0
  150.5902  137.7509  157.1000 H   0  0  0  0  0  0  0  0  0  0  0  0
  151.9304  139.4627  155.6086 H   0  0  0  0  0  0  0  0  0  0  0  0
  152.6243  138.7221  154.1638 H   0  0  0  0  0  0  0  0  0  0  0  0
  150.4388  138.0880  153.3344 H   0  0  0  0  0  0  0  0  0  0  0  0
  149.9489  140.6841  154.9856 H   0  0  0  0  0  0  0  0  0  0  0  0
  148.9924  140.1117  153.5230 H   0  0  0  0  0  0  0  0  0  0  0  0
  148.3944  137.9967  154.7450 H   0  0  0  0  0  0  0  0  0  0  0  0
  149.3527  138.5711  156.2059 H   0  0  0  0  0  0  0  0  0  0  0  0
  150.7731  139.3921  158.3691 H   0  0  0  0  0  0  0  0  0  0  0  0
  150.9172  142.1354  158.1602 H   0  0  0  0  0  0  0  0  0  0  0  0
  153.5877  143.5331  161.1698 H   0  0  0  0  0  0  0  0  0  0  0  0
  1  2  2  0  0  0  0
  2  3  1  0  0  0  0
  2  9  1  0  0  0  0
  3  4  1  0  0  0  0
  3 21  1  0  0  0  0
  3 22  1  0  0  0  0
  4  5  1  0  0  0  0
  5  6  1  0  0  0  0
  5 23  1  0  0  0  0
  5 24  1  0  0  0  0
  6  8  1  0  0  0  0
  6  7  1  0  0  0  0
  6 25  1  0  0  0  0
  7  8  1  0  0  0  0
  7 26  1  0  0  0  0
  7 27  1  0  0  0  0
  8 28  1  0  0  0  0
  8 29  1  0  0  0  0
  9 10  1  0  0  0  0
  9 30  1  0  0  0  0
 10 19  1  0  0  0  0
 10 11  2  0  0  0  0
 11 12  1  0  0  0  0
 11 31  1  0  0  0  0
 12 13  1  0  0  0  0
 12 17  2  0  0  0  0
 13 14  1  0  0  0  0
 13 15  1  0  0  0  0
 13 16  1  0  0  0  0
 17 18  1  0  0  0  0
 17 32  1  0  0  0  0
 18 19  1  0  0  0  0
 19 20  2  0  0  0  0
M  CHG  1  18  -1
M  END
> <s_m_source_file>
AV-unprocessed.smi

> <i_m_source_file_index>
1790

> <i_lp_mmshare_version>
43012

> <i_f3d_flags>
0

> <s_epik_input>
W0NIMl0xW0NIMl1bQ0hdMVtDSDJdT1tDSDJdQyg9TylbTkhdYzJbY0hdYyhDKEYpKEYpRilbY0hdW25IXWMyPU8=

> <s_epik_cmdline>
J2VwaWtfcHl0aG9uJywgJy1waCcsICc3LjAnLCAnLXRuJywgJzgnLCAnLW1hJywgJzIwMCcsICctbWV0YWxfYmluZGluZycsICctaW1hZScsICc8aW5maWxlLm1hZT4nLCAnLW9tYWUnLCAnPG91dGZpbGUubWFlPic=

> <r_epik_Ionization_Penalty>
2.6027

> <r_epik_Ionization_Penalty_Charging>
0.0561891

> <r_epik_Ionization_Penalty_Neutral>
2.54651

> <r_epik_State_Penalty>
2.71477

> <r_epik_Charging_Adjusted_Penalty>
2.77096

> <i_epik_Tot_Q>
-1

> <i_epik_Tot_abs_Q>
1

> <r_epik_Metal_State_Penalty>
0.521168

> <b_epik_Metal_Only>
0

> <s_lp_Force_Field>
OPLS_2005

> <r_lp_Energy>
28.814

> <b_lp_Chiralities_Consistent>
1

> <s_lp_Variant>
AV-unprocessed.smi:1790-2

> <Gold.Version>
5.8.1

> <Gold.Id.Protein>
6NUR|6NUR_protein|mol2

> <Gold.PLP.Fitness>
46.9989

> <Gold.PLP.PLP>
-43.5915

> <Gold.PLP.part.hbond>
-2.0000

> <Gold.PLP.part.metal>
0.0000

> <Gold.PLP.part.buried>
-8.0526

> <Gold.PLP.part.nonpolar>
-34.3548

> <Gold.PLP.part.repulsive>
0.0999

> <Gold.PLP.ligand.clash>
0.2941

> <Gold.PLP.ligand.torsion>
1.1657

> <Gold.PLP.Chemscore.Hbond>
1.7520

> <Gold.PLP.Chemscore.CHOScore>
0.0000

> <Gold.PLP.Chemscore.Metal>
0.0000

> <Gold.Chemscore.Hbonds>
donor molecule, donor type, donor heavy atom, donor atom, acceptor molecule, acceptor atom, score
      P1  H  7997  8008       L1     1  1.00
      P1  H 10752 10764       L1     4  0.30

> <Gold.PLP.Chemscore.Internal.Correction>
0.7770

> <Gold.Rescore>
     Score         DG    S(hbond)    S(metal)    S(lipo)     H(rot)  DE(clash)    DE(int)     intcor
     13.09     -15.39       1.60        0.00      79.08       1.83       0.38       1.92       ----

> <Gold.Chemscore.Fitness>
13.0880

> <Gold.Chemscore.DG>
-15.3874

> <Gold.Chemscore.ZeroCoef>
-5.4800

> <Gold.Chemscore.Hbond>
1.6007

> <Gold.Chemscore.Metal>
0.0000

> <Gold.Chemscore.Lipo>
79.0820

> <Gold.Chemscore.Internal_Hbond>
0.0000

> <Gold.Chemscore.DEClash>
0.3837

> <Gold.Chemscore.DEInternal>
1.9156

> <Gold.Chemscore.Rot>
1.8326

> <Gold.Chemscore.Internal.Correction>
   9.000000E+99

> <Gold.Chemscore.Hbonds>
donor molecule, donor type, donor heavy atom, donor atom, acceptor molecule, acceptor atom, score
      P1  H  7997  8008       L1     1  0.96
      P1  H 10752 10764       L1     4  0.28

> <Gold.Chemscore.Hbond.Weighted>
-5.3463

> <Gold.Chemscore.Metal.Weighted>
-0.0000

> <Gold.Chemscore.Lipo.Weighted>
-9.2526

> <Gold.Chemscore.Internal_Hbond.Weighted>
0.0000

> <Gold.Chemscore.DEClash.Weighted>
0.3837

> <Gold.Chemscore.DEInternal.Weighted>
1.9156

> <Gold.Chemscore.Rot.Weighted>
4.6916

> <Gold.Chemscore.Internal.Correction.Weighted>
   9.000000E+99

> <Gold.Protein.RotatedTorsions>
[ 6907 6896 6895 6894 ] final  -91.36 input  -60.11 | X-H torsion
[ 7974 7965 7964 7962 ] final -142.48 input  175.53 | X-H torsion
[ 8008 7997 7996 7995 ] final  -87.72 input   59.86 | X-H torsion
[ 10167 10162 10161 10158 ] final -132.46 input  -65.29 | X-H torsion
[ 10718 10713 10712 10709 ] final  -72.90 input   66.30 | X-H torsion
[ 10763 10752 10751 10750 ] final  -32.58 input  -60.55 | X-H torsion
[ 11005 11000 10999 10996 ] final   16.15 input  -57.11 | X-H torsion

> <Gold.Protein.ActiveResidues>
 VAL166  LYS551  ARG553  GLY616  TRP617  ASP618  TYR619  PRO620  LYS621  CYS622 
 ASP623  PHE694  ASN695  SER759  ASP760  ASP761  ALA762  ILE779  LEU786  VAL792 
 PHE793  MET794  SER795  GLU796  ALA797  LYS798  CYS799  TRP800  GLU811  SER814 

> <Gold.Protein.RotatedAtoms>
  150.6891  134.2289  159.4426 H   0  0  0  0  0  0  0  0  0  0  0  0  # atno 6907 bound_to 6896
  152.0241  134.9803  160.0580 H   0  0  0  0  0  0  0  0  0  0  0  0  # atno 6908 bound_to 6896
  152.1368  133.4405  159.4784 H   0  0  0  0  0  0  0  0  0  0  0  0  # atno 6909 bound_to 6896
  144.8440  140.5953  143.5433 H   0  0  0  0  0  0  0  0  0  0  0  0  # atno 7974 bound_to 7965
  154.6665  140.0562  157.0119 H   0  0  0  0  0  0  0  0  0  0  0  0  # atno 8008 bound_to 7997
  155.1151  140.3242  155.4493 H   0  0  0  0  0  0  0  0  0  0  0  0  # atno 8009 bound_to 7997
  156.2640  140.2007  156.6274 H   0  0  0  0  0  0  0  0  0  0  0  0  # atno 8010 bound_to 7997
  139.9084  143.6524  152.2580 H   0  0  0  0  0  0  0  0  0  0  0  0  # atno 10167 bound_to 10162
  156.0301  130.4382  150.2662 H   0  0  0  0  0  0  0  0  0  0  0  0  # atno 10718 bound_to 10713
  153.8160  135.6878  153.4834 H   0  0  0  0  0  0  0  0  0  0  0  0  # atno 10763 bound_to 10752
  153.1598  135.4584  154.9754 H   0  0  0  0  0  0  0  0  0  0  0  0  # atno 10764 bound_to 10752
  154.7947  135.3315  154.7637 H   0  0  0  0  0  0  0  0  0  0  0  0  # atno 10765 bound_to 10752
  140.4503  134.1231  155.7701 H   0  0  0  0  0  0  0  0  0  0  0  0  # atno 11005 bound_to 11000
  145.4634  139.1510  143.3854 LP  0  0  0  0  0  0  0  0  0  0  0  0  # atno 17320 bound_to 7965
  146.2728  140.4765  142.8807 LP  0  0  0  0  0  0  0  0  0  0  0  0  # atno 17321 bound_to 7965
  139.6964  144.7641  151.1349 LP  0  0  0  0  0  0  0  0  0  0  0  0  # atno 17342 bound_to 10162
  140.7691  143.5518  150.9196 LP  0  0  0  0  0  0  0  0  0  0  0  0  # atno 17343 bound_to 10162
  157.0765  131.0131  151.3172 LP  0  0  0  0  0  0  0  0  0  0  0  0  # atno 17370 bound_to 10713
  157.4960  130.7851  149.7556 LP  0  0  0  0  0  0  0  0  0  0  0  0  # atno 17371 bound_to 10713
  141.1667  133.8689  157.1694 LP  0  0  0  0  0  0  0  0  0  0  0  0  # atno 17394 bound_to 11000
  140.0011  135.0027  157.0192 LP  0  0  0  0  0  0  0  0  0  0  0  0  # atno 17395 bound_to 11000

$$$$
