#       Name:                AV-unprocessed.smi:1592
#       Creating user name   scv26
#       Creation time:       Fri Mar 27 07:03:53 2020


#       File generated by GOLD software.
#

@<TRIPOS>MOLECULE
AV-unprocessed.smi:1592
    34    35     1
SMALL
NO_CHARGES


@<TRIPOS>ATOM
      1 ****        -0.2517  -0.0019  -2.1318 O.2            1 S1                 0.0000
      2 ****        -0.5723  -0.4455  -1.0287 C.2            1 S1                 0.0000
      3 ****         0.2805  -0.6150  -0.0005 N.am           1 S1                 0.0000
      4 ****         1.6658  -0.3011   0.0681 C.ar           1 S1                 0.0000
      5 ****         2.3577   0.2282  -0.9724 N.ar           1 S1                 0.0000
      6 ****         3.6712   0.4993  -0.8251 C.ar           1 S1                 0.0000
      7 ****         4.3771   0.2605   0.3673 C.ar           1 S1                 0.0000
      8 ****         3.6738  -0.2874   1.4540 C.ar           1 S1                 0.0000
      9 ****         2.3016  -0.5728   1.3066 C.ar           1 S1                 0.0000
     10 ****         1.6117  -1.1054   2.3605 O.3            1 S1                 0.0000
     11 ****        -2.0294  -0.8758  -0.7680 C.3            1 S1                 0.0000
     12 ****        -3.0794  -0.0455  -1.5134 C.3            1 S1                 0.0000
     13 ****        -3.2392   1.1896  -0.6423 C.3            1 S1                 0.0000
     14 ****        -2.8060   0.7161   0.7492 C.3            1 S1                 0.0000
     15 ****        -2.3840  -0.6379   0.5919 O.3            1 S1                 0.0000
     16 ****        -0.1155  -1.0005   0.8449 H              1 S1                 0.0000
     17 ****         4.1734   0.9199  -1.6836 H              1 S1                 0.0000
     18 ****         5.4291   0.4919   0.4455 H              1 S1                 0.0000
     19 ****         4.1811  -0.4849   2.3869 H              1 S1                 0.0000
     20 ****         2.1494  -1.2403   3.1259 H              1 S1                 0.0000
     21 ****        -2.1234  -1.9367  -1.0013 H              1 S1                 0.0000
     22 ****        -2.8110   0.1962  -2.5425 H              1 S1                 0.0000
     23 ****        -4.0194  -0.5976  -1.5443 H              1 S1                 0.0000
     24 ****        -2.5799   1.9868  -0.9881 H              1 S1                 0.0000
     25 ****        -4.2612   1.5695  -0.6551 H              1 S1                 0.0000
     26 ****        -1.9804   1.3212   1.1255 H              1 S1                 0.0000
     27 ****        -3.6206   0.7696   1.4718 H              1 S1                 0.0000
     28 ****         0.6971   0.2595  -2.3091 LP             1 S1                 0.0000
     29 ****        -0.9401   0.0969  -2.8503 LP             1 S1                 0.0000
     30 ****         1.8982   0.4156  -1.8406 LP             1 S1                 0.0000
     31 ****         1.2318  -1.9866   2.0792 LP             1 S1                 0.0000
     32 ****         0.8670  -0.4827   2.6005 LP             1 S1                 0.0000
     33 ****        -1.5912  -0.8091   1.1769 LP             1 S1                 0.0000
     34 ****        -3.1296  -1.2509   0.8531 LP             1 S1                 0.0000
@<TRIPOS>BOND
    1    1    2 2     
    2    2    3 am    
    3    2   11 1     
    4    3    4 1     
    5    3   16 1     
    6    4    9 ar    
    7    4    5 ar    
    8    5    6 ar    
    9    6    7 ar    
   10    6   17 1     
   11    7    8 ar    
   12    7   18 1     
   13    8    9 ar    
   14    8   19 1     
   15    9   10 1     
   16   10   20 1     
   17   11   15 1     
   18   11   12 1     
   19   11   21 1     
   20   12   13 1     
   21   12   22 1     
   22   12   23 1     
   23   13   14 1     
   24   13   24 1     
   25   13   25 1     
   26   14   15 1     
   27   14   26 1     
   28   14   27 1     
   29    1   28 1     
   30    1   29 1     
   31    5   30 1     
   32   10   31 1     
   33   10   32 1     
   34   15   33 1     
   35   15   34 1     
@<TRIPOS>SUBSTRUCTURE
      1 S1             1
@<TRIPOS>SET
LONE_PAIRS      STATIC     ATOMS    <user>   **** ""
7 28 29 30 31 32 33 34
DONOR_HYDROGENS      STATIC     ATOMS    <user>   **** ""
2 16 20
ATOM$BLUE        STATIC     ATOMS    COLORGROUP SYSTEM
7 28 29 30 31 32 33 34
ATOM$RED        STATIC     ATOMS    COLORGROUP SYSTEM
2 16 20
