AV-unprocessed.smi:1273|AV-procd|sdf|5339|dock10
  -GOLD-   22720 4473D 1   1.00000     0.00000
 Structure written by MMmdl.
 40 41  0  0  0  0  0  0  0  0  1 V2000
  140.5159  140.9101  154.1804 C   0  0  0  0  0  0  0  0  0  0  0  0
  139.8135  140.3159  152.9485 C   0  0  1  0  0  0  0  0  0  0  0  0
  140.2117  138.8515  152.7186 C   0  0  0  0  0  0  0  0  0  0  0  0
  139.3407  137.9939  152.5727 O   0  0  0  0  0  0  0  0  0  0  0  0
  141.5342  138.6040  152.6750 N   0  0  0  0  0  0  0  0  0  0  0  0
  142.1876  137.3560  152.4966 C   0  0  0  0  0  0  0  0  0  0  0  0
  141.4743  136.1800  152.7985 C   0  0  0  0  0  0  0  0  0  0  0  0
  142.0939  134.9309  152.6047 C   0  0  0  0  0  0  0  0  0  0  0  0
  143.4155  134.8867  152.1010 C   0  0  0  0  0  0  0  0  0  0  0  0
  144.0582  133.6461  151.8974 N   0  0  0  0  0  0  0  0  0  0  0  0
  145.1934  133.3703  152.7748 C   0  0  0  0  0  0  0  0  0  0  0  0
  145.6088  131.8927  152.6667 C   0  0  0  0  0  0  0  0  0  0  0  0
  145.8661  131.5607  151.3064 O   0  0  0  0  0  0  0  0  0  0  0  0
  144.7098  131.7291  150.4934 C   0  0  0  0  0  0  0  0  0  0  0  0
  144.2690  133.2022  150.5205 C   0  0  0  0  0  0  0  0  0  0  0  0
  144.0923  136.0195  151.7898 N   0  0  0  0  0  0  0  0  0  0  0  0
  143.4970  137.2152  151.9809 C   0  0  0  0  0  0  0  0  0  0  0  0
  137.9746  140.4564  153.1420 S   0  0  0  0  0  0  0  0  0  0  0  0
  137.7048  142.2739  153.2779 C   0  0  0  0  0  0  0  0  0  0  0  0
  137.3254  139.9907  151.9067 O   0  0  0  0  0  0  0  0  0  0  0  0
  137.6046  139.8411  154.4259 O   0  0  0  0  0  0  0  0  0  0  0  0
  141.5987  140.7981  154.1132 H   0  0  0  0  0  0  0  0  0  0  0  0
  140.1851  140.4285  155.1015 H   0  0  0  0  0  0  0  0  0  0  0  0
  140.3022  141.9751  154.2723 H   0  0  0  0  0  0  0  0  0  0  0  0
  140.0909  140.9062  152.0743 H   0  0  0  0  0  0  0  0  0  0  0  0
  142.1407  139.4102  152.7127 H   0  0  0  0  0  0  0  0  0  0  0  0
  140.4633  136.2301  153.1759 H   0  0  0  0  0  0  0  0  0  0  0  0
  141.5457  134.0277  152.8271 H   0  0  0  0  0  0  0  0  0  0  0  0
  146.0254  134.0131  152.4848 H   0  0  0  0  0  0  0  0  0  0  0  0
  144.9649  133.5978  153.8150 H   0  0  0  0  0  0  0  0  0  0  0  0
  146.5109  131.7134  153.2518 H   0  0  0  0  0  0  0  0  0  0  0  0
  144.8328  131.2404  153.0706 H   0  0  0  0  0  0  0  0  0  0  0  0
  144.9455  131.4268  149.4729 H   0  0  0  0  0  0  0  0  0  0  0  0
  143.9078  131.0762  150.8421 H   0  0  0  0  0  0  0  0  0  0  0  0
  143.3511  133.3145  149.9419 H   0  0  0  0  0  0  0  0  0  0  0  0
  145.0298  133.8277  150.0514 H   0  0  0  0  0  0  0  0  0  0  0  0
  144.0884  138.0679  151.6853 H   0  0  0  0  0  0  0  0  0  0  0  0
  136.6526  142.4646  153.4888 H   0  0  0  0  0  0  0  0  0  0  0  0
  137.9719  142.7614  152.3407 H   0  0  0  0  0  0  0  0  0  0  0  0
  138.3126  142.6759  154.0879 H   0  0  0  0  0  0  0  0  0  0  0  0
  1  2  1  0  0  0  0
  1 22  1  0  0  0  0
  1 23  1  0  0  0  0
  1 24  1  0  0  0  0
  2  3  1  0  0  0  0
  2 18  1  0  0  0  0
  2 25  1  0  0  0  0
  3  4  2  0  0  0  0
  3  5  1  0  0  0  0
  5  6  1  0  0  0  0
  5 26  1  0  0  0  0
  6 17  1  0  0  0  0
  6  7  2  0  0  0  0
  7  8  1  0  0  0  0
  7 27  1  0  0  0  0
  8  9  2  0  0  0  0
  8 28  1  0  0  0  0
  9 10  1  0  0  0  0
  9 16  1  0  0  0  0
 10 15  1  0  0  0  0
 10 11  1  0  0  0  0
 11 12  1  0  0  0  0
 11 29  1  0  0  0  0
 11 30  1  0  0  0  0
 12 13  1  0  0  0  0
 12 31  1  0  0  0  0
 12 32  1  0  0  0  0
 13 14  1  0  0  0  0
 14 15  1  0  0  0  0
 14 33  1  0  0  0  0
 14 34  1  0  0  0  0
 15 35  1  0  0  0  0
 15 36  1  0  0  0  0
 16 17  2  0  0  0  0
 17 37  1  0  0  0  0
 18 19  1  0  0  0  0
 18 20  2  0  0  0  0
 18 21  2  0  0  0  0
 19 38  1  0  0  0  0
 19 39  1  0  0  0  0
 19 40  1  0  0  0  0
M  END
> <s_m_source_file>
AV-unprocessed.smi

> <i_m_source_file_index>
1273

> <i_lp_mmshare_version>
43012

> <i_f3d_flags>
0

> <s_epik_input>
W0NIM11TKD1PKSg9TylbQ0BIXShbQ0gzXSlDKD1PKVtOSF1jMVtjSF1bY0hdYyhuW2NIXTEpTjJbQ0gyXVtDSDJdT1tDSDJdW0NIMl0y

> <s_epik_cmdline>
J2VwaWtfcHl0aG9uJywgJy1waCcsICc3LjAnLCAnLXRuJywgJzgnLCAnLW1hJywgJzIwMCcsICctbWV0YWxfYmluZGluZycsICctaW1hZScsICc8aW5maWxlLm1hZT4nLCAnLW9tYWUnLCAnPG91dGZpbGUubWFlPic=

> <r_lp_tautomer_probability>
1

> <r_epik_Ionization_Penalty>
0.000253983

> <r_epik_Ionization_Penalty_Charging>
0

> <r_epik_Ionization_Penalty_Neutral>
0.000253983

> <r_epik_State_Penalty>
-0

> <r_epik_Charging_Adjusted_Penalty>
0

> <i_epik_Tot_Q>
0

> <i_epik_Tot_abs_Q>
0

> <r_epik_Metal_State_Penalty>
-0

> <b_epik_Metal_Only>
0

> <s_lp_Force_Field>
OPLS_2005

> <r_lp_Energy>
19.0029

> <b_lp_Chiralities_Consistent>
1

> <s_lp_Variant>
AV-unprocessed.smi:1273-2

> <Gold.Version>
5.8.1

> <Gold.Id.Protein>
6NUR|6NUR_protein|mol2

> <Gold.PLP.Fitness>
35.5160

> <Gold.PLP.PLP>
-27.8062

> <Gold.PLP.part.hbond>
-1.0000

> <Gold.PLP.part.metal>
0.0000

> <Gold.PLP.part.buried>
-5.2997

> <Gold.PLP.part.nonpolar>
-21.7897

> <Gold.PLP.part.repulsive>
0.5573

> <Gold.PLP.ligand.clash>
0.0000

> <Gold.PLP.ligand.torsion>
0.4677

> <Gold.PLP.Chemscore.Hbond>
1.0000

> <Gold.PLP.Chemscore.CHOScore>
1.7210

> <Gold.PLP.Chemscore.Metal>
0.0000

> <Gold.Chemscore.Hbonds>
donor molecule, donor type, donor heavy atom, donor atom, acceptor molecule, acceptor atom, score
      L1  H     5    26       P1 10175  1.00
      L1  C    17    37       P1 10171  0.55
      L1  C    17    37       P1 10175  0.89

> <Gold.PLP.Chemscore.Internal.Correction>
0.4822

> <Gold.Rescore>
     Score         DG    S(hbond)    S(metal)    S(lipo)     H(rot)  DE(clash)    DE(int)     intcor
      8.36     -11.67       0.99        0.00      58.78       1.56       0.07       3.23       ----

> <Gold.Chemscore.Fitness>
8.3649

> <Gold.Chemscore.DG>
-11.6697

> <Gold.Chemscore.ZeroCoef>
-5.4800

> <Gold.Chemscore.Hbond>
0.9918

> <Gold.Chemscore.Metal>
0.0000

> <Gold.Chemscore.Lipo>
58.7764

> <Gold.Chemscore.Internal_Hbond>
0.0000

> <Gold.Chemscore.DEClash>
0.0710

> <Gold.Chemscore.DEInternal>
3.2339

> <Gold.Chemscore.Rot>
1.5624

> <Gold.Chemscore.Internal.Correction>
   9.000000E+99

> <Gold.Chemscore.Hbonds>
donor molecule, donor type, donor heavy atom, donor atom, acceptor molecule, acceptor atom, score
      L1  H     5    26       P1 10175  0.74

> <Gold.Chemscore.Hbond.Weighted>
-3.3125

> <Gold.Chemscore.Metal.Weighted>
-0.0000

> <Gold.Chemscore.Lipo.Weighted>
-6.8768

> <Gold.Chemscore.Internal_Hbond.Weighted>
0.0000

> <Gold.Chemscore.DEClash.Weighted>
0.0710

> <Gold.Chemscore.DEInternal.Weighted>
3.2339

> <Gold.Chemscore.Rot.Weighted>
3.9996

> <Gold.Chemscore.Internal.Correction.Weighted>
   9.000000E+99

> <Gold.Protein.RotatedTorsions>
[ 6907 6896 6895 6894 ] final  116.45 input  -60.11 | X-H torsion
[ 7974 7965 7964 7962 ] final  -40.21 input  175.53 | X-H torsion
[ 8008 7997 7996 7995 ] final   94.65 input   59.86 | X-H torsion
[ 10167 10162 10161 10158 ] final  151.84 input  -65.29 | X-H torsion
[ 10718 10713 10712 10709 ] final   37.56 input   66.30 | X-H torsion
[ 10763 10752 10751 10750 ] final  160.83 input  -60.55 | X-H torsion
[ 11005 11000 10999 10996 ] final    9.55 input  -57.11 | X-H torsion

> <Gold.Protein.ActiveResidues>
 VAL166  LYS551  ARG553  GLY616  TRP617  ASP618  TYR619  PRO620  LYS621  CYS622 
 ASP623  PHE694  ASN695  SER759  ASP760  ASP761  ALA762  ILE779  LEU786  VAL792 
 PHE793  MET794  SER795  GLU796  ALA797  LYS798  CYS799  TRP800  GLU811  SER814 

> <Gold.Protein.RotatedAtoms>
  152.4677  133.7960  159.6927 H   0  0  0  0  0  0  0  0  0  0  0  0  # atno 6907 bound_to 6896
  150.8650  133.7578  159.2986 H   0  0  0  0  0  0  0  0  0  0  0  0  # atno 6908 bound_to 6896
  151.5131  135.1068  159.9911 H   0  0  0  0  0  0  0  0  0  0  0  0  # atno 6909 bound_to 6896
  146.0325  140.6713  142.9126 H   0  0  0  0  0  0  0  0  0  0  0  0  # atno 7974 bound_to 7965
  156.0602  140.3297  155.7453 H   0  0  0  0  0  0  0  0  0  0  0  0  # atno 8008 bound_to 7997
  155.5466  140.0606  157.2876 H   0  0  0  0  0  0  0  0  0  0  0  0  # atno 8009 bound_to 7997
  154.4478  140.1901  156.0632 H   0  0  0  0  0  0  0  0  0  0  0  0  # atno 8010 bound_to 7997
  139.4837  144.5408  151.7568 H   0  0  0  0  0  0  0  0  0  0  0  0  # atno 10167 bound_to 10162
  157.3484  130.7585  149.6961 H   0  0  0  0  0  0  0  0  0  0  0  0  # atno 10718 bound_to 10713
  154.2535  135.2771  155.2807 H   0  0  0  0  0  0  0  0  0  0  0  0  # atno 10763 bound_to 10752
  154.5445  135.5693  153.6871 H   0  0  0  0  0  0  0  0  0  0  0  0  # atno 10764 bound_to 10752
  152.9976  135.6259  154.2682 H   0  0  0  0  0  0  0  0  0  0  0  0  # atno 10765 bound_to 10752
  140.5245  134.0527  155.7854 H   0  0  0  0  0  0  0  0  0  0  0  0  # atno 11005 bound_to 11000
  144.7037  140.3761  143.7135 LP  0  0  0  0  0  0  0  0  0  0  0  0  # atno 17320 bound_to 7965
  145.7017  139.1663  143.2589 LP  0  0  0  0  0  0  0  0  0  0  0  0  # atno 17321 bound_to 7965
  140.4947  144.1258  150.5957 LP  0  0  0  0  0  0  0  0  0  0  0  0  # atno 17342 bound_to 10162
  140.4131  143.2647  151.9808 LP  0  0  0  0  0  0  0  0  0  0  0  0  # atno 17343 bound_to 10162
  155.9718  130.4147  150.4148 LP  0  0  0  0  0  0  0  0  0  0  0  0  # atno 17370 bound_to 10713
  157.2207  131.0482  151.2548 LP  0  0  0  0  0  0  0  0  0  0  0  0  # atno 17371 bound_to 10713
  141.1316  133.9293  157.2524 LP  0  0  0  0  0  0  0  0  0  0  0  0  # atno 17394 bound_to 11000
  139.9588  135.0159  156.9202 LP  0  0  0  0  0  0  0  0  0  0  0  0  # atno 17395 bound_to 11000

$$$$
