#       Name:                AV-unprocessed.smi:2453
#       Creating user name   scv26
#       Creation time:       Fri Mar 27 13:32:38 2020


#       File generated by GOLD software.
#

@<TRIPOS>MOLECULE
AV-unprocessed.smi:2453
    45    46     1
SMALL
NO_CHARGES


@<TRIPOS>ATOM
      1 ****        -4.4002  -0.4599  -1.1627 C.3            1 S1                 0.0000
      2 ****        -4.2055   0.9698  -0.6888 C.ar           1 S1                 0.0000
      3 ****        -5.3027   1.8573  -0.6603 C.ar           1 S1                 0.0000
      4 ****        -5.2152   3.1392  -0.2502 N.ar           1 S1                 0.0000
      5 ****        -4.0105   3.5877   0.1577 C.ar           1 S1                 0.0000
      6 ****        -2.8501   2.7899   0.1710 C.ar           1 S1                 0.0000
      7 ****        -2.9390   1.4486  -0.2740 C.ar           1 S1                 0.0000
      8 ****        -1.8326   0.5524  -0.2770 N.am           1 S1                 0.0000
      9 ****        -0.5190   0.8360  -0.3082 C.2            1 S1                 0.0000
     10 ****        -0.0363   1.9646  -0.4004 O.2            1 S1                 0.0000
     11 ****         0.2159  -0.2839  -0.2397 N.am           1 S1                 0.0000
     12 ****         1.6772  -0.3547  -0.2374 C.3            1 S1                 0.0000
     13 ****         2.1369  -1.0835  -1.5162 C.3            1 S1                 0.0000
     14 ****         3.6609  -1.2584  -1.5564 C.3            1 S1                 0.0000
     15 ****         4.1586  -1.9897  -0.3036 C.3            1 S1                 0.0000
     16 ****         3.7227  -1.2541   0.9719 C.3            1 S1                 0.0000
     17 ****         2.1898  -1.0655   1.0435 C.3            1 S1                 0.0000
     18 ****         1.7856  -0.3115   2.3305 C.3            1 S1                 0.0000
     19 ****         2.0870  -1.0765   3.4788 O.3            1 S1                 0.0000
     20 ****        -5.4338  -0.6432  -1.4577 H              1 S1                 0.0000
     21 ****        -4.1472  -1.1620  -0.3680 H              1 S1                 0.0000
     22 ****        -3.7628  -0.6657  -2.0230 H              1 S1                 0.0000
     23 ****        -6.2832   1.5304  -0.9742 H              1 S1                 0.0000
     24 ****        -3.9708   4.6137   0.4926 H              1 S1                 0.0000
     25 ****        -1.9275   3.2160   0.5334 H              1 S1                 0.0000
     26 ****        -2.0739  -0.4275  -0.2995 H              1 S1                 0.0000
     27 ****        -0.2743  -1.1639  -0.1717 H              1 S1                 0.0000
     28 ****         2.1036   0.6501  -0.2547 H              1 S1                 0.0000
     29 ****         1.6618  -2.0640  -1.5748 H              1 S1                 0.0000
     30 ****         1.8102  -0.5305  -2.3978 H              1 S1                 0.0000
     31 ****         3.9491  -1.8123  -2.4502 H              1 S1                 0.0000
     32 ****         4.1415  -0.2818  -1.6279 H              1 S1                 0.0000
     33 ****         3.7674  -3.0079  -0.2918 H              1 S1                 0.0000
     34 ****         5.2452  -2.0751  -0.3304 H              1 S1                 0.0000
     35 ****         4.0758  -1.8113   1.8402 H              1 S1                 0.0000
     36 ****         4.2143  -0.2810   1.0128 H              1 S1                 0.0000
     37 ****         1.7321  -2.0559   1.0779 H              1 S1                 0.0000
     38 ****         2.2962   0.6501   2.3916 H              1 S1                 0.0000
     39 ****         0.7158  -0.1056   2.3510 H              1 S1                 0.0000
     40 ****         1.8369  -0.5814   4.2440 H              1 S1                 0.0000
     41 ****        -6.0168   3.7371  -0.2487 LP             1 S1                 0.0000
     42 ****        -0.6369   2.7620  -0.4592 LP             1 S1                 0.0000
     43 ****         0.9564   2.0841  -0.4165 LP             1 S1                 0.0000
     44 ****         3.0678  -1.2691   3.5076 LP             1 S1                 0.0000
     45 ****         1.5788  -1.9373   3.4533 LP             1 S1                 0.0000
@<TRIPOS>BOND
    1    1    2 1     
    2    1   20 1     
    3    1   21 1     
    4    1   22 1     
    5    2    7 ar    
    6    2    3 ar    
    7    3    4 ar    
    8    3   23 1     
    9    4    5 ar    
   10    5    6 ar    
   11    5   24 1     
   12    6    7 ar    
   13    6   25 1     
   14    7    8 1     
   15    8    9 am    
   16    8   26 1     
   17    9   10 2     
   18    9   11 am    
   19   11   12 1     
   20   11   27 1     
   21   12   17 1     
   22   12   13 1     
   23   12   28 1     
   24   13   14 1     
   25   13   29 1     
   26   13   30 1     
   27   14   15 1     
   28   14   31 1     
   29   14   32 1     
   30   15   16 1     
   31   15   33 1     
   32   15   34 1     
   33   16   17 1     
   34   16   35 1     
   35   16   36 1     
   36   17   18 1     
   37   17   37 1     
   38   18   19 1     
   39   18   38 1     
   40   18   39 1     
   41   19   40 1     
   42    4   41 1     
   43   10   42 1     
   44   10   43 1     
   45   19   44 1     
   46   19   45 1     
@<TRIPOS>SUBSTRUCTURE
      1 S1             1
@<TRIPOS>SET
LONE_PAIRS      STATIC     ATOMS    <user>   **** ""
5 41 42 43 44 45
DONOR_HYDROGENS      STATIC     ATOMS    <user>   **** ""
3 26 27 40
ATOM$BLUE        STATIC     ATOMS    COLORGROUP SYSTEM
5 41 42 43 44 45
ATOM$RED        STATIC     ATOMS    COLORGROUP SYSTEM
3 26 27 40
