AV-unprocessed.smi:360|AV-procd|sdf|2419|dock3
  -GOLD-   2262022353D 1   1.00000     0.00000
 Structure written by MMmdl.
 37 38  0  0  0  0  0  0  0  0  1 V2000
  145.6239  136.3941  151.6820 C   0  0  0  0  0  0  0  0  0  0  0  0
  145.7751  135.7186  152.8307 C   0  0  0  0  0  0  0  0  0  0  0  0
  146.1247  136.3581  154.1559 C   0  0  0  0  0  0  0  0  0  0  0  0
  147.4122  135.9075  154.6562 N   0  0  0  0  0  0  0  0  0  0  0  0
  148.5829  136.6436  154.7838 C   0  0  0  0  0  0  0  0  0  0  0  0
  148.6705  138.0454  154.4065 C   0  0  0  0  0  0  0  0  0  0  0  0
  149.7524  138.7341  154.5258 N   0  0  0  0  0  0  0  0  0  0  0  0
  150.8892  138.1355  155.0313 N   0  0  0  0  0  0  0  0  0  0  0  0
  152.0496  139.0311  155.1064 C   0  0  0  0  0  0  0  0  0  0  0  0
  151.7479  140.2896  155.9362 C   0  0  0  0  0  0  0  0  0  0  0  0
  152.3837  140.1871  157.2031 O   0  0  0  0  0  0  0  0  0  0  0  0
  152.1873  141.1983  158.1181 C   0  0  0  0  0  0  0  0  0  0  0  0
  152.9502  141.1442  159.3029 C   0  0  0  0  0  0  0  0  0  0  0  0
  152.8136  142.1344  160.2947 C   0  0  0  0  0  0  0  0  0  0  0  0
  151.9076  143.1950  160.1089 C   0  0  0  0  0  0  0  0  0  0  0  0
  151.7379  144.4102  161.3220 Cl  0  0  0  0  0  0  0  0  0  0  0  0
  151.1399  143.2619  158.9310 C   0  0  0  0  0  0  0  0  0  0  0  0
  151.2763  142.2704  157.9396 C   0  0  0  0  0  0  0  0  0  0  0  0
  150.9715  136.8289  155.4223 C   0  0  0  0  0  0  0  0  0  0  0  0
  152.0108  136.3334  155.8596 O   0  0  0  0  0  0  0  0  0  0  0  0
  149.7175  136.0759  155.2733 C   0  0  0  0  0  0  0  0  0  0  0  0
  149.7259  134.4106  155.7502 Cl  0  0  0  0  0  0  0  0  0  0  0  0
  145.7439  137.4670  151.6417 H   0  0  0  0  0  0  0  0  0  0  0  0
  145.3772  135.8800  150.7646 H   0  0  0  0  0  0  0  0  0  0  0  0
  145.6503  134.6453  152.8327 H   0  0  0  0  0  0  0  0  0  0  0  0
  146.1520  137.4402  154.0268 H   0  0  0  0  0  0  0  0  0  0  0  0
  145.3469  136.1335  154.8864 H   0  0  0  0  0  0  0  0  0  0  0  0
  147.4552  134.9310  154.9120 H   0  0  0  0  0  0  0  0  0  0  0  0
  147.7593  138.4929  154.0105 H   0  0  0  0  0  0  0  0  0  0  0  0
  152.8811  138.4951  155.5672 H   0  0  0  0  0  0  0  0  0  0  0  0
  152.4070  139.3103  154.1139 H   0  0  0  0  0  0  0  0  0  0  0  0
  152.0870  141.1790  155.4023 H   0  0  0  0  0  0  0  0  0  0  0  0
  150.6693  140.3728  156.0763 H   0  0  0  0  0  0  0  0  0  0  0  0
  153.6486  140.3337  159.4526 H   0  0  0  0  0  0  0  0  0  0  0  0
  153.4052  142.0777  161.1966 H   0  0  0  0  0  0  0  0  0  0  0  0
  150.4427  144.0740  158.7857 H   0  0  0  0  0  0  0  0  0  0  0  0
  150.6690  142.3548  157.0514 H   0  0  0  0  0  0  0  0  0  0  0  0
  1  2  2  0  0  0  0
  1 23  1  0  0  0  0
  1 24  1  0  0  0  0
  2  3  1  0  0  0  0
  2 25  1  0  0  0  0
  3  4  1  0  0  0  0
  3 26  1  0  0  0  0
  3 27  1  0  0  0  0
  4  5  1  0  0  0  0
  4 28  1  0  0  0  0
  5 21  2  0  0  0  0
  5  6  1  0  0  0  0
  6  7  2  0  0  0  0
  6 29  1  0  0  0  0
  7  8  1  0  0  0  0
  8  9  1  0  0  0  0
  8 19  1  0  0  0  0
  9 10  1  0  0  0  0
  9 30  1  0  0  0  0
  9 31  1  0  0  0  0
 10 11  1  0  0  0  0
 10 32  1  0  0  0  0
 10 33  1  0  0  0  0
 11 12  1  0  0  0  0
 12 18  1  0  0  0  0
 12 13  2  0  0  0  0
 13 14  1  0  0  0  0
 13 34  1  0  0  0  0
 14 15  2  0  0  0  0
 14 35  1  0  0  0  0
 15 16  1  0  0  0  0
 15 17  1  0  0  0  0
 17 18  2  0  0  0  0
 17 36  1  0  0  0  0
 18 37  1  0  0  0  0
 19 20  2  0  0  0  0
 19 21  1  0  0  0  0
 21 22  1  0  0  0  0
M  END
> <s_m_source_file>
AV-unprocessed.smi

> <i_m_source_file_index>
360

> <i_lp_mmshare_version>
43012

> <i_f3d_flags>
0

> <s_epik_input>
W0NIMl09W0NIXVtDSDJdW05IXWMxW2NIXW5uKGMoPU8pYzFDbClbQ0gyXVtDSDJdT2MyW2NIXVtjSF1jKENsKVtjSF1bY0hdMg==

> <s_epik_cmdline>
J2VwaWtfcHl0aG9uJywgJy1waCcsICc3LjAnLCAnLXRuJywgJzgnLCAnLW1hJywgJzIwMCcsICctbWV0YWxfYmluZGluZycsICctaW1hZScsICc8aW5maWxlLm1hZT4nLCAnLW9tYWUnLCAnPG91dGZpbGUubWFlPic=

> <r_lp_tautomer_probability>
1

> <r_epik_Ionization_Penalty>
1.57681e-05

> <r_epik_Ionization_Penalty_Charging>
9.79356e-10

> <r_epik_Ionization_Penalty_Neutral>
1.57671e-05

> <r_epik_State_Penalty>
-0

> <r_epik_Charging_Adjusted_Penalty>
9.79356e-10

> <i_epik_Tot_Q>
0

> <i_epik_Tot_abs_Q>
0

> <r_epik_Metal_State_Penalty>
-0

> <b_epik_Metal_Only>
0

> <s_lp_Force_Field>
OPLS_2005

> <r_lp_Energy>
29.545

> <b_lp_Chiralities_Consistent>
1

> <s_lp_Variant>
AV-unprocessed.smi:360-1

> <Gold.Version>
5.8.1

> <Gold.Id.Protein>
6NUR|6NUR_protein|mol2

> <Gold.PLP.Fitness>
43.2773

> <Gold.PLP.PLP>
-38.0276

> <Gold.PLP.part.hbond>
-1.9631

> <Gold.PLP.part.metal>
0.0000

> <Gold.PLP.part.buried>
-4.7087

> <Gold.PLP.part.nonpolar>
-31.9982

> <Gold.PLP.part.repulsive>
0.1867

> <Gold.PLP.ligand.clash>
0.0000

> <Gold.PLP.ligand.torsion>
0.4288

> <Gold.PLP.Chemscore.Hbond>
2.0000

> <Gold.PLP.Chemscore.CHOScore>
0.0000

> <Gold.PLP.Chemscore.Metal>
0.0000

> <Gold.Chemscore.Hbonds>
donor molecule, donor type, donor heavy atom, donor atom, acceptor molecule, acceptor atom, score
      P1  H  7997  8009       L1    11  0.86
      P1  H 10752 10763       L1    20  1.00

> <Gold.PLP.Chemscore.Internal.Correction>
0.1073

> <Gold.Rescore>
     Score         DG    S(hbond)    S(metal)    S(lipo)     H(rot)  DE(clash)    DE(int)     intcor
     17.98     -18.49       1.51        0.00     106.11       1.73       0.02       0.49       ----

> <Gold.Chemscore.Fitness>
17.9783

> <Gold.Chemscore.DG>
-18.4907

> <Gold.Chemscore.ZeroCoef>
-5.4800

> <Gold.Chemscore.Hbond>
1.5079

> <Gold.Chemscore.Metal>
0.0000

> <Gold.Chemscore.Lipo>
106.1126

> <Gold.Chemscore.Internal_Hbond>
0.0000

> <Gold.Chemscore.DEClash>
0.0239

> <Gold.Chemscore.DEInternal>
0.4885

> <Gold.Chemscore.Rot>
1.7348

> <Gold.Chemscore.Internal.Correction>
   9.000000E+99

> <Gold.Chemscore.Hbonds>
donor molecule, donor type, donor heavy atom, donor atom, acceptor molecule, acceptor atom, score
      P1  H  7997  8009       L1    11  0.14
      P1  H 10752 10763       L1    20  0.95

> <Gold.Chemscore.Hbond.Weighted>
-5.0365

> <Gold.Chemscore.Metal.Weighted>
-0.0000

> <Gold.Chemscore.Lipo.Weighted>
-12.4152

> <Gold.Chemscore.Internal_Hbond.Weighted>
0.0000

> <Gold.Chemscore.DEClash.Weighted>
0.0239

> <Gold.Chemscore.DEInternal.Weighted>
0.4885

> <Gold.Chemscore.Rot.Weighted>
4.4410

> <Gold.Chemscore.Internal.Correction.Weighted>
   9.000000E+99

> <Gold.Protein.RotatedTorsions>
[ 6907 6896 6895 6894 ] final  -59.81 input  -60.11 | X-H torsion
[ 7974 7965 7964 7962 ] final -101.62 input  175.53 | X-H torsion
[ 8008 7997 7996 7995 ] final -175.36 input   59.86 | X-H torsion
[ 10167 10162 10161 10158 ] final  -44.42 input  -65.29 | X-H torsion
[ 10718 10713 10712 10709 ] final    8.00 input   66.30 | X-H torsion
[ 10763 10752 10751 10750 ] final   71.54 input  -60.55 | X-H torsion
[ 11005 11000 10999 10996 ] final   43.92 input  -57.11 | X-H torsion

> <Gold.Protein.ActiveResidues>
 VAL166  LYS551  ARG553  GLY616  TRP617  ASP618  TYR619  PRO620  LYS621  CYS622 
 ASP623  PHE694  ASN695  SER759  ASP760  ASP761  ALA762  ILE779  LEU786  VAL792 
 PHE793  MET794  SER795  GLU796  ALA797  LYS798  CYS799  TRP800  GLU811  SER814 

> <Gold.Protein.RotatedAtoms>
  150.7902  134.6919  159.6501 H   0  0  0  0  0  0  0  0  0  0  0  0  # atno 6907 bound_to 6896
  152.4006  134.6289  160.0080 H   0  0  0  0  0  0  0  0  0  0  0  0  # atno 6908 bound_to 6896
  151.6561  133.3282  159.3199 H   0  0  0  0  0  0  0  0  0  0  0  0  # atno 6909 bound_to 6896
  145.2792  140.9321  143.2942 H   0  0  0  0  0  0  0  0  0  0  0  0  # atno 7974 bound_to 7965
  155.9815  140.1183  157.0722 H   0  0  0  0  0  0  0  0  0  0  0  0  # atno 8008 bound_to 7997
  154.4184  140.1143  156.5510 H   0  0  0  0  0  0  0  0  0  0  0  0  # atno 8009 bound_to 7997
  155.6464  140.3473  155.4735 H   0  0  0  0  0  0  0  0  0  0  0  0  # atno 8010 bound_to 7997
  140.6897  143.2931  151.3493 H   0  0  0  0  0  0  0  0  0  0  0  0  # atno 10167 bound_to 10162
  156.9452  130.5876  149.5654 H   0  0  0  0  0  0  0  0  0  0  0  0  # atno 10718 bound_to 10713
  153.0405  135.5133  154.7608 H   0  0  0  0  0  0  0  0  0  0  0  0  # atno 10763 bound_to 10752
  154.6550  135.2930  154.9942 H   0  0  0  0  0  0  0  0  0  0  0  0  # atno 10764 bound_to 10752
  154.0813  135.6663  153.4891 H   0  0  0  0  0  0  0  0  0  0  0  0  # atno 10765 bound_to 10752
  140.1600  134.4353  155.8324 H   0  0  0  0  0  0  0  0  0  0  0  0  # atno 11005 bound_to 11000
  144.9268  139.4346  143.6514 LP  0  0  0  0  0  0  0  0  0  0  0  0  # atno 17320 bound_to 7965
  146.3222  139.8158  142.8937 LP  0  0  0  0  0  0  0  0  0  0  0  0  # atno 17321 bound_to 7965
  139.6288  144.0760  152.2458 LP  0  0  0  0  0  0  0  0  0  0  0  0  # atno 17342 bound_to 10162
  140.0229  144.6139  150.7552 LP  0  0  0  0  0  0  0  0  0  0  0  0  # atno 17343 bound_to 10162
  156.0387  130.5471  150.8717 LP  0  0  0  0  0  0  0  0  0  0  0  0  # atno 17370 bound_to 10713
  157.5758  131.0946  150.9347 LP  0  0  0  0  0  0  0  0  0  0  0  0  # atno 17371 bound_to 10713
  141.2208  133.6909  156.7577 LP  0  0  0  0  0  0  0  0  0  0  0  0  # atno 17394 bound_to 11000
  140.2501  134.8547  157.3659 LP  0  0  0  0  0  0  0  0  0  0  0  0  # atno 17395 bound_to 11000

$$$$
