AV-unprocessed.smi:1208|AV-procd|sdf|5063|dock5
  -GOLD-   22720 4103D 1   1.00000     0.00000
 Structure written by MMmdl.
 35 36  0  0  0  0  0  0  0  0  2 V2000
  150.8805  137.4240  155.0459 C   0  0  0  0  0  0  0  0  0  0  0  0
  151.0962  138.0858  156.4148 C   0  0  2  0  0  0  0  0  0  0  0  0
  149.8458  138.0351  157.1703 N   0  0  0  0  0  0  0  0  0  0  0  0
  149.6029  137.2749  158.2496 C   0  0  0  0  0  0  0  0  0  0  0  0
  150.4354  136.5134  158.7442 O   0  0  0  0  0  0  0  0  0  0  0  0
  148.2043  137.4280  158.8675 C   0  0  0  0  0  0  0  0  0  0  0  0
  147.9452  136.5203  159.9947 N   0  0  0  0  0  0  0  0  0  0  0  0
  147.8378  137.1955  161.2851 N   0  5  0  0  0  0  0  0  0  0  0  0
  147.6067  136.4563  162.4024 C   0  0  0  0  0  0  0  0  0  0  0  0
  147.5203  136.9520  163.5234 O   0  0  0  0  0  0  0  0  0  0  0  0
  147.4530  135.0187  162.2521 C   0  0  0  0  0  0  0  0  0  0  0  0
  147.5347  134.4249  161.0452 C   0  0  0  0  0  0  0  0  0  0  0  0
  147.7849  135.1771  159.8218 C   0  0  0  0  0  0  0  0  0  0  0  0
  147.8478  134.6424  158.7144 O   0  0  0  0  0  0  0  0  0  0  0  0
  151.5732  139.5458  156.2846 C   0  0  1  0  0  0  0  0  0  0  0  0
  150.4980  140.5287  155.8133 C   0  0  0  0  0  0  0  0  0  0  0  0
  151.0093  141.8361  156.3715 C   0  0  0  0  0  0  0  0  0  0  0  0
  151.5614  141.3965  157.7232 C   0  0  0  0  0  0  0  0  0  0  0  0
  151.9996  140.0514  157.5490 O   0  0  0  0  0  0  0  0  0  0  0  0
  151.8036  137.4084  154.4661 H   0  0  0  0  0  0  0  0  0  0  0  0
  150.1291  137.9551  154.4607 H   0  0  0  0  0  0  0  0  0  0  0  0
  150.5474  136.3915  155.1582 H   0  0  0  0  0  0  0  0  0  0  0  0
  151.8735  137.5236  156.9356 H   0  0  0  0  0  0  0  0  0  0  0  0
  149.0996  138.6325  156.8459 H   0  0  0  0  0  0  0  0  0  0  0  0
  148.0891  138.4676  159.1792 H   0  0  0  0  0  0  0  0  0  0  0  0
  147.4485  137.2682  158.0963 H   0  0  0  0  0  0  0  0  0  0  0  0
  147.2664  134.4139  163.1271 H   0  0  0  0  0  0  0  0  0  0  0  0
  147.4114  133.3542  160.9803 H   0  0  0  0  0  0  0  0  0  0  0  0
  152.4244  139.6033  155.6040 H   0  0  0  0  0  0  0  0  0  0  0  0
  150.3798  140.5439  154.7293 H   0  0  0  0  0  0  0  0  0  0  0  0
  149.5321  140.2856  156.2589 H   0  0  0  0  0  0  0  0  0  0  0  0
  151.8120  142.2237  155.7427 H   0  0  0  0  0  0  0  0  0  0  0  0
  150.2365  142.6008  156.4544 H   0  0  0  0  0  0  0  0  0  0  0  0
  152.3710  142.0384  158.0707 H   0  0  0  0  0  0  0  0  0  0  0  0
  150.7732  141.4068  158.4771 H   0  0  0  0  0  0  0  0  0  0  0  0
  1  2  1  0  0  0  0
  1 20  1  0  0  0  0
  1 21  1  0  0  0  0
  1 22  1  0  0  0  0
  2  3  1  0  0  0  0
  2 15  1  0  0  0  0
  2 23  1  0  0  0  0
  3  4  1  0  0  0  0
  3 24  1  0  0  0  0
  4  5  2  0  0  0  0
  4  6  1  0  0  0  0
  6 25  1  0  0  0  0
  6 26  1  0  0  0  0
  6  7  1  0  0  0  0
  7  8  1  0  0  0  0
  7 13  1  0  0  0  0
  8  9  1  0  0  0  0
  9 10  2  0  0  0  0
  9 11  1  0  0  0  0
 11 27  1  0  0  0  0
 11 12  2  0  0  0  0
 12 28  1  0  0  0  0
 12 13  1  0  0  0  0
 13 14  2  0  0  0  0
 15 19  1  0  0  0  0
 15 16  1  0  0  0  0
 15 29  1  0  0  0  0
 16 17  1  0  0  0  0
 16 30  1  0  0  0  0
 16 31  1  0  0  0  0
 17 18  1  0  0  0  0
 17 32  1  0  0  0  0
 17 33  1  0  0  0  0
 18 19  1  0  0  0  0
 18 34  1  0  0  0  0
 18 35  1  0  0  0  0
M  CHG  1   8  -1
M  END
> <s_m_source_file>
AV-unprocessed.smi

> <i_m_source_file_index>
1208

> <i_lp_mmshare_version>
43012

> <i_f3d_flags>
0

> <s_epik_input>
TzFbQ0gyXVtDSDJdW0NIMl1bQ0BIXTFbQ0BIXShbQ0gzXSlbTkhdQyg9TylbQ0gyXW4yW25IXWMoPU8pW2NIXVtjSF1jMj1P

> <s_epik_cmdline>
J2VwaWtfcHl0aG9uJywgJy1waCcsICc3LjAnLCAnLXRuJywgJzgnLCAnLW1hJywgJzIwMCcsICctbWV0YWxfYmluZGluZycsICctaW1hZScsICc8aW5maWxlLm1hZT4nLCAnLW9tYWUnLCAnPG91dGZpbGUubWFlPic=

> <r_lp_tautomer_probability>
1

> <r_epik_Ionization_Penalty>
0.0975494

> <r_epik_Ionization_Penalty_Charging>
0.0975494

> <r_epik_Ionization_Penalty_Neutral>
2.30132e-08

> <r_epik_State_Penalty>
0.034345

> <r_epik_Charging_Adjusted_Penalty>
0.131894

> <i_epik_Tot_Q>
-1

> <i_epik_Tot_abs_Q>
1

> <r_epik_Metal_State_Penalty>
0.034345

> <b_epik_Metal_Only>
0

> <s_lp_Force_Field>
OPLS_2005

> <r_lp_Energy>
33.2444

> <b_lp_Chiralities_Consistent>
1

> <s_lp_Variant>
AV-unprocessed.smi:1208-3

> <Gold.Version>
5.8.1

> <Gold.Id.Protein>
6NUR|6NUR_protein|mol2

> <Gold.PLP.Fitness>
42.6993

> <Gold.PLP.PLP>
-29.3713

> <Gold.PLP.part.hbond>
-3.0000

> <Gold.PLP.part.metal>
0.0000

> <Gold.PLP.part.buried>
-4.2973

> <Gold.PLP.part.nonpolar>
-23.1414

> <Gold.PLP.part.repulsive>
0.0310

> <Gold.PLP.ligand.clash>
0.0000

> <Gold.PLP.ligand.torsion>
0.3006

> <Gold.PLP.Chemscore.Hbond>
4.6320

> <Gold.PLP.Chemscore.CHOScore>
0.0000

> <Gold.PLP.Chemscore.Metal>
0.0000

> <Gold.Chemscore.Hbonds>
donor molecule, donor type, donor heavy atom, donor atom, acceptor molecule, acceptor atom, score
      P1  H  6896  6909       L1     5  1.00
      P1  H  6931  6943       L1     8  1.90
      P1  H  6934  6947       L1     8  1.54

> <Gold.PLP.Chemscore.Internal.Correction>
0.0332

> <Gold.Rescore>
     Score         DG    S(hbond)    S(metal)    S(lipo)     H(rot)  DE(clash)    DE(int)     intcor
     12.85     -13.21       1.89        0.00      55.81       1.99       0.06       0.30       ----

> <Gold.Chemscore.Fitness>
12.8521

> <Gold.Chemscore.DG>
-13.2079

> <Gold.Chemscore.ZeroCoef>
-5.4800

> <Gold.Chemscore.Hbond>
1.8872

> <Gold.Chemscore.Metal>
0.0000

> <Gold.Chemscore.Lipo>
55.8056

> <Gold.Chemscore.Internal_Hbond>
0.0000

> <Gold.Chemscore.DEClash>
0.0580

> <Gold.Chemscore.DEInternal>
0.2978

> <Gold.Chemscore.Rot>
1.9940

> <Gold.Chemscore.Internal.Correction>
   9.000000E+99

> <Gold.Chemscore.Hbonds>
donor molecule, donor type, donor heavy atom, donor atom, acceptor molecule, acceptor atom, score
      P1  H  6896  6909       L1     5  0.97
      P1  H  6931  6943       L1     8  0.20
      P1  H  6934  6947       L1     8  0.49

> <Gold.Chemscore.Hbond.Weighted>
-6.3033

> <Gold.Chemscore.Metal.Weighted>
-0.0000

> <Gold.Chemscore.Lipo.Weighted>
-6.5293

> <Gold.Chemscore.Internal_Hbond.Weighted>
0.0000

> <Gold.Chemscore.DEClash.Weighted>
0.0580

> <Gold.Chemscore.DEInternal.Weighted>
0.2978

> <Gold.Chemscore.Rot.Weighted>
5.1047

> <Gold.Chemscore.Internal.Correction.Weighted>
   9.000000E+99

> <Gold.Protein.RotatedTorsions>
[ 6907 6896 6895 6894 ] final   81.90 input  -60.11 | X-H torsion
[ 7974 7965 7964 7962 ] final  -92.17 input  175.53 | X-H torsion
[ 8008 7997 7996 7995 ] final  -70.19 input   59.86 | X-H torsion
[ 10167 10162 10161 10158 ] final  -18.20 input  -65.29 | X-H torsion
[ 10718 10713 10712 10709 ] final   95.32 input   66.30 | X-H torsion
[ 10763 10752 10751 10750 ] final  124.30 input  -60.55 | X-H torsion
[ 11005 11000 10999 10996 ] final  126.20 input  -57.11 | X-H torsion

> <Gold.Protein.ActiveResidues>
 VAL166  LYS551  ARG553  GLY616  TRP617  ASP618  TYR619  PRO620  LYS621  CYS622 
 ASP623  PHE694  ASN695  SER759  ASP760  ASP761  ALA762  ILE779  LEU786  VAL792 
 PHE793  MET794  SER795  GLU796  ALA797  LYS798  CYS799  TRP800  GLU811  SER814 

> <Gold.Protein.RotatedAtoms>
  152.5283  134.3133  159.9121 H   0  0  0  0  0  0  0  0  0  0  0  0  # atno 6907 bound_to 6896
  151.3083  133.4085  159.2652 H   0  0  0  0  0  0  0  0  0  0  0  0  # atno 6908 bound_to 6896
  151.0060  134.9376  159.8038 H   0  0  0  0  0  0  0  0  0  0  0  0  # atno 6909 bound_to 6896
  145.4034  140.9539  143.2274 H   0  0  0  0  0  0  0  0  0  0  0  0  # atno 7974 bound_to 7965
  154.4994  140.0839  156.7765 H   0  0  0  0  0  0  0  0  0  0  0  0  # atno 8008 bound_to 7997
  155.4040  140.3438  155.4240 H   0  0  0  0  0  0  0  0  0  0  0  0  # atno 8009 bound_to 7997
  156.1436  140.1537  156.8869 H   0  0  0  0  0  0  0  0  0  0  0  0  # atno 8010 bound_to 7997
  140.7256  143.4940  150.9955 H   0  0  0  0  0  0  0  0  0  0  0  0  # atno 10167 bound_to 10162
  157.6940  131.0542  150.4321 H   0  0  0  0  0  0  0  0  0  0  0  0  # atno 10718 bound_to 10713
  153.6592  135.3349  155.3122 H   0  0  0  0  0  0  0  0  0  0  0  0  # atno 10763 bound_to 10752
  154.8519  135.4359  154.1822 H   0  0  0  0  0  0  0  0  0  0  0  0  # atno 10764 bound_to 10752
  153.2784  135.7007  153.7485 H   0  0  0  0  0  0  0  0  0  0  0  0  # atno 10765 bound_to 10752
  139.9444  134.9631  156.8672 H   0  0  0  0  0  0  0  0  0  0  0  0  # atno 11005 bound_to 11000
  144.8358  139.5553  143.6923 LP  0  0  0  0  0  0  0  0  0  0  0  0  # atno 17320 bound_to 7965
  146.2740  139.6707  142.9276 LP  0  0  0  0  0  0  0  0  0  0  0  0  # atno 17321 bound_to 7965
  139.8646  143.7271  152.3171 LP  0  0  0  0  0  0  0  0  0  0  0  0  # atno 17342 bound_to 10162
  139.7498  144.7537  151.0524 LP  0  0  0  0  0  0  0  0  0  0  0  0  # atno 17343 bound_to 10162
  156.4687  130.4048  149.6531 LP  0  0  0  0  0  0  0  0  0  0  0  0  # atno 17370 bound_to 10713
  156.3620  130.7486  151.2459 LP  0  0  0  0  0  0  0  0  0  0  0  0  # atno 17371 bound_to 10713
  140.5870  134.0298  155.7485 LP  0  0  0  0  0  0  0  0  0  0  0  0  # atno 17394 bound_to 11000
  141.1090  133.9647  157.2944 LP  0  0  0  0  0  0  0  0  0  0  0  0  # atno 17395 bound_to 11000

$$$$
