AV-unprocessed.smi:1686|AV-procd|sdf|6761|dock10
  -GOLD-   22720 7523D 1   1.00000     0.00000
 Structure written by MMmdl.
 41 43  0  0  0  0  0  0  0  0  1 V2000
  150.2296  135.7630  155.3886 C   0  0  0  0  0  0  0  0  0  0  0  0
  150.4633  136.3540  156.7490 C   0  0  0  0  0  0  0  0  0  0  0  0
  149.8665  135.8086  157.8008 N   0  0  0  0  0  0  0  0  0  0  0  0
  150.2720  136.5532  158.9143 O   0  0  0  0  0  0  0  0  0  0  0  0
  151.1012  137.5217  158.4624 C   0  0  0  0  0  0  0  0  0  0  0  0
  151.8369  138.6662  159.5131 Cl  0  0  0  0  0  0  0  0  0  0  0  0
  151.2737  137.4708  157.1091 C   0  0  0  0  0  0  0  0  0  0  0  0
  152.1088  138.3563  156.2154 C   0  0  0  0  0  0  0  0  0  0  0  0
  151.4234  139.7018  155.9470 C   0  0  0  0  0  0  0  0  0  0  0  0
  150.8267  139.9164  154.8905 O   0  0  0  0  0  0  0  0  0  0  0  0
  151.5249  140.6091  156.9303 N   0  0  0  0  0  0  0  0  0  0  0  0
  150.9795  141.9655  156.8999 C   0  0  1  0  0  0  0  0  0  0  0  0
  149.5132  141.9040  156.4335 C   0  0  0  0  0  0  0  0  0  0  0  0
  151.1387  142.6168  158.2967 C   0  0  1  0  0  0  0  0  0  0  0  0
  152.5011  142.3162  158.9725 C   0  0  0  0  0  0  0  0  0  0  0  0
  153.0378  143.7126  159.3309 C   0  0  2  0  0  0  0  0  0  0  0  0
  152.1841  144.3206  160.4579 C   0  0  0  0  0  0  0  0  0  0  0  0
  150.8681  144.6639  159.7357 C   0  0  0  0  0  0  0  0  0  0  0  0
  151.1274  144.1672  158.2999 C   0  0  1  0  0  0  0  0  0  0  0  0
  152.5995  144.5249  158.1204 C   0  0  0  0  0  0  0  0  0  0  0  0
  150.8681  136.2261  154.6367 H   0  0  0  0  0  0  0  0  0  0  0  0
  149.1946  135.9001  155.0749 H   0  0  0  0  0  0  0  0  0  0  0  0
  150.4412  134.6936  155.3839 H   0  0  0  0  0  0  0  0  0  0  0  0
  153.0863  138.5450  156.6608 H   0  0  0  0  0  0  0  0  0  0  0  0
  152.3037  137.8756  155.2563 H   0  0  0  0  0  0  0  0  0  0  0  0
  152.0347  140.3464  157.7614 H   0  0  0  0  0  0  0  0  0  0  0  0
  151.5452  142.5578  156.1788 H   0  0  0  0  0  0  0  0  0  0  0  0
  149.0796  142.8969  156.3236 H   0  0  0  0  0  0  0  0  0  0  0  0
  148.8955  141.3474  157.1389 H   0  0  0  0  0  0  0  0  0  0  0  0
  149.4298  141.4136  155.4630 H   0  0  0  0  0  0  0  0  0  0  0  0
  150.3315  142.2475  158.9313 H   0  0  0  0  0  0  0  0  0  0  0  0
  152.3971  141.6731  159.8472 H   0  0  0  0  0  0  0  0  0  0  0  0
  153.1916  141.8262  158.2846 H   0  0  0  0  0  0  0  0  0  0  0  0
  154.1088  143.7297  159.5345 H   0  0  0  0  0  0  0  0  0  0  0  0
  152.0366  143.6244  161.2843 H   0  0  0  0  0  0  0  0  0  0  0  0
  152.6493  145.2225  160.8577 H   0  0  0  0  0  0  0  0  0  0  0  0
  150.0021  144.1866  160.1955 H   0  0  0  0  0  0  0  0  0  0  0  0
  150.6978  145.7412  159.7462 H   0  0  0  0  0  0  0  0  0  0  0  0
  150.4581  144.6229  157.5712 H   0  0  0  0  0  0  0  0  0  0  0  0
  152.8015  145.5930  158.2206 H   0  0  0  0  0  0  0  0  0  0  0  0
  153.0257  144.1686  157.1814 H   0  0  0  0  0  0  0  0  0  0  0  0
  1  2  1  0  0  0  0
  1 21  1  0  0  0  0
  1 22  1  0  0  0  0
  1 23  1  0  0  0  0
  2  7  1  0  0  0  0
  2  3  2  0  0  0  0
  3  4  1  0  0  0  0
  4  5  1  0  0  0  0
  5  6  1  0  0  0  0
  5  7  2  0  0  0  0
  7  8  1  0  0  0  0
  8  9  1  0  0  0  0
  8 24  1  0  0  0  0
  8 25  1  0  0  0  0
  9 10  2  0  0  0  0
  9 11  1  0  0  0  0
 11 12  1  0  0  0  0
 11 26  1  0  0  0  0
 12 13  1  0  0  0  0
 12 14  1  0  0  0  0
 12 27  1  0  0  0  0
 13 28  1  0  0  0  0
 13 29  1  0  0  0  0
 13 30  1  0  0  0  0
 14 19  1  0  0  0  0
 14 15  1  0  0  0  0
 14 31  1  0  0  0  0
 15 16  1  0  0  0  0
 15 32  1  0  0  0  0
 15 33  1  0  0  0  0
 16 20  1  0  0  0  0
 16 17  1  0  0  0  0
 16 34  1  0  0  0  0
 17 18  1  0  0  0  0
 17 35  1  0  0  0  0
 17 36  1  0  0  0  0
 18 19  1  0  0  0  0
 18 37  1  0  0  0  0
 18 38  1  0  0  0  0
 19 20  1  0  0  0  0
 19 39  1  0  0  0  0
 20 40  1  0  0  0  0
 20 41  1  0  0  0  0
M  END
> <s_m_source_file>
AV-unprocessed.smi

> <i_m_source_file_index>
1686

> <i_lp_mmshare_version>
43012

> <i_f3d_flags>
0

> <s_epik_input>
W0NIM11jMW5vYyhDbCljMVtDSDJdQyg9TylbTkhdW0NASF0oW0NIM10pW0NASF0oW0NIMl1bQ0BIXTIzKVtDQEhdKFtDSDJdMylbQ0gyXVtDSDJdMg==

> <s_epik_cmdline>
J2VwaWtfcHl0aG9uJywgJy1waCcsICc3LjAnLCAnLXRuJywgJzgnLCAnLW1hJywgJzIwMCcsICctbWV0YWxfYmluZGluZycsICctaW1hZScsICc8aW5maWxlLm1hZT4nLCAnLW9tYWUnLCAnPG91dGZpbGUubWFlPic=

> <r_lp_tautomer_probability>
1

> <r_epik_Ionization_Penalty>
2.01576e-08

> <r_epik_Ionization_Penalty_Charging>
0

> <r_epik_Ionization_Penalty_Neutral>
2.01576e-08

> <r_epik_State_Penalty>
-0

> <r_epik_Charging_Adjusted_Penalty>
0

> <i_epik_Tot_Q>
0

> <i_epik_Tot_abs_Q>
0

> <r_epik_Metal_State_Penalty>
-0

> <b_epik_Metal_Only>
0

> <s_lp_Force_Field>
OPLS_2005

> <r_lp_Energy>
46.9137

> <b_lp_Chiralities_Consistent>
1

> <s_lp_Variant>
AV-unprocessed.smi:1686-4

> <Gold.Version>
5.8.1

> <Gold.Id.Protein>
6NUR|6NUR_protein|mol2

> <Gold.PLP.Fitness>
45.0866

> <Gold.PLP.PLP>
-41.2199

> <Gold.PLP.part.hbond>
-2.9008

> <Gold.PLP.part.metal>
0.0000

> <Gold.PLP.part.buried>
-5.0921

> <Gold.PLP.part.nonpolar>
-33.4075

> <Gold.PLP.part.repulsive>
0.1900

> <Gold.PLP.ligand.clash>
0.0000

> <Gold.PLP.ligand.torsion>
0.9751

> <Gold.PLP.Chemscore.Hbond>
1.9280

> <Gold.PLP.Chemscore.CHOScore>
0.0000

> <Gold.PLP.Chemscore.Metal>
0.0000

> <Gold.Chemscore.Hbonds>
donor molecule, donor type, donor heavy atom, donor atom, acceptor molecule, acceptor atom, score
      P1  H  6896  6907       L1     4  0.85
      P1  H  7989  7998       L1    10  1.00

> <Gold.PLP.Chemscore.Internal.Correction>
0.0330

> <Gold.Rescore>
     Score         DG    S(hbond)    S(metal)    S(lipo)     H(rot)  DE(clash)    DE(int)     intcor
     19.44     -21.86       1.68        0.00     124.03       1.46       0.03       2.39       ----

> <Gold.Chemscore.Fitness>
19.4376

> <Gold.Chemscore.DG>
-21.8639

> <Gold.Chemscore.ZeroCoef>
-5.4800

> <Gold.Chemscore.Hbond>
1.6835

> <Gold.Chemscore.Metal>
0.0000

> <Gold.Chemscore.Lipo>
124.0259

> <Gold.Chemscore.Internal_Hbond>
0.0000

> <Gold.Chemscore.DEClash>
0.0343

> <Gold.Chemscore.DEInternal>
2.3920

> <Gold.Chemscore.Rot>
1.4648

> <Gold.Chemscore.Internal.Correction>
   9.000000E+99

> <Gold.Chemscore.Hbonds>
donor molecule, donor type, donor heavy atom, donor atom, acceptor molecule, acceptor atom, score
      P1  H  6896  6907       L1     4  0.12
      P1  H  7989  7998       L1    10  0.98

> <Gold.Chemscore.Hbond.Weighted>
-5.6228

> <Gold.Chemscore.Metal.Weighted>
-0.0000

> <Gold.Chemscore.Lipo.Weighted>
-14.5110

> <Gold.Chemscore.Internal_Hbond.Weighted>
0.0000

> <Gold.Chemscore.DEClash.Weighted>
0.0343

> <Gold.Chemscore.DEInternal.Weighted>
2.3920

> <Gold.Chemscore.Rot.Weighted>
3.7500

> <Gold.Chemscore.Internal.Correction.Weighted>
   9.000000E+99

> <Gold.Protein.RotatedTorsions>
[ 6907 6896 6895 6894 ] final  -23.52 input  -60.11 | X-H torsion
[ 7974 7965 7964 7962 ] final   63.98 input  175.53 | X-H torsion
[ 8008 7997 7996 7995 ] final  -51.59 input   59.86 | X-H torsion
[ 10167 10162 10161 10158 ] final  -22.73 input  -65.29 | X-H torsion
[ 10718 10713 10712 10709 ] final  176.12 input   66.30 | X-H torsion
[ 10763 10752 10751 10750 ] final  178.89 input  -60.55 | X-H torsion
[ 11005 11000 10999 10996 ] final   15.54 input  -57.11 | X-H torsion

> <Gold.Protein.ActiveResidues>
 VAL166  LYS551  ARG553  GLY616  TRP617  ASP618  TYR619  PRO620  LYS621  CYS622 
 ASP623  PHE694  ASN695  SER759  ASP760  ASP761  ALA762  ILE779  LEU786  VAL792 
 PHE793  MET794  SER795  GLU796  ALA797  LYS798  CYS799  TRP800  GLU811  SER814 

> <Gold.Protein.RotatedAtoms>
  151.2029  135.0450  159.8879 H   0  0  0  0  0  0  0  0  0  0  0  0  # atno 6907 bound_to 6896
  152.5431  134.0830  159.8254 H   0  0  0  0  0  0  0  0  0  0  0  0  # atno 6908 bound_to 6896
  151.0973  133.5222  159.2643 H   0  0  0  0  0  0  0  0  0  0  0  0  # atno 6909 bound_to 6896
  145.8555  139.3281  143.0850 H   0  0  0  0  0  0  0  0  0  0  0  0  # atno 7974 bound_to 7965
  154.4086  140.1244  156.4853 H   0  0  0  0  0  0  0  0  0  0  0  0  # atno 8008 bound_to 7997
  155.7044  140.3494  155.4927 H   0  0  0  0  0  0  0  0  0  0  0  0  # atno 8009 bound_to 7997
  155.9356  140.1077  157.1087 H   0  0  0  0  0  0  0  0  0  0  0  0  # atno 8010 bound_to 7997
  140.7286  143.4508  151.0519 H   0  0  0  0  0  0  0  0  0  0  0  0  # atno 10167 bound_to 10162
  156.9248  130.9952  151.2998 H   0  0  0  0  0  0  0  0  0  0  0  0  # atno 10718 bound_to 10713
  154.5135  135.2790  155.1323 H   0  0  0  0  0  0  0  0  0  0  0  0  # atno 10763 bound_to 10752
  154.2908  135.6267  153.5388 H   0  0  0  0  0  0  0  0  0  0  0  0  # atno 10764 bound_to 10752
  152.9923  135.5673  154.5606 H   0  0  0  0  0  0  0  0  0  0  0  0  # atno 10765 bound_to 10752
  140.4572  134.1164  155.7711 H   0  0  0  0  0  0  0  0  0  0  0  0  # atno 11005 bound_to 11000
  145.9308  140.9050  143.0357 LP  0  0  0  0  0  0  0  0  0  0  0  0  # atno 17320 bound_to 7965
  144.6728  140.1415  143.7436 LP  0  0  0  0  0  0  0  0  0  0  0  0  # atno 17321 bound_to 7965
  139.8184  143.7854  152.3175 LP  0  0  0  0  0  0  0  0  0  0  0  0  # atno 17342 bound_to 10162
  139.7928  144.7404  150.9932 LP  0  0  0  0  0  0  0  0  0  0  0  0  # atno 17343 bound_to 10162
  157.5885  130.8427  149.8624 LP  0  0  0  0  0  0  0  0  0  0  0  0  # atno 17370 bound_to 10713
  156.0474  130.3725  150.1283 LP  0  0  0  0  0  0  0  0  0  0  0  0  # atno 17371 bound_to 10713
  141.1637  133.8743  157.1774 LP  0  0  0  0  0  0  0  0  0  0  0  0  # atno 17394 bound_to 11000
  139.9968  135.0043  157.0101 LP  0  0  0  0  0  0  0  0  0  0  0  0  # atno 17395 bound_to 11000

$$$$
