AV-unprocessed.smi:2516|AV-procd|sdf|9898|dock5
  -GOLD-   2272013533D 1   1.00000     0.00000
 Structure written by MMmdl.
 47 48  0  0  0  0  0  0  0  0  1 V2000
  152.6689  142.2253  160.9763 C   0  0  0  0  0  0  0  0  0  0  0  0
  153.4859  141.9502  159.7087 C   0  0  0  0  0  0  0  0  0  0  0  0
  152.6278  141.7320  158.5557 N   0  0  0  0  0  0  0  0  0  0  0  0
  152.8847  140.6725  157.7506 N   0  0  0  0  0  0  0  0  0  0  0  0
  151.9662  140.7214  156.8005 C   0  0  0  0  0  0  0  0  0  0  0  0
  151.9477  139.6693  155.7294 C   0  0  0  0  0  0  0  0  0  0  0  0
  151.1212  141.8493  156.9747 C   0  0  0  0  0  0  0  0  0  0  0  0
  150.0314  142.1725  156.1283 N   0  0  0  0  0  0  0  0  0  0  0  0
  149.1619  141.3102  155.5795 C   0  0  0  0  0  0  0  0  0  0  0  0
  149.2211  140.0854  155.6887 O   0  0  0  0  0  0  0  0  0  0  0  0
  148.1983  141.9539  154.9054 N   0  0  0  0  0  0  0  0  0  0  0  0
  147.0729  141.3230  154.2167 C   0  0  2  0  0  0  0  0  0  0  0  0
  147.4431  141.1401  152.7333 C   0  0  0  0  0  0  0  0  0  0  0  0
  145.7829  142.1571  154.4325 C   0  0  0  0  0  0  0  0  0  0  0  0
  145.8043  143.4872  153.6483 C   0  0  0  0  0  0  0  0  0  0  0  0
  144.5489  144.3265  153.9352 C   0  0  0  0  0  0  0  0  0  0  0  0
  144.4369  144.5713  155.3315 O   0  0  0  0  0  0  0  0  0  0  0  0
  144.2853  143.3760  156.0868 C   0  0  0  0  0  0  0  0  0  0  0  0
  145.5250  142.4827  155.9178 C   0  0  0  0  0  0  0  0  0  0  0  0
  151.5339  142.4690  158.1250 C   0  0  0  0  0  0  0  0  0  0  0  0
  151.0160  143.6609  158.8696 C   0  0  0  0  0  0  0  0  0  0  0  0
  153.3242  142.4049  161.8285 H   0  0  0  0  0  0  0  0  0  0  0  0
  152.0257  141.3805  161.2239 H   0  0  0  0  0  0  0  0  0  0  0  0
  152.0354  143.1042  160.8520 H   0  0  0  0  0  0  0  0  0  0  0  0
  154.1499  142.7920  159.5056 H   0  0  0  0  0  0  0  0  0  0  0  0
  154.1283  141.0810  159.8470 H   0  0  0  0  0  0  0  0  0  0  0  0
  151.1902  139.8806  154.9746 H   0  0  0  0  0  0  0  0  0  0  0  0
  151.7304  138.6872  156.1501 H   0  0  0  0  0  0  0  0  0  0  0  0
  152.9108  139.6095  155.2218 H   0  0  0  0  0  0  0  0  0  0  0  0
  149.8071  143.1536  156.0500 H   0  0  0  0  0  0  0  0  0  0  0  0
  148.2368  142.9622  154.8756 H   0  0  0  0  0  0  0  0  0  0  0  0
  146.9038  140.3339  154.6466 H   0  0  0  0  0  0  0  0  0  0  0  0
  146.6930  140.5598  152.1974 H   0  0  0  0  0  0  0  0  0  0  0  0
  148.3874  140.6044  152.6281 H   0  0  0  0  0  0  0  0  0  0  0  0
  147.5496  142.1008  152.2285 H   0  0  0  0  0  0  0  0  0  0  0  0
  144.9370  141.5710  154.0688 H   0  0  0  0  0  0  0  0  0  0  0  0
  146.6911  144.0612  153.9205 H   0  0  0  0  0  0  0  0  0  0  0  0
  145.8702  143.3058  152.5753 H   0  0  0  0  0  0  0  0  0  0  0  0
  144.6122  145.2827  153.4157 H   0  0  0  0  0  0  0  0  0  0  0  0
  143.6524  143.8242  153.5683 H   0  0  0  0  0  0  0  0  0  0  0  0
  144.1551  143.6392  157.1367 H   0  0  0  0  0  0  0  0  0  0  0  0
  143.3811  142.8493  155.7773 H   0  0  0  0  0  0  0  0  0  0  0  0
  145.3788  141.5701  156.4947 H   0  0  0  0  0  0  0  0  0  0  0  0
  146.3942  142.9865  156.3425 H   0  0  0  0  0  0  0  0  0  0  0  0
  149.9552  143.8139  158.6724 H   0  0  0  0  0  0  0  0  0  0  0  0
  151.5498  144.5634  158.5720 H   0  0  0  0  0  0  0  0  0  0  0  0
  151.1252  143.5425  159.9469 H   0  0  0  0  0  0  0  0  0  0  0  0
  1  2  1  0  0  0  0
  1 22  1  0  0  0  0
  1 23  1  0  0  0  0
  1 24  1  0  0  0  0
  2  3  1  0  0  0  0
  2 25  1  0  0  0  0
  2 26  1  0  0  0  0
  3 20  1  0  0  0  0
  3  4  1  0  0  0  0
  4  5  2  0  0  0  0
  5  6  1  0  0  0  0
  5  7  1  0  0  0  0
  6 27  1  0  0  0  0
  6 28  1  0  0  0  0
  6 29  1  0  0  0  0
  7  8  1  0  0  0  0
  7 20  2  0  0  0  0
  8  9  1  0  0  0  0
  8 30  1  0  0  0  0
  9 10  2  0  0  0  0
  9 11  1  0  0  0  0
 11 12  1  0  0  0  0
 11 31  1  0  0  0  0
 12 13  1  0  0  0  0
 12 14  1  0  0  0  0
 12 32  1  0  0  0  0
 13 33  1  0  0  0  0
 13 34  1  0  0  0  0
 13 35  1  0  0  0  0
 14 19  1  0  0  0  0
 14 15  1  0  0  0  0
 14 36  1  0  0  0  0
 15 16  1  0  0  0  0
 15 37  1  0  0  0  0
 15 38  1  0  0  0  0
 16 17  1  0  0  0  0
 16 39  1  0  0  0  0
 16 40  1  0  0  0  0
 17 18  1  0  0  0  0
 18 19  1  0  0  0  0
 18 41  1  0  0  0  0
 18 42  1  0  0  0  0
 19 43  1  0  0  0  0
 19 44  1  0  0  0  0
 20 21  1  0  0  0  0
 21 45  1  0  0  0  0
 21 46  1  0  0  0  0
 21 47  1  0  0  0  0
M  END
> <s_m_source_file>
AV-unprocessed.smi

> <i_m_source_file_index>
2516

> <i_lp_mmshare_version>
43012

> <i_f3d_flags>
0

> <s_epik_input>
W0NIM11bQ0gyXW4xbmMoW0NIM10pYyhjMVtDSDNdKVtOSF1DKD1PKVtOSF1bQ0BIXShbQ0gzXSlbQ0hdMltDSDJdW0NIMl1PW0NIMl1bQ0gyXTI=

> <s_epik_cmdline>
J2VwaWtfcHl0aG9uJywgJy1waCcsICc3LjAnLCAnLXRuJywgJzgnLCAnLW1hJywgJzIwMCcsICctbWV0YWxfYmluZGluZycsICctaW1hZScsICc8aW5maWxlLm1hZT4nLCAnLW9tYWUnLCAnPG91dGZpbGUubWFlPic=

> <r_lp_tautomer_probability>
1

> <r_epik_Ionization_Penalty>
0.00383358

> <r_epik_Ionization_Penalty_Charging>
0

> <r_epik_Ionization_Penalty_Neutral>
0.00383358

> <r_epik_State_Penalty>
0.00270714

> <r_epik_Charging_Adjusted_Penalty>
0.00270714

> <i_epik_Tot_Q>
0

> <i_epik_Tot_abs_Q>
0

> <r_epik_Metal_State_Penalty>
-0

> <b_epik_Metal_Only>
0

> <s_lp_Force_Field>
OPLS_2005

> <r_lp_Energy>
15.1794

> <b_lp_Chiralities_Consistent>
1

> <s_lp_Variant>
AV-unprocessed.smi:2516-1

> <Gold.Version>
5.8.1

> <Gold.Id.Protein>
6NUR|6NUR_protein|mol2

> <Gold.PLP.Fitness>
45.9884

> <Gold.PLP.PLP>
-39.0444

> <Gold.PLP.part.hbond>
-3.0000

> <Gold.PLP.part.metal>
0.0000

> <Gold.PLP.part.buried>
-4.3951

> <Gold.PLP.part.nonpolar>
-31.1243

> <Gold.PLP.part.repulsive>
0.3347

> <Gold.PLP.ligand.clash>
0.0000

> <Gold.PLP.ligand.torsion>
0.8825

> <Gold.PLP.Chemscore.Hbond>
2.7691

> <Gold.PLP.Chemscore.CHOScore>
0.0000

> <Gold.PLP.Chemscore.Metal>
0.0000

> <Gold.Chemscore.Hbonds>
donor molecule, donor type, donor heavy atom, donor atom, acceptor molecule, acceptor atom, score
      L1  H     8    30       P1  8028  1.00
      L1  H    11    31       P1  8028  1.00
      P1  H  7997  8009       L1     4  0.72

> <Gold.PLP.Chemscore.Internal.Correction>
0.4018

> <Gold.Rescore>
     Score         DG    S(hbond)    S(metal)    S(lipo)     H(rot)  DE(clash)    DE(int)     intcor
     19.04     -21.68       2.57        0.00      93.45       1.30       0.55       2.08       ----

> <Gold.Chemscore.Fitness>
19.0446

> <Gold.Chemscore.DG>
-21.6790

> <Gold.Chemscore.ZeroCoef>
-5.4800

> <Gold.Chemscore.Hbond>
2.5722

> <Gold.Chemscore.Metal>
0.0000

> <Gold.Chemscore.Lipo>
93.4460

> <Gold.Chemscore.Internal_Hbond>
0.0000

> <Gold.Chemscore.DEClash>
0.5506

> <Gold.Chemscore.DEInternal>
2.0838

> <Gold.Chemscore.Rot>
1.2990

> <Gold.Chemscore.Internal.Correction>
   9.000000E+99

> <Gold.Chemscore.Hbonds>
donor molecule, donor type, donor heavy atom, donor atom, acceptor molecule, acceptor atom, score
      L1  H     8    30       P1  8028  1.00
      L1  H    11    31       P1  8028  0.91
      P1  H  7997  8009       L1     4  0.28

> <Gold.Chemscore.Hbond.Weighted>
-8.5912

> <Gold.Chemscore.Metal.Weighted>
-0.0000

> <Gold.Chemscore.Lipo.Weighted>
-10.9332

> <Gold.Chemscore.Internal_Hbond.Weighted>
0.0000

> <Gold.Chemscore.DEClash.Weighted>
0.5506

> <Gold.Chemscore.DEInternal.Weighted>
2.0838

> <Gold.Chemscore.Rot.Weighted>
3.3254

> <Gold.Chemscore.Internal.Correction.Weighted>
   9.000000E+99

> <Gold.Protein.RotatedTorsions>
[ 6907 6896 6895 6894 ] final   13.12 input  -60.11 | X-H torsion
[ 7974 7965 7964 7962 ] final  -92.92 input  175.53 | X-H torsion
[ 8008 7997 7996 7995 ] final  170.19 input   59.86 | X-H torsion
[ 10167 10162 10161 10158 ] final  -99.92 input  -65.29 | X-H torsion
[ 10718 10713 10712 10709 ] final   32.27 input   66.30 | X-H torsion
[ 10763 10752 10751 10750 ] final  146.91 input  -60.55 | X-H torsion
[ 11005 11000 10999 10996 ] final  150.02 input  -57.11 | X-H torsion

> <Gold.Protein.ActiveResidues>
 VAL166  LYS551  ARG553  GLY616  TRP617  ASP618  TYR619  PRO620  LYS621  CYS622 
 ASP623  PHE694  ASN695  SER759  ASP760  ASP761  ALA762  ILE779  LEU786  VAL792 
 PHE793  MET794  SER795  GLU796  ALA797  LYS798  CYS799  TRP800  GLU811  SER814 

> <Gold.Protein.RotatedAtoms>
  151.7812  135.0761  160.0373 H   0  0  0  0  0  0  0  0  0  0  0  0  # atno 6907 bound_to 6896
  152.3221  133.5861  159.5760 H   0  0  0  0  0  0  0  0  0  0  0  0  # atno 6908 bound_to 6896
  150.7375  133.9911  159.3649 H   0  0  0  0  0  0  0  0  0  0  0  0  # atno 6909 bound_to 6896
  145.3935  140.9530  143.2327 H   0  0  0  0  0  0  0  0  0  0  0  0  # atno 7974 bound_to 7965
  156.1388  140.1544  156.8953 H   0  0  0  0  0  0  0  0  0  0  0  0  # atno 8008 bound_to 7997
  154.4970  140.0835  156.7755 H   0  0  0  0  0  0  0  0  0  0  0  0  # atno 8009 bound_to 7997
  155.4118  140.3419  155.4266 H   0  0  0  0  0  0  0  0  0  0  0  0  # atno 8010 bound_to 7997
  140.2574  143.3431  152.0658 H   0  0  0  0  0  0  0  0  0  0  0  0  # atno 10167 bound_to 10162
  157.2831  130.7265  149.6567 H   0  0  0  0  0  0  0  0  0  0  0  0  # atno 10718 bound_to 10713
  154.0296  135.2899  155.3370 H   0  0  0  0  0  0  0  0  0  0  0  0  # atno 10763 bound_to 10752
  154.6996  135.5194  153.8511 H   0  0  0  0  0  0  0  0  0  0  0  0  # atno 10764 bound_to 10752
  153.0646  135.6626  154.0510 H   0  0  0  0  0  0  0  0  0  0  0  0  # atno 10765 bound_to 10752
  140.1095  134.8933  157.1915 H   0  0  0  0  0  0  0  0  0  0  0  0  # atno 11005 bound_to 11000
  144.8424  139.5451  143.6894 LP  0  0  0  0  0  0  0  0  0  0  0  0  # atno 17320 bound_to 7965
  146.2786  139.6818  142.9245 LP  0  0  0  0  0  0  0  0  0  0  0  0  # atno 17321 bound_to 7965
  139.5027  144.6741  151.6172 LP  0  0  0  0  0  0  0  0  0  0  0  0  # atno 17342 bound_to 10162
  140.5993  143.9639  150.6375 LP  0  0  0  0  0  0  0  0  0  0  0  0  # atno 17343 bound_to 10162
  155.9665  130.4332  150.4996 LP  0  0  0  0  0  0  0  0  0  0  0  0  # atno 17370 bound_to 10713
  157.2943  131.0632  151.2112 LP  0  0  0  0  0  0  0  0  0  0  0  0  # atno 17371 bound_to 10713
  140.3111  134.3023  155.7267 LP  0  0  0  0  0  0  0  0  0  0  0  0  # atno 17394 bound_to 11000
  141.2126  133.7651  156.9777 LP  0  0  0  0  0  0  0  0  0  0  0  0  # atno 17395 bound_to 11000

$$$$
