AV-unprocessed.smi:2319|AV-procd|sdf|9277|dock1
  -GOLD-   2272012503D 1   1.00000     0.00000
 Structure written by MMmdl.
 46 47  0  0  0  0  0  0  0  0  1 V2000
  148.7816  141.4368  154.6213 C   0  0  0  0  0  0  0  0  0  0  0  0
  148.9939  139.9407  154.3670 C   0  0  0  0  0  0  0  0  0  0  0  0
  150.3627  139.4724  154.7365 C   0  0  0  0  0  0  0  0  0  0  0  0
  151.2536  140.4160  155.1395 O   0  0  0  0  0  0  0  0  0  0  0  0
  152.4790  139.7927  155.4208 N   0  0  0  0  0  0  0  0  0  0  0  0
  152.3130  138.5000  155.1816 C   0  0  0  0  0  0  0  0  0  0  0  0
  153.4878  137.5741  155.3317 C   0  0  0  0  0  0  0  0  0  0  0  0
  150.9699  138.2522  154.7718 C   0  0  0  0  0  0  0  0  0  0  0  0
  150.3525  137.0362  154.3866 N   0  0  0  0  0  0  0  0  0  0  0  0
  150.1750  135.9467  155.1485 C   0  0  0  0  0  0  0  0  0  0  0  0
  150.5264  135.8436  156.3232 O   0  0  0  0  0  0  0  0  0  0  0  0
  149.5357  134.9811  154.4751 N   0  0  0  0  0  0  0  0  0  0  0  0
  149.1550  133.6822  155.0262 C   0  0  2  0  0  0  0  0  0  0  0  0
  150.3604  132.7836  155.2196 C   0  0  0  0  0  0  0  0  0  0  0  0
  149.7529  131.3752  155.1992 C   0  0  0  0  0  0  0  0  0  0  0  0
  150.6681  130.3556  154.5042 C   0  0  0  0  0  0  0  0  0  0  0  0
  149.3648  130.8968  156.6085 C   0  0  0  0  0  0  0  0  0  0  0  0
  148.5470  131.4899  154.4442 O   0  0  0  0  0  0  0  0  0  0  0  0
  148.2624  132.8417  154.0881 C   0  0  0  0  0  0  0  0  0  0  0  0
  146.7647  133.0872  154.3289 C   0  0  0  0  0  0  0  0  0  0  0  0
  148.6025  132.9839  152.5893 C   0  0  0  0  0  0  0  0  0  0  0  0
  147.7733  141.7401  154.3390 H   0  0  0  0  0  0  0  0  0  0  0  0
  149.4849  142.0367  154.0429 H   0  0  0  0  0  0  0  0  0  0  0  0
  148.9199  141.6811  155.6751 H   0  0  0  0  0  0  0  0  0  0  0  0
  148.2554  139.3701  154.9309 H   0  0  0  0  0  0  0  0  0  0  0  0
  148.8050  139.7231  153.3155 H   0  0  0  0  0  0  0  0  0  0  0  0
  153.4485  136.7648  154.6028 H   0  0  0  0  0  0  0  0  0  0  0  0
  153.5119  137.1309  156.3273 H   0  0  0  0  0  0  0  0  0  0  0  0
  154.4317  138.0990  155.1819 H   0  0  0  0  0  0  0  0  0  0  0  0
  149.9105  137.0320  153.4790 H   0  0  0  0  0  0  0  0  0  0  0  0
  149.2799  135.1591  153.5150 H   0  0  0  0  0  0  0  0  0  0  0  0
  148.6682  133.8074  155.9956 H   0  0  0  0  0  0  0  0  0  0  0  0
  151.0557  132.9082  154.3878 H   0  0  0  0  0  0  0  0  0  0  0  0
  150.9086  133.0019  156.1371 H   0  0  0  0  0  0  0  0  0  0  0  0
  151.6139  130.2479  155.0359 H   0  0  0  0  0  0  0  0  0  0  0  0
  150.8935  130.6587  153.4812 H   0  0  0  0  0  0  0  0  0  0  0  0
  150.1979  129.3728  154.4577 H   0  0  0  0  0  0  0  0  0  0  0  0
  150.2429  130.7989  157.2476 H   0  0  0  0  0  0  0  0  0  0  0  0
  148.8724  129.9246  156.5716 H   0  0  0  0  0  0  0  0  0  0  0  0
  148.6787  131.5924  157.0921 H   0  0  0  0  0  0  0  0  0  0  0  0
  146.4828  134.1068  154.0660 H   0  0  0  0  0  0  0  0  0  0  0  0
  146.5006  132.9279  155.3747 H   0  0  0  0  0  0  0  0  0  0  0  0
  146.1539  132.4111  153.7302 H   0  0  0  0  0  0  0  0  0  0  0  0
  148.3723  133.9828  152.2182 H   0  0  0  0  0  0  0  0  0  0  0  0
  148.0273  132.2760  151.9918 H   0  0  0  0  0  0  0  0  0  0  0  0
  149.6573  132.7904  152.3943 H   0  0  0  0  0  0  0  0  0  0  0  0
  1  2  1  0  0  0  0
  1 22  1  0  0  0  0
  1 23  1  0  0  0  0
  1 24  1  0  0  0  0
  2  3  1  0  0  0  0
  2 25  1  0  0  0  0
  2 26  1  0  0  0  0
  3  8  2  0  0  0  0
  3  4  1  0  0  0  0
  4  5  1  0  0  0  0
  5  6  2  0  0  0  0
  6  7  1  0  0  0  0
  6  8  1  0  0  0  0
  7 27  1  0  0  0  0
  7 28  1  0  0  0  0
  7 29  1  0  0  0  0
  8  9  1  0  0  0  0
  9 10  1  0  0  0  0
  9 30  1  0  0  0  0
 10 11  2  0  0  0  0
 10 12  1  0  0  0  0
 12 13  1  0  0  0  0
 12 31  1  0  0  0  0
 13 19  1  0  0  0  0
 13 14  1  0  0  0  0
 13 32  1  0  0  0  0
 14 15  1  0  0  0  0
 14 33  1  0  0  0  0
 14 34  1  0  0  0  0
 15 16  1  0  0  0  0
 15 17  1  0  0  0  0
 15 18  1  0  0  0  0
 16 35  1  0  0  0  0
 16 36  1  0  0  0  0
 16 37  1  0  0  0  0
 17 38  1  0  0  0  0
 17 39  1  0  0  0  0
 17 40  1  0  0  0  0
 18 19  1  0  0  0  0
 19 20  1  0  0  0  0
 19 21  1  0  0  0  0
 20 41  1  0  0  0  0
 20 42  1  0  0  0  0
 20 43  1  0  0  0  0
 21 44  1  0  0  0  0
 21 45  1  0  0  0  0
 21 46  1  0  0  0  0
M  END
> <s_m_source_file>
AV-unprocessed.smi

> <i_m_source_file_index>
2319

> <i_lp_mmshare_version>
43012

> <i_f3d_flags>
0

> <s_epik_input>
W0NIM11bQ0gyXWMxb25jKFtDSDNdKWMxW05IXUMoPU8pW05IXVtDQEBIXShDKE8yKShbQ0gzXSlbQ0gzXSlbQ0gyXUMyKFtDSDNdKVtDSDNd

> <s_epik_cmdline>
J2VwaWtfcHl0aG9uJywgJy1waCcsICc3LjAnLCAnLXRuJywgJzgnLCAnLW1hJywgJzIwMCcsICctbWV0YWxfYmluZGluZycsICctaW1hZScsICc8aW5maWxlLm1hZT4nLCAnLW9tYWUnLCAnPG91dGZpbGUubWFlPic=

> <r_lp_tautomer_probability>
1

> <r_epik_Ionization_Penalty>
3.17207e-05

> <r_epik_Ionization_Penalty_Charging>
0

> <r_epik_Ionization_Penalty_Neutral>
3.17207e-05

> <r_epik_State_Penalty>
-0

> <r_epik_Charging_Adjusted_Penalty>
0

> <i_epik_Tot_Q>
0

> <i_epik_Tot_abs_Q>
0

> <r_epik_Metal_State_Penalty>
-0

> <b_epik_Metal_Only>
0

> <s_lp_Force_Field>
OPLS_2005

> <r_lp_Energy>
19.5027

> <b_lp_Chiralities_Consistent>
1

> <s_lp_Variant>
AV-unprocessed.smi:2319-1

> <Gold.Version>
5.8.1

> <Gold.Id.Protein>
6NUR|6NUR_protein|mol2

> <Gold.PLP.Fitness>
41.6795

> <Gold.PLP.PLP>
-31.8404

> <Gold.PLP.part.hbond>
-5.4498

> <Gold.PLP.part.metal>
0.0000

> <Gold.PLP.part.buried>
2.8130

> <Gold.PLP.part.nonpolar>
-30.0329

> <Gold.PLP.part.repulsive>
0.1828

> <Gold.PLP.ligand.clash>
0.0000

> <Gold.PLP.ligand.torsion>
0.6974

> <Gold.PLP.Chemscore.Hbond>
3.6509

> <Gold.PLP.Chemscore.CHOScore>
0.0000

> <Gold.PLP.Chemscore.Metal>
0.0000

> <Gold.Chemscore.Hbonds>
donor molecule, donor type, donor heavy atom, donor atom, acceptor molecule, acceptor atom, score
      L1  H     9    30       P1  7948  1.00
      L1  H    12    31       P1  7948  0.90
      P1  H  7989  7998       L1     4  0.52
      P1  H  7997  8008       L1     5  0.98

> <Gold.PLP.Chemscore.Internal.Correction>
0.2811

> <Gold.Rescore>
     Score         DG    S(hbond)    S(metal)    S(lipo)     H(rot)  DE(clash)    DE(int)     intcor
     17.34     -20.06       2.42        0.00      80.91       1.16       2.08       0.64       ----

> <Gold.Chemscore.Fitness>
17.3354

> <Gold.Chemscore.DG>
-20.0570

> <Gold.Chemscore.ZeroCoef>
-5.4800

> <Gold.Chemscore.Hbond>
2.4183

> <Gold.Chemscore.Metal>
0.0000

> <Gold.Chemscore.Lipo>
80.9146

> <Gold.Chemscore.Internal_Hbond>
0.0000

> <Gold.Chemscore.DEClash>
2.0773

> <Gold.Chemscore.DEInternal>
0.6443

> <Gold.Chemscore.Rot>
1.1590

> <Gold.Chemscore.Internal.Correction>
   9.000000E+99

> <Gold.Chemscore.Hbonds>
donor molecule, donor type, donor heavy atom, donor atom, acceptor molecule, acceptor atom, score
      L1  H     9    30       P1  7948  0.38
      L1  H    12    31       P1  7948  0.17
      P1  H  7989  7998       L1     4  0.01
      P1  H  7997  8008       L1     5  0.72

> <Gold.Chemscore.Hbond.Weighted>
-8.0771

> <Gold.Chemscore.Metal.Weighted>
-0.0000

> <Gold.Chemscore.Lipo.Weighted>
-9.4670

> <Gold.Chemscore.Internal_Hbond.Weighted>
0.0000

> <Gold.Chemscore.DEClash.Weighted>
2.0773

> <Gold.Chemscore.DEInternal.Weighted>
0.6443

> <Gold.Chemscore.Rot.Weighted>
2.9671

> <Gold.Chemscore.Internal.Correction.Weighted>
   9.000000E+99

> <Gold.Protein.RotatedTorsions>
[ 6907 6896 6895 6894 ] final  -77.39 input  -60.11 | X-H torsion
[ 7974 7965 7964 7962 ] final  170.61 input  175.53 | X-H torsion
[ 8008 7997 7996 7995 ] final  -27.42 input   59.86 | X-H torsion
[ 10167 10162 10161 10158 ] final  146.82 input  -65.29 | X-H torsion
[ 10718 10713 10712 10709 ] final -175.09 input   66.30 | X-H torsion
[ 10763 10752 10751 10750 ] final   82.08 input  -60.55 | X-H torsion
[ 11005 11000 10999 10996 ] final -146.65 input  -57.11 | X-H torsion

> <Gold.Protein.ActiveResidues>
 VAL166  LYS551  ARG553  GLY616  TRP617  ASP618  TYR619  PRO620  LYS621  CYS622 
 ASP623  PHE694  ASN695  SER759  ASP760  ASP761  ALA762  ILE779  LEU786  VAL792 
 PHE793  MET794  SER795  GLU796  ALA797  LYS798  CYS799  TRP800  GLU811  SER814 

> <Gold.Protein.RotatedAtoms>
  150.7000  134.4429  159.5300 H   0  0  0  0  0  0  0  0  0  0  0  0  # atno 6907 bound_to 6896
  152.2135  134.8476  160.0503 H   0  0  0  0  0  0  0  0  0  0  0  0  # atno 6908 bound_to 6896
  151.9353  133.3587  159.3982 H   0  0  0  0  0  0  0  0  0  0  0  0  # atno 6909 bound_to 6896
  144.7319  139.9227  143.6421 H   0  0  0  0  0  0  0  0  0  0  0  0  # atno 7974 bound_to 7965
  154.4378  140.1873  156.0929 H   0  0  0  0  0  0  0  0  0  0  0  0  # atno 8008 bound_to 7997
  156.0352  140.3326  155.7157 H   0  0  0  0  0  0  0  0  0  0  0  0  # atno 8009 bound_to 7997
  155.5781  140.0619  157.2781 H   0  0  0  0  0  0  0  0  0  0  0  0  # atno 8010 bound_to 7997
  139.4900  144.5801  151.6888 H   0  0  0  0  0  0  0  0  0  0  0  0  # atno 10167 bound_to 10162
  156.7948  130.9531  151.3120 H   0  0  0  0  0  0  0  0  0  0  0  0  # atno 10718 bound_to 10713
  153.1172  135.4741  154.9135 H   0  0  0  0  0  0  0  0  0  0  0  0  # atno 10763 bound_to 10752
  154.7540  135.3113  154.8507 H   0  0  0  0  0  0  0  0  0  0  0  0  # atno 10764 bound_to 10752
  153.9081  135.6868  153.4806 H   0  0  0  0  0  0  0  0  0  0  0  0  # atno 10765 bound_to 10752
  140.7798  134.3092  157.5049 H   0  0  0  0  0  0  0  0  0  0  0  0  # atno 11005 bound_to 11000
  146.0917  139.3908  143.0401 LP  0  0  0  0  0  0  0  0  0  0  0  0  # atno 17320 bound_to 7965
  145.7701  140.9900  143.1154 LP  0  0  0  0  0  0  0  0  0  0  0  0  # atno 17321 bound_to 7965
  140.5405  144.0586  150.6087 LP  0  0  0  0  0  0  0  0  0  0  0  0  # atno 17342 bound_to 10162
  140.3607  143.2910  152.0387 LP  0  0  0  0  0  0  0  0  0  0  0  0  # atno 17343 bound_to 10162
  157.6583  130.8943  149.9775 LP  0  0  0  0  0  0  0  0  0  0  0  0  # atno 17370 bound_to 10713
  156.1137  130.3649  150.0005 LP  0  0  0  0  0  0  0  0  0  0  0  0  # atno 17371 bound_to 10713
  139.8744  134.9311  156.3521 LP  0  0  0  0  0  0  0  0  0  0  0  0  # atno 17394 bound_to 11000
  140.9493  133.7461  156.0251 LP  0  0  0  0  0  0  0  0  0  0  0  0  # atno 17395 bound_to 11000

$$$$
