AV-unprocessed.smi:3263|AV-procd|sdf|12491|dock10
  -GOLD-   2272018393D 1   1.00000     0.00000
 Structure written by MMmdl.
 42 44  0  0  0  0  0  0  0  0  2 V2000
  151.0101  140.6044  155.5269 O   0  0  0  0  0  0  0  0  0  0  0  0
  150.5957  141.6905  155.9326 C   0  0  0  0  0  0  0  0  0  0  0  0
  151.5657  142.7732  156.4235 C   0  0  0  0  0  0  0  0  0  0  0  0
  151.3351  143.2109  157.8890 C   0  0  1  0  0  0  0  0  0  0  0  0
  151.5885  142.0997  158.9376 C   0  0  0  0  0  0  0  0  0  0  0  0
  152.6178  142.7395  159.8861 C   0  0  2  0  0  0  0  0  0  0  0  0
  151.9454  143.8680  160.6895 C   0  0  0  0  0  0  0  0  0  0  0  0
  151.7598  144.9724  159.6320 C   0  0  0  0  0  0  0  0  0  0  0  0
  152.3141  144.3144  158.3537 C   0  0  1  0  0  0  0  0  0  0  0  0
  153.4904  143.5181  158.9106 C   0  0  0  0  0  0  0  0  0  0  0  0
  149.2912  142.0025  155.9776 N   0  0  0  0  0  0  0  0  0  0  0  0
  148.2058  141.1196  155.5660 C   0  0  0  0  0  0  0  0  0  0  0  0
  148.2603  140.8160  154.0588 C   0  0  0  0  0  0  0  0  0  0  0  0
  147.3058  139.7073  153.6611 C   0  0  0  0  0  0  0  0  0  0  0  0
  146.4728  139.0614  154.6006 C   0  0  0  0  0  0  0  0  0  0  0  0
  145.6111  138.0331  154.1652 C   0  0  0  0  0  0  0  0  0  0  0  0
  145.6009  137.6718  152.8020 C   0  0  0  0  0  0  0  0  0  0  0  0
  146.4547  138.3489  151.9074 C   0  0  0  0  0  0  0  0  0  0  0  0
  147.2666  139.3284  152.3631 N   0  3  0  0  0  0  0  0  0  0  0  0
  152.5858  142.4134  156.2863 H   0  0  0  0  0  0  0  0  0  0  0  0
  151.4600  143.6447  155.7757 H   0  0  0  0  0  0  0  0  0  0  0  0
  150.3115  143.5795  157.9772 H   0  0  0  0  0  0  0  0  0  0  0  0
  150.6758  141.8021  159.4549 H   0  0  0  0  0  0  0  0  0  0  0  0
  152.0116  141.2064  158.4762 H   0  0  0  0  0  0  0  0  0  0  0  0
  153.1498  142.0169  160.5056 H   0  0  0  0  0  0  0  0  0  0  0  0
  150.9997  143.5518  161.1312 H   0  0  0  0  0  0  0  0  0  0  0  0
  152.5936  144.2137  161.4956 H   0  0  0  0  0  0  0  0  0  0  0  0
  150.7190  145.2809  159.5275 H   0  0  0  0  0  0  0  0  0  0  0  0
  152.3428  145.8557  159.8957 H   0  0  0  0  0  0  0  0  0  0  0  0
  152.5725  145.0358  157.5778 H   0  0  0  0  0  0  0  0  0  0  0  0
  154.2405  144.1399  159.4028 H   0  0  0  0  0  0  0  0  0  0  0  0
  153.9822  142.8870  158.1689 H   0  0  0  0  0  0  0  0  0  0  0  0
  149.0342  142.9173  156.3201 H   0  0  0  0  0  0  0  0  0  0  0  0
  148.2880  140.1948  156.1377 H   0  0  0  0  0  0  0  0  0  0  0  0
  147.2452  141.5649  155.8316 H   0  0  0  0  0  0  0  0  0  0  0  0
  148.0174  141.7099  153.4827 H   0  0  0  0  0  0  0  0  0  0  0  0
  149.2733  140.5319  153.7704 H   0  0  0  0  0  0  0  0  0  0  0  0
  146.4935  139.3483  155.6421 H   0  0  0  0  0  0  0  0  0  0  0  0
  144.9658  137.5272  154.8685 H   0  0  0  0  0  0  0  0  0  0  0  0
  144.9482  136.8872  152.4482 H   0  0  0  0  0  0  0  0  0  0  0  0
  146.5122  138.1384  150.8494 H   0  0  0  0  0  0  0  0  0  0  0  0
  147.8761  139.8045  151.6978 H   0  0  0  0  0  0  0  0  0  0  0  0
  1  2  2  0  0  0  0
  2  3  1  0  0  0  0
  2 11  1  0  0  0  0
  3  4  1  0  0  0  0
  3 20  1  0  0  0  0
  3 21  1  0  0  0  0
  4  9  1  0  0  0  0
  4  5  1  0  0  0  0
  4 22  1  0  0  0  0
  5  6  1  0  0  0  0
  5 23  1  0  0  0  0
  5 24  1  0  0  0  0
  6 10  1  0  0  0  0
  6  7  1  0  0  0  0
  6 25  1  0  0  0  0
  7  8  1  0  0  0  0
  7 26  1  0  0  0  0
  7 27  1  0  0  0  0
  8  9  1  0  0  0  0
  8 28  1  0  0  0  0
  8 29  1  0  0  0  0
  9 10  1  0  0  0  0
  9 30  1  0  0  0  0
 10 31  1  0  0  0  0
 10 32  1  0  0  0  0
 11 12  1  0  0  0  0
 11 33  1  0  0  0  0
 12 13  1  0  0  0  0
 12 34  1  0  0  0  0
 12 35  1  0  0  0  0
 13 14  1  0  0  0  0
 13 36  1  0  0  0  0
 13 37  1  0  0  0  0
 14 19  1  0  0  0  0
 14 15  2  0  0  0  0
 15 16  1  0  0  0  0
 15 38  1  0  0  0  0
 16 17  2  0  0  0  0
 16 39  1  0  0  0  0
 17 18  1  0  0  0  0
 17 40  1  0  0  0  0
 18 19  2  0  0  0  0
 18 41  1  0  0  0  0
 19 42  1  0  0  0  0
M  CHG  1  19   1
M  END
> <s_m_source_file>
AV-unprocessed.smi

> <i_m_source_file_index>
3263

> <i_lp_mmshare_version>
43012

> <i_f3d_flags>
0

> <s_epik_input>
W0NIMl0xW0NIMl1bQ0BASF0oW0NIMl0yKVtDQEBIXShbQ0gyXVtDQEhdMTIpW0NIMl1DKD1PKVtOSF1bQ0gyXVtDSDJdYzNbY0hdW2NIXVtjSF1bY0hdbjM=

> <s_epik_cmdline>
J2VwaWtfcHl0aG9uJywgJy1waCcsICc3LjAnLCAnLXRuJywgJzgnLCAnLW1hJywgJzIwMCcsICctbWV0YWxfYmluZGluZycsICctaW1hZScsICc8aW5maWxlLm1hZT4nLCAnLW9tYWUnLCAnPG91dGZpbGUubWFlPic=

> <r_epik_Ionization_Penalty>
1.83579

> <r_epik_Ionization_Penalty_Charging>
1.83579

> <r_epik_Ionization_Penalty_Neutral>
2.47288e-08

> <r_epik_State_Penalty>
1.95213

> <r_epik_Charging_Adjusted_Penalty>
3.78793

> <i_epik_Tot_Q>
1

> <i_epik_Tot_abs_Q>
1

> <r_epik_Metal_State_Penalty>
1.97847

> <b_epik_Metal_Only>
0

> <s_lp_Force_Field>
OPLS_2005

> <r_lp_Energy>
52.562

> <b_lp_Chiralities_Consistent>
1

> <s_lp_Variant>
AV-unprocessed.smi:3263-6

> <Gold.Version>
5.8.1

> <Gold.Id.Protein>
6NUR|6NUR_protein|mol2

> <Gold.PLP.Fitness>
49.9040

> <Gold.PLP.PLP>
-42.4818

> <Gold.PLP.part.hbond>
-2.9129

> <Gold.PLP.part.metal>
0.0000

> <Gold.PLP.part.buried>
-5.3607

> <Gold.PLP.part.nonpolar>
-34.3022

> <Gold.PLP.part.repulsive>
0.2287

> <Gold.PLP.ligand.clash>
0.0000

> <Gold.PLP.ligand.torsion>
0.0463

> <Gold.PLP.Chemscore.Hbond>
2.4961

> <Gold.PLP.Chemscore.CHOScore>
0.0000

> <Gold.PLP.Chemscore.Metal>
0.0000

> <Gold.Chemscore.Hbonds>
donor molecule, donor type, donor heavy atom, donor atom, acceptor molecule, acceptor atom, score
      L1  H    11    33       P1  8028  0.78
      L1  H    19    42       P1  7957  0.93
      P1  H  7989  7998       L1     1  0.66

> <Gold.PLP.Chemscore.Internal.Correction>
0.0264

> <Gold.Rescore>
     Score         DG    S(hbond)    S(metal)    S(lipo)     H(rot)  DE(clash)    DE(int)     intcor
     22.37     -25.00       2.39        0.00     132.84       1.56       1.57       1.06       ----

> <Gold.Chemscore.Fitness>
22.3697

> <Gold.Chemscore.DG>
-24.9967

> <Gold.Chemscore.ZeroCoef>
-5.4800

> <Gold.Chemscore.Hbond>
2.3888

> <Gold.Chemscore.Metal>
0.0000

> <Gold.Chemscore.Lipo>
132.8372

> <Gold.Chemscore.Internal_Hbond>
0.0000

> <Gold.Chemscore.DEClash>
1.5688

> <Gold.Chemscore.DEInternal>
1.0582

> <Gold.Chemscore.Rot>
1.5640

> <Gold.Chemscore.Internal.Correction>
   9.000000E+99

> <Gold.Chemscore.Hbonds>
donor molecule, donor type, donor heavy atom, donor atom, acceptor molecule, acceptor atom, score
      L1  H    11    33       P1  8028  0.77
      L1  H    19    42       P1  7957  0.90
      P1  H  7989  7998       L1     1  0.39

> <Gold.Chemscore.Hbond.Weighted>
-7.9785

> <Gold.Chemscore.Metal.Weighted>
-0.0000

> <Gold.Chemscore.Lipo.Weighted>
-15.5419

> <Gold.Chemscore.Internal_Hbond.Weighted>
0.0000

> <Gold.Chemscore.DEClash.Weighted>
1.5688

> <Gold.Chemscore.DEInternal.Weighted>
1.0582

> <Gold.Chemscore.Rot.Weighted>
4.0038

> <Gold.Chemscore.Internal.Correction.Weighted>
   9.000000E+99

> <Gold.Protein.RotatedTorsions>
[ 6907 6896 6895 6894 ] final  -10.39 input  -60.11 | X-H torsion
[ 7974 7965 7964 7962 ] final  -90.26 input  175.53 | X-H torsion
[ 8008 7997 7996 7995 ] final  -34.36 input   59.86 | X-H torsion
[ 10167 10162 10161 10158 ] final  106.74 input  -65.29 | X-H torsion
[ 10718 10713 10712 10709 ] final   76.80 input   66.30 | X-H torsion
[ 10763 10752 10751 10750 ] final  -39.02 input  -60.55 | X-H torsion
[ 11005 11000 10999 10996 ] final   32.59 input  -57.11 | X-H torsion

> <Gold.Protein.ActiveResidues>
 VAL166  LYS551  ARG553  GLY616  TRP617  ASP618  TYR619  PRO620  LYS621  CYS622 
 ASP623  PHE694  ASN695  SER759  ASP760  ASP761  ALA762  ILE779  LEU786  VAL792 
 PHE793  MET794  SER795  GLU796  ALA797  LYS798  CYS799  TRP800  GLU811  SER814 

> <Gold.Protein.RotatedAtoms>
  151.4027  135.0973  159.9560 H   0  0  0  0  0  0  0  0  0  0  0  0  # atno 6907 bound_to 6896
  152.5045  133.8873  159.7387 H   0  0  0  0  0  0  0  0  0  0  0  0  # atno 6908 bound_to 6896
  150.9350  133.6665  159.2831 H   0  0  0  0  0  0  0  0  0  0  0  0  # atno 6909 bound_to 6896
  145.4289  140.9555  143.2139 H   0  0  0  0  0  0  0  0  0  0  0  0  # atno 7974 bound_to 7965
  154.4123  140.1686  156.2036 H   0  0  0  0  0  0  0  0  0  0  0  0  # atno 8008 bound_to 7997
  155.9503  140.3401  155.6378 H   0  0  0  0  0  0  0  0  0  0  0  0  # atno 8009 bound_to 7997
  155.6878  140.0730  157.2450 H   0  0  0  0  0  0  0  0  0  0  0  0  # atno 8010 bound_to 7997
  139.6984  144.7098  151.1227 H   0  0  0  0  0  0  0  0  0  0  0  0  # atno 10167 bound_to 10162
  157.6687  130.9791  150.1549 H   0  0  0  0  0  0  0  0  0  0  0  0  # atno 10718 bound_to 10713
  153.9224  135.6781  153.4747 H   0  0  0  0  0  0  0  0  0  0  0  0  # atno 10763 bound_to 10752
  153.1021  135.4823  154.8883 H   0  0  0  0  0  0  0  0  0  0  0  0  # atno 10764 bound_to 10752
  154.7471  135.3175  154.8582 H   0  0  0  0  0  0  0  0  0  0  0  0  # atno 10765 bound_to 10752
  140.2719  134.3072  155.7825 H   0  0  0  0  0  0  0  0  0  0  0  0  # atno 11005 bound_to 11000
  144.8196  139.5815  143.6993 LP  0  0  0  0  0  0  0  0  0  0  0  0  # atno 17320 bound_to 7965
  146.2618  139.6427  142.9357 LP  0  0  0  0  0  0  0  0  0  0  0  0  # atno 17321 bound_to 7965
  140.7703  143.5458  150.9260 LP  0  0  0  0  0  0  0  0  0  0  0  0  # atno 17342 bound_to 10162
  139.9139  143.6687  152.3110 LP  0  0  0  0  0  0  0  0  0  0  0  0  # atno 17343 bound_to 10162
  156.2339  130.3684  149.8413 LP  0  0  0  0  0  0  0  0  0  0  0  0  # atno 17370 bound_to 10713
  156.6232  130.8635  151.3480 LP  0  0  0  0  0  0  0  0  0  0  0  0  # atno 17371 bound_to 10713
  141.2176  133.7472  156.9348 LP  0  0  0  0  0  0  0  0  0  0  0  0  # atno 17394 bound_to 11000
  140.1365  134.9322  157.2408 LP  0  0  0  0  0  0  0  0  0  0  0  0  # atno 17395 bound_to 11000

$$$$
