AV-unprocessed.smi:1946|AV-procd|sdf|7862|dock3
  -GOLD-   2272010 13D 1   1.00000     0.00000
 Structure written by MMmdl.
 38 40  0  0  0  0  0  0  0  0  1 V2000
  150.5315  133.7633  153.3966 C   0  0  0  0  0  0  0  0  0  0  0  0
  150.2331  134.3676  155.1073 S   0  0  0  0  0  0  0  0  0  0  0  0
  148.8707  133.9739  155.4989 O   0  0  0  0  0  0  0  0  0  0  0  0
  151.3756  133.9613  155.9406 O   0  0  0  0  0  0  0  0  0  0  0  0
  150.2728  136.1484  154.9398 C   0  0  0  0  0  0  0  0  0  0  0  0
  151.4781  136.7886  154.5905 C   0  0  0  0  0  0  0  0  0  0  0  0
  151.5030  138.1878  154.4321 C   0  0  0  0  0  0  0  0  0  0  0  0
  150.3257  138.9479  154.6144 C   0  0  0  0  0  0  0  0  0  0  0  0
  150.3499  140.4590  154.4429 C   0  0  1  0  0  0  0  0  0  0  0  0
  149.4824  140.8898  153.4115 O   0  0  0  0  0  0  0  0  0  0  0  0
  150.0006  141.1797  155.7602 C   0  0  0  0  0  0  0  0  0  0  0  0
  151.0413  141.0449  156.7645 N   0  0  0  0  0  0  0  0  0  0  0  0
  152.0136  140.1139  156.8038 C   0  0  0  0  0  0  0  0  0  0  0  0
  152.8720  140.1706  157.8181 N   0  0  0  0  0  0  0  0  0  0  0  0
  152.4024  141.2679  158.5198 C   0  0  0  0  0  0  0  0  0  0  0  0
  152.8759  141.8666  159.7092 C   0  0  0  0  0  0  0  0  0  0  0  0
  152.2269  142.9976  160.2471 C   0  0  0  0  0  0  0  0  0  0  0  0
  151.0976  143.5468  159.6056 C   0  0  0  0  0  0  0  0  0  0  0  0
  150.6073  142.9672  158.4197 C   0  0  0  0  0  0  0  0  0  0  0  0
  151.2569  141.8380  157.8866 C   0  0  0  0  0  0  0  0  0  0  0  0
  149.1189  138.2934  154.9451 C   0  0  0  0  0  0  0  0  0  0  0  0
  149.0886  136.8941  155.1038 C   0  0  0  0  0  0  0  0  0  0  0  0
  150.5271  132.6736  153.3919 H   0  0  0  0  0  0  0  0  0  0  0  0
  151.4986  134.1234  153.0460 H   0  0  0  0  0  0  0  0  0  0  0  0
  149.7458  134.1319  152.7376 H   0  0  0  0  0  0  0  0  0  0  0  0
  152.3815  136.2149  154.4439 H   0  0  0  0  0  0  0  0  0  0  0  0
  152.4292  138.6768  154.1674 H   0  0  0  0  0  0  0  0  0  0  0  0
  151.3566  140.7527  154.1424 H   0  0  0  0  0  0  0  0  0  0  0  0
  149.5916  140.3158  152.6688 H   0  0  0  0  0  0  0  0  0  0  0  0
  149.8245  142.2414  155.5826 H   0  0  0  0  0  0  0  0  0  0  0  0
  149.0754  140.7766  156.1741 H   0  0  0  0  0  0  0  0  0  0  0  0
  152.0969  139.3510  156.0434 H   0  0  0  0  0  0  0  0  0  0  0  0
  153.7409  141.4555  160.2082 H   0  0  0  0  0  0  0  0  0  0  0  0
  152.5984  143.4468  161.1564 H   0  0  0  0  0  0  0  0  0  0  0  0
  150.6086  144.4145  160.0237 H   0  0  0  0  0  0  0  0  0  0  0  0
  149.7450  143.3868  157.9234 H   0  0  0  0  0  0  0  0  0  0  0  0
  148.2099  138.8621  155.0769 H   0  0  0  0  0  0  0  0  0  0  0  0
  148.1599  136.4015  155.3515 H   0  0  0  0  0  0  0  0  0  0  0  0
  1  2  1  0  0  0  0
  1 23  1  0  0  0  0
  1 24  1  0  0  0  0
  1 25  1  0  0  0  0
  2  3  2  0  0  0  0
  2  4  2  0  0  0  0
  2  5  1  0  0  0  0
  5 22  1  0  0  0  0
  5  6  2  0  0  0  0
  6  7  1  0  0  0  0
  6 26  1  0  0  0  0
  7  8  2  0  0  0  0
  7 27  1  0  0  0  0
  8  9  1  0  0  0  0
  8 21  1  0  0  0  0
  9 10  1  0  0  0  0
  9 11  1  0  0  0  0
  9 28  1  0  0  0  0
 10 29  1  0  0  0  0
 11 12  1  0  0  0  0
 11 30  1  0  0  0  0
 11 31  1  0  0  0  0
 12 20  1  0  0  0  0
 12 13  1  0  0  0  0
 13 14  2  0  0  0  0
 13 32  1  0  0  0  0
 14 15  1  0  0  0  0
 15 20  2  0  0  0  0
 15 16  1  0  0  0  0
 16 17  2  0  0  0  0
 16 33  1  0  0  0  0
 17 18  1  0  0  0  0
 17 34  1  0  0  0  0
 18 19  2  0  0  0  0
 18 35  1  0  0  0  0
 19 20  1  0  0  0  0
 19 36  1  0  0  0  0
 21 22  2  0  0  0  0
 21 37  1  0  0  0  0
 22 38  1  0  0  0  0
M  END
> <s_m_source_file>
AV-unprocessed.smi

> <i_m_source_file_index>
1946

> <i_lp_mmshare_version>
43012

> <i_f3d_flags>
0

> <s_epik_input>
W0NIM11TKD1PKSg9TyljMVtjSF1bY0hdYyhbY0hdW2NIXTEpW0NASF0oW09IXSlbQ0gyXW4oW2NIXW4yKWMoYzIzKVtjSF1bY0hdW2NIXVtjSF0z

> <s_epik_cmdline>
J2VwaWtfcHl0aG9uJywgJy1waCcsICc3LjAnLCAnLXRuJywgJzgnLCAnLW1hJywgJzIwMCcsICctbWV0YWxfYmluZGluZycsICctaW1hZScsICc8aW5maWxlLm1hZT4nLCAnLW9tYWUnLCAnPG91dGZpbGUubWFlPic=

> <r_epik_Ionization_Penalty>
0.0696512

> <r_epik_Ionization_Penalty_Charging>
0

> <r_epik_Ionization_Penalty_Neutral>
0.0696512

> <r_epik_State_Penalty>
0.0610247

> <r_epik_Charging_Adjusted_Penalty>
0.0610247

> <i_epik_Tot_Q>
0

> <i_epik_Tot_abs_Q>
0

> <r_epik_Metal_State_Penalty>
6.42746e-05

> <b_epik_Metal_Only>
0

> <s_lp_Force_Field>
OPLS_2005

> <r_lp_Energy>
10.2228

> <b_lp_Chiralities_Consistent>
1

> <s_lp_Variant>
AV-unprocessed.smi:1946-2

> <Gold.Version>
5.8.1

> <Gold.Id.Protein>
6NUR|6NUR_protein|mol2

> <Gold.PLP.Fitness>
49.0158

> <Gold.PLP.PLP>
-41.2271

> <Gold.PLP.part.hbond>
-3.4184

> <Gold.PLP.part.metal>
0.0000

> <Gold.PLP.part.buried>
-1.7296

> <Gold.PLP.part.nonpolar>
-34.8113

> <Gold.PLP.part.repulsive>
0.0077

> <Gold.PLP.ligand.clash>
0.0000

> <Gold.PLP.ligand.torsion>
1.4063

> <Gold.PLP.Chemscore.Hbond>
2.8400

> <Gold.PLP.Chemscore.CHOScore>
0.0000

> <Gold.PLP.Chemscore.Metal>
0.0000

> <Gold.Chemscore.Hbonds>
donor molecule, donor type, donor heavy atom, donor atom, acceptor molecule, acceptor atom, score
      L1  H    10    29       P1  7957  1.00
      P1  H  7997  8010       L1    14  1.00
      P1  H  8011  8017       L1    10  0.55

> <Gold.PLP.Chemscore.Internal.Correction>
2.0812

> <Gold.Rescore>
     Score         DG    S(hbond)    S(metal)    S(lipo)     H(rot)  DE(clash)    DE(int)     intcor
     15.57     -19.31       1.91        0.00     107.19       1.98       1.43       2.31       ----

> <Gold.Chemscore.Fitness>
15.5696

> <Gold.Chemscore.DG>
-19.3084

> <Gold.Chemscore.ZeroCoef>
-5.4800

> <Gold.Chemscore.Hbond>
1.9059

> <Gold.Chemscore.Metal>
0.0000

> <Gold.Chemscore.Lipo>
107.1948

> <Gold.Chemscore.Internal_Hbond>
0.0000

> <Gold.Chemscore.DEClash>
1.4270

> <Gold.Chemscore.DEInternal>
2.3118

> <Gold.Chemscore.Rot>
1.9840

> <Gold.Chemscore.Internal.Correction>
   9.000000E+99

> <Gold.Chemscore.Hbonds>
donor molecule, donor type, donor heavy atom, donor atom, acceptor molecule, acceptor atom, score
      L1  H    10    29       P1  7957  0.90
      P1  H  7997  8010       L1    14  0.24
      P1  H  8011  8017       L1    10  0.03

> <Gold.Chemscore.Hbond.Weighted>
-6.3657

> <Gold.Chemscore.Metal.Weighted>
-0.0000

> <Gold.Chemscore.Lipo.Weighted>
-12.5418

> <Gold.Chemscore.Internal_Hbond.Weighted>
0.0000

> <Gold.Chemscore.DEClash.Weighted>
1.4270

> <Gold.Chemscore.DEInternal.Weighted>
2.3118

> <Gold.Chemscore.Rot.Weighted>
5.0791

> <Gold.Chemscore.Internal.Correction.Weighted>
   9.000000E+99

> <Gold.Protein.RotatedTorsions>
[ 6907 6896 6895 6894 ] final -172.06 input  -60.11 | X-H torsion
[ 7974 7965 7964 7962 ] final -100.43 input  175.53 | X-H torsion
[ 8008 7997 7996 7995 ] final   43.97 input   59.86 | X-H torsion
[ 10167 10162 10161 10158 ] final -178.93 input  -65.29 | X-H torsion
[ 10718 10713 10712 10709 ] final   69.67 input   66.30 | X-H torsion
[ 10763 10752 10751 10750 ] final -174.22 input  -60.55 | X-H torsion
[ 11005 11000 10999 10996 ] final   37.01 input  -57.11 | X-H torsion

> <Gold.Protein.ActiveResidues>
 VAL166  LYS551  ARG553  GLY616  TRP617  ASP618  TYR619  PRO620  LYS621  CYS622 
 ASP623  PHE694  ASN695  SER759  ASP760  ASP761  ALA762  ILE779  LEU786  VAL792 
 PHE793  MET794  SER795  GLU796  ALA797  LYS798  CYS799  TRP800  GLU811  SER814 

> <Gold.Protein.RotatedAtoms>
  151.5338  133.3444  159.2922 H   0  0  0  0  0  0  0  0  0  0  0  0  # atno 6907 bound_to 6896
  150.8577  134.7923  159.7069 H   0  0  0  0  0  0  0  0  0  0  0  0  # atno 6908 bound_to 6896
  152.4606  134.5202  159.9832 H   0  0  0  0  0  0  0  0  0  0  0  0  # atno 6909 bound_to 6896
  145.2947  140.9362  143.2858 H   0  0  0  0  0  0  0  0  0  0  0  0  # atno 7974 bound_to 7965
  155.3115  140.3391  155.4244 H   0  0  0  0  0  0  0  0  0  0  0  0  # atno 8008 bound_to 7997
  156.1953  140.1712  156.8048 H   0  0  0  0  0  0  0  0  0  0  0  0  # atno 8009 bound_to 7997
  154.5491  140.0709  156.8622 H   0  0  0  0  0  0  0  0  0  0  0  0  # atno 8010 bound_to 7997
  139.5409  144.2365  152.0894 H   0  0  0  0  0  0  0  0  0  0  0  0  # atno 10167 bound_to 10162
  157.6358  130.9438  150.0545 H   0  0  0  0  0  0  0  0  0  0  0  0  # atno 10718 bound_to 10713
  154.5988  135.2852  155.0558 H   0  0  0  0  0  0  0  0  0  0  0  0  # atno 10763 bound_to 10752
  154.1831  135.6453  153.5043 H   0  0  0  0  0  0  0  0  0  0  0  0  # atno 10764 bound_to 10752
  153.0149  135.5428  154.6699 H   0  0  0  0  0  0  0  0  0  0  0  0  # atno 10765 bound_to 10752
  140.2268  134.3574  155.7981 H   0  0  0  0  0  0  0  0  0  0  0  0  # atno 11005 bound_to 11000
  144.9144  139.4489  143.6571 LP  0  0  0  0  0  0  0  0  0  0  0  0  # atno 17320 bound_to 7965
  146.3173  139.7969  142.8973 LP  0  0  0  0  0  0  0  0  0  0  0  0  # atno 17321 bound_to 7965
  140.1843  144.4814  150.6512 LP  0  0  0  0  0  0  0  0  0  0  0  0  # atno 17342 bound_to 10162
  140.6639  143.2261  151.5790 LP  0  0  0  0  0  0  0  0  0  0  0  0  # atno 17343 bound_to 10162
  156.1597  130.3643  149.9317 LP  0  0  0  0  0  0  0  0  0  0  0  0  # atno 17370 bound_to 10713
  156.7318  130.9046  151.3626 LP  0  0  0  0  0  0  0  0  0  0  0  0  # atno 17371 bound_to 10713
  141.2220  133.7224  156.8667 LP  0  0  0  0  0  0  0  0  0  0  0  0  # atno 17394 bound_to 11000
  140.1791  134.9046  157.2927 LP  0  0  0  0  0  0  0  0  0  0  0  0  # atno 17395 bound_to 11000

$$$$
