AV-unprocessed.smi:3327|AV-procd|sdf|12787|dock3
  -GOLD-   2272019133D 1   1.00000     0.00000
 Structure written by MMmdl.
 41 42  0  0  0  0  0  0  0  0  2 V2000
  152.1600  145.5665  160.1053 C   0  0  0  0  0  0  0  0  0  0  0  0
  152.2448  144.2856  159.2638 C   0  0  2  0  0  0  0  0  0  0  0  0
  151.2206  144.2979  158.1078 C   0  0  0  0  0  0  0  0  0  0  0  0
  151.2082  142.9668  157.3323 C   0  0  0  0  0  0  0  0  0  0  0  0
  151.0703  141.7740  158.2943 C   0  0  0  0  0  0  0  0  0  0  0  0
  152.1636  141.8336  159.2734 N   0  0  0  0  0  0  0  0  0  0  0  0
  153.2195  140.9857  159.3268 C   0  0  0  0  0  0  0  0  0  0  0  0
  153.3325  140.0258  158.5618 O   0  0  0  0  0  0  0  0  0  0  0  0
  154.3145  141.2244  160.3781 C   0  0  0  0  0  0  0  0  0  0  0  0
  154.3684  140.1496  161.3902 N   0  3  0  0  0  0  0  0  0  0  0  0
  154.7312  138.8249  160.8484 C   0  0  0  0  0  0  0  0  0  0  0  0
  153.6430  137.7786  161.1447 C   0  0  0  0  0  0  0  0  0  0  0  0
  154.0140  136.8624  162.2102 N   0  0  0  0  0  0  0  0  0  0  0  0
  153.4839  136.7672  163.4801 C   0  0  0  0  0  0  0  0  0  0  0  0
  154.1327  135.7483  164.1167 C   0  0  0  0  0  0  0  0  0  0  0  0
  155.0460  135.2649  163.1386 C   0  0  0  0  0  0  0  0  0  0  0  0
  154.9689  135.9306  161.9974 N   0  0  0  0  0  0  0  0  0  0  0  0
  152.0562  143.0220  160.1302 C   0  0  0  0  0  0  0  0  0  0  0  0
  151.1814  145.6685  160.5751 H   0  0  0  0  0  0  0  0  0  0  0  0
  152.3285  146.4513  159.4907 H   0  0  0  0  0  0  0  0  0  0  0  0
  152.9106  145.5670  160.8963 H   0  0  0  0  0  0  0  0  0  0  0  0
  153.2440  144.2458  158.8269 H   0  0  0  0  0  0  0  0  0  0  0  0
  150.2235  144.4792  158.5117 H   0  0  0  0  0  0  0  0  0  0  0  0
  151.4296  145.1230  157.4260 H   0  0  0  0  0  0  0  0  0  0  0  0
  150.3913  142.9644  156.6102 H   0  0  0  0  0  0  0  0  0  0  0  0
  152.1303  142.8684  156.7582 H   0  0  0  0  0  0  0  0  0  0  0  0
  150.1158  141.8297  158.8199 H   0  0  0  0  0  0  0  0  0  0  0  0
  151.0336  140.8437  157.7298 H   0  0  0  0  0  0  0  0  0  0  0  0
  155.2825  141.2907  159.8797 H   0  0  0  0  0  0  0  0  0  0  0  0
  154.1283  142.1714  160.8865 H   0  0  0  0  0  0  0  0  0  0  0  0
  155.0516  140.4081  162.0882 H   0  0  0  0  0  0  0  0  0  0  0  0
  154.8716  138.9102  159.7703 H   0  0  0  0  0  0  0  0  0  0  0  0
  155.6878  138.5083  161.2664 H   0  0  0  0  0  0  0  0  0  0  0  0
  152.7094  138.2729  161.4169 H   0  0  0  0  0  0  0  0  0  0  0  0
  153.4367  137.1912  160.2490 H   0  0  0  0  0  0  0  0  0  0  0  0
  152.6988  137.4251  163.8232 H   0  0  0  0  0  0  0  0  0  0  0  0
  153.9751  135.3971  165.1259 H   0  0  0  0  0  0  0  0  0  0  0  0
  155.7553  134.4546  163.2223 H   0  0  0  0  0  0  0  0  0  0  0  0
  152.7805  143.0173  160.9460 H   0  0  0  0  0  0  0  0  0  0  0  0
  151.0756  143.0336  160.6088 H   0  0  0  0  0  0  0  0  0  0  0  0
  153.4643  140.0840  161.8359 H   0  0  0  0  0  0  0  0  0  0  0  0
  1  2  1  0  0  0  0
  1 19  1  0  0  0  0
  1 20  1  0  0  0  0
  1 21  1  0  0  0  0
  2 18  1  0  0  0  0
  2  3  1  0  0  0  0
  2 22  1  0  0  0  0
  3  4  1  0  0  0  0
  3 23  1  0  0  0  0
  3 24  1  0  0  0  0
  4  5  1  0  0  0  0
  4 25  1  0  0  0  0
  4 26  1  0  0  0  0
  5  6  1  0  0  0  0
  5 27  1  0  0  0  0
  5 28  1  0  0  0  0
  6  7  1  0  0  0  0
  6 18  1  0  0  0  0
  7  8  2  0  0  0  0
  7  9  1  0  0  0  0
  9 10  1  0  0  0  0
  9 29  1  0  0  0  0
  9 30  1  0  0  0  0
 10 11  1  0  0  0  0
 10 31  1  0  0  0  0
 10 41  1  0  0  0  0
 11 12  1  0  0  0  0
 11 32  1  0  0  0  0
 11 33  1  0  0  0  0
 12 13  1  0  0  0  0
 12 34  1  0  0  0  0
 12 35  1  0  0  0  0
 13 17  1  0  0  0  0
 13 14  1  0  0  0  0
 14 15  2  0  0  0  0
 14 36  1  0  0  0  0
 15 16  1  0  0  0  0
 15 37  1  0  0  0  0
 16 17  2  0  0  0  0
 16 38  1  0  0  0  0
 18 39  1  0  0  0  0
 18 40  1  0  0  0  0
M  CHG  1  10   1
M  END
> <s_m_source_file>
AV-unprocessed.smi

> <i_m_source_file_index>
3327

> <i_lp_mmshare_version>
43012

> <i_f3d_flags>
0

> <s_epik_input>
W0NIM11bQ0BASF0xW0NIMl1bQ0gyXVtDSDJdTihbQ0gyXTEpQyg9TylbQ0gyXVtOSF1bQ0gyXVtDSDJdbjJbY0hdW2NIXVtjSF1uMg==

> <s_epik_cmdline>
J2VwaWtfcHl0aG9uJywgJy1waCcsICc3LjAnLCAnLXRuJywgJzgnLCAnLW1hJywgJzIwMCcsICctbWV0YWxfYmluZGluZycsICctaW1hZScsICc8aW5maWxlLm1hZT4nLCAnLW9tYWUnLCAnPG91dGZpbGUubWFlPic=

> <r_lp_tautomer_probability>
1

> <r_epik_Ionization_Penalty>
0.195801

> <r_epik_Ionization_Penalty_Charging>
0.195799

> <r_epik_Ionization_Penalty_Neutral>
2.33113e-06

> <r_epik_State_Penalty>
0.185548

> <r_epik_Charging_Adjusted_Penalty>
0.381347

> <i_epik_Tot_Q>
1

> <i_epik_Tot_abs_Q>
1

> <r_epik_Metal_State_Penalty>
0.186014

> <b_epik_Metal_Only>
0

> <s_lp_Force_Field>
OPLS_2005

> <r_lp_Energy>
21.5547

> <b_lp_Chiralities_Consistent>
1

> <s_lp_Variant>
AV-unprocessed.smi:3327-1

> <Gold.Version>
5.8.1

> <Gold.Id.Protein>
6NUR|6NUR_protein|mol2

> <Gold.PLP.Fitness>
45.6448

> <Gold.PLP.PLP>
-44.3572

> <Gold.PLP.part.hbond>
-1.0000

> <Gold.PLP.part.metal>
0.0000

> <Gold.PLP.part.buried>
-4.6482

> <Gold.PLP.part.nonpolar>
-38.2161

> <Gold.PLP.part.repulsive>
0.0000

> <Gold.PLP.ligand.clash>
0.0000

> <Gold.PLP.ligand.torsion>
0.8391

> <Gold.PLP.Chemscore.Hbond>
0.9600

> <Gold.PLP.Chemscore.CHOScore>
0.0000

> <Gold.PLP.Chemscore.Metal>
0.0000

> <Gold.Chemscore.Hbonds>
donor molecule, donor type, donor heavy atom, donor atom, acceptor molecule, acceptor atom, score
      P1  H  7997  8010       L1     8  0.93

> <Gold.PLP.Chemscore.Internal.Correction>
0.0859

> <Gold.Rescore>
     Score         DG    S(hbond)    S(metal)    S(lipo)     H(rot)  DE(clash)    DE(int)     intcor
     16.18     -17.09       0.96        0.00     111.03       1.80       0.06       0.86       ----

> <Gold.Chemscore.Fitness>
16.1779

> <Gold.Chemscore.DG>
-17.0945

> <Gold.Chemscore.ZeroCoef>
-5.4800

> <Gold.Chemscore.Hbond>
0.9649

> <Gold.Chemscore.Metal>
0.0000

> <Gold.Chemscore.Lipo>
111.0275

> <Gold.Chemscore.Internal_Hbond>
0.0000

> <Gold.Chemscore.DEClash>
0.0554

> <Gold.Chemscore.DEInternal>
0.8611

> <Gold.Chemscore.Rot>
1.7963

> <Gold.Chemscore.Internal.Correction>
   9.000000E+99

> <Gold.Chemscore.Hbonds>
donor molecule, donor type, donor heavy atom, donor atom, acceptor molecule, acceptor atom, score
      P1  H  7997  8010       L1     8  0.83

> <Gold.Chemscore.Hbond.Weighted>
-3.2227

> <Gold.Chemscore.Metal.Weighted>
-0.0000

> <Gold.Chemscore.Lipo.Weighted>
-12.9902

> <Gold.Chemscore.Internal_Hbond.Weighted>
0.0000

> <Gold.Chemscore.DEClash.Weighted>
0.0554

> <Gold.Chemscore.DEInternal.Weighted>
0.8611

> <Gold.Chemscore.Rot.Weighted>
4.5985

> <Gold.Chemscore.Internal.Correction.Weighted>
   9.000000E+99

> <Gold.Protein.RotatedTorsions>
[ 6907 6896 6895 6894 ] final -132.36 input  -60.11 | X-H torsion
[ 7974 7965 7964 7962 ] final    0.90 input  175.53 | X-H torsion
[ 8008 7997 7996 7995 ] final   15.73 input   59.86 | X-H torsion
[ 10167 10162 10161 10158 ] final  -24.57 input  -65.29 | X-H torsion
[ 10718 10713 10712 10709 ] final   62.65 input   66.30 | X-H torsion
[ 10763 10752 10751 10750 ] final -154.54 input  -60.55 | X-H torsion
[ 11005 11000 10999 10996 ] final   80.24 input  -57.11 | X-H torsion

> <Gold.Protein.ActiveResidues>
 VAL166  LYS551  ARG553  GLY616  TRP617  ASP618  TYR619  PRO620  LYS621  CYS622 
 ASP623  PHE694  ASN695  SER759  ASP760  ASP761  ALA762  ILE779  LEU786  VAL792 
 PHE793  MET794  SER795  GLU796  ALA797  LYS798  CYS799  TRP800  GLU811  SER814 

> <Gold.Protein.RotatedAtoms>
  150.9615  133.6440  159.2753 H   0  0  0  0  0  0  0  0  0  0  0  0  # atno 6907 bound_to 6896
  151.3761  135.0930  159.9491 H   0  0  0  0  0  0  0  0  0  0  0  0  # atno 6908 bound_to 6896
  152.5149  133.9159  159.7565 H   0  0  0  0  0  0  0  0  0  0  0  0  # atno 6909 bound_to 6896
  146.2437  140.1067  142.8345 H   0  0  0  0  0  0  0  0  0  0  0  0  # atno 7974 bound_to 7965
  154.8668  140.2953  155.5505 H   0  0  0  0  0  0  0  0  0  0  0  0  # atno 8008 bound_to 7997
  156.3021  140.2467  156.3584 H   0  0  0  0  0  0  0  0  0  0  0  0  # atno 8009 bound_to 7997
  154.8859  140.0396  157.1799 H   0  0  0  0  0  0  0  0  0  0  0  0  # atno 8010 bound_to 7997
  140.7288  143.4341  151.0756 H   0  0  0  0  0  0  0  0  0  0  0  0  # atno 10167 bound_to 10162
  157.5915  130.9062  149.9614 H   0  0  0  0  0  0  0  0  0  0  0  0  # atno 10718 bound_to 10713
  154.7851  135.3188  154.7903 H   0  0  0  0  0  0  0  0  0  0  0  0  # atno 10763 bound_to 10752
  153.8605  135.6854  153.4787 H   0  0  0  0  0  0  0  0  0  0  0  0  # atno 10764 bound_to 10752
  153.1501  135.4703  154.9562 H   0  0  0  0  0  0  0  0  0  0  0  0  # atno 10765 bound_to 10752
  139.9142  134.7905  156.1884 H   0  0  0  0  0  0  0  0  0  0  0  0  # atno 11005 bound_to 11000
  145.0522  140.9026  143.4989 LP  0  0  0  0  0  0  0  0  0  0  0  0  # atno 17320 bound_to 7965
  145.1167  139.2720  143.5609 LP  0  0  0  0  0  0  0  0  0  0  0  0  # atno 17321 bound_to 7965
  139.8001  143.8095  152.3162 LP  0  0  0  0  0  0  0  0  0  0  0  0  # atno 17342 bound_to 10162
  139.8109  144.7336  150.9698 LP  0  0  0  0  0  0  0  0  0  0  0  0  # atno 17343 bound_to 10162
  156.0971  130.3658  150.0286 LP  0  0  0  0  0  0  0  0  0  0  0  0  # atno 17370 bound_to 10713
  156.8408  130.9425  151.3632 LP  0  0  0  0  0  0  0  0  0  0  0  0  # atno 17371 bound_to 10713
  141.0599  133.6847  156.1932 LP  0  0  0  0  0  0  0  0  0  0  0  0  # atno 17394 bound_to 11000
  140.6677  134.4900  157.5586 LP  0  0  0  0  0  0  0  0  0  0  0  0  # atno 17395 bound_to 11000

$$$$
