AV-unprocessed.smi:3004|AV-procd|sdf|11439|dock10
  -GOLD-   2272016373D 1   1.00000     0.00000
 Structure written by MMmdl.
 47 48  0  0  0  0  0  0  0  0  2 V2000
  155.2453  140.4534  162.2252 C   0  0  0  0  0  0  0  0  0  0  0  0
  154.2328  141.3721  161.6082 C   0  0  0  0  0  0  0  0  0  0  0  0
  153.4397  142.3656  162.2473 C   0  0  0  0  0  0  0  0  0  0  0  0
  152.7002  142.9104  161.2358 C   0  0  0  0  0  0  0  0  0  0  0  0
  151.6833  144.0036  161.2691 C   0  0  0  0  0  0  0  0  0  0  0  0
  153.0601  142.2489  160.0746 N   0  0  0  0  0  0  0  0  0  0  0  0
  152.5819  142.4503  158.7161 C   0  0  0  0  0  0  0  0  0  0  0  0
  151.2674  141.7040  158.4813 C   0  0  0  0  0  0  0  0  0  0  0  0
  151.2811  140.5288  158.1153 O   0  0  0  0  0  0  0  0  0  0  0  0
  150.1384  142.3950  158.7025 N   0  0  0  0  0  0  0  0  0  0  0  0
  148.7872  141.8607  158.5788 C   0  0  0  0  0  0  0  0  0  0  0  0
  148.5463  141.2250  157.1920 C   0  0  0  0  0  0  0  0  0  0  0  0
  147.3505  141.7648  156.4800 N   0  3  2  0  0  0  0  0  0  0  0  0
  146.1808  141.9349  157.3916 C   0  0  0  0  0  0  0  0  0  0  0  0
  144.9934  142.6080  156.6885 C   0  0  0  0  0  0  0  0  0  0  0  0
  144.5746  141.8108  155.4542 C   0  0  0  0  0  0  0  0  0  0  0  0
  145.7810  141.6446  154.5281 C   0  0  0  0  0  0  0  0  0  0  0  0
  146.9777  140.9877  155.2511 C   0  0  1  0  0  0  0  0  0  0  0  0
  148.1379  140.8359  154.2454 C   0  0  0  0  0  0  0  0  0  0  0  0
  153.9990  141.3052  160.3075 N   0  0  0  0  0  0  0  0  0  0  0  0
  155.3924  140.6821  163.2809 H   0  0  0  0  0  0  0  0  0  0  0  0
  156.2120  140.5441  161.7294 H   0  0  0  0  0  0  0  0  0  0  0  0
  154.9275  139.4132  162.1520 H   0  0  0  0  0  0  0  0  0  0  0  0
  153.4191  142.6396  163.2917 H   0  0  0  0  0  0  0  0  0  0  0  0
  151.5785  144.4071  162.2763 H   0  0  0  0  0  0  0  0  0  0  0  0
  150.7072  143.6358  160.9527 H   0  0  0  0  0  0  0  0  0  0  0  0
  151.9695  144.8223  160.6089 H   0  0  0  0  0  0  0  0  0  0  0  0
  152.4579  143.5193  158.5340 H   0  0  0  0  0  0  0  0  0  0  0  0
  153.3345  142.0970  158.0110 H   0  0  0  0  0  0  0  0  0  0  0  0
  150.2252  143.3535  159.0097 H   0  0  0  0  0  0  0  0  0  0  0  0
  148.6360  141.1469  159.3883 H   0  0  0  0  0  0  0  0  0  0  0  0
  148.0846  142.6783  158.7426 H   0  0  0  0  0  0  0  0  0  0  0  0
  149.4468  141.4166  156.6130 H   0  0  0  0  0  0  0  0  0  0  0  0
  148.4539  140.1411  157.2731 H   0  0  0  0  0  0  0  0  0  0  0  0
  145.8811  140.9623  157.7854 H   0  0  0  0  0  0  0  0  0  0  0  0
  146.4399  142.5546  158.2475 H   0  0  0  0  0  0  0  0  0  0  0  0
  144.1526  142.6953  157.3773 H   0  0  0  0  0  0  0  0  0  0  0  0
  145.2638  143.6247  156.3990 H   0  0  0  0  0  0  0  0  0  0  0  0
  144.1941  140.8329  155.7520 H   0  0  0  0  0  0  0  0  0  0  0  0
  143.7636  142.3193  154.9320 H   0  0  0  0  0  0  0  0  0  0  0  0
  145.4884  141.0450  153.6653 H   0  0  0  0  0  0  0  0  0  0  0  0
  146.0758  142.6199  154.1373 H   0  0  0  0  0  0  0  0  0  0  0  0
  146.6754  139.9877  155.5669 H   0  0  0  0  0  0  0  0  0  0  0  0
  147.7841  140.4157  153.3034 H   0  0  0  0  0  0  0  0  0  0  0  0
  148.9113  140.1569  154.6030 H   0  0  0  0  0  0  0  0  0  0  0  0
  148.6004  141.7978  154.0215 H   0  0  0  0  0  0  0  0  0  0  0  0
  147.6041  142.6891  156.1613 H   0  0  0  0  0  0  0  0  0  0  0  0
  1  2  1  0  0  0  0
  1 21  1  0  0  0  0
  1 22  1  0  0  0  0
  1 23  1  0  0  0  0
  2 20  2  0  0  0  0
  2  3  1  0  0  0  0
  3  4  2  0  0  0  0
  3 24  1  0  0  0  0
  4  5  1  0  0  0  0
  4  6  1  0  0  0  0
  5 25  1  0  0  0  0
  5 26  1  0  0  0  0
  5 27  1  0  0  0  0
  6  7  1  0  0  0  0
  6 20  1  0  0  0  0
  7  8  1  0  0  0  0
  7 28  1  0  0  0  0
  7 29  1  0  0  0  0
  8  9  2  0  0  0  0
  8 10  1  0  0  0  0
 10 11  1  0  0  0  0
 10 30  1  0  0  0  0
 11 12  1  0  0  0  0
 11 31  1  0  0  0  0
 11 32  1  0  0  0  0
 12 13  1  0  0  0  0
 12 33  1  0  0  0  0
 12 34  1  0  0  0  0
 13 18  1  0  0  0  0
 13 14  1  0  0  0  0
 13 47  1  0  0  0  0
 14 15  1  0  0  0  0
 14 35  1  0  0  0  0
 14 36  1  0  0  0  0
 15 16  1  0  0  0  0
 15 37  1  0  0  0  0
 15 38  1  0  0  0  0
 16 17  1  0  0  0  0
 16 39  1  0  0  0  0
 16 40  1  0  0  0  0
 17 18  1  0  0  0  0
 17 41  1  0  0  0  0
 17 42  1  0  0  0  0
 18 19  1  0  0  0  0
 18 43  1  0  0  0  0
 19 44  1  0  0  0  0
 19 45  1  0  0  0  0
 19 46  1  0  0  0  0
M  CHG  1  13   1
M  END
> <s_m_source_file>
AV-unprocessed.smi

> <i_m_source_file_index>
3004

> <i_lp_mmshare_version>
43012

> <i_f3d_flags>
0

> <s_epik_input>
W0NIM11jMVtjSF1jKFtDSDNdKW4objEpW0NIMl1DKD1PKVtOSF1bQ0gyXVtDSDJdTjJbQ0gyXVtDSDJdW0NIMl1bQ0gyXVtDQEhdMltDSDNd

> <s_epik_cmdline>
J2VwaWtfcHl0aG9uJywgJy1waCcsICc3LjAnLCAnLXRuJywgJzgnLCAnLW1hJywgJzIwMCcsICctbWV0YWxfYmluZGluZycsICctaW1hZScsICc8aW5maWxlLm1hZT4nLCAnLW9tYWUnLCAnPG91dGZpbGUubWFlPic=

> <r_lp_tautomer_probability>
1

> <r_epik_Ionization_Penalty>
0.00303644

> <r_epik_Ionization_Penalty_Charging>
0.00284254

> <r_epik_Ionization_Penalty_Neutral>
0.000193908

> <r_epik_State_Penalty>
-0

> <r_epik_Charging_Adjusted_Penalty>
0.00284254

> <i_epik_Tot_Q>
1

> <i_epik_Tot_abs_Q>
1

> <r_epik_Metal_State_Penalty>
-0

> <b_epik_Metal_Only>
0

> <s_lp_Force_Field>
OPLS_2005

> <r_lp_Energy>
17.9788

> <b_lp_Chiralities_Consistent>
1

> <s_lp_Variant>
AV-unprocessed.smi:3004-1

> <Gold.Version>
5.8.1

> <Gold.Id.Protein>
6NUR|6NUR_protein|mol2

> <Gold.PLP.Fitness>
46.8620

> <Gold.PLP.PLP>
-43.1747

> <Gold.PLP.part.hbond>
-1.0000

> <Gold.PLP.part.metal>
0.0000

> <Gold.PLP.part.buried>
-4.8634

> <Gold.PLP.part.nonpolar>
-37.1972

> <Gold.PLP.part.repulsive>
0.1328

> <Gold.PLP.ligand.clash>
0.0000

> <Gold.PLP.ligand.torsion>
1.1714

> <Gold.PLP.Chemscore.Hbond>
2.0000

> <Gold.PLP.Chemscore.CHOScore>
0.0000

> <Gold.PLP.Chemscore.Metal>
0.0000

> <Gold.PLP.Chemscore.Internal.Correction>
0.0302

> <Gold.Rescore>
     Score         DG    S(hbond)    S(metal)    S(lipo)     H(rot)  DE(clash)    DE(int)     intcor
     14.43     -16.26       0.97        0.00     100.81       1.67       0.02       1.81       ----

> <Gold.Chemscore.Fitness>
14.4286

> <Gold.Chemscore.DG>
-16.2630

> <Gold.Chemscore.ZeroCoef>
-5.4800

> <Gold.Chemscore.Hbond>
0.9736

> <Gold.Chemscore.Metal>
0.0000

> <Gold.Chemscore.Lipo>
100.8146

> <Gold.Chemscore.Internal_Hbond>
0.0000

> <Gold.Chemscore.DEClash>
0.0237

> <Gold.Chemscore.DEInternal>
1.8107

> <Gold.Chemscore.Rot>
1.6657

> <Gold.Chemscore.Internal.Correction>
   9.000000E+99

> <Gold.Chemscore.Hbonds>
donor molecule, donor type, donor heavy atom, donor atom, acceptor molecule, acceptor atom, score
      L1  H    13    47       P1  8028  0.03

> <Gold.Chemscore.Hbond.Weighted>
-3.2517

> <Gold.Chemscore.Metal.Weighted>
-0.0000

> <Gold.Chemscore.Lipo.Weighted>
-11.7953

> <Gold.Chemscore.Internal_Hbond.Weighted>
0.0000

> <Gold.Chemscore.DEClash.Weighted>
0.0237

> <Gold.Chemscore.DEInternal.Weighted>
1.8107

> <Gold.Chemscore.Rot.Weighted>
4.2641

> <Gold.Chemscore.Internal.Correction.Weighted>
   9.000000E+99

> <Gold.Protein.RotatedTorsions>
[ 6907 6896 6895 6894 ] final  168.94 input  -60.11 | X-H torsion
[ 7974 7965 7964 7962 ] final -124.11 input  175.53 | X-H torsion
[ 8008 7997 7996 7995 ] final   28.69 input   59.86 | X-H torsion
[ 10167 10162 10161 10158 ] final   93.74 input  -65.29 | X-H torsion
[ 10718 10713 10712 10709 ] final  139.64 input   66.30 | X-H torsion
[ 10763 10752 10751 10750 ] final  145.74 input  -60.55 | X-H torsion
[ 11005 11000 10999 10996 ] final   57.47 input  -57.11 | X-H torsion

> <Gold.Protein.ActiveResidues>
 VAL166  LYS551  ARG553  GLY616  TRP617  ASP618  TYR619  PRO620  LYS621  CYS622 
 ASP623  PHE694  ASN695  SER759  ASP760  ASP761  ALA762  ILE779  LEU786  VAL792 
 PHE793  MET794  SER795  GLU796  ALA797  LYS798  CYS799  TRP800  GLU811  SER814 

> <Gold.Protein.RotatedAtoms>
  151.8398  133.3422  159.3639 H   0  0  0  0  0  0  0  0  0  0  0  0  # atno 6907 bound_to 6896
  150.7238  134.5402  159.5753 H   0  0  0  0  0  0  0  0  0  0  0  0  # atno 6908 bound_to 6896
  152.2873  134.7761  160.0436 H   0  0  0  0  0  0  0  0  0  0  0  0  # atno 6909 bound_to 6896
  145.0115  140.7910  143.4436 H   0  0  0  0  0  0  0  0  0  0  0  0  # atno 7974 bound_to 7965
  155.0627  140.3192  155.4655 H   0  0  0  0  0  0  0  0  0  0  0  0  # atno 8008 bound_to 7997
  156.2809  140.2126  156.5699 H   0  0  0  0  0  0  0  0  0  0  0  0  # atno 8009 bound_to 7997
  154.7119  140.0497  157.0545 H   0  0  0  0  0  0  0  0  0  0  0  0  # atno 8010 bound_to 7997
  139.8150  144.6756  150.9591 H   0  0  0  0  0  0  0  0  0  0  0  0  # atno 10167 bound_to 10162
  157.4121  131.1029  151.0443 H   0  0  0  0  0  0  0  0  0  0  0  0  # atno 10718 bound_to 10713
  154.0104  135.2915  155.3393 H   0  0  0  0  0  0  0  0  0  0  0  0  # atno 10763 bound_to 10752
  154.7106  135.5151  153.8664 H   0  0  0  0  0  0  0  0  0  0  0  0  # atno 10764 bound_to 10752
  153.0726  135.6652  154.0336 H   0  0  0  0  0  0  0  0  0  0  0  0  # atno 10765 bound_to 10752
  140.0450  134.5819  155.9334 H   0  0  0  0  0  0  0  0  0  0  0  0  # atno 11005 bound_to 11000
  145.2017  139.2249  143.5189 LP  0  0  0  0  0  0  0  0  0  0  0  0  # atno 17320 bound_to 7965
  146.3470  140.1835  142.8589 LP  0  0  0  0  0  0  0  0  0  0  0  0  # atno 17321 bound_to 7965
  140.7816  143.4147  151.0936 LP  0  0  0  0  0  0  0  0  0  0  0  0  # atno 17342 bound_to 10162
  139.7811  143.8353  152.3138 LP  0  0  0  0  0  0  0  0  0  0  0  0  # atno 17343 bound_to 10162
  157.1404  130.6140  149.5553 LP  0  0  0  0  0  0  0  0  0  0  0  0  # atno 17370 bound_to 10713
  155.9854  130.4883  150.7029 LP  0  0  0  0  0  0  0  0  0  0  0  0  # atno 17371 bound_to 10713
  141.1902  133.6568  156.5402 LP  0  0  0  0  0  0  0  0  0  0  0  0  # atno 17394 bound_to 11000
  140.4008  134.7358  157.4779 LP  0  0  0  0  0  0  0  0  0  0  0  0  # atno 17395 bound_to 11000

$$$$
