AV-unprocessed.smi:128|AV-procd|sdf|1155|dock2
  -GOLD-   2262018293D 1   1.00000     0.00000
 Structure written by MMmdl.
 41 44  0  0  0  0  0  0  0  0  1 V2000
  153.5478  137.3438  157.5297 O   0  0  0  0  0  0  0  0  0  0  0  0
  152.8888  138.3839  157.5763 C   0  0  0  0  0  0  0  0  0  0  0  0
  152.6522  139.1284  158.8084 C   0  0  0  0  0  0  0  0  0  0  0  0
  153.1516  138.6702  159.9687 F   0  0  0  0  0  0  0  0  0  0  0  0
  151.9384  140.2747  158.8036 C   0  0  0  0  0  0  0  0  0  0  0  0
  151.3907  140.8195  157.6555 N   0  0  0  0  0  0  0  0  0  0  0  0
  150.6153  142.1134  157.7201 C   0  0  2  0  0  0  0  0  0  0  0  0
  151.3558  143.2239  156.9628 C   0  0  0  0  0  0  0  0  0  0  0  0
  151.9345  144.0567  158.0887 C   0  0  0  0  0  0  0  0  0  0  0  0
  150.8970  143.8599  159.1867 C   0  0  0  0  0  0  0  0  0  0  0  0
  150.5073  142.4985  159.0592 O   0  0  0  0  0  0  0  0  0  0  0  0
  151.5786  140.1743  156.4135 C   0  0  0  0  0  0  0  0  0  0  0  0
  151.1383  140.6604  155.3691 O   0  0  0  0  0  0  0  0  0  0  0  0
  152.3084  138.9618  156.4198 N   0  0  0  0  0  0  0  0  0  0  0  0
  152.5112  138.2891  155.1458 C   0  0  0  0  0  0  0  0  0  0  0  0
  153.8887  138.5196  154.5961 C   0  0  0  0  0  0  0  0  0  0  0  0
  154.4915  139.6775  154.3102 N   0  0  0  0  0  0  0  0  0  0  0  0
  155.7414  139.3449  153.8419 N   0  0  0  0  0  0  0  0  0  0  0  0
  155.8110  138.0100  153.8799 C   0  0  0  0  0  0  0  0  0  0  0  0
  156.9276  137.1466  153.4969 C   0  0  0  0  0  0  0  0  0  0  0  0
  157.4473  137.1731  152.1819 C   0  0  0  0  0  0  0  0  0  0  0  0
  158.5209  136.3350  151.8227 C   0  0  0  0  0  0  0  0  0  0  0  0
  159.0845  135.4636  152.7738 C   0  0  0  0  0  0  0  0  0  0  0  0
  160.5329  134.3292  152.2874 Br  0  0  0  0  0  0  0  0  0  0  0  0
  158.5745  135.4322  154.0855 C   0  0  0  0  0  0  0  0  0  0  0  0
  157.5010  136.2699  154.4454 C   0  0  0  0  0  0  0  0  0  0  0  0
  154.6687  137.4370  154.3471 O   0  0  0  0  0  0  0  0  0  0  0  0
  151.7960  140.7859  159.7439 H   0  0  0  0  0  0  0  0  0  0  0  0
  149.6167  141.9168  157.3284 H   0  0  0  0  0  0  0  0  0  0  0  0
  152.1053  142.8292  156.2755 H   0  0  0  0  0  0  0  0  0  0  0  0
  150.6262  143.8019  156.3945 H   0  0  0  0  0  0  0  0  0  0  0  0
  152.8979  143.6531  158.4018 H   0  0  0  0  0  0  0  0  0  0  0  0
  152.0754  145.1033  157.8179 H   0  0  0  0  0  0  0  0  0  0  0  0
  151.2874  144.0737  160.1817 H   0  0  0  0  0  0  0  0  0  0  0  0
  150.0299  144.4991  159.0132 H   0  0  0  0  0  0  0  0  0  0  0  0
  152.3233  137.2226  155.2742 H   0  0  0  0  0  0  0  0  0  0  0  0
  151.7514  138.6451  154.4481 H   0  0  0  0  0  0  0  0  0  0  0  0
  157.0297  137.8329  151.4357 H   0  0  0  0  0  0  0  0  0  0  0  0
  158.9103  136.3610  150.8157 H   0  0  0  0  0  0  0  0  0  0  0  0
  159.0056  134.7644  154.8168 H   0  0  0  0  0  0  0  0  0  0  0  0
  157.1216  136.2324  155.4560 H   0  0  0  0  0  0  0  0  0  0  0  0
  1  2  2  0  0  0  0
  2 14  1  0  0  0  0
  2  3  1  0  0  0  0
  3  4  1  0  0  0  0
  3  5  2  0  0  0  0
  5  6  1  0  0  0  0
  5 28  1  0  0  0  0
  6  7  1  0  0  0  0
  6 12  1  0  0  0  0
  7 11  1  0  0  0  0
  7  8  1  0  0  0  0
  7 29  1  0  0  0  0
  8  9  1  0  0  0  0
  8 30  1  0  0  0  0
  8 31  1  0  0  0  0
  9 10  1  0  0  0  0
  9 32  1  0  0  0  0
  9 33  1  0  0  0  0
 10 11  1  0  0  0  0
 10 34  1  0  0  0  0
 10 35  1  0  0  0  0
 12 13  2  0  0  0  0
 12 14  1  0  0  0  0
 14 15  1  0  0  0  0
 15 16  1  0  0  0  0
 15 36  1  0  0  0  0
 15 37  1  0  0  0  0
 16 27  1  0  0  0  0
 16 17  2  0  0  0  0
 17 18  1  0  0  0  0
 18 19  2  0  0  0  0
 19 20  1  0  0  0  0
 19 27  1  0  0  0  0
 20 26  1  0  0  0  0
 20 21  2  0  0  0  0
 21 22  1  0  0  0  0
 21 38  1  0  0  0  0
 22 23  2  0  0  0  0
 22 39  1  0  0  0  0
 23 24  1  0  0  0  0
 23 25  1  0  0  0  0
 25 26  2  0  0  0  0
 25 40  1  0  0  0  0
 26 41  1  0  0  0  0
M  END
> <s_m_source_file>
AV-unprocessed.smi

> <i_m_source_file_index>
128

> <i_lp_mmshare_version>
43012

> <i_f3d_flags>
0

> <s_epik_input>
TzFbQ0gyXVtDSDJdW0NIMl1bQ0BIXTFuKFtjSF1jKEYpYzI9TyljKD1PKW4yW0NIMl1jM25uYyhvMyktYzRbY0hdW2NIXWMoQnIpW2NIXVtjSF00

> <s_epik_cmdline>
J2VwaWtfcHl0aG9uJywgJy1waCcsICc3LjAnLCAnLXRuJywgJzgnLCAnLW1hJywgJzIwMCcsICctbWV0YWxfYmluZGluZycsICctaW1hZScsICc8aW5maWxlLm1hZT4nLCAnLW9tYWUnLCAnPG91dGZpbGUubWFlPic=

> <r_lp_tautomer_probability>
1

> <r_epik_Ionization_Penalty>
2.55537e-09

> <r_epik_Ionization_Penalty_Charging>
2.54231e-09

> <r_epik_Ionization_Penalty_Neutral>
1.30653e-11

> <r_epik_State_Penalty>
-0

> <r_epik_Charging_Adjusted_Penalty>
2.54231e-09

> <i_epik_Tot_Q>
0

> <i_epik_Tot_abs_Q>
0

> <r_epik_Metal_State_Penalty>
-0

> <b_epik_Metal_Only>
0

> <s_epik_Chemistry_Notes>
This compound contains an acetal/aminal-like group ( X-CH(R)-Y where X, Y are N, S, or O) that may be acid/base labile, releasing an aldehyde.

> <s_lp_Force_Field>
OPLS_2005

> <r_lp_Energy>
32.4944

> <b_lp_Chiralities_Consistent>
1

> <s_lp_Variant>
AV-unprocessed.smi:128-1

> <Gold.Version>
5.8.1

> <Gold.Id.Protein>
6NUR|6NUR_protein|mol2

> <Gold.PLP.Fitness>
47.1348

> <Gold.PLP.PLP>
-44.4710

> <Gold.PLP.part.hbond>
-3.7893

> <Gold.PLP.part.metal>
0.0000

> <Gold.PLP.part.buried>
2.1843

> <Gold.PLP.part.nonpolar>
-43.9002

> <Gold.PLP.part.repulsive>
0.1505

> <Gold.PLP.ligand.clash>
0.0000

> <Gold.PLP.ligand.torsion>
1.3926

> <Gold.PLP.Chemscore.Hbond>
1.8024

> <Gold.PLP.Chemscore.CHOScore>
0.0000

> <Gold.PLP.Chemscore.Metal>
0.0000

> <Gold.Chemscore.Hbonds>
donor molecule, donor type, donor heavy atom, donor atom, acceptor molecule, acceptor atom, score
      P1  H  7989  7998       L1    13  0.85
      P1  H  7997  8010       L1    17  0.74
      P1  H 10752 10765       L1    27  0.05

> <Gold.PLP.Chemscore.Internal.Correction>
0.0418

> <Gold.Rescore>
     Score         DG    S(hbond)    S(metal)    S(lipo)     H(rot)  DE(clash)    DE(int)     intcor
     16.58     -19.22       1.11        0.00     122.86       1.70       1.57       1.07       ----

> <Gold.Chemscore.Fitness>
16.5789

> <Gold.Chemscore.DG>
-19.2212

> <Gold.Chemscore.ZeroCoef>
-5.4800

> <Gold.Chemscore.Hbond>
1.1117

> <Gold.Chemscore.Metal>
0.0000

> <Gold.Chemscore.Lipo>
122.8622

> <Gold.Chemscore.Internal_Hbond>
0.0000

> <Gold.Chemscore.DEClash>
1.5705

> <Gold.Chemscore.DEInternal>
1.0719

> <Gold.Chemscore.Rot>
1.6980

> <Gold.Chemscore.Internal.Correction>
   9.000000E+99

> <Gold.Chemscore.Hbonds>
donor molecule, donor type, donor heavy atom, donor atom, acceptor molecule, acceptor atom, score
      P1  H  7989  7998       L1    13  0.82
      P1  H  7997  8010       L1    17  0.13
      P1  H 10752 10765       L1    27  0.05

> <Gold.Chemscore.Hbond.Weighted>
-3.7132

> <Gold.Chemscore.Metal.Weighted>
-0.0000

> <Gold.Chemscore.Lipo.Weighted>
-14.3749

> <Gold.Chemscore.Internal_Hbond.Weighted>
0.0000

> <Gold.Chemscore.DEClash.Weighted>
1.5705

> <Gold.Chemscore.DEInternal.Weighted>
1.0719

> <Gold.Chemscore.Rot.Weighted>
4.3469

> <Gold.Chemscore.Internal.Correction.Weighted>
   9.000000E+99

> <Gold.Protein.RotatedTorsions>
[ 6907 6896 6895 6894 ] final   11.97 input  -60.11 | X-H torsion
[ 7974 7965 7964 7962 ] final  -79.36 input  175.53 | X-H torsion
[ 8008 7997 7996 7995 ] final  121.62 input   59.86 | X-H torsion
[ 10167 10162 10161 10158 ] final  148.12 input  -65.29 | X-H torsion
[ 10718 10713 10712 10709 ] final  -78.63 input   66.30 | X-H torsion
[ 10763 10752 10751 10750 ] final   34.07 input  -60.55 | X-H torsion
[ 11005 11000 10999 10996 ] final  -90.08 input  -57.11 | X-H torsion

> <Gold.Protein.ActiveResidues>
 VAL166  LYS551  ARG553  GLY616  TRP617  ASP618  TYR619  PRO620  LYS621  CYS622 
 ASP623  PHE694  ASN695  SER759  ASP760  ASP761  ALA762  ILE779  LEU786  VAL792 
 PHE793  MET794  SER795  GLU796  ALA797  LYS798  CYS799  TRP800  GLU811  SER814 

> <Gold.Protein.RotatedAtoms>
  151.7628  135.0806  160.0347 H   0  0  0  0  0  0  0  0  0  0  0  0  # atno 6907 bound_to 6896
  152.3341  133.5987  159.5839 H   0  0  0  0  0  0  0  0  0  0  0  0  # atno 6908 bound_to 6896
  150.7440  133.9738  159.3596 H   0  0  0  0  0  0  0  0  0  0  0  0  # atno 6909 bound_to 6896
  145.5743  140.9460  143.1379 H   0  0  0  0  0  0  0  0  0  0  0  0  # atno 7974 bound_to 7965
  156.2694  140.2804  156.1337 H   0  0  0  0  0  0  0  0  0  0  0  0  # atno 8008 bound_to 7997
  155.1026  140.0390  157.2719 H   0  0  0  0  0  0  0  0  0  0  0  0  # atno 8009 bound_to 7997
  154.6803  140.2607  155.6921 H   0  0  0  0  0  0  0  0  0  0  0  0  # atno 8010 bound_to 7997
  139.4879  144.5703  151.7067 H   0  0  0  0  0  0  0  0  0  0  0  0  # atno 10167 bound_to 10162
  156.0112  130.4523  150.3526 H   0  0  0  0  0  0  0  0  0  0  0  0  # atno 10718 bound_to 10713
  153.0181  135.6370  154.1611 H   0  0  0  0  0  0  0  0  0  0  0  0  # atno 10763 bound_to 10752
  154.1348  135.2838  155.3177 H   0  0  0  0  0  0  0  0  0  0  0  0  # atno 10764 bound_to 10752
  154.6168  135.5538  153.7593 H   0  0  0  0  0  0  0  0  0  0  0  0  # atno 10765 bound_to 10752
  141.1572  133.7670  156.9686 H   0  0  0  0  0  0  0  0  0  0  0  0  # atno 11005 bound_to 11000
  144.7423  139.7414  143.7306 LP  0  0  0  0  0  0  0  0  0  0  0  0  # atno 17320 bound_to 7965
  146.1762  139.4934  142.9896 LP  0  0  0  0  0  0  0  0  0  0  0  0  # atno 17321 bound_to 7965
  140.5289  144.0761  150.6047 LP  0  0  0  0  0  0  0  0  0  0  0  0  # atno 17342 bound_to 10162
  140.3745  143.2836  152.0241 LP  0  0  0  0  0  0  0  0  0  0  0  0  # atno 17343 bound_to 10162
  157.1617  131.0347  151.2837 LP  0  0  0  0  0  0  0  0  0  0  0  0  # atno 17370 bound_to 10713
  157.4305  130.7488  149.6986 LP  0  0  0  0  0  0  0  0  0  0  0  0  # atno 17371 bound_to 10713
  140.1144  134.9456  157.2113 LP  0  0  0  0  0  0  0  0  0  0  0  0  # atno 17394 bound_to 11000
  140.3152  134.2979  155.7258 LP  0  0  0  0  0  0  0  0  0  0  0  0  # atno 17395 bound_to 11000

$$$$
