#       Name:                AV-unprocessed.smi:2098
#       Creating user name   scv26
#       Creation time:       Fri Mar 27 11:29:42 2020


#       File generated by GOLD software.
#

@<TRIPOS>MOLECULE
AV-unprocessed.smi:2098
    41    43     1
SMALL
NO_CHARGES


@<TRIPOS>ATOM
      1 ****        -0.5484  -0.5903   1.0409 O.3            1 S1                 0.0000
      2 ****        -0.1177  -0.2934  -0.2729 C.3            1 S1                 0.0000
      3 ****         1.4182  -0.2403  -0.2807 C.3            1 S1                 0.0000
      4 ****         1.9247  -1.5672  -0.3422 O.3            1 S1                 0.0000
      5 ****         3.2914  -1.7432  -0.3813 C.ar           1 S1                 0.0000
      6 ****         3.7639  -3.0708  -0.4439 C.ar           1 S1                 0.0000
      7 ****         5.1447  -3.3436  -0.4897 C.ar           1 S1                 0.0000
      8 ****         6.0714  -2.2851  -0.4720 C.ar           1 S1                 0.0000
      9 ****         7.3994  -2.5451  -0.5159 F              1 S1                 0.0000
     10 ****         5.6147  -0.9558  -0.4088 C.ar           1 S1                 0.0000
     11 ****         4.2334  -0.6830  -0.3639 C.ar           1 S1                 0.0000
     12 ****        -0.7379   1.0449  -0.7216 C.3            1 S1                 0.0000
     13 ****        -2.2072   1.0123  -0.7589 N.pl3          1 S1                 0.0000
     14 ****        -3.0395   0.5786  -1.7440 C.2            1 S1                 0.0000
     15 ****        -4.3183   0.7578  -1.3120 N.pl3          1 S1                 1.0000
     16 ****        -4.3042   1.3128  -0.0307 C.ar           1 S1                 0.0000
     17 ****        -5.3475   1.6736   0.8165 C.ar           1 S1                 0.0000
     18 ****        -4.9879   2.2136   2.0688 C.ar           1 S1                 0.0000
     19 ****        -3.6368   2.3761   2.4380 C.ar           1 S1                 0.0000
     20 ****        -2.5874   2.0086   1.5702 C.ar           1 S1                 0.0000
     21 ****        -2.9505   1.4772   0.3329 C.ar           1 S1                 0.0000
     22 ****        -0.1703  -1.4175   1.2988 H              1 S1                 0.0000
     23 ****        -0.4597  -1.0829  -0.9435 H              1 S1                 0.0000
     24 ****         1.7536   0.2967  -1.1695 H              1 S1                 0.0000
     25 ****         1.7925   0.2950   0.5940 H              1 S1                 0.0000
     26 ****         3.0596  -3.8897  -0.4579 H              1 S1                 0.0000
     27 ****         5.4923  -4.3650  -0.5389 H              1 S1                 0.0000
     28 ****         6.3249  -0.1423  -0.3954 H              1 S1                 0.0000
     29 ****         3.9229   0.3495  -0.3174 H              1 S1                 0.0000
     30 ****        -0.4097   1.8684  -0.0869 H              1 S1                 0.0000
     31 ****        -0.4023   1.2875  -1.7308 H              1 S1                 0.0000
     32 ****        -2.7397   0.1680  -2.6973 H              1 S1                 0.0000
     33 ****        -6.3833   1.5484   0.5368 H              1 S1                 0.0000
     34 ****        -5.7638   2.5070   2.7610 H              1 S1                 0.0000
     35 ****        -3.3997   2.7901   3.4073 H              1 S1                 0.0000
     36 ****        -1.5562   2.1321   1.8663 H              1 S1                 0.0000
     37 ****        -5.1384   0.5178  -1.8540 H              1 S1                 0.0000
     38 ****        -1.5462  -0.6534   1.0631 LP             1 S1                 0.0000
     39 ****        -0.2459   0.1290   1.6662 LP             1 S1                 0.0000
     40 ****         1.5479  -1.9902  -1.1663 LP             1 S1                 0.0000
     41 ****         1.5867  -2.0510   0.4651 LP             1 S1                 0.0000
@<TRIPOS>BOND
    1    1    2 1     
    2    1   22 1     
    3    2    3 1     
    4    2   12 1     
    5    2   23 1     
    6    3    4 1     
    7    3   24 1     
    8    3   25 1     
    9    4    5 1     
   10    5   11 ar    
   11    5    6 ar    
   12    6    7 ar    
   13    6   26 1     
   14    7    8 ar    
   15    7   27 1     
   16    8    9 1     
   17    8   10 ar    
   18   10   11 ar    
   19   10   28 1     
   20   11   29 1     
   21   12   13 1     
   22   12   30 1     
   23   12   31 1     
   24   13   21 1     
   25   13   14 1     
   26   14   15 2     
   27   14   32 1     
   28   15   16 1     
   29   15   37 1     
   30   16   21 ar    
   31   16   17 ar    
   32   17   18 ar    
   33   17   33 1     
   34   18   19 ar    
   35   18   34 1     
   36   19   20 ar    
   37   19   35 1     
   38   20   21 ar    
   39   20   36 1     
   40    1   38 1     
   41    1   39 1     
   42    4   40 1     
   43    4   41 1     
@<TRIPOS>SUBSTRUCTURE
      1 S1             1
@<TRIPOS>SET
LONE_PAIRS      STATIC     ATOMS    <user>   **** ""
4 38 39 40 41
DONOR_HYDROGENS      STATIC     ATOMS    <user>   **** ""
2 22 37
ATOM$BLUE        STATIC     ATOMS    COLORGROUP SYSTEM
4 38 39 40 41
ATOM$RED        STATIC     ATOMS    COLORGROUP SYSTEM
2 22 37
