AV-unprocessed.smi:1612|AV-procd|sdf|6477|dock5
  -GOLD-   22720 7133D 1   1.00000     0.00000
 Structure written by MMmdl.
 37 38  0  0  0  0  0  0  0  0  1 V2000
  148.1098  141.3271  154.0438 C   0  0  0  0  0  0  0  0  0  0  0  0
  149.5292  141.2813  154.6517 C   0  0  1  0  0  0  0  0  0  0  0  0
  149.7029  142.2462  155.7433 N   0  0  0  0  0  0  0  0  0  0  0  0
  150.5450  142.1695  156.7879 C   0  0  0  0  0  0  0  0  0  0  0  0
  151.3657  141.2656  156.9434 O   0  0  0  0  0  0  0  0  0  0  0  0
  150.3736  143.2110  157.6213 N   0  0  0  0  0  0  0  0  0  0  0  0
  151.0671  143.4940  158.8286 C   0  0  0  0  0  0  0  0  0  0  0  0
  151.2140  144.8679  159.1260 C   0  0  0  0  0  0  0  0  0  0  0  0
  151.8874  145.2542  160.3011 C   0  0  0  0  0  0  0  0  0  0  0  0
  152.3981  144.2556  161.1494 C   0  0  0  0  0  0  0  0  0  0  0  0
  152.2091  142.9114  160.7796 C   0  0  0  0  0  0  0  0  0  0  0  0
  151.5636  142.5390  159.6543 N   0  0  0  0  0  0  0  0  0  0  0  0
  150.0023  139.8683  155.0524 C   0  0  0  0  0  0  0  0  0  0  0  0
  150.9378  139.3551  154.4372 O   0  0  0  0  0  0  0  0  0  0  0  0
  149.3734  139.2198  156.0576 N   0  0  0  0  0  0  0  0  0  0  0  0
  148.2549  139.7269  156.8536 C   0  0  0  0  0  0  0  0  0  0  0  0
  147.7675  138.5424  157.6885 C   0  0  0  0  0  0  0  0  0  0  0  0
  148.9891  137.6429  157.8078 C   0  0  0  0  0  0  0  0  0  0  0  0
  149.7543  137.8812  156.5062 C   0  0  0  0  0  0  0  0  0  0  0  0
  148.0517  140.7035  153.1512 H   0  0  0  0  0  0  0  0  0  0  0  0
  147.8434  142.3422  153.7477 H   0  0  0  0  0  0  0  0  0  0  0  0
  147.3446  140.9712  154.7337 H   0  0  0  0  0  0  0  0  0  0  0  0
  150.1903  141.6245  153.8561 H   0  0  0  0  0  0  0  0  0  0  0  0
  149.0878  143.0461  155.7149 H   0  0  0  0  0  0  0  0  0  0  0  0
  149.6614  143.8784  157.3646 H   0  0  0  0  0  0  0  0  0  0  0  0
  150.8152  145.6221  158.4633 H   0  0  0  0  0  0  0  0  0  0  0  0
  152.0095  146.2988  160.5464 H   0  0  0  0  0  0  0  0  0  0  0  0
  152.9206  144.5124  162.0591 H   0  0  0  0  0  0  0  0  0  0  0  0
  152.5854  142.1143  161.4035 H   0  0  0  0  0  0  0  0  0  0  0  0
  148.6140  140.5255  157.5040 H   0  0  0  0  0  0  0  0  0  0  0  0
  147.4479  140.1237  156.2375 H   0  0  0  0  0  0  0  0  0  0  0  0
  147.3672  138.8436  158.6569 H   0  0  0  0  0  0  0  0  0  0  0  0
  146.9788  138.0155  157.1498 H   0  0  0  0  0  0  0  0  0  0  0  0
  149.5972  137.9645  158.6544 H   0  0  0  0  0  0  0  0  0  0  0  0
  148.7312  136.5947  157.9609 H   0  0  0  0  0  0  0  0  0  0  0  0
  149.4557  137.1560  155.7477 H   0  0  0  0  0  0  0  0  0  0  0  0
  150.8309  137.7883  156.6584 H   0  0  0  0  0  0  0  0  0  0  0  0
  1  2  1  0  0  0  0
  1 20  1  0  0  0  0
  1 21  1  0  0  0  0
  1 22  1  0  0  0  0
  2  3  1  0  0  0  0
  2 13  1  0  0  0  0
  2 23  1  0  0  0  0
  3  4  1  0  0  0  0
  3 24  1  0  0  0  0
  4  5  2  0  0  0  0
  4  6  1  0  0  0  0
  6  7  1  0  0  0  0
  6 25  1  0  0  0  0
  7 12  1  0  0  0  0
  7  8  2  0  0  0  0
  8  9  1  0  0  0  0
  8 26  1  0  0  0  0
  9 10  2  0  0  0  0
  9 27  1  0  0  0  0
 10 11  1  0  0  0  0
 10 28  1  0  0  0  0
 11 12  2  0  0  0  0
 11 29  1  0  0  0  0
 13 14  2  0  0  0  0
 13 15  1  0  0  0  0
 15 19  1  0  0  0  0
 15 16  1  0  0  0  0
 16 17  1  0  0  0  0
 16 30  1  0  0  0  0
 16 31  1  0  0  0  0
 17 18  1  0  0  0  0
 17 32  1  0  0  0  0
 17 33  1  0  0  0  0
 18 19  1  0  0  0  0
 18 34  1  0  0  0  0
 18 35  1  0  0  0  0
 19 36  1  0  0  0  0
 19 37  1  0  0  0  0
M  END
> <s_m_source_file>
AV-unprocessed.smi

> <i_m_source_file_index>
1612

> <i_lp_mmshare_version>
43012

> <i_f3d_flags>
0

> <s_epik_input>
W0NIMl0xW0NIMl1bQ0gyXVtDSDJdTjFDKD1PKVtDQEhdKFtDSDNdKVtOSF1DKD1PKVtOSF1jMltjSF1bY0hdW2NIXVtjSF1uMg==

> <s_epik_cmdline>
J2VwaWtfcHl0aG9uJywgJy1waCcsICc3LjAnLCAnLXRuJywgJzgnLCAnLW1hJywgJzIwMCcsICctbWV0YWxfYmluZGluZycsICctaW1hZScsICc8aW5maWxlLm1hZT4nLCAnLW9tYWUnLCAnPG91dGZpbGUubWFlPic=

> <r_lp_tautomer_probability>
1

> <r_epik_Ionization_Penalty>
3.95281e-05

> <r_epik_Ionization_Penalty_Charging>
0

> <r_epik_Ionization_Penalty_Neutral>
3.95281e-05

> <r_epik_State_Penalty>
-0

> <r_epik_Charging_Adjusted_Penalty>
0

> <i_epik_Tot_Q>
0

> <i_epik_Tot_abs_Q>
0

> <r_epik_Metal_State_Penalty>
-0

> <b_epik_Metal_Only>
0

> <s_lp_Force_Field>
OPLS_2005

> <r_lp_Energy>
35.1648

> <b_lp_Chiralities_Consistent>
1

> <s_lp_Variant>
AV-unprocessed.smi:1612-2

> <Gold.Version>
5.8.1

> <Gold.Id.Protein>
6NUR|6NUR_protein|mol2

> <Gold.PLP.Fitness>
40.5389

> <Gold.PLP.PLP>
-34.3729

> <Gold.PLP.part.hbond>
-3.0016

> <Gold.PLP.part.metal>
0.0000

> <Gold.PLP.part.buried>
-5.4806

> <Gold.PLP.part.nonpolar>
-25.5536

> <Gold.PLP.part.repulsive>
0.3330

> <Gold.PLP.ligand.clash>
1.1582

> <Gold.PLP.ligand.torsion>
0.5974

> <Gold.PLP.Chemscore.Hbond>
2.7920

> <Gold.PLP.Chemscore.CHOScore>
0.0000

> <Gold.PLP.Chemscore.Metal>
0.0000

> <Gold.Chemscore.Hbonds>
donor molecule, donor type, donor heavy atom, donor atom, acceptor molecule, acceptor atom, score
      L1  H     3    24       P1  8028  0.99
      L1  H     6    25       P1  8028  0.78
      P1  H  7989  7998       L1    14  1.00

> <Gold.PLP.Chemscore.Internal.Correction>
0.1430

> <Gold.Rescore>
     Score         DG    S(hbond)    S(metal)    S(lipo)     H(rot)  DE(clash)    DE(int)     intcor
     12.54     -16.44       1.90        0.00      67.86       1.30       0.08       3.82       ----

> <Gold.Chemscore.Fitness>
12.5441

> <Gold.Chemscore.DG>
-16.4378

> <Gold.Chemscore.ZeroCoef>
-5.4800

> <Gold.Chemscore.Hbond>
1.9012

> <Gold.Chemscore.Metal>
0.0000

> <Gold.Chemscore.Lipo>
67.8625

> <Gold.Chemscore.Internal_Hbond>
0.0000

> <Gold.Chemscore.DEClash>
0.0754

> <Gold.Chemscore.DEInternal>
3.8182

> <Gold.Chemscore.Rot>
1.3016

> <Gold.Chemscore.Internal.Correction>
   9.000000E+99

> <Gold.Chemscore.Hbonds>
donor molecule, donor type, donor heavy atom, donor atom, acceptor molecule, acceptor atom, score
      L1  H     3    24       P1  8028  0.94
      L1  H     6    25       P1  8028  0.44
      P1  H  7989  7998       L1    14  0.35

> <Gold.Chemscore.Hbond.Weighted>
-6.3500

> <Gold.Chemscore.Metal.Weighted>
-0.0000

> <Gold.Chemscore.Lipo.Weighted>
-7.9399

> <Gold.Chemscore.Internal_Hbond.Weighted>
0.0000

> <Gold.Chemscore.DEClash.Weighted>
0.0754

> <Gold.Chemscore.DEInternal.Weighted>
3.8182

> <Gold.Chemscore.Rot.Weighted>
3.3322

> <Gold.Chemscore.Internal.Correction.Weighted>
   9.000000E+99

> <Gold.Protein.RotatedTorsions>
[ 6907 6896 6895 6894 ] final -106.87 input  -60.11 | X-H torsion
[ 7974 7965 7964 7962 ] final -110.16 input  175.53 | X-H torsion
[ 8008 7997 7996 7995 ] final   99.48 input   59.86 | X-H torsion
[ 10167 10162 10161 10158 ] final   66.05 input  -65.29 | X-H torsion
[ 10718 10713 10712 10709 ] final -165.68 input   66.30 | X-H torsion
[ 10763 10752 10751 10750 ] final  -74.59 input  -60.55 | X-H torsion
[ 11005 11000 10999 10996 ] final   23.91 input  -57.11 | X-H torsion

> <Gold.Protein.ActiveResidues>
 VAL166  LYS551  ARG553  GLY616  TRP617  ASP618  TYR619  PRO620  LYS621  CYS622 
 ASP623  PHE694  ASN695  SER759  ASP760  ASP761  ALA762  ILE779  LEU786  VAL792 
 PHE793  MET794  SER795  GLU796  ALA797  LYS798  CYS799  TRP800  GLU811  SER814 

> <Gold.Protein.RotatedAtoms>
  150.7412  133.9912  159.3607 H   0  0  0  0  0  0  0  0  0  0  0  0  # atno 6907 bound_to 6896
  151.7860  135.0747  160.0390 H   0  0  0  0  0  0  0  0  0  0  0  0  # atno 6908 bound_to 6896
  152.3241  133.5849  159.5801 H   0  0  0  0  0  0  0  0  0  0  0  0  # atno 6909 bound_to 6896
  145.1717  140.8929  143.3531 H   0  0  0  0  0  0  0  0  0  0  0  0  # atno 7974 bound_to 7965
  156.1109  140.3228  155.8071 H   0  0  0  0  0  0  0  0  0  0  0  0  # atno 8008 bound_to 7997
  155.4674  140.0544  157.3001 H   0  0  0  0  0  0  0  0  0  0  0  0  # atno 8009 bound_to 7997
  154.4759  140.2032  155.9893 H   0  0  0  0  0  0  0  0  0  0  0  0  # atno 8010 bound_to 7997
  140.1047  144.4872  150.7015 H   0  0  0  0  0  0  0  0  0  0  0  0  # atno 10167 bound_to 10162
  156.6570  130.9030  151.3023 H   0  0  0  0  0  0  0  0  0  0  0  0  # atno 10718 bound_to 10713
  154.4751  135.5859  153.6349 H   0  0  0  0  0  0  0  0  0  0  0  0  # atno 10763 bound_to 10752
  152.9840  135.6076  154.3317 H   0  0  0  0  0  0  0  0  0  0  0  0  # atno 10764 bound_to 10752
  154.3203  135.2843  155.2502 H   0  0  0  0  0  0  0  0  0  0  0  0  # atno 10765 bound_to 10752
  140.3645  134.2090  155.7670 H   0  0  0  0  0  0  0  0  0  0  0  0  # atno 11005 bound_to 11000
  145.0226  139.3411  143.6065 LP  0  0  0  0  0  0  0  0  0  0  0  0  # atno 17320 bound_to 7965
  146.3467  139.9533  142.8726 LP  0  0  0  0  0  0  0  0  0  0  0  0  # atno 17321 bound_to 7965
  140.6959  143.2403  151.5003 LP  0  0  0  0  0  0  0  0  0  0  0  0  # atno 17342 bound_to 10162
  139.5652  144.2060  152.1754 LP  0  0  0  0  0  0  0  0  0  0  0  0  # atno 17343 bound_to 10162
  157.7122  130.9454  150.1129 LP  0  0  0  0  0  0  0  0  0  0  0  0  # atno 17370 bound_to 10713
  156.2040  130.3662  149.8752 LP  0  0  0  0  0  0  0  0  0  0  0  0  # atno 17371 bound_to 10713
  141.1974  133.8060  157.0630 LP  0  0  0  0  0  0  0  0  0  0  0  0  # atno 17394 bound_to 11000
  140.0600  134.9759  157.1289 LP  0  0  0  0  0  0  0  0  0  0  0  0  # atno 17395 bound_to 11000

$$$$
