AV-unprocessed.smi:7|AV-procd|sdf|44|dock9
  -GOLD-   2262015163D 1   1.00000     0.00000
 Structure written by MMmdl.
 45 48  0  0  0  0  0  0  0  0  1 V2000
  152.5655  136.7724  159.8905 O   0  0  0  0  0  0  0  0  0  0  0  0
  152.9188  137.8973  160.2459 C   0  0  0  0  0  0  0  0  0  0  0  0
  152.3344  139.1314  159.6715 C   0  0  0  0  0  0  0  0  0  0  0  0
  151.3676  139.3000  158.6810 N   0  0  0  0  0  0  0  0  0  0  0  0
  151.2636  140.6254  158.5925 C   0  0  0  0  0  0  0  0  0  0  0  0
  152.0752  141.2927  159.4342 N   0  0  0  0  0  0  0  0  0  0  0  0
  152.0732  142.7066  159.4693 C   0  0  0  0  0  0  0  0  0  0  0  0
  152.1305  143.3981  160.7005 C   0  0  0  0  0  0  0  0  0  0  0  0
  152.1232  144.8066  160.7226 C   0  0  0  0  0  0  0  0  0  0  0  0
  152.0571  145.5306  159.5166 C   0  0  0  0  0  0  0  0  0  0  0  0
  151.9972  144.8458  158.2877 C   0  0  0  0  0  0  0  0  0  0  0  0
  152.0043  143.4374  158.2636 C   0  0  0  0  0  0  0  0  0  0  0  0
  152.7787  140.3338  160.1491 C   0  0  0  0  0  0  0  0  0  0  0  0
  153.7246  140.5755  161.1192 N   0  0  0  0  0  0  0  0  0  0  0  0
  154.2274  139.4684  161.6005 C   0  0  0  0  0  0  0  0  0  0  0  0
  153.8736  138.1467  161.1905 N   0  0  0  0  0  0  0  0  0  0  0  0
  154.5820  137.0422  161.8539 C   0  0  0  0  0  0  0  0  0  0  0  0
  153.7019  136.3502  162.9264 C   0  0  1  0  0  0  0  0  0  0  0  0
  153.6790  134.9654  162.6333 O   0  0  0  0  0  0  0  0  0  0  0  0
  154.2162  136.5638  164.3767 C   0  0  0  0  0  0  0  0  0  0  0  0
  153.3055  135.9200  165.2527 O   0  0  0  0  0  0  0  0  0  0  0  0
  155.6034  135.9663  164.6648 C   0  0  0  0  0  0  0  0  0  0  0  0
  156.0851  136.6711  165.9376 C   0  0  0  0  0  0  0  0  0  0  0  0
  155.3832  138.0376  165.9618 C   0  0  0  0  0  0  0  0  0  0  0  0
  154.3584  138.0313  164.8172 C   0  0  0  0  0  0  0  0  0  0  0  0
  150.5797  141.1076  157.9088 H   0  0  0  0  0  0  0  0  0  0  0  0
  152.1744  142.8537  161.6326 H   0  0  0  0  0  0  0  0  0  0  0  0
  152.1664  145.3316  161.6655 H   0  0  0  0  0  0  0  0  0  0  0  0
  152.0513  146.6108  159.5341 H   0  0  0  0  0  0  0  0  0  0  0  0
  151.9463  145.4008  157.3624 H   0  0  0  0  0  0  0  0  0  0  0  0
  151.9615  142.9209  157.3161 H   0  0  0  0  0  0  0  0  0  0  0  0
  154.9839  139.4941  162.3869 H   0  0  0  0  0  0  0  0  0  0  0  0
  154.9551  136.3160  161.1285 H   0  0  0  0  0  0  0  0  0  0  0  0
  155.4929  137.4376  162.3062 H   0  0  0  0  0  0  0  0  0  0  0  0
  152.6754  136.7167  162.8689 H   0  0  0  0  0  0  0  0  0  0  0  0
  153.9885  134.8402  161.7488 H   0  0  0  0  0  0  0  0  0  0  0  0
  153.7593  135.2142  165.6872 H   0  0  0  0  0  0  0  0  0  0  0  0
  155.5895  134.8802  164.7656 H   0  0  0  0  0  0  0  0  0  0  0  0
  156.2981  136.2034  163.8585 H   0  0  0  0  0  0  0  0  0  0  0  0
  155.7875  136.0927  166.8132 H   0  0  0  0  0  0  0  0  0  0  0  0
  157.1712  136.7644  165.9646 H   0  0  0  0  0  0  0  0  0  0  0  0
  154.8885  138.1881  166.9219 H   0  0  0  0  0  0  0  0  0  0  0  0
  156.0966  138.8525  165.8339 H   0  0  0  0  0  0  0  0  0  0  0  0
  154.7527  138.6313  163.9963 H   0  0  0  0  0  0  0  0  0  0  0  0
  153.4082  138.4811  165.1086 H   0  0  0  0  0  0  0  0  0  0  0  0
  1  2  2  0  0  0  0
  2 16  1  0  0  0  0
  2  3  1  0  0  0  0
  3 13  2  0  0  0  0
  3  4  1  0  0  0  0
  4  5  2  0  0  0  0
  5  6  1  0  0  0  0
  5 26  1  0  0  0  0
  6  7  1  0  0  0  0
  6 13  1  0  0  0  0
  7 12  1  0  0  0  0
  7  8  2  0  0  0  0
  8  9  1  0  0  0  0
  8 27  1  0  0  0  0
  9 10  2  0  0  0  0
  9 28  1  0  0  0  0
 10 11  1  0  0  0  0
 10 29  1  0  0  0  0
 11 12  2  0  0  0  0
 11 30  1  0  0  0  0
 12 31  1  0  0  0  0
 13 14  1  0  0  0  0
 14 15  2  0  0  0  0
 15 16  1  0  0  0  0
 15 32  1  0  0  0  0
 16 17  1  0  0  0  0
 17 18  1  0  0  0  0
 17 33  1  0  0  0  0
 17 34  1  0  0  0  0
 18 19  1  0  0  0  0
 18 20  1  0  0  0  0
 18 35  1  0  0  0  0
 19 36  1  0  0  0  0
 20 25  1  0  0  0  0
 20 21  1  0  0  0  0
 20 22  1  0  0  0  0
 21 37  1  0  0  0  0
 22 23  1  0  0  0  0
 22 38  1  0  0  0  0
 22 39  1  0  0  0  0
 23 24  1  0  0  0  0
 23 40  1  0  0  0  0
 23 41  1  0  0  0  0
 24 25  1  0  0  0  0
 24 42  1  0  0  0  0
 24 43  1  0  0  0  0
 25 44  1  0  0  0  0
 25 45  1  0  0  0  0
M  END
> <s_m_source_file>
AV-unprocessed.smi

> <i_m_source_file_index>
7

> <i_lp_mmshare_version>
43012

> <i_f3d_flags>
0

> <s_epik_input>
W0NIMl0xW0NIMl1bQ0gyXVtDSDJdQzEoW09IXSlbQ0BASF0oW09IXSlbQ0gyXW4oYzI9TylbY0hdbmMoYzIzKW4oW2NIXW4zKS1jNFtjSF1bY0hdW2NIXVtjSF1bY0hdNA==

> <s_epik_cmdline>
J2VwaWtfcHl0aG9uJywgJy1waCcsICc3LjAnLCAnLXRuJywgJzgnLCAnLW1hJywgJzIwMCcsICctbWV0YWxfYmluZGluZycsICctaW1hZScsICc8aW5maWxlLm1hZT4nLCAnLW9tYWUnLCAnPG91dGZpbGUubWFlPic=

> <r_lp_tautomer_probability>
1

> <r_epik_Ionization_Penalty>
0.000116694

> <r_epik_Ionization_Penalty_Charging>
6.60428e-09

> <r_epik_Ionization_Penalty_Neutral>
0.000116688

> <r_epik_State_Penalty>
-0

> <r_epik_Charging_Adjusted_Penalty>
6.60428e-09

> <i_epik_Tot_Q>
0

> <i_epik_Tot_abs_Q>
0

> <r_epik_Metal_State_Penalty>
-0

> <b_epik_Metal_Only>
0

> <s_lp_Force_Field>
OPLS_2005

> <r_lp_Energy>
52.8935

> <b_lp_Chiralities_Consistent>
1

> <s_lp_Variant>
AV-unprocessed.smi:7-2

> <Gold.Version>
5.8.1

> <Gold.Id.Protein>
6NUR|6NUR_protein|mol2

> <Gold.PLP.Fitness>
49.4852

> <Gold.PLP.PLP>
-49.6831

> <Gold.PLP.part.hbond>
-2.0000

> <Gold.PLP.part.metal>
0.0000

> <Gold.PLP.part.buried>
-8.5730

> <Gold.PLP.part.nonpolar>
-39.9055

> <Gold.PLP.part.repulsive>
0.0000

> <Gold.PLP.ligand.clash>
0.0000

> <Gold.PLP.ligand.torsion>
1.6051

> <Gold.PLP.Chemscore.Hbond>
1.0000

> <Gold.PLP.Chemscore.CHOScore>
0.0000

> <Gold.PLP.Chemscore.Metal>
0.0000

> <Gold.Chemscore.Hbonds>
donor molecule, donor type, donor heavy atom, donor atom, acceptor molecule, acceptor atom, score
      P1  H  6896  6907       L1     1  1.00

> <Gold.PLP.Chemscore.Internal.Correction>
0.0123

> <Gold.Rescore>
     Score         DG    S(hbond)    S(metal)    S(lipo)     H(rot)  DE(clash)    DE(int)     intcor
     12.53     -15.43       1.00        0.00     117.53       2.79       1.53       1.37       ----

> <Gold.Chemscore.Fitness>
12.5288

> <Gold.Chemscore.DG>
-15.4272

> <Gold.Chemscore.ZeroCoef>
-5.4800

> <Gold.Chemscore.Hbond>
0.9966

> <Gold.Chemscore.Metal>
0.0000

> <Gold.Chemscore.Lipo>
117.5272

> <Gold.Chemscore.Internal_Hbond>
0.0000

> <Gold.Chemscore.DEClash>
1.5256

> <Gold.Chemscore.DEInternal>
1.3729

> <Gold.Chemscore.Rot>
2.7860

> <Gold.Chemscore.Internal.Correction>
   9.000000E+99

> <Gold.Chemscore.Hbonds>
donor molecule, donor type, donor heavy atom, donor atom, acceptor molecule, acceptor atom, score
      P1  H  6896  6907       L1     1  1.00

> <Gold.Chemscore.Hbond.Weighted>
-3.3287

> <Gold.Chemscore.Metal.Weighted>
-0.0000

> <Gold.Chemscore.Lipo.Weighted>
-13.7507

> <Gold.Chemscore.Internal_Hbond.Weighted>
0.0000

> <Gold.Chemscore.DEClash.Weighted>
1.5256

> <Gold.Chemscore.DEInternal.Weighted>
1.3729

> <Gold.Chemscore.Rot.Weighted>
7.1322

> <Gold.Chemscore.Internal.Correction.Weighted>
   9.000000E+99

> <Gold.Protein.RotatedTorsions>
[ 6907 6896 6895 6894 ] final   24.66 input  -60.11 | X-H torsion
[ 7974 7965 7964 7962 ] final  -72.40 input  175.53 | X-H torsion
[ 8008 7997 7996 7995 ] final  112.02 input   59.86 | X-H torsion
[ 10167 10162 10161 10158 ] final  -19.71 input  -65.29 | X-H torsion
[ 10718 10713 10712 10709 ] final   90.13 input   66.30 | X-H torsion
[ 10763 10752 10751 10750 ] final -175.19 input  -60.55 | X-H torsion
[ 11005 11000 10999 10996 ] final  111.78 input  -57.11 | X-H torsion

> <Gold.Protein.ActiveResidues>
 VAL166  LYS551  ARG553  GLY616  TRP617  ASP618  TYR619  PRO620  LYS621  CYS622 
 ASP623  PHE694  ASN695  SER759  ASP760  ASP761  ALA762  ILE779  LEU786  VAL792 
 PHE793  MET794  SER795  GLU796  ALA797  LYS798  CYS799  TRP800  GLU811  SER814 

> <Gold.Protein.RotatedAtoms>
  151.9609  135.0124  160.0547 H   0  0  0  0  0  0  0  0  0  0  0  0  # atno 6907 bound_to 6896
  152.1870  133.4742  159.4996 H   0  0  0  0  0  0  0  0  0  0  0  0  # atno 6908 bound_to 6896
  150.6928  134.1678  159.4244 H   0  0  0  0  0  0  0  0  0  0  0  0  # atno 6909 bound_to 6896
  145.6656  140.9238  143.0910 H   0  0  0  0  0  0  0  0  0  0  0  0  # atno 7974 bound_to 7965
  156.2164  140.3008  155.9849 H   0  0  0  0  0  0  0  0  0  0  0  0  # atno 8008 bound_to 7997
  155.2594  140.0429  157.3013 H   0  0  0  0  0  0  0  0  0  0  0  0  # atno 8009 bound_to 7997
  154.5774  140.2365  155.8111 H   0  0  0  0  0  0  0  0  0  0  0  0  # atno 8010 bound_to 7997
  140.7270  143.4792  151.0141 H   0  0  0  0  0  0  0  0  0  0  0  0  # atno 10167 bound_to 10162
  157.6958  131.0359  150.3530 H   0  0  0  0  0  0  0  0  0  0  0  0  # atno 10718 bound_to 10713
  154.5873  135.2842  155.0671 H   0  0  0  0  0  0  0  0  0  0  0  0  # atno 10763 bound_to 10752
  154.1985  135.6428  153.5084 H   0  0  0  0  0  0  0  0  0  0  0  0  # atno 10764 bound_to 10752
  153.0109  135.5463  154.6547 H   0  0  0  0  0  0  0  0  0  0  0  0  # atno 10765 bound_to 10752
  139.8912  134.9515  156.6485 H   0  0  0  0  0  0  0  0  0  0  0  0  # atno 11005 bound_to 11000
  144.7074  139.8506  143.7425 LP  0  0  0  0  0  0  0  0  0  0  0  0  # atno 17320 bound_to 7965
  146.1088  139.4091  143.0300 LP  0  0  0  0  0  0  0  0  0  0  0  0  # atno 17321 bound_to 7965
  139.8489  143.7464  152.3178 LP  0  0  0  0  0  0  0  0  0  0  0  0  # atno 17342 bound_to 10162
  139.7639  144.7498  151.0323 LP  0  0  0  0  0  0  0  0  0  0  0  0  # atno 17343 bound_to 10162
  156.3976  130.3909  149.6983 LP  0  0  0  0  0  0  0  0  0  0  0  0  # atno 17370 bound_to 10713
  156.4311  130.7816  151.2835 LP  0  0  0  0  0  0  0  0  0  0  0  0  # atno 17371 bound_to 10713
  140.7538  133.8874  155.8367 LP  0  0  0  0  0  0  0  0  0  0  0  0  # atno 17394 bound_to 11000
  140.9978  134.1191  157.4346 LP  0  0  0  0  0  0  0  0  0  0  0  0  # atno 17395 bound_to 11000

$$$$
