AV-unprocessed.smi:234|AV-procd|sdf|1796|dock1
  -GOLD-   2262020363D 1   1.00000     0.00000
 Structure written by MMmdl.
 59 62  0  0  0  0  0  0  0  0  1 V2000
  152.0874  144.4624  159.2685 C   0  0  0  0  0  0  0  0  0  0  0  0
  152.2104  143.7981  157.8954 C   0  0  0  0  0  0  0  0  0  0  0  0
  151.2490  142.7598  157.8027 O   0  0  0  0  0  0  0  0  0  0  0  0
  151.0565  142.2855  156.4747 C   0  0  1  0  0  0  0  0  0  0  0  0
  151.8932  141.0235  156.2598 C   0  0  0  0  0  0  0  0  0  0  0  0
  150.6742  140.2366  156.7515 C   0  0  2  0  0  0  0  0  0  0  0  0
  150.4789  138.9680  156.0407 N   0  0  0  0  0  0  0  0  0  0  0  0
  151.6374  138.0907  155.8993 C   0  0  0  0  0  0  0  0  0  0  0  0
  149.3587  138.2566  156.3196 C   0  0  0  0  0  0  0  0  0  0  0  0
  148.3571  138.1694  155.4047 N   0  0  0  0  0  0  0  0  0  0  0  0
  147.2488  137.4784  155.6858 C   0  0  0  0  0  0  0  0  0  0  0  0
  146.9368  136.8203  156.8040 N   0  0  0  0  0  0  0  0  0  0  0  0
  147.9309  136.9208  157.7323 C   0  0  0  0  0  0  0  0  0  0  0  0
  149.1645  137.6115  157.5714 C   0  0  0  0  0  0  0  0  0  0  0  0
  149.9348  137.4837  158.7202 N   0  0  0  0  0  0  0  0  0  0  0  0
  149.1959  136.7620  159.5178 C   0  0  0  0  0  0  0  0  0  0  0  0
  147.9687  136.3940  159.0122 N   0  0  0  0  0  0  0  0  0  0  0  0
  146.9527  135.6007  159.6881 C   0  0  0  0  0  0  0  0  0  0  0  0
  146.5334  136.1236  161.0901 C   0  0  1  0  0  0  0  0  0  0  0  0
  146.2094  137.4913  160.9203 O   0  0  0  0  0  0  0  0  0  0  0  0
  145.3400  135.3877  161.6959 C   0  0  0  0  0  0  0  0  0  0  0  0
  145.9638  134.3256  162.6067 C   0  0  0  0  0  0  0  0  0  0  0  0
  147.3585  134.6107  162.6656 O   0  0  0  0  0  0  0  0  0  0  0  0
  147.6111  135.9218  162.1750 C   0  0  2  0  0  0  0  0  0  0  0  0
  147.5449  136.8925  163.3708 C   0  0  0  0  0  0  0  0  0  0  0  0
  149.7808  141.4213  156.2757 C   0  0  0  0  0  0  0  0  0  0  0  0
  148.5765  141.7765  157.1527 C   0  0  0  0  0  0  0  0  0  0  0  0
  149.2681  141.3906  154.8259 C   0  0  0  0  0  0  0  0  0  0  0  0
  152.8118  145.2695  159.3775 H   0  0  0  0  0  0  0  0  0  0  0  0
  152.2644  143.7432  160.0687 H   0  0  0  0  0  0  0  0  0  0  0  0
  151.0921  144.8842  159.4109 H   0  0  0  0  0  0  0  0  0  0  0  0
  152.0572  144.5383  157.1100 H   0  0  0  0  0  0  0  0  0  0  0  0
  153.2135  143.3883  157.7685 H   0  0  0  0  0  0  0  0  0  0  0  0
  151.2304  143.0395  155.7048 H   0  0  0  0  0  0  0  0  0  0  0  0
  152.1393  140.8488  155.2110 H   0  0  0  0  0  0  0  0  0  0  0  0
  152.7745  140.9437  156.8970 H   0  0  0  0  0  0  0  0  0  0  0  0
  150.6831  140.1351  157.8384 H   0  0  0  0  0  0  0  0  0  0  0  0
  151.5356  137.1819  156.4950 H   0  0  0  0  0  0  0  0  0  0  0  0
  152.5553  138.5856  156.2165 H   0  0  0  0  0  0  0  0  0  0  0  0
  151.7584  137.8011  154.8555 H   0  0  0  0  0  0  0  0  0  0  0  0
  146.5053  137.4505  154.9030 H   0  0  0  0  0  0  0  0  0  0  0  0
  149.5253  136.4843  160.5085 H   0  0  0  0  0  0  0  0  0  0  0  0
  146.0802  135.5407  159.0360 H   0  0  0  0  0  0  0  0  0  0  0  0
  147.3341  134.5821  159.7728 H   0  0  0  0  0  0  0  0  0  0  0  0
  145.3200  137.5517  160.6070 H   0  0  0  0  0  0  0  0  0  0  0  0
  144.7445  136.0655  162.3099 H   0  0  0  0  0  0  0  0  0  0  0  0
  144.6689  134.9664  160.9476 H   0  0  0  0  0  0  0  0  0  0  0  0
  145.5299  134.3640  163.6063 H   0  0  0  0  0  0  0  0  0  0  0  0
  145.8164  133.3187  162.2159 H   0  0  0  0  0  0  0  0  0  0  0  0
  148.6139  135.9754  161.7520 H   0  0  0  0  0  0  0  0  0  0  0  0
  147.7671  137.9150  163.0650 H   0  0  0  0  0  0  0  0  0  0  0  0
  148.2767  136.6160  164.1299 H   0  0  0  0  0  0  0  0  0  0  0  0
  146.5630  136.8914  163.8442 H   0  0  0  0  0  0  0  0  0  0  0  0
  147.7463  141.0872  157.0003 H   0  0  0  0  0  0  0  0  0  0  0  0
  148.2041  142.7770  156.9332 H   0  0  0  0  0  0  0  0  0  0  0  0
  148.8275  141.7457  158.2132 H   0  0  0  0  0  0  0  0  0  0  0  0
  148.4461  140.6850  154.7018 H   0  0  0  0  0  0  0  0  0  0  0  0
  150.0468  141.1013  154.1201 H   0  0  0  0  0  0  0  0  0  0  0  0
  148.9035  142.3697  154.5137 H   0  0  0  0  0  0  0  0  0  0  0  0
  1  2  1  0  0  0  0
  1 29  1  0  0  0  0
  1 30  1  0  0  0  0
  1 31  1  0  0  0  0
  2  3  1  0  0  0  0
  2 32  1  0  0  0  0
  2 33  1  0  0  0  0
  3  4  1  0  0  0  0
  4 26  1  0  0  0  0
  4  5  1  0  0  0  0
  4 34  1  0  0  0  0
  5  6  1  0  0  0  0
  5 35  1  0  0  0  0
  5 36  1  0  0  0  0
  6  7  1  0  0  0  0
  6 26  1  0  0  0  0
  6 37  1  0  0  0  0
  7  8  1  0  0  0  0
  7  9  1  0  0  0  0
  8 38  1  0  0  0  0
  8 39  1  0  0  0  0
  8 40  1  0  0  0  0
  9 14  1  0  0  0  0
  9 10  2  0  0  0  0
 10 11  1  0  0  0  0
 11 12  2  0  0  0  0
 11 41  1  0  0  0  0
 12 13  1  0  0  0  0
 13 17  1  0  0  0  0
 13 14  2  0  0  0  0
 14 15  1  0  0  0  0
 15 16  2  0  0  0  0
 16 17  1  0  0  0  0
 16 42  1  0  0  0  0
 17 18  1  0  0  0  0
 18 19  1  0  0  0  0
 18 43  1  0  0  0  0
 18 44  1  0  0  0  0
 19 24  1  0  0  0  0
 19 20  1  0  0  0  0
 19 21  1  0  0  0  0
 20 45  1  0  0  0  0
 21 22  1  0  0  0  0
 21 46  1  0  0  0  0
 21 47  1  0  0  0  0
 22 23  1  0  0  0  0
 22 48  1  0  0  0  0
 22 49  1  0  0  0  0
 23 24  1  0  0  0  0
 24 25  1  0  0  0  0
 24 50  1  0  0  0  0
 25 51  1  0  0  0  0
 25 52  1  0  0  0  0
 25 53  1  0  0  0  0
 26 27  1  0  0  0  0
 26 28  1  0  0  0  0
 27 54  1  0  0  0  0
 27 55  1  0  0  0  0
 27 56  1  0  0  0  0
 28 57  1  0  0  0  0
 28 58  1  0  0  0  0
 28 59  1  0  0  0  0
M  END
> <s_m_source_file>
AV-unprocessed.smi

> <i_m_source_file_index>
234

> <i_lp_mmshare_version>
43012

> <i_f3d_flags>
0

> <s_epik_input>
W0NIM11bQ0gyXU9bQ0BASF0oQzEoW0NIM10pW0NIM10pW0NIMl1bQ0BIXTFOKFtDSDNdKWMobltjSF1uMiljKGMyMyluW2NIXW4zW0NIMl1bQ0BAXTQoW09IXSlbQ0gyXVtDSDJdT1tDQEhdNFtDSDNd

> <s_epik_cmdline>
J2VwaWtfcHl0aG9uJywgJy1waCcsICc3LjAnLCAnLXRuJywgJzgnLCAnLW1hJywgJzIwMCcsICctbWV0YWxfYmluZGluZycsICctaW1hZScsICc8aW5maWxlLm1hZT4nLCAnLW9tYWUnLCAnPG91dGZpbGUubWFlPic=

> <r_lp_tautomer_probability>
1

> <r_epik_Ionization_Penalty>
0.00349132

> <r_epik_Ionization_Penalty_Charging>
0

> <r_epik_Ionization_Penalty_Neutral>
0.00349132

> <r_epik_State_Penalty>
0.00242418

> <r_epik_Charging_Adjusted_Penalty>
0.00242418

> <i_epik_Tot_Q>
0

> <i_epik_Tot_abs_Q>
0

> <r_epik_Metal_State_Penalty>
-0

> <b_epik_Metal_Only>
0

> <s_lp_Force_Field>
OPLS_2005

> <r_lp_Energy>
50.3749

> <b_lp_Chiralities_Consistent>
1

> <s_lp_Variant>
AV-unprocessed.smi:234-12

> <Gold.Version>
5.8.1

> <Gold.Id.Protein>
6NUR|6NUR_protein|mol2

> <Gold.PLP.Fitness>
41.7041

> <Gold.PLP.PLP>
-39.6449

> <Gold.PLP.part.hbond>
-1.0000

> <Gold.PLP.part.metal>
0.0000

> <Gold.PLP.part.buried>
-7.3866

> <Gold.PLP.part.nonpolar>
-31.6996

> <Gold.PLP.part.repulsive>
0.1395

> <Gold.PLP.ligand.clash>
0.0000

> <Gold.PLP.ligand.torsion>
0.9514

> <Gold.PLP.Chemscore.Hbond>
1.0000

> <Gold.PLP.Chemscore.CHOScore>
0.0000

> <Gold.PLP.Chemscore.Metal>
0.0000

> <Gold.Chemscore.Hbonds>
donor molecule, donor type, donor heavy atom, donor atom, acceptor molecule, acceptor atom, score
      P1  H  6934  6947       L1    20  1.00

> <Gold.PLP.Chemscore.Internal.Correction>
0.9620

> <Gold.Rescore>
     Score         DG    S(hbond)    S(metal)    S(lipo)     H(rot)  DE(clash)    DE(int)     intcor
     13.74     -15.61       0.98        0.00     115.95       2.62       1.20       0.68       ----

> <Gold.Chemscore.Fitness>
13.7365

> <Gold.Chemscore.DG>
-15.6136

> <Gold.Chemscore.ZeroCoef>
-5.4800

> <Gold.Chemscore.Hbond>
0.9819

> <Gold.Chemscore.Metal>
0.0000

> <Gold.Chemscore.Lipo>
115.9510

> <Gold.Chemscore.Internal_Hbond>
0.0000

> <Gold.Chemscore.DEClash>
1.2013

> <Gold.Chemscore.DEInternal>
0.6759

> <Gold.Chemscore.Rot>
2.6219

> <Gold.Chemscore.Internal.Correction>
   9.000000E+99

> <Gold.Chemscore.Hbonds>
donor molecule, donor type, donor heavy atom, donor atom, acceptor molecule, acceptor atom, score
      P1  H  6934  6947       L1    20  0.93

> <Gold.Chemscore.Hbond.Weighted>
-3.2795

> <Gold.Chemscore.Metal.Weighted>
-0.0000

> <Gold.Chemscore.Lipo.Weighted>
-13.5663

> <Gold.Chemscore.Internal_Hbond.Weighted>
0.0000

> <Gold.Chemscore.DEClash.Weighted>
1.2013

> <Gold.Chemscore.DEInternal.Weighted>
0.6759

> <Gold.Chemscore.Rot.Weighted>
6.7121

> <Gold.Chemscore.Internal.Correction.Weighted>
   9.000000E+99

> <Gold.Protein.RotatedTorsions>
[ 6907 6896 6895 6894 ] final  142.06 input  -60.11 | X-H torsion
[ 7974 7965 7964 7962 ] final -121.02 input  175.53 | X-H torsion
[ 8008 7997 7996 7995 ] final  -17.84 input   59.86 | X-H torsion
[ 10167 10162 10161 10158 ] final  178.92 input  -65.29 | X-H torsion
[ 10718 10713 10712 10709 ] final -141.16 input   66.30 | X-H torsion
[ 10763 10752 10751 10750 ] final  152.44 input  -60.55 | X-H torsion
[ 11005 11000 10999 10996 ] final   29.26 input  -57.11 | X-H torsion

> <Gold.Protein.ActiveResidues>
 VAL166  LYS551  ARG553  GLY616  TRP617  ASP618  TYR619  PRO620  LYS621  CYS622 
 ASP623  PHE694  ASN695  SER759  ASP760  ASP761  ALA762  ILE779  LEU786  VAL792 
 PHE793  MET794  SER795  GLU796  ALA797  LYS798  CYS799  TRP800  GLU811  SER814 

> <Gold.Protein.RotatedAtoms>
  152.2233  133.5000  159.5174 H   0  0  0  0  0  0  0  0  0  0  0  0  # atno 6907 bound_to 6896
  150.7018  134.1313  159.4080 H   0  0  0  0  0  0  0  0  0  0  0  0  # atno 6908 bound_to 6896
  151.9234  135.0288  160.0574 H   0  0  0  0  0  0  0  0  0  0  0  0  # atno 6909 bound_to 6896
  145.0449  140.8174  143.4244 H   0  0  0  0  0  0  0  0  0  0  0  0  # atno 7974 bound_to 7965
  154.4949  140.2132  155.9468 H   0  0  0  0  0  0  0  0  0  0  0  0  # atno 8008 bound_to 7997
  156.1356  140.3189  155.8384 H   0  0  0  0  0  0  0  0  0  0  0  0  # atno 8009 bound_to 7997
  155.4215  140.0497  157.3016 H   0  0  0  0  0  0  0  0  0  0  0  0  # atno 8010 bound_to 7997
  139.5314  144.2622  152.0697 H   0  0  0  0  0  0  0  0  0  0  0  0  # atno 10167 bound_to 10162
  156.3308  130.7585  151.1702 H   0  0  0  0  0  0  0  0  0  0  0  0  # atno 10718 bound_to 10713
  154.1201  135.2833  155.3210 H   0  0  0  0  0  0  0  0  0  0  0  0  # atno 10763 bound_to 10752
  154.6429  135.5396  153.7813 H   0  0  0  0  0  0  0  0  0  0  0  0  # atno 10764 bound_to 10752
  153.0316  135.6491  154.1356 H   0  0  0  0  0  0  0  0  0  0  0  0  # atno 10765 bound_to 10752
  140.3068  134.2695  155.7742 H   0  0  0  0  0  0  0  0  0  0  0  0  # atno 11005 bound_to 11000
  145.1600  139.2464  143.5396 LP  0  0  0  0  0  0  0  0  0  0  0  0  # atno 17320 bound_to 7965
  146.3513  140.1325  142.8597 LP  0  0  0  0  0  0  0  0  0  0  0  0  # atno 17321 bound_to 7965
  140.2086  144.4585  150.6396 LP  0  0  0  0  0  0  0  0  0  0  0  0  # atno 17342 bound_to 10162
  140.6495  143.2221  151.6110 LP  0  0  0  0  0  0  0  0  0  0  0  0  # atno 17343 bound_to 10162
  157.7430  131.0482  150.4981 LP  0  0  0  0  0  0  0  0  0  0  0  0  # atno 17370 bound_to 10713
  156.5147  130.4147  149.6282 LP  0  0  0  0  0  0  0  0  0  0  0  0  # atno 17371 bound_to 10713
  141.2116  133.7682  156.9848 LP  0  0  0  0  0  0  0  0  0  0  0  0  # atno 17394 bound_to 11000
  140.1060  134.9506  157.1995 LP  0  0  0  0  0  0  0  0  0  0  0  0  # atno 17395 bound_to 11000

$$$$
