AV-unprocessed.smi:3324|AV-procd|sdf|12781|dock10
  -GOLD-   2272019123D 1   1.00000     0.00000
 Structure written by MMmdl.
 31 31  0  0  0  0  0  0  0  0  2 V2000
  145.9335  137.2256  154.0164 O   0  0  0  0  0  0  0  0  0  0  0  0
  145.7590  137.6612  152.8778 C   0  0  0  0  0  0  0  0  0  0  0  0
  146.5267  138.8891  152.3837 C   0  0  0  0  0  0  0  0  0  0  0  0
  147.9786  138.7840  152.6377 N   0  3  0  0  0  0  0  0  0  0  0  0
  148.3576  138.9687  154.0513 C   0  0  0  0  0  0  0  0  0  0  0  0
  148.8979  140.3851  154.2962 C   0  0  0  0  0  0  0  0  0  0  0  0
  150.1034  140.3688  155.1019 N   0  0  0  0  0  0  0  0  0  0  0  0
  150.3200  140.9430  156.3370 C   0  0  0  0  0  0  0  0  0  0  0  0
  151.6080  140.6630  156.6939 C   0  0  0  0  0  0  0  0  0  0  0  0
  152.1061  139.9049  155.5976 C   0  0  0  0  0  0  0  0  0  0  0  0
  151.2026  139.7306  154.6461 N   0  0  0  0  0  0  0  0  0  0  0  0
  144.9058  137.1102  152.0018 N   0  0  0  0  0  0  0  0  0  0  0  0
  144.0583  135.9514  152.2676 C   0  0  0  0  0  0  0  0  0  0  0  0
  144.4875  134.7236  151.4462 C   0  0  0  0  0  0  0  0  0  0  0  0
  144.3788  135.0061  150.1489 F   0  0  0  0  0  0  0  0  0  0  0  0
  145.7533  134.3960  151.7063 F   0  0  0  0  0  0  0  0  0  0  0  0
  143.6996  133.6851  151.7257 F   0  0  0  0  0  0  0  0  0  0  0  0
  146.3531  139.0098  151.3136 H   0  0  0  0  0  0  0  0  0  0  0  0
  146.1358  139.7773  152.8824 H   0  0  0  0  0  0  0  0  0  0  0  0
  148.2879  137.8703  152.3372 H   0  0  0  0  0  0  0  0  0  0  0  0
  147.4885  138.7863  154.6848 H   0  0  0  0  0  0  0  0  0  0  0  0
  149.1122  138.2266  154.3161 H   0  0  0  0  0  0  0  0  0  0  0  0
  149.1218  140.8793  153.3495 H   0  0  0  0  0  0  0  0  0  0  0  0
  148.1493  140.9955  154.8035 H   0  0  0  0  0  0  0  0  0  0  0  0
  149.5497  141.4964  156.8539 H   0  0  0  0  0  0  0  0  0  0  0  0
  152.1180  140.9561  157.5997 H   0  0  0  0  0  0  0  0  0  0  0  0
  153.0899  139.4791  155.4655 H   0  0  0  0  0  0  0  0  0  0  0  0
  144.8218  137.5310  151.0875 H   0  0  0  0  0  0  0  0  0  0  0  0
  144.1311  135.7228  153.3313 H   0  0  0  0  0  0  0  0  0  0  0  0
  143.0103  136.1891  152.0775 H   0  0  0  0  0  0  0  0  0  0  0  0
  148.4509  139.4807  152.0792 H   0  0  0  0  0  0  0  0  0  0  0  0
  1  2  2  0  0  0  0
  2  3  1  0  0  0  0
  2 12  1  0  0  0  0
  3  4  1  0  0  0  0
  3 18  1  0  0  0  0
  3 19  1  0  0  0  0
  4  5  1  0  0  0  0
  4 20  1  0  0  0  0
  4 31  1  0  0  0  0
  5  6  1  0  0  0  0
  5 21  1  0  0  0  0
  5 22  1  0  0  0  0
  6  7  1  0  0  0  0
  6 23  1  0  0  0  0
  6 24  1  0  0  0  0
  7 11  1  0  0  0  0
  7  8  1  0  0  0  0
  8  9  2  0  0  0  0
  8 25  1  0  0  0  0
  9 10  1  0  0  0  0
  9 26  1  0  0  0  0
 10 11  2  0  0  0  0
 10 27  1  0  0  0  0
 12 13  1  0  0  0  0
 12 28  1  0  0  0  0
 13 14  1  0  0  0  0
 13 29  1  0  0  0  0
 13 30  1  0  0  0  0
 14 15  1  0  0  0  0
 14 16  1  0  0  0  0
 14 17  1  0  0  0  0
M  CHG  1   4   1
M  END
> <s_m_source_file>
AV-unprocessed.smi

> <i_m_source_file_index>
3324

> <i_lp_mmshare_version>
43012

> <i_f3d_flags>
0

> <s_epik_input>
RkMoRikoRilbQ0gyXVtOSF1DKD1PKVtDSDJdW05IXVtDSDJdW0NIMl1uMVtjSF1bY0hdW2NIXW4x

> <s_epik_cmdline>
J2VwaWtfcHl0aG9uJywgJy1waCcsICc3LjAnLCAnLXRuJywgJzgnLCAnLW1hJywgJzIwMCcsICctbWV0YWxfYmluZGluZycsICctaW1hZScsICc8aW5maWxlLm1hZT4nLCAnLW9tYWUnLCAnPG91dGZpbGUubWFlPic=

> <r_lp_tautomer_probability>
1

> <r_epik_Ionization_Penalty>
0.310414

> <r_epik_Ionization_Penalty_Charging>
0.310394

> <r_epik_Ionization_Penalty_Neutral>
2.02819e-05

> <r_epik_State_Penalty>
0.304907

> <r_epik_Charging_Adjusted_Penalty>
0.6153

> <i_epik_Tot_Q>
1

> <i_epik_Tot_abs_Q>
1

> <r_epik_Metal_State_Penalty>
0.315528

> <b_epik_Metal_Only>
0

> <s_lp_Force_Field>
OPLS_2005

> <r_lp_Energy>
1.82642

> <b_lp_Chiralities_Consistent>
1

> <s_lp_Variant>
AV-unprocessed.smi:3324-1

> <Gold.Version>
5.8.1

> <Gold.Id.Protein>
6NUR|6NUR_protein|mol2

> <Gold.PLP.Fitness>
46.6035

> <Gold.PLP.PLP>
-33.2546

> <Gold.PLP.part.hbond>
-3.9593

> <Gold.PLP.part.metal>
0.0000

> <Gold.PLP.part.buried>
-2.9203

> <Gold.PLP.part.nonpolar>
-27.2357

> <Gold.PLP.part.repulsive>
0.2622

> <Gold.PLP.ligand.clash>
0.0000

> <Gold.PLP.ligand.torsion>
0.7946

> <Gold.PLP.Chemscore.Hbond>
4.9500

> <Gold.PLP.Chemscore.CHOScore>
0.0000

> <Gold.PLP.Chemscore.Metal>
0.0000

> <Gold.Chemscore.Hbonds>
donor molecule, donor type, donor heavy atom, donor atom, acceptor molecule, acceptor atom, score
      L1  H     4    20       P1  7948  2.00
      L1  H     4    31       P1  7957  1.00
      L1  H    12    28       P1 10171  1.00
      P1  H  7989  7998       L1    11  0.85

> <Gold.PLP.Chemscore.Internal.Correction>
0.0880

> <Gold.Rescore>
     Score         DG    S(hbond)    S(metal)    S(lipo)     H(rot)  DE(clash)    DE(int)     intcor
     13.96     -16.10       3.80        0.00      46.02       2.91       0.00       2.14       ----

> <Gold.Chemscore.Fitness>
13.9606

> <Gold.Chemscore.DG>
-16.1006

> <Gold.Chemscore.ZeroCoef>
-5.4800

> <Gold.Chemscore.Hbond>
3.7976

> <Gold.Chemscore.Metal>
0.0000

> <Gold.Chemscore.Lipo>
46.0159

> <Gold.Chemscore.Internal_Hbond>
0.0000

> <Gold.Chemscore.DEClash>
0.0045

> <Gold.Chemscore.DEInternal>
2.1355

> <Gold.Chemscore.Rot>
2.9091

> <Gold.Chemscore.Internal.Correction>
   9.000000E+99

> <Gold.Chemscore.Hbonds>
donor molecule, donor type, donor heavy atom, donor atom, acceptor molecule, acceptor atom, score
      L1  H     4    20       P1  7948  1.00
      L1  H     4    31       P1  7957  0.94
      L1  H    12    28       P1 10171  0.95
      P1  H  7989  7998       L1    11  0.06

> <Gold.Chemscore.Hbond.Weighted>
-12.6839

> <Gold.Chemscore.Metal.Weighted>
-0.0000

> <Gold.Chemscore.Lipo.Weighted>
-5.3839

> <Gold.Chemscore.Internal_Hbond.Weighted>
0.0000

> <Gold.Chemscore.DEClash.Weighted>
0.0045

> <Gold.Chemscore.DEInternal.Weighted>
2.1355

> <Gold.Chemscore.Rot.Weighted>
7.4472

> <Gold.Chemscore.Internal.Correction.Weighted>
   9.000000E+99

> <Gold.Protein.RotatedTorsions>
[ 6907 6896 6895 6894 ] final  -35.07 input  -60.11 | X-H torsion
[ 7974 7965 7964 7962 ] final -175.02 input  175.53 | X-H torsion
[ 8008 7997 7996 7995 ] final  112.36 input   59.86 | X-H torsion
[ 10167 10162 10161 10158 ] final   78.65 input  -65.29 | X-H torsion
[ 10718 10713 10712 10709 ] final  -49.44 input   66.30 | X-H torsion
[ 10763 10752 10751 10750 ] final  178.76 input  -60.55 | X-H torsion
[ 11005 11000 10999 10996 ] final   88.02 input  -57.11 | X-H torsion

> <Gold.Protein.ActiveResidues>
 VAL166  LYS551  ARG553  GLY616  TRP617  ASP618  TYR619  PRO620  LYS621  CYS622 
 ASP623  PHE694  ASN695  SER759  ASP760  ASP761  ALA762  ILE779  LEU786  VAL792 
 PHE793  MET794  SER795  GLU796  ALA797  LYS798  CYS799  TRP800  GLU811  SER814 

> <Gold.Protein.RotatedAtoms>
  151.0446  134.9631  159.8179 H   0  0  0  0  0  0  0  0  0  0  0  0  # atno 6907 bound_to 6896
  152.5370  134.2615  159.8947 H   0  0  0  0  0  0  0  0  0  0  0  0  # atno 6908 bound_to 6896
  151.2628  133.4251  159.2651 H   0  0  0  0  0  0  0  0  0  0  0  0  # atno 6909 bound_to 6896
  144.7129  140.1383  143.6393 H   0  0  0  0  0  0  0  0  0  0  0  0  # atno 7974 bound_to 7965
  156.2187  140.3001  155.9901 H   0  0  0  0  0  0  0  0  0  0  0  0  # atno 8008 bound_to 7997
  155.2538  140.0427  157.3007 H   0  0  0  0  0  0  0  0  0  0  0  0  # atno 8009 bound_to 7997
  154.5807  140.2374  155.8066 H   0  0  0  0  0  0  0  0  0  0  0  0  # atno 8010 bound_to 7997
  139.9687  144.5910  150.8005 H   0  0  0  0  0  0  0  0  0  0  0  0  # atno 10167 bound_to 10162
  156.1893  130.4152  149.9395 H   0  0  0  0  0  0  0  0  0  0  0  0  # atno 10718 bound_to 10713
  154.5118  135.2789  155.1336 H   0  0  0  0  0  0  0  0  0  0  0  0  # atno 10763 bound_to 10752
  154.2928  135.6263  153.5396 H   0  0  0  0  0  0  0  0  0  0  0  0  # atno 10764 bound_to 10752
  152.9920  135.5678  154.5586 H   0  0  0  0  0  0  0  0  0  0  0  0  # atno 10765 bound_to 10752
  139.8906  134.8460  156.2942 H   0  0  0  0  0  0  0  0  0  0  0  0  # atno 11005 bound_to 11000
  145.9225  139.2554  143.1373 LP  0  0  0  0  0  0  0  0  0  0  0  0  # atno 17320 bound_to 7965
  145.9606  140.8838  143.0213 LP  0  0  0  0  0  0  0  0  0  0  0  0  # atno 17321 bound_to 7965
  140.7529  143.2999  151.3108 LP  0  0  0  0  0  0  0  0  0  0  0  0  # atno 17342 bound_to 10162
  139.6498  144.0384  152.2618 LP  0  0  0  0  0  0  0  0  0  0  0  0  # atno 17343 bound_to 10162
  156.7140  130.8981  151.3612 LP  0  0  0  0  0  0  0  0  0  0  0  0  # atno 17370 bound_to 10713
  157.6919  130.9242  150.0536 LP  0  0  0  0  0  0  0  0  0  0  0  0  # atno 17371 bound_to 10713
  140.9956  133.7182  156.0881 LP  0  0  0  0  0  0  0  0  0  0  0  0  # atno 17394 bound_to 11000
  140.7567  134.3985  157.5532 LP  0  0  0  0  0  0  0  0  0  0  0  0  # atno 17395 bound_to 11000

$$$$
