#       Name:                AV-unprocessed.smi:690
#       Creating user name   scv26
#       Creation time:       Fri Mar 27 00:34:02 2020


#       File generated by GOLD software.
#

@<TRIPOS>MOLECULE
AV-unprocessed.smi:690
    52    54     1
SMALL
NO_CHARGES


@<TRIPOS>ATOM
      1 ****        -2.9366   3.3063   0.4301 C.3            1 S1                 0.0000
      2 ****        -1.4347   3.5833   0.3401 C.3            1 S1                 0.0000
      3 ****        -0.7358   2.4908   0.9123 O.3            1 S1                 0.0000
      4 ****         0.6747   2.5867   0.7602 C.3            1 S1                 0.0000
      5 ****         1.3654   1.6797   1.7839 C.3            1 S1                 0.0000
      6 ****         1.4197   0.5868   0.7119 C.3            1 S1                 0.0000
      7 ****         0.2582  -0.2978   0.8028 N.am           1 S1                 0.0000
      8 ****         0.2019  -1.5433   0.3114 C.2            1 S1                 0.0000
      9 ****         1.1373  -2.0753  -0.2877 O.2            1 S1                 0.0000
     10 ****        -1.1279  -2.2848   0.5038 C.3            1 S1                 0.0000
     11 ****        -0.9566  -3.7395   0.6505 N.am           1 S1                 0.0000
     12 ****        -1.1709  -4.5321  -0.4950 C.2            1 S1                 0.0000
     13 ****        -1.0351  -5.8675  -0.4697 C.2            1 S1                 0.0000
     14 ****        -0.6574  -6.4916   0.7762 C.2            1 S1                 0.0000
     15 ****        -0.4481  -5.7428   1.8771 C.2            1 S1                 0.0000
     16 ****        -0.5957  -4.2830   1.8542 C.2            1 S1                 0.0000
     17 ****        -0.4066  -3.5912   2.8553 O.2            1 S1                 0.0000
     18 ****         1.2672   1.6928  -0.3634 C.3            1 S1                 0.0000
     19 ****         2.5595   2.2158  -0.9901 C.3            1 S1                 0.0000
     20 ****         2.1591   3.0407  -2.2141 C.3            1 S1                 0.0000
     21 ****         0.8168   2.4660  -2.6717 C.3            1 S1                 0.0000
     22 ****         0.4322   1.4203  -1.6195 C.3            1 S1                 0.0000
     23 ****        -3.5115   4.1287   0.0040 H              1 S1                 0.0000
     24 ****        -3.2500   3.1798   1.4666 H              1 S1                 0.0000
     25 ****        -3.1983   2.3978  -0.1132 H              1 S1                 0.0000
     26 ****        -1.1455   3.7240  -0.7012 H              1 S1                 0.0000
     27 ****        -1.1889   4.5014   0.8754 H              1 S1                 0.0000
     28 ****         1.0533   3.6103   0.7868 H              1 S1                 0.0000
     29 ****         2.3563   2.0418   2.0617 H              1 S1                 0.0000
     30 ****         0.7700   1.4408   2.6663 H              1 S1                 0.0000
     31 ****         2.3799   0.0687   0.6841 H              1 S1                 0.0000
     32 ****        -0.5597   0.0708   1.2670 H              1 S1                 0.0000
     33 ****        -1.6545  -1.8807   1.3709 H              1 S1                 0.0000
     34 ****        -1.7676  -2.0563  -0.3496 H              1 S1                 0.0000
     35 ****        -1.4423  -3.9879  -1.3879 H              1 S1                 0.0000
     36 ****        -1.1993  -6.4591  -1.3583 H              1 S1                 0.0000
     37 ****        -0.5402  -7.5642   0.8255 H              1 S1                 0.0000
     38 ****        -0.1642  -6.2271   2.8000 H              1 S1                 0.0000
     39 ****         3.1578   2.8052  -0.2946 H              1 S1                 0.0000
     40 ****         3.1825   1.3786  -1.3082 H              1 S1                 0.0000
     41 ****         2.0327   4.0865  -1.9316 H              1 S1                 0.0000
     42 ****         2.9166   2.9999  -2.9974 H              1 S1                 0.0000
     43 ****         0.0689   3.2572  -2.7278 H              1 S1                 0.0000
     44 ****         0.8886   2.0143  -3.6616 H              1 S1                 0.0000
     45 ****         0.6704   0.4295  -2.0088 H              1 S1                 0.0000
     46 ****        -0.6407   1.4216  -1.4285 H              1 S1                 0.0000
     47 ****        -1.0465   1.6487   0.4714 LP             1 S1                 0.0000
     48 ****        -0.9484   2.4538   1.8888 LP             1 S1                 0.0000
     49 ****         1.9913  -1.5742  -0.4272 LP             1 S1                 0.0000
     50 ****         1.0427  -3.0085  -0.6346 LP             1 S1                 0.0000
     51 ****        -0.5159  -2.5985   2.8050 LP             1 S1                 0.0000
     52 ****        -0.1438  -4.0222   3.7186 LP             1 S1                 0.0000
@<TRIPOS>BOND
    1    1    2 1     
    2    1   23 1     
    3    1   24 1     
    4    1   25 1     
    5    2    3 1     
    6    2   26 1     
    7    2   27 1     
    8    3    4 1     
    9    4   18 1     
   10    4    5 1     
   11    4   28 1     
   12    5    6 1     
   13    5   29 1     
   14    5   30 1     
   15    6    7 1     
   16    6   18 1     
   17    6   31 1     
   18    7    8 am    
   19    7   32 1     
   20    8    9 2     
   21    8   10 1     
   22   10   11 1     
   23   10   33 1     
   24   10   34 1     
   25   11   16 am    
   26   11   12 1     
   27   12   13 2     
   28   12   35 1     
   29   13   14 1     
   30   13   36 1     
   31   14   15 2     
   32   14   37 1     
   33   15   16 1     
   34   15   38 1     
   35   16   17 2     
   36   18   22 1     
   37   18   19 1     
   38   19   20 1     
   39   19   39 1     
   40   19   40 1     
   41   20   21 1     
   42   20   41 1     
   43   20   42 1     
   44   21   22 1     
   45   21   43 1     
   46   21   44 1     
   47   22   45 1     
   48   22   46 1     
   49    3   47 1     
   50    3   48 1     
   51    9   49 1     
   52    9   50 1     
   53   17   51 1     
   54   17   52 1     
@<TRIPOS>SUBSTRUCTURE
      1 S1             1
@<TRIPOS>SET
LONE_PAIRS      STATIC     ATOMS    <user>   **** ""
6 47 48 49 50 51 52
DONOR_HYDROGENS      STATIC     ATOMS    <user>   **** ""
1 32
ATOM$BLUE        STATIC     ATOMS    COLORGROUP SYSTEM
6 47 48 49 50 51 52
ATOM$RED        STATIC     ATOMS    COLORGROUP SYSTEM
1 32
