AV-unprocessed.smi:1102|AV-procd|sdf|4768|dock2
  -GOLD-   22720 3303D 1   1.00000     0.00000
 Structure written by MMmdl.
 40 41  0  0  0  0  0  0  0  0  2 V2000
  145.9294  132.0990  150.5030 C   0  0  0  0  0  0  0  0  0  0  0  0
  146.4141  133.1268  151.4177 N   0  0  0  0  0  0  0  0  0  0  0  0
  147.7267  133.0007  152.0375 C   0  0  0  0  0  0  0  0  0  0  0  0
  145.6005  134.2415  151.7145 C   0  0  0  0  0  0  0  0  0  0  0  0
  144.2049  134.1468  151.9368 C   0  0  0  0  0  0  0  0  0  0  0  0
  143.4605  135.3080  152.2288 C   0  0  0  0  0  0  0  0  0  0  0  0
  144.1088  136.5583  152.3069 C   0  0  0  0  0  0  0  0  0  0  0  0
  143.3123  137.7012  152.5909 N   0  0  0  0  0  0  0  0  0  0  0  0
  142.2283  137.7950  153.3804 C   0  0  0  0  0  0  0  0  0  0  0  0
  141.7107  136.8613  153.9922 O   0  0  0  0  0  0  0  0  0  0  0  0
  141.7564  139.0494  153.4059 N   0  0  0  0  0  0  0  0  0  0  0  0
  140.5830  139.4981  154.1495 C   0  0  0  0  0  0  0  0  0  0  0  0
  139.2795  138.9393  153.5542 C   0  0  1  0  0  0  0  0  0  0  0  0
  139.0259  137.4551  153.8208 C   0  0  0  0  0  0  0  0  0  0  0  0
  137.5228  137.3767  153.6865 C   0  0  0  0  0  0  0  0  0  0  0  0
  137.0847  138.6900  154.3284 C   0  0  0  0  0  0  0  0  0  0  0  0
  138.1549  139.6088  154.1183 O   0  0  0  0  0  0  0  0  0  0  0  0
  145.5028  136.6030  152.0669 C   0  0  0  0  0  0  0  0  0  0  0  0
  146.1767  135.4660  151.7888 N   0  3  0  0  0  0  0  0  0  0  0  0
  145.0070  131.6558  150.8798 H   0  0  0  0  0  0  0  0  0  0  0  0
  146.6588  131.2979  150.3823 H   0  0  0  0  0  0  0  0  0  0  0  0
  145.7339  132.5237  149.5178 H   0  0  0  0  0  0  0  0  0  0  0  0
  147.6341  132.9373  153.1222 H   0  0  0  0  0  0  0  0  0  0  0  0
  148.3524  133.8586  151.7894 H   0  0  0  0  0  0  0  0  0  0  0  0
  148.2425  132.1039  151.6940 H   0  0  0  0  0  0  0  0  0  0  0  0
  143.6890  133.1995  151.8861 H   0  0  0  0  0  0  0  0  0  0  0  0
  142.3956  135.2335  152.3955 H   0  0  0  0  0  0  0  0  0  0  0  0
  143.5749  138.5446  152.1020 H   0  0  0  0  0  0  0  0  0  0  0  0
  142.2436  139.7515  152.8683 H   0  0  0  0  0  0  0  0  0  0  0  0
  140.6631  139.2399  155.2069 H   0  0  0  0  0  0  0  0  0  0  0  0
  140.5619  140.5870  154.1046 H   0  0  0  0  0  0  0  0  0  0  0  0
  139.2555  139.1185  152.4780 H   0  0  0  0  0  0  0  0  0  0  0  0
  139.5532  136.7997  153.1272 H   0  0  0  0  0  0  0  0  0  0  0  0
  139.3226  137.1894  154.8365 H   0  0  0  0  0  0  0  0  0  0  0  0
  137.2418  137.3600  152.6326 H   0  0  0  0  0  0  0  0  0  0  0  0
  137.0917  136.5000  154.1705 H   0  0  0  0  0  0  0  0  0  0  0  0
  136.1503  139.0642  153.9094 H   0  0  0  0  0  0  0  0  0  0  0  0
  136.9462  138.5615  155.4025 H   0  0  0  0  0  0  0  0  0  0  0  0
  146.1093  137.4957  152.0726 H   0  0  0  0  0  0  0  0  0  0  0  0
  147.1809  135.5353  151.6225 H   0  0  0  0  0  0  0  0  0  0  0  0
  1  2  1  0  0  0  0
  1 20  1  0  0  0  0
  1 21  1  0  0  0  0
  1 22  1  0  0  0  0
  2  3  1  0  0  0  0
  2  4  1  0  0  0  0
  3 23  1  0  0  0  0
  3 24  1  0  0  0  0
  3 25  1  0  0  0  0
  4 19  1  0  0  0  0
  4  5  2  0  0  0  0
  5  6  1  0  0  0  0
  5 26  1  0  0  0  0
  6  7  2  0  0  0  0
  6 27  1  0  0  0  0
  7  8  1  0  0  0  0
  7 18  1  0  0  0  0
  8  9  1  0  0  0  0
  8 28  1  0  0  0  0
  9 10  2  0  0  0  0
  9 11  1  0  0  0  0
 11 12  1  0  0  0  0
 11 29  1  0  0  0  0
 12 13  1  0  0  0  0
 12 30  1  0  0  0  0
 12 31  1  0  0  0  0
 13 17  1  0  0  0  0
 13 14  1  0  0  0  0
 13 32  1  0  0  0  0
 14 15  1  0  0  0  0
 14 33  1  0  0  0  0
 14 34  1  0  0  0  0
 15 16  1  0  0  0  0
 15 35  1  0  0  0  0
 15 36  1  0  0  0  0
 16 17  1  0  0  0  0
 16 37  1  0  0  0  0
 16 38  1  0  0  0  0
 18 19  2  0  0  0  0
 18 39  1  0  0  0  0
 19 40  1  0  0  0  0
M  CHG  1  19   1
M  END
> <s_m_source_file>
AV-unprocessed.smi

> <i_m_source_file_index>
1102

> <i_lp_mmshare_version>
43012

> <i_f3d_flags>
0

> <s_epik_input>
W0NIM11OKFtDSDNdKWMxW2NIXVtjSF1jKFtjSF1uMSlbTkhdQyg9TylbTkhdW0NIMl1bQ0BASF0yW0NIMl1bQ0gyXVtDSDJdTzI=

> <s_epik_cmdline>
J2VwaWtfcHl0aG9uJywgJy1waCcsICc3LjAnLCAnLXRuJywgJzgnLCAnLW1hJywgJzIwMCcsICctbWV0YWxfYmluZGluZycsICctaW1hZScsICc8aW5maWxlLm1hZT4nLCAnLW9tYWUnLCAnPG91dGZpbGUubWFlPic=

> <r_lp_tautomer_probability>
0.999994

> <r_epik_Ionization_Penalty>
0.265123

> <r_epik_Ionization_Penalty_Charging>
0.265104

> <r_epik_Ionization_Penalty_Neutral>
1.89079e-05

> <r_epik_State_Penalty>
0.257001

> <r_epik_Charging_Adjusted_Penalty>
0.522106

> <i_epik_Tot_Q>
1

> <i_epik_Tot_abs_Q>
1

> <r_epik_Metal_State_Penalty>
0.543599

> <b_epik_Metal_Only>
0

> <s_lp_Force_Field>
OPLS_2005

> <r_lp_Energy>
27.717

> <b_lp_Chiralities_Consistent>
1

> <s_lp_Variant>
AV-unprocessed.smi:1102-2

> <Gold.Version>
5.8.1

> <Gold.Id.Protein>
6NUR|6NUR_protein|mol2

> <Gold.PLP.Fitness>
42.6197

> <Gold.PLP.PLP>
-33.4084

> <Gold.PLP.part.hbond>
-4.2796

> <Gold.PLP.part.metal>
0.0000

> <Gold.PLP.part.buried>
-3.4985

> <Gold.PLP.part.nonpolar>
-25.5209

> <Gold.PLP.part.repulsive>
0.2106

> <Gold.PLP.ligand.clash>
0.0000

> <Gold.PLP.ligand.torsion>
1.0154

> <Gold.PLP.Chemscore.Hbond>
3.7440

> <Gold.PLP.Chemscore.CHOScore>
0.0000

> <Gold.PLP.Chemscore.Metal>
0.0000

> <Gold.Chemscore.Hbonds>
donor molecule, donor type, donor heavy atom, donor atom, acceptor molecule, acceptor atom, score
      L1  H     8    28       P1 10175  0.77
      L1  H    11    29       P1 10175  1.00
      L1  H    19    40       P1  7948  2.00

> <Gold.PLP.Chemscore.Internal.Correction>
0.0102

> <Gold.Rescore>
     Score         DG    S(hbond)    S(metal)    S(lipo)     H(rot)  DE(clash)    DE(int)     intcor
     16.34     -20.01       2.91        0.00      67.93       1.23       0.16       3.51       ----

> <Gold.Chemscore.Fitness>
16.3359

> <Gold.Chemscore.DG>
-20.0070

> <Gold.Chemscore.ZeroCoef>
-5.4800

> <Gold.Chemscore.Hbond>
2.9101

> <Gold.Chemscore.Metal>
0.0000

> <Gold.Chemscore.Lipo>
67.9304

> <Gold.Chemscore.Internal_Hbond>
0.0000

> <Gold.Chemscore.DEClash>
0.1618

> <Gold.Chemscore.DEInternal>
3.5093

> <Gold.Chemscore.Rot>
1.2268

> <Gold.Chemscore.Internal.Correction>
   9.000000E+99

> <Gold.Chemscore.Hbonds>
donor molecule, donor type, donor heavy atom, donor atom, acceptor molecule, acceptor atom, score
      L1  H     8    28       P1 10175  0.76
      L1  H    11    29       P1 10175  0.59
      L1  H    19    40       P1  7948  0.98

> <Gold.Chemscore.Hbond.Weighted>
-9.7197

> <Gold.Chemscore.Metal.Weighted>
-0.0000

> <Gold.Chemscore.Lipo.Weighted>
-7.9479

> <Gold.Chemscore.Internal_Hbond.Weighted>
0.0000

> <Gold.Chemscore.DEClash.Weighted>
0.1618

> <Gold.Chemscore.DEInternal.Weighted>
3.5093

> <Gold.Chemscore.Rot.Weighted>
3.1406

> <Gold.Chemscore.Internal.Correction.Weighted>
   9.000000E+99

> <Gold.Protein.RotatedTorsions>
[ 6907 6896 6895 6894 ] final -142.26 input  -60.11 | X-H torsion
[ 7974 7965 7964 7962 ] final  -74.98 input  175.53 | X-H torsion
[ 8008 7997 7996 7995 ] final  -36.86 input   59.86 | X-H torsion
[ 10167 10162 10161 10158 ] final   19.00 input  -65.29 | X-H torsion
[ 10718 10713 10712 10709 ] final   93.08 input   66.30 | X-H torsion
[ 10763 10752 10751 10750 ] final -169.38 input  -60.55 | X-H torsion
[ 11005 11000 10999 10996 ] final   17.74 input  -57.11 | X-H torsion

> <Gold.Protein.ActiveResidues>
 VAL166  LYS551  ARG553  GLY616  TRP617  ASP618  TYR619  PRO620  LYS621  CYS622 
 ASP623  PHE694  ASN695  SER759  ASP760  ASP761  ALA762  ILE779  LEU786  VAL792 
 PHE793  MET794  SER795  GLU796  ALA797  LYS798  CYS799  TRP800  GLU811  SER814 

> <Gold.Protein.RotatedAtoms>
  151.0847  133.5363  159.2618 H   0  0  0  0  0  0  0  0  0  0  0  0  # atno 6907 bound_to 6896
  151.2253  135.0533  159.8976 H   0  0  0  0  0  0  0  0  0  0  0  0  # atno 6908 bound_to 6896
  152.5427  134.0643  159.8219 H   0  0  0  0  0  0  0  0  0  0  0  0  # atno 6909 bound_to 6896
  145.6320  140.9335  143.1082 H   0  0  0  0  0  0  0  0  0  0  0  0  # atno 7974 bound_to 7965
  154.4064  140.1619  156.2443 H   0  0  0  0  0  0  0  0  0  0  0  0  # atno 8008 bound_to 7997
  155.9174  140.3423  155.6123 H   0  0  0  0  0  0  0  0  0  0  0  0  # atno 8009 bound_to 7997
  155.7263  140.0774  157.2299 H   0  0  0  0  0  0  0  0  0  0  0  0  # atno 8010 bound_to 7997
  140.5611  143.9335  150.6643 H   0  0  0  0  0  0  0  0  0  0  0  0  # atno 10167 bound_to 10162
  157.6956  131.0466  150.3979 H   0  0  0  0  0  0  0  0  0  0  0  0  # atno 10718 bound_to 10713
  154.6529  135.2914  154.9965 H   0  0  0  0  0  0  0  0  0  0  0  0  # atno 10763 bound_to 10752
  154.1051  135.6571  153.4879 H   0  0  0  0  0  0  0  0  0  0  0  0  # atno 10764 bound_to 10752
  153.0386  135.5252  154.7444 H   0  0  0  0  0  0  0  0  0  0  0  0  # atno 10765 bound_to 10752
  140.4326  134.1404  155.7682 H   0  0  0  0  0  0  0  0  0  0  0  0  # atno 11005 bound_to 11000
  144.7190  139.8095  143.7388 LP  0  0  0  0  0  0  0  0  0  0  0  0  # atno 17320 bound_to 7965
  146.1349  139.4393  143.0145 LP  0  0  0  0  0  0  0  0  0  0  0  0  # atno 17321 bound_to 7965
  140.2786  143.3405  152.1172 LP  0  0  0  0  0  0  0  0  0  0  0  0  # atno 17342 bound_to 10162
  139.5071  144.6825  151.5971 LP  0  0  0  0  0  0  0  0  0  0  0  0  # atno 17343 bound_to 10162
  156.4376  130.3985  149.6719 LP  0  0  0  0  0  0  0  0  0  0  0  0  # atno 17370 bound_to 10713
  156.3914  130.7629  151.2630 LP  0  0  0  0  0  0  0  0  0  0  0  0  # atno 17371 bound_to 10713
  141.1739  133.8553  157.1483 LP  0  0  0  0  0  0  0  0  0  0  0  0  # atno 17394 bound_to 11000
  140.0124  134.9982  157.0423 LP  0  0  0  0  0  0  0  0  0  0  0  0  # atno 17395 bound_to 11000

$$$$
