AV-unprocessed.smi:2210|AV-procd|sdf|8949|dock2
  -GOLD-   2272012163D 1   1.00000     0.00000
 Structure written by MMmdl.
 37 38  0  0  0  0  0  0  0  0  1 V2000
  153.2445  138.9032  157.9670 O   0  0  0  0  0  0  0  0  0  0  0  0
  152.3867  139.0958  158.8285 C   0  0  0  0  0  0  0  0  0  0  0  0
  152.6715  139.4719  160.0834 N   0  0  0  0  0  0  0  0  0  0  0  0
  154.0137  139.7075  160.6032 C   0  0  0  0  0  0  0  0  0  0  0  0
  154.6181  141.0065  160.0417 C   0  0  0  0  0  0  0  0  0  0  0  0
  153.6883  142.1996  160.1883 C   0  0  0  0  0  0  0  0  0  0  0  0
  153.1009  142.7804  159.1237 C   0  0  0  0  0  0  0  0  0  0  0  0
  152.1756  143.9813  159.2093 C   0  0  0  0  0  0  0  0  0  0  0  0
  152.2473  144.6800  160.5774 C   0  0  0  0  0  0  0  0  0  0  0  0
  152.2561  143.6577  161.7205 C   0  0  0  0  0  0  0  0  0  0  0  0
  153.4581  142.7028  161.6091 C   0  0  0  0  0  0  0  0  0  0  0  0
  151.0624  138.9451  158.6553 N   0  0  0  0  0  0  0  0  0  0  0  0
  150.3620  138.5632  157.4790 C   0  0  0  0  0  0  0  0  0  0  0  0
  149.1381  137.8507  157.4758 C   0  0  0  0  0  0  0  0  0  0  0  0
  148.5496  137.5167  156.2408 C   0  0  0  0  0  0  0  0  0  0  0  0
  149.2089  137.8987  155.0562 C   0  0  0  0  0  0  0  0  0  0  0  0
  150.3828  138.5643  155.0442 N   0  0  0  0  0  0  0  0  0  0  0  0
  150.9408  138.8813  156.2319 C   0  0  0  0  0  0  0  0  0  0  0  0
  151.9051  139.6006  160.7278 H   0  0  0  0  0  0  0  0  0  0  0  0
  153.9417  139.7615  161.6894 H   0  0  0  0  0  0  0  0  0  0  0  0
  154.6579  138.8563  160.3760 H   0  0  0  0  0  0  0  0  0  0  0  0
  155.5585  141.2232  160.5505 H   0  0  0  0  0  0  0  0  0  0  0  0
  154.8631  140.8828  158.9863 H   0  0  0  0  0  0  0  0  0  0  0  0
  153.2725  142.3853  158.1329 H   0  0  0  0  0  0  0  0  0  0  0  0
  152.4290  144.6878  158.4184 H   0  0  0  0  0  0  0  0  0  0  0  0
  151.1595  143.6374  159.0143 H   0  0  0  0  0  0  0  0  0  0  0  0
  153.1544  145.2835  160.6312 H   0  0  0  0  0  0  0  0  0  0  0  0
  151.4101  145.3697  160.6891 H   0  0  0  0  0  0  0  0  0  0  0  0
  152.2739  144.1664  162.6848 H   0  0  0  0  0  0  0  0  0  0  0  0
  151.3300  143.0821  161.6928 H   0  0  0  0  0  0  0  0  0  0  0  0
  153.3103  141.8543  162.2778 H   0  0  0  0  0  0  0  0  0  0  0  0
  154.3627  143.2133  161.9408 H   0  0  0  0  0  0  0  0  0  0  0  0
  150.4911  139.0610  159.4796 H   0  0  0  0  0  0  0  0  0  0  0  0
  148.6491  137.5434  158.3869 H   0  0  0  0  0  0  0  0  0  0  0  0
  147.6158  136.9754  156.2029 H   0  0  0  0  0  0  0  0  0  0  0  0
  148.7850  137.6570  154.0926 H   0  0  0  0  0  0  0  0  0  0  0  0
  151.8805  139.4122  156.1834 H   0  0  0  0  0  0  0  0  0  0  0  0
  1  2  2  0  0  0  0
  2  3  1  0  0  0  0
  2 12  1  0  0  0  0
  3  4  1  0  0  0  0
  3 19  1  0  0  0  0
  4  5  1  0  0  0  0
  4 20  1  0  0  0  0
  4 21  1  0  0  0  0
  5  6  1  0  0  0  0
  5 22  1  0  0  0  0
  5 23  1  0  0  0  0
  6 11  1  0  0  0  0
  6  7  2  0  0  0  0
  7  8  1  0  0  0  0
  7 24  1  0  0  0  0
  8  9  1  0  0  0  0
  8 25  1  0  0  0  0
  8 26  1  0  0  0  0
  9 10  1  0  0  0  0
  9 27  1  0  0  0  0
  9 28  1  0  0  0  0
 10 11  1  0  0  0  0
 10 29  1  0  0  0  0
 10 30  1  0  0  0  0
 11 31  1  0  0  0  0
 11 32  1  0  0  0  0
 12 13  1  0  0  0  0
 12 33  1  0  0  0  0
 13 18  1  0  0  0  0
 13 14  2  0  0  0  0
 14 15  1  0  0  0  0
 14 34  1  0  0  0  0
 15 16  2  0  0  0  0
 15 35  1  0  0  0  0
 16 17  1  0  0  0  0
 16 36  1  0  0  0  0
 17 18  2  0  0  0  0
 18 37  1  0  0  0  0
M  END
> <s_m_source_file>
AV-unprocessed.smi

> <i_m_source_file_index>
2210

> <i_lp_mmshare_version>
43012

> <i_f3d_flags>
0

> <s_epik_input>
W2NIXTFuW2NIXVtjSF1bY0hdYzFbTkhdQyg9TylbTkhdW0NIMl1bQ0gyXUMyPVtDSF1bQ0gyXVtDSDJdW0NIMl1bQ0gyXTI=

> <s_epik_cmdline>
J2VwaWtfcHl0aG9uJywgJy1waCcsICc3LjAnLCAnLXRuJywgJzgnLCAnLW1hJywgJzIwMCcsICctbWV0YWxfYmluZGluZycsICctaW1hZScsICc8aW5maWxlLm1hZT4nLCAnLW9tYWUnLCAnPG91dGZpbGUubWFlPic=

> <r_epik_Ionization_Penalty>
0.00482236

> <r_epik_Ionization_Penalty_Charging>
0

> <r_epik_Ionization_Penalty_Neutral>
0.00482236

> <r_epik_State_Penalty>
0.0034674

> <r_epik_Charging_Adjusted_Penalty>
0.0034674

> <i_epik_Tot_Q>
0

> <i_epik_Tot_abs_Q>
0

> <r_epik_Metal_State_Penalty>
-0

> <b_epik_Metal_Only>
0

> <s_lp_Force_Field>
OPLS_2005

> <r_lp_Energy>
10.3884

> <b_lp_Chiralities_Consistent>
1

> <s_lp_Variant>
AV-unprocessed.smi:2210-1

> <Gold.Version>
5.8.1

> <Gold.Id.Protein>
6NUR|6NUR_protein|mol2

> <Gold.PLP.Fitness>
47.4402

> <Gold.PLP.PLP>
-36.3584

> <Gold.PLP.part.hbond>
-1.7504

> <Gold.PLP.part.metal>
0.0000

> <Gold.PLP.part.buried>
-3.9257

> <Gold.PLP.part.nonpolar>
-31.5104

> <Gold.PLP.part.repulsive>
0.3232

> <Gold.PLP.ligand.clash>
0.0000

> <Gold.PLP.ligand.torsion>
0.3539

> <Gold.PLP.Chemscore.Hbond>
2.0000

> <Gold.PLP.Chemscore.CHOScore>
1.9286

> <Gold.PLP.Chemscore.Metal>
0.0000

> <Gold.Chemscore.Hbonds>
donor molecule, donor type, donor heavy atom, donor atom, acceptor molecule, acceptor atom, score
      P1  H  7997  8010       L1     1  0.91
      L1  C    16    36       P1  7948  0.73

> <Gold.PLP.Chemscore.Internal.Correction>
0.0038

> <Gold.Rescore>
     Score         DG    S(hbond)    S(metal)    S(lipo)     H(rot)  DE(clash)    DE(int)     intcor
     18.25     -20.12       1.54        0.00     111.28       1.37       0.05       1.82       ----

> <Gold.Chemscore.Fitness>
18.2534

> <Gold.Chemscore.DG>
-20.1193

> <Gold.Chemscore.ZeroCoef>
-5.4800

> <Gold.Chemscore.Hbond>
1.5385

> <Gold.Chemscore.Metal>
0.0000

> <Gold.Chemscore.Lipo>
111.2805

> <Gold.Chemscore.Internal_Hbond>
0.0000

> <Gold.Chemscore.DEClash>
0.0503

> <Gold.Chemscore.DEInternal>
1.8156

> <Gold.Chemscore.Rot>
1.3747

> <Gold.Chemscore.Internal.Correction>
   9.000000E+99

> <Gold.Chemscore.Hbonds>
donor molecule, donor type, donor heavy atom, donor atom, acceptor molecule, acceptor atom, score
      P1  H  7997  8010       L1     1  0.84

> <Gold.Chemscore.Hbond.Weighted>
-5.1387

> <Gold.Chemscore.Metal.Weighted>
-0.0000

> <Gold.Chemscore.Lipo.Weighted>
-13.0198

> <Gold.Chemscore.Internal_Hbond.Weighted>
0.0000

> <Gold.Chemscore.DEClash.Weighted>
0.0503

> <Gold.Chemscore.DEInternal.Weighted>
1.8156

> <Gold.Chemscore.Rot.Weighted>
3.5192

> <Gold.Chemscore.Internal.Correction.Weighted>
   9.000000E+99

> <Gold.Protein.RotatedTorsions>
[ 6907 6896 6895 6894 ] final  -93.12 input  -60.11 | X-H torsion
[ 7974 7965 7964 7962 ] final   77.97 input  175.53 | X-H torsion
[ 8008 7997 7996 7995 ] final   17.08 input   59.86 | X-H torsion
[ 10167 10162 10161 10158 ] final  -41.97 input  -65.29 | X-H torsion
[ 10718 10713 10712 10709 ] final   -2.40 input   66.30 | X-H torsion
[ 10763 10752 10751 10750 ] final  122.82 input  -60.55 | X-H torsion
[ 11005 11000 10999 10996 ] final   17.43 input  -57.11 | X-H torsion

> <Gold.Protein.ActiveResidues>
 VAL166  LYS551  ARG553  GLY616  TRP617  ASP618  TYR619  PRO620  LYS621  CYS622 
 ASP623  PHE694  ASN695  SER759  ASP760  ASP761  ALA762  ILE779  LEU786  VAL792 
 PHE793  MET794  SER795  GLU796  ALA797  LYS798  CYS799  TRP800  GLU811  SER814 

> <Gold.Protein.RotatedAtoms>
  150.6917  134.2017  159.4324 H   0  0  0  0  0  0  0  0  0  0  0  0  # atno 6907 bound_to 6896
  151.9983  134.9940  160.0573 H   0  0  0  0  0  0  0  0  0  0  0  0  # atno 6908 bound_to 6896
  152.1603  133.4542  159.4894 H   0  0  0  0  0  0  0  0  0  0  0  0  # atno 6909 bound_to 6896
  145.6832  139.2530  143.1802 H   0  0  0  0  0  0  0  0  0  0  0  0  # atno 7974 bound_to 7965
  154.8862  140.2980  155.5397 H   0  0  0  0  0  0  0  0  0  0  0  0  # atno 8008 bound_to 7997
  156.3021  140.2433  156.3806 H   0  0  0  0  0  0  0  0  0  0  0  0  # atno 8009 bound_to 7997
  154.8666  140.0403  157.1687 H   0  0  0  0  0  0  0  0  0  0  0  0  # atno 8010 bound_to 7997
  140.6985  143.3064  151.3143 H   0  0  0  0  0  0  0  0  0  0  0  0  # atno 10167 bound_to 10162
  156.7913  130.5362  149.5735 H   0  0  0  0  0  0  0  0  0  0  0  0  # atno 10718 bound_to 10713
  153.6357  135.3388  155.3056 H   0  0  0  0  0  0  0  0  0  0  0  0  # atno 10763 bound_to 10752
  154.8570  135.4306  154.2058 H   0  0  0  0  0  0  0  0  0  0  0  0  # atno 10764 bound_to 10752
  153.2964  135.7021  153.7317 H   0  0  0  0  0  0  0  0  0  0  0  0  # atno 10765 bound_to 10752
  140.4360  134.1371  155.7685 H   0  0  0  0  0  0  0  0  0  0  0  0  # atno 11005 bound_to 11000
  146.0946  140.7615  142.9578 LP  0  0  0  0  0  0  0  0  0  0  0  0  # atno 17320 bound_to 7965
  144.7019  140.3691  143.7149 LP  0  0  0  0  0  0  0  0  0  0  0  0  # atno 17321 bound_to 7965
  139.6471  144.0431  152.2599 LP  0  0  0  0  0  0  0  0  0  0  0  0  # atno 17342 bound_to 10162
  139.9955  144.6331  150.7776 LP  0  0  0  0  0  0  0  0  0  0  0  0  # atno 17343 bound_to 10162
  156.1157  130.6073  151.0117 LP  0  0  0  0  0  0  0  0  0  0  0  0  # atno 17370 bound_to 10713
  157.6599  131.0882  150.7862 LP  0  0  0  0  0  0  0  0  0  0  0  0  # atno 17371 bound_to 10713
  141.1726  133.8579  157.1524 LP  0  0  0  0  0  0  0  0  0  0  0  0  # atno 17394 bound_to 11000
  140.0102  134.9991  157.0379 LP  0  0  0  0  0  0  0  0  0  0  0  0  # atno 17395 bound_to 11000

$$$$
