AV-unprocessed.smi:2866|AV-procd|sdf|11020|dock9
  -GOLD-   2272015483D 1   1.00000     0.00000
 Structure written by MMmdl.
 41 43  0  0  0  0  0  0  0  0  1 V2000
  153.6887  142.2541  161.9754 C   0  0  0  0  0  0  0  0  0  0  0  0
  153.0330  142.0616  160.6194 C   0  0  0  0  0  0  0  0  0  0  0  0
  153.2916  140.8773  159.8933 C   0  0  0  0  0  0  0  0  0  0  0  0
  152.6968  140.6569  158.6317 C   0  0  0  0  0  0  0  0  0  0  0  0
  152.8029  139.5841  157.7629 N   0  0  0  0  0  0  0  0  0  0  0  0
  152.0125  139.9684  156.7648 C   0  0  0  0  0  0  0  0  0  0  0  0
  151.4065  141.1653  156.8838 N   0  0  0  0  0  0  0  0  0  0  0  0
  150.5046  141.7841  155.9289 C   0  0  0  0  0  0  0  0  0  0  0  0
  149.0329  141.3822  156.1641 C   0  0  1  0  0  0  0  0  0  0  0  0
  148.3660  142.3960  156.8899 O   0  0  0  0  0  0  0  0  0  0  0  0
  148.2474  141.1302  154.8618 C   0  0  0  0  0  0  0  0  0  0  0  0
  147.0681  141.9684  154.7389 N   0  0  0  0  0  0  0  0  0  0  0  0
  146.7204  142.8132  153.7073 C   0  0  0  0  0  0  0  0  0  0  0  0
  145.5344  143.3986  154.0453 C   0  0  0  0  0  0  0  0  0  0  0  0
  145.2282  142.8499  155.3246 C   0  0  0  0  0  0  0  0  0  0  0  0
  144.0334  143.1268  156.1988 C   0  0  0  0  0  0  0  0  0  0  0  0
  143.2057  143.9789  155.5940 F   0  0  0  0  0  0  0  0  0  0  0  0
  143.3774  141.9926  156.4434 F   0  0  0  0  0  0  0  0  0  0  0  0
  144.4282  143.6595  157.3552 F   0  0  0  0  0  0  0  0  0  0  0  0
  146.1564  141.9957  155.7343 N   0  0  0  0  0  0  0  0  0  0  0  0
  151.8319  141.6631  158.1107 C   0  0  0  0  0  0  0  0  0  0  0  0
  151.5692  142.8469  158.8223 C   0  0  0  0  0  0  0  0  0  0  0  0
  152.1689  143.0498  160.0829 C   0  0  0  0  0  0  0  0  0  0  0  0
  151.8736  144.3288  160.8462 C   0  0  0  0  0  0  0  0  0  0  0  0
  154.3284  141.4090  162.2315 H   0  0  0  0  0  0  0  0  0  0  0  0
  152.9323  142.3496  162.7547 H   0  0  0  0  0  0  0  0  0  0  0  0
  154.3055  143.1530  161.9785 H   0  0  0  0  0  0  0  0  0  0  0  0
  153.9491  140.1238  160.3014 H   0  0  0  0  0  0  0  0  0  0  0  0
  151.8624  139.3430  155.8967 H   0  0  0  0  0  0  0  0  0  0  0  0
  150.6206  142.8669  155.9890 H   0  0  0  0  0  0  0  0  0  0  0  0
  150.8270  141.4935  154.9284 H   0  0  0  0  0  0  0  0  0  0  0  0
  149.0071  140.4777  156.7732 H   0  0  0  0  0  0  0  0  0  0  0  0
  148.7107  143.2338  156.6196 H   0  0  0  0  0  0  0  0  0  0  0  0
  148.8842  141.3089  153.9940 H   0  0  0  0  0  0  0  0  0  0  0  0
  147.9332  140.0868  154.8087 H   0  0  0  0  0  0  0  0  0  0  0  0
  147.3375  142.9252  152.8279 H   0  0  0  0  0  0  0  0  0  0  0  0
  144.9697  144.1145  153.4665 H   0  0  0  0  0  0  0  0  0  0  0  0
  150.9075  143.5903  158.4027 H   0  0  0  0  0  0  0  0  0  0  0  0
  151.1924  144.9750  160.2918 H   0  0  0  0  0  0  0  0  0  0  0  0
  152.7922  144.8878  161.0265 H   0  0  0  0  0  0  0  0  0  0  0  0
  151.4115  144.1020  161.8072 H   0  0  0  0  0  0  0  0  0  0  0  0
  1  2  1  0  0  0  0
  1 25  1  0  0  0  0
  1 26  1  0  0  0  0
  1 27  1  0  0  0  0
  2 23  1  0  0  0  0
  2  3  2  0  0  0  0
  3  4  1  0  0  0  0
  3 28  1  0  0  0  0
  4 21  2  0  0  0  0
  4  5  1  0  0  0  0
  5  6  2  0  0  0  0
  6  7  1  0  0  0  0
  6 29  1  0  0  0  0
  7  8  1  0  0  0  0
  7 21  1  0  0  0  0
  8  9  1  0  0  0  0
  8 30  1  0  0  0  0
  8 31  1  0  0  0  0
  9 10  1  0  0  0  0
  9 11  1  0  0  0  0
  9 32  1  0  0  0  0
 10 33  1  0  0  0  0
 11 12  1  0  0  0  0
 11 34  1  0  0  0  0
 11 35  1  0  0  0  0
 12 20  1  0  0  0  0
 12 13  1  0  0  0  0
 13 14  2  0  0  0  0
 13 36  1  0  0  0  0
 14 15  1  0  0  0  0
 14 37  1  0  0  0  0
 15 16  1  0  0  0  0
 15 20  2  0  0  0  0
 16 17  1  0  0  0  0
 16 18  1  0  0  0  0
 16 19  1  0  0  0  0
 21 22  1  0  0  0  0
 22 23  2  0  0  0  0
 22 38  1  0  0  0  0
 23 24  1  0  0  0  0
 24 39  1  0  0  0  0
 24 40  1  0  0  0  0
 24 41  1  0  0  0  0
M  END
> <s_m_source_file>
AV-unprocessed.smi

> <i_m_source_file_index>
2866

> <i_lp_mmshare_version>
43012

> <i_f3d_flags>
0

> <s_epik_input>
W0NIM11jKFtjSF0xKWMoW0NIM10pW2NIXWMoYzEyKW4oW2NIXW4yKVtDSDJdW0NASF0oW09IXSlbQ0gyXW4zW2NIXVtjSF1jKG4zKUMoRikoRilG

> <s_epik_cmdline>
J2VwaWtfcHl0aG9uJywgJy1waCcsICc3LjAnLCAnLXRuJywgJzgnLCAnLW1hJywgJzIwMCcsICctbWV0YWxfYmluZGluZycsICctaW1hZScsICc8aW5maWxlLm1hZT4nLCAnLW9tYWUnLCAnPG91dGZpbGUubWFlPic=

> <r_lp_tautomer_probability>
1

> <r_epik_Ionization_Penalty>
0.1021

> <r_epik_Ionization_Penalty_Charging>
0

> <r_epik_Ionization_Penalty_Neutral>
0.1021

> <r_epik_State_Penalty>
0.0920694

> <r_epik_Charging_Adjusted_Penalty>
0.0920694

> <i_epik_Tot_Q>
0

> <i_epik_Tot_abs_Q>
0

> <r_epik_Metal_State_Penalty>
0.0784291

> <b_epik_Metal_Only>
0

> <s_lp_Force_Field>
OPLS_2005

> <r_lp_Energy>
10.7654

> <b_lp_Chiralities_Consistent>
1

> <s_lp_Variant>
AV-unprocessed.smi:2866-2

> <Gold.Version>
5.8.1

> <Gold.Id.Protein>
6NUR|6NUR_protein|mol2

> <Gold.PLP.Fitness>
50.8928

> <Gold.PLP.PLP>
-48.4391

> <Gold.PLP.part.hbond>
-2.0000

> <Gold.PLP.part.metal>
0.0000

> <Gold.PLP.part.buried>
-6.5305

> <Gold.PLP.part.nonpolar>
-39.9940

> <Gold.PLP.part.repulsive>
0.1159

> <Gold.PLP.ligand.clash>
0.0000

> <Gold.PLP.ligand.torsion>
1.7142

> <Gold.PLP.Chemscore.Hbond>
1.9500

> <Gold.PLP.Chemscore.CHOScore>
0.0000

> <Gold.PLP.Chemscore.Metal>
0.0000

> <Gold.Chemscore.Hbonds>
donor molecule, donor type, donor heavy atom, donor atom, acceptor molecule, acceptor atom, score
      L1  H    10    33       P1  8028  1.00
      P1  H  7997  8010       L1     5  0.75

> <Gold.PLP.Chemscore.Internal.Correction>
0.0321

> <Gold.Rescore>
     Score         DG    S(hbond)    S(metal)    S(lipo)     H(rot)  DE(clash)    DE(int)     intcor
     12.45     -15.95       0.88        0.00     117.32       2.42       0.09       3.41       ----

> <Gold.Chemscore.Fitness>
12.4502

> <Gold.Chemscore.DG>
-15.9502

> <Gold.Chemscore.ZeroCoef>
-5.4800

> <Gold.Chemscore.Hbond>
0.8832

> <Gold.Chemscore.Metal>
0.0000

> <Gold.Chemscore.Lipo>
117.3205

> <Gold.Chemscore.Internal_Hbond>
0.0000

> <Gold.Chemscore.DEClash>
0.0854

> <Gold.Chemscore.DEInternal>
3.4146

> <Gold.Chemscore.Rot>
2.4243

> <Gold.Chemscore.Internal.Correction>
   9.000000E+99

> <Gold.Chemscore.Hbonds>
donor molecule, donor type, donor heavy atom, donor atom, acceptor molecule, acceptor atom, score
      L1  H    10    33       P1  8028  0.81
      P1  H  7997  8010       L1     5  0.02

> <Gold.Chemscore.Hbond.Weighted>
-2.9499

> <Gold.Chemscore.Metal.Weighted>
-0.0000

> <Gold.Chemscore.Lipo.Weighted>
-13.7265

> <Gold.Chemscore.Internal_Hbond.Weighted>
0.0000

> <Gold.Chemscore.DEClash.Weighted>
0.0854

> <Gold.Chemscore.DEInternal.Weighted>
3.4146

> <Gold.Chemscore.Rot.Weighted>
6.2063

> <Gold.Chemscore.Internal.Correction.Weighted>
   9.000000E+99

> <Gold.Protein.RotatedTorsions>
[ 6907 6896 6895 6894 ] final   89.20 input  -60.11 | X-H torsion
[ 7974 7965 7964 7962 ] final -139.39 input  175.53 | X-H torsion
[ 8008 7997 7996 7995 ] final   46.73 input   59.86 | X-H torsion
[ 10167 10162 10161 10158 ] final  -18.62 input  -65.29 | X-H torsion
[ 10718 10713 10712 10709 ] final   21.97 input   66.30 | X-H torsion
[ 10763 10752 10751 10750 ] final -125.89 input  -60.55 | X-H torsion
[ 11005 11000 10999 10996 ] final -146.59 input  -57.11 | X-H torsion

> <Gold.Protein.ActiveResidues>
 VAL166  LYS551  ARG553  GLY616  TRP617  ASP618  TYR619  PRO620  LYS621  CYS622 
 ASP623  PHE694  ASN695  SER759  ASP760  ASP761  ALA762  ILE779  LEU786  VAL792 
 PHE793  MET794  SER795  GLU796  ALA797  LYS798  CYS799  TRP800  GLU811  SER814 

> <Gold.Protein.RotatedAtoms>
  152.5434  134.2003  159.8709 H   0  0  0  0  0  0  0  0  0  0  0  0  # atno 6907 bound_to 6896
  151.1992  133.4614  159.2603 H   0  0  0  0  0  0  0  0  0  0  0  0  # atno 6908 bound_to 6896
  151.1006  134.9982  159.8502 H   0  0  0  0  0  0  0  0  0  0  0  0  # atno 6909 bound_to 6896
  144.8681  140.6325  143.5285 H   0  0  0  0  0  0  0  0  0  0  0  0  # atno 7974 bound_to 7965
  155.3574  140.3417  155.4240 H   0  0  0  0  0  0  0  0  0  0  0  0  # atno 8008 bound_to 7997
  156.1732  140.1638  156.8445 H   0  0  0  0  0  0  0  0  0  0  0  0  # atno 8009 bound_to 7997
  154.5254  140.0757  156.8232 H   0  0  0  0  0  0  0  0  0  0  0  0  # atno 8010 bound_to 7997
  140.7260  143.4899  151.0006 H   0  0  0  0  0  0  0  0  0  0  0  0  # atno 10167 bound_to 10162
  157.1458  130.6653  149.5996 H   0  0  0  0  0  0  0  0  0  0  0  0  # atno 10718 bound_to 10713
  154.8740  135.4014  154.3342 H   0  0  0  0  0  0  0  0  0  0  0  0  # atno 10763 bound_to 10752
  153.4151  135.7022  153.6338 H   0  0  0  0  0  0  0  0  0  0  0  0  # atno 10764 bound_to 10752
  153.5024  135.3725  155.2516 H   0  0  0  0  0  0  0  0  0  0  0  0  # atno 10765 bound_to 10752
  140.7804  134.3086  157.5047 H   0  0  0  0  0  0  0  0  0  0  0  0  # atno 11005 bound_to 11000
  145.4183  139.1568  143.4088 LP  0  0  0  0  0  0  0  0  0  0  0  0  # atno 17320 bound_to 7965
  146.2910  140.4291  142.8739 LP  0  0  0  0  0  0  0  0  0  0  0  0  # atno 17321 bound_to 7965
  139.8602  143.7324  152.3174 LP  0  0  0  0  0  0  0  0  0  0  0  0  # atno 17342 bound_to 10162
  139.7537  144.7527  151.0468 LP  0  0  0  0  0  0  0  0  0  0  0  0  # atno 17343 bound_to 10162
  155.9780  130.4761  150.6626 LP  0  0  0  0  0  0  0  0  0  0  0  0  # atno 17370 bound_to 10713
  157.4265  131.0844  151.1080 LP  0  0  0  0  0  0  0  0  0  0  0  0  # atno 17371 bound_to 10713
  139.8743  134.9315  156.3529 LP  0  0  0  0  0  0  0  0  0  0  0  0  # atno 17394 bound_to 11000
  140.9488  133.7465  156.0244 LP  0  0  0  0  0  0  0  0  0  0  0  0  # atno 17395 bound_to 11000

$$$$
