#       Name:                AV-unprocessed.smi:2597
#       Creating user name   scv26
#       Creation time:       Fri Mar 27 14:19:06 2020


#       File generated by GOLD software.
#

@<TRIPOS>MOLECULE
AV-unprocessed.smi:2597
    35    36     1
SMALL
NO_CHARGES


@<TRIPOS>ATOM
      1 ****        -0.6795   0.5059   2.3994 N.3            1 S1                 0.0000
      2 ****        -1.4455  -0.0370   1.2911 C.3            1 S1                 0.0000
      3 ****        -1.4767  -1.5769   1.3687 C.3            1 S1                 0.0000
      4 ****        -2.2686  -2.1733   0.1941 C.3            1 S1                 0.0000
      5 ****        -1.7308  -1.6879  -1.1615 C.3            1 S1                 0.0000
      6 ****        -1.7121  -0.1499  -1.2401 C.3            1 S1                 0.0000
      7 ****        -0.9445   0.5128  -0.0739 C.3            1 S1                 0.0000
      8 ****         0.5064   0.4617  -0.2720 N.pl3          1 S1                 0.0000
      9 ****         1.3346   1.5029  -0.6419 C.2            1 S1                 0.0000
     10 ****         2.5716   0.9286  -0.7097 C.2            1 S1                 0.0000
     11 ****         3.8889   1.5515  -1.0552 C.3            1 S1                 0.0000
     12 ****         4.2949   2.2922   0.0754 O.3            1 S1                 0.0000
     13 ****         2.4518  -0.4229  -0.3951 N.2            1 S1                 0.0000
     14 ****         1.2103  -0.6910  -0.1404 N.2            1 S1                 0.0000
     15 ****        -2.4697   0.3132   1.4257 H              1 S1                 0.0000
     16 ****        -1.2027   1.5727  -0.0953 H              1 S1                 0.0000
     17 ****        -0.7322   1.5145   2.3913 H              1 S1                 0.0000
     18 ****        -1.0805   0.2007   3.2746 H              1 S1                 0.0000
     19 ****        -0.4688  -1.9903   1.3808 H              1 S1                 0.0000
     20 ****        -1.9367  -1.8897   2.3069 H              1 S1                 0.0000
     21 ****        -2.2345  -3.2622   0.2387 H              1 S1                 0.0000
     22 ****        -3.3190  -1.8942   0.2872 H              1 S1                 0.0000
     23 ****        -0.7317  -2.0891  -1.3284 H              1 S1                 0.0000
     24 ****        -2.3506  -2.0868  -1.9649 H              1 S1                 0.0000
     25 ****        -1.2958   0.1704  -2.1960 H              1 S1                 0.0000
     26 ****        -2.7423   0.2082  -1.2280 H              1 S1                 0.0000
     27 ****         0.9903   2.5119  -0.8122 H              1 S1                 0.0000
     28 ****         4.6420   0.7989  -1.2919 H              1 S1                 0.0000
     29 ****         3.7995   2.2159  -1.9152 H              1 S1                 0.0000
     30 ****         5.1317   2.6891  -0.1110 H              1 S1                 0.0000
     31 ****         0.2660   0.1936   2.3068 LP             1 S1                 0.0000
     32 ****         4.3783   1.6841   0.8649 LP             1 S1                 0.0000
     33 ****         3.6205   3.0037   0.2725 LP             1 S1                 0.0000
     34 ****         3.2041  -1.0812  -0.3699 LP             1 S1                 0.0000
     35 ****         0.8381  -1.5853   0.1081 LP             1 S1                 0.0000
@<TRIPOS>BOND
    1    1    2 1     
    2    1   17 1     
    3    1   18 1     
    4    2   15 1     
    5    2    7 1     
    6    2    3 1     
    7    3    4 1     
    8    3   19 1     
    9    3   20 1     
   10    4    5 1     
   11    4   21 1     
   12    4   22 1     
   13    5    6 1     
   14    5   23 1     
   15    5   24 1     
   16    6    7 1     
   17    6   25 1     
   18    6   26 1     
   19    7   16 1     
   20    7    8 1     
   21    8   14 1     
   22    8    9 1     
   23    9   10 2     
   24    9   27 1     
   25   10   11 1     
   26   10   13 1     
   27   11   12 1     
   28   11   28 1     
   29   11   29 1     
   30   12   30 1     
   31   13   14 2     
   32    1   31 1     
   33   12   32 1     
   34   12   33 1     
   35   13   34 1     
   36   14   35 1     
@<TRIPOS>SUBSTRUCTURE
      1 S1             1
@<TRIPOS>SET
LONE_PAIRS      STATIC     ATOMS    <user>   **** ""
5 31 32 33 34 35
DONOR_HYDROGENS      STATIC     ATOMS    <user>   **** ""
3 17 18 30
ATOM$BLUE        STATIC     ATOMS    COLORGROUP SYSTEM
5 31 32 33 34 35
ATOM$RED        STATIC     ATOMS    COLORGROUP SYSTEM
3 17 18 30
