AV-unprocessed.smi:2093|AV-procd|sdf|8550|dock2
  -GOLD-   2272011273D 1   1.00000     0.00000
 Structure written by MMmdl.
 30 31  0  0  0  0  0  0  0  0  2 V2000
  153.7458  141.6621  160.8127 C   0  0  0  0  0  0  0  0  0  0  0  0
  152.6290  141.9158  159.7897 C   0  0  2  0  0  0  0  0  0  0  0  0
  152.9113  141.1363  158.5845 N   0  0  0  0  0  0  0  0  0  0  0  0
  152.0302  140.7554  157.6474 C   0  0  0  0  0  0  0  0  0  0  0  0
  150.8402  141.0604  157.7548 O   0  0  0  0  0  0  0  0  0  0  0  0
  152.5867  140.0492  156.6370 N   0  5  0  0  0  0  0  0  0  0  0  0
  151.8037  139.4212  155.7444 C   0  0  0  0  0  0  0  0  0  0  0  0
  151.0518  140.0718  154.8490 N   0  0  0  0  0  0  0  0  0  0  0  0
  150.3111  139.2229  154.0249 C   0  0  0  0  0  0  0  0  0  0  0  0
  150.4964  137.8950  154.3047 C   0  0  0  0  0  0  0  0  0  0  0  0
  151.6144  137.6699  155.6196 S   0  0  0  0  0  0  0  0  0  0  0  0
  152.4981  143.4142  159.4444 C   0  0  1  0  0  0  0  0  0  0  0  0
  151.3890  143.7557  158.4468 C   0  0  0  0  0  0  0  0  0  0  0  0
  151.1348  145.2118  158.7592 C   0  0  0  0  0  0  0  0  0  0  0  0
  151.2777  145.2334  160.2779 C   0  0  0  0  0  0  0  0  0  0  0  0
  152.1733  144.1740  160.6073 O   0  0  0  0  0  0  0  0  0  0  0  0
  153.5562  142.1950  161.7446 H   0  0  0  0  0  0  0  0  0  0  0  0
  154.7143  141.9893  160.4330 H   0  0  0  0  0  0  0  0  0  0  0  0
  153.8231  140.6011  161.0530 H   0  0  0  0  0  0  0  0  0  0  0  0
  151.6930  141.5811  160.2396 H   0  0  0  0  0  0  0  0  0  0  0  0
  153.8718  140.8594  158.4439 H   0  0  0  0  0  0  0  0  0  0  0  0
  149.6746  139.6512  153.2651 H   0  0  0  0  0  0  0  0  0  0  0  0
  150.0458  137.0407  153.8226 H   0  0  0  0  0  0  0  0  0  0  0  0
  153.4464  143.7924  159.0582 H   0  0  0  0  0  0  0  0  0  0  0  0
  151.6799  143.5856  157.4097 H   0  0  0  0  0  0  0  0  0  0  0  0
  150.4923  143.1687  158.6516 H   0  0  0  0  0  0  0  0  0  0  0  0
  151.9050  145.8319  158.2988 H   0  0  0  0  0  0  0  0  0  0  0  0
  150.1611  145.5624  158.4161 H   0  0  0  0  0  0  0  0  0  0  0  0
  151.6441  146.1924  160.6441 H   0  0  0  0  0  0  0  0  0  0  0  0
  150.3174  145.0334  160.7545 H   0  0  0  0  0  0  0  0  0  0  0  0
  1  2  1  0  0  0  0
  1 17  1  0  0  0  0
  1 18  1  0  0  0  0
  1 19  1  0  0  0  0
  2  3  1  0  0  0  0
  2 12  1  0  0  0  0
  2 20  1  0  0  0  0
  3  4  1  0  0  0  0
  3 21  1  0  0  0  0
  4  5  2  0  0  0  0
  4  6  1  0  0  0  0
  6  7  1  0  0  0  0
  7 11  1  0  0  0  0
  7  8  2  0  0  0  0
  8  9  1  0  0  0  0
  9 10  2  0  0  0  0
  9 22  1  0  0  0  0
 10 11  1  0  0  0  0
 10 23  1  0  0  0  0
 12 16  1  0  0  0  0
 12 13  1  0  0  0  0
 12 24  1  0  0  0  0
 13 14  1  0  0  0  0
 13 25  1  0  0  0  0
 13 26  1  0  0  0  0
 14 15  1  0  0  0  0
 14 27  1  0  0  0  0
 14 28  1  0  0  0  0
 15 16  1  0  0  0  0
 15 29  1  0  0  0  0
 15 30  1  0  0  0  0
M  CHG  1   6  -1
M  END
> <s_m_source_file>
AV-unprocessed.smi

> <i_m_source_file_index>
2093

> <i_lp_mmshare_version>
43012

> <i_f3d_flags>
0

> <s_epik_input>
TzFbQ0gyXVtDSDJdW0NIMl1bQ0BIXTFbQ0BIXShbQ0gzXSlbTkhdQyg9TylbTkhdYzJuW2NIXVtjSF1zMg==

> <s_epik_cmdline>
J2VwaWtfcHl0aG9uJywgJy1waCcsICc3LjAnLCAnLXRuJywgJzgnLCAnLW1hJywgJzIwMCcsICctbWV0YWxfYmluZGluZycsICctaW1hZScsICc8aW5maWxlLm1hZT4nLCAnLW9tYWUnLCAnPG91dGZpbGUubWFlPic=

> <r_lp_tautomer_probability>
0.999

> <r_epik_Ionization_Penalty>
8.26346

> <r_epik_Ionization_Penalty_Charging>
6.6559

> <r_epik_Ionization_Penalty_Neutral>
1.60756

> <r_epik_State_Penalty>
6.65607

> <r_epik_Charging_Adjusted_Penalty>
13.312

> <i_epik_Tot_Q>
-1

> <i_epik_Tot_abs_Q>
1

> <r_epik_Metal_State_Penalty>
2.5789

> <b_epik_Metal_Only>
1

> <s_lp_Force_Field>
OPLS_2005

> <r_lp_Energy>
13.8452

> <b_lp_Chiralities_Consistent>
1

> <s_lp_Variant>
AV-unprocessed.smi:2093-7

> <Gold.Version>
5.8.1

> <Gold.Id.Protein>
6NUR|6NUR_protein|mol2

> <Gold.PLP.Fitness>
48.1404

> <Gold.PLP.PLP>
-35.7961

> <Gold.PLP.part.hbond>
-2.0000

> <Gold.PLP.part.metal>
0.0000

> <Gold.PLP.part.buried>
-4.3380

> <Gold.PLP.part.nonpolar>
-29.8522

> <Gold.PLP.part.repulsive>
0.2340

> <Gold.PLP.ligand.clash>
0.0000

> <Gold.PLP.ligand.torsion>
0.9734

> <Gold.PLP.Chemscore.Hbond>
2.7500

> <Gold.PLP.Chemscore.CHOScore>
2.0071

> <Gold.PLP.Chemscore.Metal>
0.0000

> <Gold.Chemscore.Hbonds>
donor molecule, donor type, donor heavy atom, donor atom, acceptor molecule, acceptor atom, score
      P1  H  7989  7998       L1     8  0.50
      P1  H  7997  8008       L1     6  1.92
      L1  C     9    22       P1  7957  1.00
      L1  C    10    23       P1  7948  1.00
      L1  C    10    23       P1  7949  0.03

> <Gold.PLP.Chemscore.Internal.Correction>
0.0198

> <Gold.Rescore>
     Score         DG    S(hbond)    S(metal)    S(lipo)     H(rot)  DE(clash)    DE(int)     intcor
     15.37     -16.59       1.28        0.00      86.44       1.28       0.09       1.12       ----

> <Gold.Chemscore.Fitness>
15.3717

> <Gold.Chemscore.DG>
-16.5880

> <Gold.Chemscore.ZeroCoef>
-5.4800

> <Gold.Chemscore.Hbond>
1.2771

> <Gold.Chemscore.Metal>
0.0000

> <Gold.Chemscore.Lipo>
86.4413

> <Gold.Chemscore.Internal_Hbond>
0.0000

> <Gold.Chemscore.DEClash>
0.0920

> <Gold.Chemscore.DEInternal>
1.1243

> <Gold.Chemscore.Rot>
1.2778

> <Gold.Chemscore.Internal.Correction>
   9.000000E+99

> <Gold.Chemscore.Hbonds>
donor molecule, donor type, donor heavy atom, donor atom, acceptor molecule, acceptor atom, score
      P1  H  7989  7998       L1     8  0.02
      P1  H  7997  8008       L1     6  0.76

> <Gold.Chemscore.Hbond.Weighted>
-4.2655

> <Gold.Chemscore.Metal.Weighted>
-0.0000

> <Gold.Chemscore.Lipo.Weighted>
-10.1136

> <Gold.Chemscore.Internal_Hbond.Weighted>
0.0000

> <Gold.Chemscore.DEClash.Weighted>
0.0920

> <Gold.Chemscore.DEInternal.Weighted>
1.1243

> <Gold.Chemscore.Rot.Weighted>
3.2711

> <Gold.Chemscore.Internal.Correction.Weighted>
   9.000000E+99

> <Gold.Protein.RotatedTorsions>
[ 6907 6896 6895 6894 ] final -108.77 input  -60.11 | X-H torsion
[ 7974 7965 7964 7962 ] final   74.45 input  175.53 | X-H torsion
[ 8008 7997 7996 7995 ] final  -66.16 input   59.86 | X-H torsion
[ 10167 10162 10161 10158 ] final  -95.41 input  -65.29 | X-H torsion
[ 10718 10713 10712 10709 ] final   59.65 input   66.30 | X-H torsion
[ 10763 10752 10751 10750 ] final   55.03 input  -60.55 | X-H torsion
[ 11005 11000 10999 10996 ] final   85.85 input  -57.11 | X-H torsion

> <Gold.Protein.ActiveResidues>
 VAL166  LYS551  ARG553  GLY616  TRP617  ASP618  TYR619  PRO620  LYS621  CYS622 
 ASP623  PHE694  ASN695  SER759  ASP760  ASP761  ALA762  ILE779  LEU786  VAL792 
 PHE793  MET794  SER795  GLU796  ALA797  LYS798  CYS799  TRP800  GLU811  SER814 

> <Gold.Protein.RotatedAtoms>
  150.7522  133.9628  159.3520 H   0  0  0  0  0  0  0  0  0  0  0  0  # atno 6907 bound_to 6896
  151.7555  135.0820  160.0347 H   0  0  0  0  0  0  0  0  0  0  0  0  # atno 6908 bound_to 6896
  152.3438  133.6061  159.5931 H   0  0  0  0  0  0  0  0  0  0  0  0  # atno 6909 bound_to 6896
  145.7281  139.2673  143.1557 H   0  0  0  0  0  0  0  0  0  0  0  0  # atno 7974 bound_to 7965
  154.4717  140.0918  156.7161 H   0  0  0  0  0  0  0  0  0  0  0  0  # atno 8008 bound_to 7997
  155.4706  140.3464  155.4307 H   0  0  0  0  0  0  0  0  0  0  0  0  # atno 8009 bound_to 7997
  156.1050  140.1432  156.9405 H   0  0  0  0  0  0  0  0  0  0  0  0  # atno 8010 bound_to 7997
  140.3044  143.3143  152.0214 H   0  0  0  0  0  0  0  0  0  0  0  0  # atno 10167 bound_to 10162
  157.5692  130.8894  149.9238 H   0  0  0  0  0  0  0  0  0  0  0  0  # atno 10718 bound_to 10713
  152.9811  135.5725  154.5000 H   0  0  0  0  0  0  0  0  0  0  0  0  # atno 10763 bound_to 10752
  154.4521  135.2779  155.1776 H   0  0  0  0  0  0  0  0  0  0  0  0  # atno 10764 bound_to 10752
  154.3399  135.6231  153.5645 H   0  0  0  0  0  0  0  0  0  0  0  0  # atno 10765 bound_to 10752
  139.8960  134.8315  156.2640 H   0  0  0  0  0  0  0  0  0  0  0  0  # atno 11005 bound_to 11000
  146.0563  140.8017  142.9757 LP  0  0  0  0  0  0  0  0  0  0  0  0  # atno 17320 bound_to 7965
  144.6899  140.3128  143.7245 LP  0  0  0  0  0  0  0  0  0  0  0  0  # atno 17321 bound_to 7965
  139.4907  144.6432  151.6834 LP  0  0  0  0  0  0  0  0  0  0  0  0  # atno 17342 bound_to 10162
  140.5623  144.0248  150.6175 LP  0  0  0  0  0  0  0  0  0  0  0  0  # atno 17343 bound_to 10162
  156.0738  130.3681  150.0720 LP  0  0  0  0  0  0  0  0  0  0  0  0  # atno 17370 bound_to 10713
  156.8875  130.9577  151.3592 LP  0  0  0  0  0  0  0  0  0  0  0  0  # atno 17371 bound_to 10713
  141.0144  133.7077  156.1164 LP  0  0  0  0  0  0  0  0  0  0  0  0  # atno 17394 bound_to 11000
  140.7322  134.4242  157.5564 LP  0  0  0  0  0  0  0  0  0  0  0  0  # atno 17395 bound_to 11000

$$$$
