AV-unprocessed.smi:66|AV-procd|sdf|622|dock1
  -GOLD-   2262016513D 1   1.00000     0.00000
 Structure written by MMmdl.
 28 30  0  0  0  0  0  0  0  0  2 V2000
  149.1870  135.6024  159.3835 O   0  0  0  0  0  0  0  0  0  0  0  0
  148.2934  136.4646  159.5279 C   0  0  0  0  0  0  0  0  0  0  0  0
  147.6775  136.6990  160.5920 O   0  5  0  0  0  0  0  0  0  0  0  0
  147.9328  137.2995  158.2928 C   0  0  1  0  0  0  0  0  0  0  0  0
  146.4355  137.2591  157.9611 C   0  0  0  0  0  0  0  0  0  0  0  0
  146.2445  138.5732  157.2109 C   0  0  1  0  0  0  0  0  0  0  0  0
  144.9011  139.0078  157.2045 O   0  0  0  0  0  0  0  0  0  0  0  0
  147.1706  139.5358  157.9583 C   0  0  0  0  0  0  0  0  0  0  0  0
  148.2508  138.7141  158.4917 N   0  0  0  0  0  0  0  0  0  0  0  0
  149.5444  139.1377  158.1533 C   0  0  0  0  0  0  0  0  0  0  0  0
  150.4543  139.4090  159.1181 N   0  0  0  0  0  0  0  0  0  0  0  0
  151.6791  139.7887  158.7267 C   0  0  0  0  0  0  0  0  0  0  0  0
  152.1657  139.9369  157.4825 N   0  0  0  0  0  0  0  0  0  0  0  0
  151.2711  139.6623  156.5223 C   0  0  0  0  0  0  0  0  0  0  0  0
  151.4860  139.7234  155.1517 N   0  0  0  0  0  0  0  0  0  0  0  0
  150.2966  139.3612  154.6692 C   0  0  0  0  0  0  0  0  0  0  0  0
  149.3456  139.0712  155.5731 N   0  0  0  0  0  0  0  0  0  0  0  0
  149.9370  139.2532  156.8105 C   0  0  0  0  0  0  0  0  0  0  0  0
  148.3963  138.7939  155.3668 H   0  0  0  0  0  0  0  0  0  0  0  0
  148.4853  136.9117  157.4359 H   0  0  0  0  0  0  0  0  0  0  0  0
  146.1592  136.3892  157.3645 H   0  0  0  0  0  0  0  0  0  0  0  0
  145.8310  137.2532  158.8705 H   0  0  0  0  0  0  0  0  0  0  0  0
  146.5914  138.4566  156.1830 H   0  0  0  0  0  0  0  0  0  0  0  0
  144.8927  139.9508  157.2660 H   0  0  0  0  0  0  0  0  0  0  0  0
  147.5173  140.3426  157.3101 H   0  0  0  0  0  0  0  0  0  0  0  0
  146.6567  139.9920  158.8055 H   0  0  0  0  0  0  0  0  0  0  0  0
  152.3748  140.0012  159.5248 H   0  0  0  0  0  0  0  0  0  0  0  0
  150.1071  139.3054  153.6073 H   0  0  0  0  0  0  0  0  0  0  0  0
  1  2  2  0  0  0  0
  2  3  1  0  0  0  0
  2  4  1  0  0  0  0
  4  9  1  0  0  0  0
  4  5  1  0  0  0  0
  4 20  1  0  0  0  0
  5  6  1  0  0  0  0
  5 21  1  0  0  0  0
  5 22  1  0  0  0  0
  6  7  1  0  0  0  0
  6  8  1  0  0  0  0
  6 23  1  0  0  0  0
  7 24  1  0  0  0  0
  8  9  1  0  0  0  0
  8 25  1  0  0  0  0
  8 26  1  0  0  0  0
  9 10  1  0  0  0  0
 10 18  1  0  0  0  0
 10 11  2  0  0  0  0
 11 12  1  0  0  0  0
 12 13  2  0  0  0  0
 12 27  1  0  0  0  0
 13 14  1  0  0  0  0
 14 18  2  0  0  0  0
 14 15  1  0  0  0  0
 15 16  2  0  0  0  0
 16 17  1  0  0  0  0
 16 28  1  0  0  0  0
 17 19  1  0  0  0  0
 17 18  1  0  0  0  0
M  CHG  1   3  -1
M  END
> <s_m_source_file>
AV-unprocessed.smi

> <i_m_source_file_index>
66

> <i_lp_mmshare_version>
43012

> <i_f3d_flags>
0

> <s_epik_input>
Tz1DKFtPSF0pW0NAQEhdMVtDSDJdW0NAQEhdKFtPSF0pW0NIMl1OMWMobltjSF1uMiljKGMyMylbbkhdW2NIXW4z

> <s_epik_cmdline>
J2VwaWtfcHl0aG9uJywgJy1waCcsICc3LjAnLCAnLXRuJywgJzgnLCAnLW1hJywgJzIwMCcsICctbWV0YWxfYmluZGluZycsICctaW1hZScsICc8aW5maWxlLm1hZT4nLCAnLW9tYWUnLCAnPG91dGZpbGUubWFlPic=

> <r_lp_tautomer_probability>
0.0419193

> <r_epik_Ionization_Penalty>
0.0157405

> <r_epik_Ionization_Penalty_Charging>
0.000248217

> <r_epik_Ionization_Penalty_Neutral>
0.0154923

> <r_epik_State_Penalty>
1.99742

> <r_epik_Charging_Adjusted_Penalty>
1.99767

> <i_epik_Tot_Q>
-1

> <i_epik_Tot_abs_Q>
1

> <r_epik_Metal_State_Penalty>
2.31035

> <b_epik_Metal_Only>
0

> <s_lp_Force_Field>
OPLS_2005

> <r_lp_Energy>
24.7496

> <b_lp_Chiralities_Consistent>
1

> <s_lp_Variant>
AV-unprocessed.smi:66-6

> <Gold.Version>
5.8.1

> <Gold.Id.Protein>
6NUR|6NUR_protein|mol2

> <Gold.PLP.Fitness>
41.6584

> <Gold.PLP.PLP>
-18.3567

> <Gold.PLP.part.hbond>
-5.7970

> <Gold.PLP.part.metal>
0.0000

> <Gold.PLP.part.buried>
-3.8226

> <Gold.PLP.part.nonpolar>
-9.9552

> <Gold.PLP.part.repulsive>
0.0974

> <Gold.PLP.ligand.clash>
0.0000

> <Gold.PLP.ligand.torsion>
0.2162

> <Gold.PLP.Chemscore.Hbond>
6.8680

> <Gold.PLP.Chemscore.CHOScore>
1.0000

> <Gold.PLP.Chemscore.Metal>
0.0000

> <Gold.Chemscore.Hbonds>
donor molecule, donor type, donor heavy atom, donor atom, acceptor molecule, acceptor atom, score
      P1  H  6896  6908       L1     1  2.00
      P1  H  6934  6947       L1     3  0.16
      P1  H  7989  7998       L1    15  0.30
      P1  H  7997  8008       L1    13  0.05
      L1  C    16    28       P1  7957  0.84

> <Gold.PLP.Chemscore.Internal.Correction>
0.1301

> <Gold.Rescore>
     Score         DG    S(hbond)    S(metal)    S(lipo)     H(rot)  DE(clash)    DE(int)     intcor
     11.72     -12.15       3.70        0.00       5.56       2.48       0.08       0.35       ----

> <Gold.Chemscore.Fitness>
11.7175

> <Gold.Chemscore.DG>
-12.1508

> <Gold.Chemscore.ZeroCoef>
-5.4800

> <Gold.Chemscore.Hbond>
3.7005

> <Gold.Chemscore.Metal>
0.0000

> <Gold.Chemscore.Lipo>
5.5570

> <Gold.Chemscore.Internal_Hbond>
0.0000

> <Gold.Chemscore.DEClash>
0.0807

> <Gold.Chemscore.DEInternal>
0.3527

> <Gold.Chemscore.Rot>
2.4762

> <Gold.Chemscore.Internal.Correction>
   9.000000E+99

> <Gold.Chemscore.Hbonds>
donor molecule, donor type, donor heavy atom, donor atom, acceptor molecule, acceptor atom, score
      P1  H  6896  6908       L1     1  1.00
      P1  H  6931  6943       L1     3  0.03
      P1  H  6934  6947       L1     3  0.09
      P1  H  7997  8008       L1    13  0.05

> <Gold.Chemscore.Hbond.Weighted>
-12.3597

> <Gold.Chemscore.Metal.Weighted>
-0.0000

> <Gold.Chemscore.Lipo.Weighted>
-0.6502

> <Gold.Chemscore.Internal_Hbond.Weighted>
0.0000

> <Gold.Chemscore.DEClash.Weighted>
0.0807

> <Gold.Chemscore.DEInternal.Weighted>
0.3527

> <Gold.Chemscore.Rot.Weighted>
6.3391

> <Gold.Chemscore.Internal.Correction.Weighted>
   9.000000E+99

> <Gold.Protein.RotatedTorsions>
[ 6907 6896 6895 6894 ] final -178.54 input  -60.11 | X-H torsion
[ 7974 7965 7964 7962 ] final    0.92 input  175.53 | X-H torsion
[ 8008 7997 7996 7995 ] final  -47.56 input   59.86 | X-H torsion
[ 10167 10162 10161 10158 ] final  -54.16 input  -65.29 | X-H torsion
[ 10718 10713 10712 10709 ] final  113.96 input   66.30 | X-H torsion
[ 10763 10752 10751 10750 ] final   81.87 input  -60.55 | X-H torsion
[ 11005 11000 10999 10996 ] final -137.46 input  -57.11 | X-H torsion

> <Gold.Protein.ActiveResidues>
 VAL166  LYS551  ARG553  GLY616  TRP617  ASP618  TYR619  PRO620  LYS621  CYS622 
 ASP623  PHE694  ASN695  SER759  ASP760  ASP761  ALA762  ILE779  LEU786  VAL792 
 PHE793  MET794  SER795  GLU796  ALA797  LYS798  CYS799  TRP800  GLU811  SER814 

> <Gold.Protein.RotatedAtoms>
  151.6389  133.3327  159.3125 H   0  0  0  0  0  0  0  0  0  0  0  0  # atno 6907 bound_to 6896
  150.8018  134.7120  159.6619 H   0  0  0  0  0  0  0  0  0  0  0  0  # atno 6908 bound_to 6896
  152.4111  134.6128  160.0081 H   0  0  0  0  0  0  0  0  0  0  0  0  # atno 6909 bound_to 6896
  146.2437  140.1065  142.8345 H   0  0  0  0  0  0  0  0  0  0  0  0  # atno 7974 bound_to 7965
  154.4018  140.1343  156.4195 H   0  0  0  0  0  0  0  0  0  0  0  0  # atno 8008 bound_to 7997
  155.7656  140.3485  155.5200 H   0  0  0  0  0  0  0  0  0  0  0  0  # atno 8009 bound_to 7997
  155.8817  140.0988  157.1471 H   0  0  0  0  0  0  0  0  0  0  0  0  # atno 8010 bound_to 7997
  140.6446  143.2527  151.4896 H   0  0  0  0  0  0  0  0  0  0  0  0  # atno 10167 bound_to 10162
  157.6308  131.0991  150.7117 H   0  0  0  0  0  0  0  0  0  0  0  0  # atno 10718 bound_to 10713
  153.1153  135.4749  154.9105 H   0  0  0  0  0  0  0  0  0  0  0  0  # atno 10763 bound_to 10752
  154.7522  135.3109  154.8538 H   0  0  0  0  0  0  0  0  0  0  0  0  # atno 10764 bound_to 10752
  153.9116  135.6864  153.4804 H   0  0  0  0  0  0  0  0  0  0  0  0  # atno 10765 bound_to 10752
  140.8709  134.2052  157.4651 H   0  0  0  0  0  0  0  0  0  0  0  0  # atno 11005 bound_to 11000
  145.0524  140.9027  143.4987 LP  0  0  0  0  0  0  0  0  0  0  0  0  # atno 17320 bound_to 7965
  145.1165  139.2722  143.5610 LP  0  0  0  0  0  0  0  0  0  0  0  0  # atno 17321 bound_to 7965
  139.5656  144.2051  152.1759 LP  0  0  0  0  0  0  0  0  0  0  0  0  # atno 17342 bound_to 10162
  140.1332  144.5269  150.6789 LP  0  0  0  0  0  0  0  0  0  0  0  0  # atno 17343 bound_to 10162
  156.7456  130.4753  149.5468 LP  0  0  0  0  0  0  0  0  0  0  0  0  # atno 17370 bound_to 10713
  156.1511  130.6310  151.0597 LP  0  0  0  0  0  0  0  0  0  0  0  0  # atno 17371 bound_to 10713
  139.8712  134.9774  156.4956 LP  0  0  0  0  0  0  0  0  0  0  0  0  # atno 17394 bound_to 11000
  140.8574  133.8086  155.9230 LP  0  0  0  0  0  0  0  0  0  0  0  0  # atno 17395 bound_to 11000

$$$$
