AV-unprocessed.smi:2303|AV-procd|sdf|9243|dock1
  -GOLD-   2272012463D 1   1.00000     0.00000
 Structure written by MMmdl.
 32 33  0  0  0  0  0  0  0  0  2 V2000
  151.8749  144.7073  158.5005 C   0  0  0  0  0  0  0  0  0  0  0  0
  151.5298  143.3449  159.1224 C   0  0  0  0  0  0  0  0  0  0  0  0
  152.5390  142.9532  160.2164 C   0  0  0  0  0  0  0  0  0  0  0  0
  151.3909  142.2654  158.0458 C   0  0  0  0  0  0  0  0  0  0  0  0
  150.4026  142.3968  157.0803 C   0  0  0  0  0  0  0  0  0  0  0  0
  150.3128  141.3300  156.0864 C   0  0  0  0  0  0  0  0  0  0  0  0
  149.2856  141.3532  155.0443 C   0  0  0  0  0  0  0  0  0  0  0  0
  149.5442  141.3621  153.8398 O   0  0  0  0  0  0  0  0  0  0  0  0
  148.0038  141.3613  155.4748 N   0  0  0  0  0  0  0  0  0  0  0  0
  146.7971  141.4461  154.6631 C   0  0  0  0  0  0  0  0  0  0  0  0
  145.7239  141.8742  155.6477 C   0  0  0  0  0  0  0  0  0  0  0  0
  146.5302  142.5996  156.7129 C   0  0  0  0  0  0  0  0  0  0  0  0
  147.7266  141.8431  156.7711 O   0  0  0  0  0  0  0  0  0  0  0  0
  151.1335  140.2571  156.1665 C   0  0  0  0  0  0  0  0  0  0  0  0
  152.1533  140.1809  157.2121 C   0  0  0  0  0  0  0  0  0  0  0  0
  152.8949  139.2013  157.2488 O   0  0  0  0  0  0  0  0  0  0  0  0
  152.2434  141.2056  158.1061 N   0  5  0  0  0  0  0  0  0  0  0  0
  151.1300  144.9975  157.7589 H   0  0  0  0  0  0  0  0  0  0  0  0
  152.8463  144.6858  158.0053 H   0  0  0  0  0  0  0  0  0  0  0  0
  151.9066  145.4889  159.2598 H   0  0  0  0  0  0  0  0  0  0  0  0
  150.5661  143.4619  159.6201 H   0  0  0  0  0  0  0  0  0  0  0  0
  152.2812  141.9909  160.6596 H   0  0  0  0  0  0  0  0  0  0  0  0
  152.5517  143.6921  161.0177 H   0  0  0  0  0  0  0  0  0  0  0  0
  153.5531  142.8784  159.8225 H   0  0  0  0  0  0  0  0  0  0  0  0
  149.7292  143.2414  157.0708 H   0  0  0  0  0  0  0  0  0  0  0  0
  146.9266  142.1976  153.8825 H   0  0  0  0  0  0  0  0  0  0  0  0
  146.5638  140.4920  154.1897 H   0  0  0  0  0  0  0  0  0  0  0  0
  144.9505  142.4971  155.1976 H   0  0  0  0  0  0  0  0  0  0  0  0
  145.2460  140.9950  156.0816 H   0  0  0  0  0  0  0  0  0  0  0  0
  146.7616  143.6183  156.3984 H   0  0  0  0  0  0  0  0  0  0  0  0
  146.0269  142.6385  157.6791 H   0  0  0  0  0  0  0  0  0  0  0  0
  151.0561  139.4473  155.4543 H   0  0  0  0  0  0  0  0  0  0  0  0
  1  2  1  0  0  0  0
  1 18  1  0  0  0  0
  1 19  1  0  0  0  0
  1 20  1  0  0  0  0
  2  3  1  0  0  0  0
  2 21  1  0  0  0  0
  2  4  1  0  0  0  0
  3 22  1  0  0  0  0
  3 23  1  0  0  0  0
  3 24  1  0  0  0  0
  4 17  1  0  0  0  0
  4  5  2  0  0  0  0
  5 25  1  0  0  0  0
  5  6  1  0  0  0  0
  6  7  1  0  0  0  0
  6 14  2  0  0  0  0
  7  8  2  0  0  0  0
  7  9  1  0  0  0  0
  9 13  1  0  0  0  0
  9 10  1  0  0  0  0
 10 11  1  0  0  0  0
 10 26  1  0  0  0  0
 10 27  1  0  0  0  0
 11 12  1  0  0  0  0
 11 28  1  0  0  0  0
 11 29  1  0  0  0  0
 12 13  1  0  0  0  0
 12 30  1  0  0  0  0
 12 31  1  0  0  0  0
 14 15  1  0  0  0  0
 14 32  1  0  0  0  0
 15 16  2  0  0  0  0
 15 17  1  0  0  0  0
M  CHG  1  17  -1
M  END
> <s_m_source_file>
AV-unprocessed.smi

> <i_m_source_file_index>
2303

> <i_lp_mmshare_version>
43012

> <i_f3d_flags>
0

> <s_epik_input>
W0NIM11bQ0hdKFtDSDNdKWMxW2NIXWMoW2NIXWMobjEpW09IXSlDKD1PKU4yW0NIMl1bQ0gyXVtDSDJdTzI=

> <s_epik_cmdline>
J2VwaWtfcHl0aG9uJywgJy1waCcsICc3LjAnLCAnLXRuJywgJzgnLCAnLW1hJywgJzIwMCcsICctbWV0YWxfYmluZGluZycsICctaW1hZScsICc8aW5maWxlLm1hZT4nLCAnLW9tYWUnLCAnPG91dGZpbGUubWFlPic=

> <r_lp_tautomer_probability>
1

> <r_epik_Ionization_Penalty>
5.39588

> <r_epik_Ionization_Penalty_Charging>
0.166011

> <r_epik_Ionization_Penalty_Neutral>
5.22987

> <r_epik_State_Penalty>
5.22978

> <r_epik_Charging_Adjusted_Penalty>
5.39579

> <i_epik_Tot_Q>
-1

> <i_epik_Tot_abs_Q>
1

> <r_epik_Metal_State_Penalty>
1.21816

> <b_epik_Metal_Only>
1

> <s_epik_Chemistry_Notes>
This compound has a N-S or N-O group and may undergo hydrolysis at high or low pH.

> <s_lp_Force_Field>
OPLS_2005

> <r_lp_Energy>
27.9757

> <b_lp_Chiralities_Consistent>
1

> <s_lp_Variant>
AV-unprocessed.smi:2303-2

> <Gold.Version>
5.8.1

> <Gold.Id.Protein>
6NUR|6NUR_protein|mol2

> <Gold.PLP.Fitness>
36.3263

> <Gold.PLP.PLP>
-32.2051

> <Gold.PLP.part.hbond>
-3.0000

> <Gold.PLP.part.metal>
0.0000

> <Gold.PLP.part.buried>
-0.9318

> <Gold.PLP.part.nonpolar>
-28.7419

> <Gold.PLP.part.repulsive>
1.3875

> <Gold.PLP.ligand.clash>
0.0000

> <Gold.PLP.ligand.torsion>
1.3346

> <Gold.PLP.Chemscore.Hbond>
1.8526

> <Gold.PLP.Chemscore.CHOScore>
0.0000

> <Gold.PLP.Chemscore.Metal>
0.0000

> <Gold.Chemscore.Hbonds>
donor molecule, donor type, donor heavy atom, donor atom, acceptor molecule, acceptor atom, score
      P1  H  7989  7998       L1     8  0.18
      P1  H  7997  8009       L1    16  0.90
      P1  H  8011  8017       L1     8  0.78

> <Gold.PLP.Chemscore.Internal.Correction>
1.2327

> <Gold.Rescore>
     Score         DG    S(hbond)    S(metal)    S(lipo)     H(rot)  DE(clash)    DE(int)     intcor
     14.05     -17.36       1.71        0.00      74.62       1.00       0.57       2.73       ----

> <Gold.Chemscore.Fitness>
14.0532

> <Gold.Chemscore.DG>
-17.3590

> <Gold.Chemscore.ZeroCoef>
-5.4800

> <Gold.Chemscore.Hbond>
1.7092

> <Gold.Chemscore.Metal>
0.0000

> <Gold.Chemscore.Lipo>
74.6165

> <Gold.Chemscore.Internal_Hbond>
0.0000

> <Gold.Chemscore.DEClash>
0.5709

> <Gold.Chemscore.DEInternal>
2.7349

> <Gold.Chemscore.Rot>
1.0000

> <Gold.Chemscore.Internal.Correction>
   9.000000E+99

> <Gold.Chemscore.Hbonds>
donor molecule, donor type, donor heavy atom, donor atom, acceptor molecule, acceptor atom, score
      P1  H  7989  7998       L1     8  0.14
      P1  H  7997  8009       L1    16  0.18
      P1  H  8011  8017       L1     8  0.78

> <Gold.Chemscore.Hbond.Weighted>
-5.7089

> <Gold.Chemscore.Metal.Weighted>
-0.0000

> <Gold.Chemscore.Lipo.Weighted>
-8.7301

> <Gold.Chemscore.Internal_Hbond.Weighted>
0.0000

> <Gold.Chemscore.DEClash.Weighted>
0.5709

> <Gold.Chemscore.DEInternal.Weighted>
2.7349

> <Gold.Chemscore.Rot.Weighted>
2.5600

> <Gold.Chemscore.Internal.Correction.Weighted>
   9.000000E+99

> <Gold.Protein.RotatedTorsions>
[ 6907 6896 6895 6894 ] final -166.63 input  -60.11 | X-H torsion
[ 7974 7965 7964 7962 ] final    0.97 input  175.53 | X-H torsion
[ 8008 7997 7996 7995 ] final  166.26 input   59.86 | X-H torsion
[ 10167 10162 10161 10158 ] final   50.43 input  -65.29 | X-H torsion
[ 10718 10713 10712 10709 ] final -166.97 input   66.30 | X-H torsion
[ 10763 10752 10751 10750 ] final  -88.43 input  -60.55 | X-H torsion
[ 11005 11000 10999 10996 ] final   61.92 input  -57.11 | X-H torsion

> <Gold.Protein.ActiveResidues>
 VAL166  LYS551  ARG553  GLY616  TRP617  ASP618  TYR619  PRO620  LYS621  CYS622 
 ASP623  PHE694  ASN695  SER759  ASP760  ASP761  ALA762  ILE779  LEU786  VAL792 
 PHE793  MET794  SER795  GLU796  ALA797  LYS798  CYS799  TRP800  GLU811  SER814 

> <Gold.Protein.RotatedAtoms>
  151.4466  133.3629  159.2789 H   0  0  0  0  0  0  0  0  0  0  0  0  # atno 6907 bound_to 6896
  150.9120  134.8538  159.7442 H   0  0  0  0  0  0  0  0  0  0  0  0  # atno 6908 bound_to 6896
  152.4937  134.4397  159.9591 H   0  0  0  0  0  0  0  0  0  0  0  0  # atno 6909 bound_to 6896
  146.2438  140.1058  142.8346 H   0  0  0  0  0  0  0  0  0  0  0  0  # atno 7974 bound_to 7965
  156.1733  140.1648  156.8408 H   0  0  0  0  0  0  0  0  0  0  0  0  # atno 8008 bound_to 7997
  154.5280  140.0763  156.8327 H   0  0  0  0  0  0  0  0  0  0  0  0  # atno 8009 bound_to 7997
  155.3466  140.3387  155.4241 H   0  0  0  0  0  0  0  0  0  0  0  0  # atno 8010 bound_to 7997
  140.2725  144.3249  150.6286 H   0  0  0  0  0  0  0  0  0  0  0  0  # atno 10167 bound_to 10162
  156.6756  130.9101  151.3050 H   0  0  0  0  0  0  0  0  0  0  0  0  # atno 10718 bound_to 10713
  154.6445  135.5377  153.7828 H   0  0  0  0  0  0  0  0  0  0  0  0  # atno 10763 bound_to 10752
  153.0352  135.6467  154.1110 H   0  0  0  0  0  0  0  0  0  0  0  0  # atno 10764 bound_to 10752
  154.1032  135.2932  155.3227 H   0  0  0  0  0  0  0  0  0  0  0  0  # atno 10765 bound_to 10752
  140.0127  134.6271  155.9756 H   0  0  0  0  0  0  0  0  0  0  0  0  # atno 11005 bound_to 11000
  145.0529  140.9031  143.4984 LP  0  0  0  0  0  0  0  0  0  0  0  0  # atno 17320 bound_to 7965
  145.1159  139.2726  143.5613 LP  0  0  0  0  0  0  0  0  0  0  0  0  # atno 17321 bound_to 7965
  140.5878  143.2169  151.7309 LP  0  0  0  0  0  0  0  0  0  0  0  0  # atno 17342 bound_to 10162
  139.4985  144.3984  152.0207 LP  0  0  0  0  0  0  0  0  0  0  0  0  # atno 17343 bound_to 10162
  157.7062  130.9387  150.0938 LP  0  0  0  0  0  0  0  0  0  0  0  0  # atno 17370 bound_to 10713
  156.1906  130.3654  149.8915 LP  0  0  0  0  0  0  0  0  0  0  0  0  # atno 17371 bound_to 10713
  141.1722  133.6538  156.4694 LP  0  0  0  0  0  0  0  0  0  0  0  0  # atno 17394 bound_to 11000
  140.4525  134.6915  157.5046 LP  0  0  0  0  0  0  0  0  0  0  0  0  # atno 17395 bound_to 11000

$$$$
