AV-unprocessed.smi:2902|AV-procd|sdf|11151|dock2
  -GOLD-   2272016 33D 1   1.00000     0.00000
 Structure written by MMmdl.
 47 48  0  0  0  0  0  0  0  0  1 V2000
  149.5595  132.3713  153.9783 C   0  0  0  0  0  0  0  0  0  0  0  0
  148.5263  133.0470  153.0680 C   0  0  0  0  0  0  0  0  0  0  0  0
  147.3722  133.6946  153.8558 C   0  0  2  0  0  0  0  0  0  0  0  0
  146.5166  134.3490  152.9164 O   0  0  0  0  0  0  0  0  0  0  0  0
  145.5640  133.5410  152.2276 C   0  0  0  0  0  0  0  0  0  0  0  0
  146.1922  132.5416  151.2518 C   0  0  0  0  0  0  0  0  0  0  0  0
  145.0884  132.2441  150.2305 C   0  0  0  0  0  0  0  0  0  0  0  0
  144.1160  133.4333  150.2882 C   0  0  0  0  0  0  0  0  0  0  0  0
  144.6939  134.4078  151.3201 C   0  0  0  0  0  0  0  0  0  0  0  0
  147.8956  134.6980  154.8967 C   0  0  0  0  0  0  0  0  0  0  0  0
  147.7186  134.4992  156.0987 O   0  0  0  0  0  0  0  0  0  0  0  0
  148.5602  135.7590  154.4127 N   0  0  0  0  0  0  0  0  0  0  0  0
  149.2069  136.7970  155.2117 C   0  0  2  0  0  0  0  0  0  0  0  0
  149.0500  138.1592  154.5085 C   0  0  0  0  0  0  0  0  0  0  0  0
  150.6843  136.4126  155.4824 C   0  0  2  0  0  0  0  0  0  0  0  0
  150.9046  135.8005  156.8788 C   0  0  0  0  0  0  0  0  0  0  0  0
  151.5772  137.5472  155.2928 N   0  0  0  0  0  0  0  0  0  0  0  0
  151.7120  138.6774  155.9910 C   0  0  0  0  0  0  0  0  0  0  0  0
  152.6450  139.4922  155.5190 N   0  0  0  0  0  0  0  0  0  0  0  0
  153.0792  138.7500  154.4576 C   0  0  0  0  0  0  0  0  0  0  0  0
  152.4745  137.5754  154.2789 N   0  0  0  0  0  0  0  0  0  0  0  0
  150.3627  131.9275  153.3900 H   0  0  0  0  0  0  0  0  0  0  0  0
  149.1050  131.5775  154.5718 H   0  0  0  0  0  0  0  0  0  0  0  0
  150.0078  133.0892  154.6655 H   0  0  0  0  0  0  0  0  0  0  0  0
  149.0346  133.8036  152.4685 H   0  0  0  0  0  0  0  0  0  0  0  0
  148.1319  132.3125  152.3645 H   0  0  0  0  0  0  0  0  0  0  0  0
  146.8241  132.9022  154.3680 H   0  0  0  0  0  0  0  0  0  0  0  0
  144.9076  133.0180  152.9239 H   0  0  0  0  0  0  0  0  0  0  0  0
  147.0390  133.0075  150.7457 H   0  0  0  0  0  0  0  0  0  0  0  0
  146.5558  131.6399  151.7454 H   0  0  0  0  0  0  0  0  0  0  0  0
  145.5009  132.1031  149.2313 H   0  0  0  0  0  0  0  0  0  0  0  0
  144.5641  131.3263  150.4996 H   0  0  0  0  0  0  0  0  0  0  0  0
  143.9919  133.9092  149.3151 H   0  0  0  0  0  0  0  0  0  0  0  0
  143.1328  133.0882  150.6103 H   0  0  0  0  0  0  0  0  0  0  0  0
  143.9213  134.9465  151.8692 H   0  0  0  0  0  0  0  0  0  0  0  0
  145.3149  135.1472  150.8126 H   0  0  0  0  0  0  0  0  0  0  0  0
  148.6533  135.8365  153.4103 H   0  0  0  0  0  0  0  0  0  0  0  0
  148.7001  136.8598  156.1766 H   0  0  0  0  0  0  0  0  0  0  0  0
  149.4475  138.9745  155.1129 H   0  0  0  0  0  0  0  0  0  0  0  0
  148.0003  138.3860  154.3185 H   0  0  0  0  0  0  0  0  0  0  0  0
  149.5709  138.1710  153.5507 H   0  0  0  0  0  0  0  0  0  0  0  0
  150.9678  135.6527  154.7514 H   0  0  0  0  0  0  0  0  0  0  0  0
  150.3602  134.8640  156.9979 H   0  0  0  0  0  0  0  0  0  0  0  0
  150.5768  136.4787  157.6671 H   0  0  0  0  0  0  0  0  0  0  0  0
  151.9593  135.5803  157.0468 H   0  0  0  0  0  0  0  0  0  0  0  0
  151.1149  138.9086  156.8607 H   0  0  0  0  0  0  0  0  0  0  0  0
  153.8657  139.0850  153.7975 H   0  0  0  0  0  0  0  0  0  0  0  0
  1  2  1  0  0  0  0
  1 22  1  0  0  0  0
  1 23  1  0  0  0  0
  1 24  1  0  0  0  0
  2  3  1  0  0  0  0
  2 25  1  0  0  0  0
  2 26  1  0  0  0  0
  3  4  1  0  0  0  0
  3 10  1  0  0  0  0
  3 27  1  0  0  0  0
  4  5  1  0  0  0  0
  5  9  1  0  0  0  0
  5  6  1  0  0  0  0
  5 28  1  0  0  0  0
  6  7  1  0  0  0  0
  6 29  1  0  0  0  0
  6 30  1  0  0  0  0
  7  8  1  0  0  0  0
  7 31  1  0  0  0  0
  7 32  1  0  0  0  0
  8  9  1  0  0  0  0
  8 33  1  0  0  0  0
  8 34  1  0  0  0  0
  9 35  1  0  0  0  0
  9 36  1  0  0  0  0
 10 11  2  0  0  0  0
 10 12  1  0  0  0  0
 12 13  1  0  0  0  0
 12 37  1  0  0  0  0
 13 14  1  0  0  0  0
 13 15  1  0  0  0  0
 13 38  1  0  0  0  0
 14 39  1  0  0  0  0
 14 40  1  0  0  0  0
 14 41  1  0  0  0  0
 15 16  1  0  0  0  0
 15 17  1  0  0  0  0
 15 42  1  0  0  0  0
 16 43  1  0  0  0  0
 16 44  1  0  0  0  0
 16 45  1  0  0  0  0
 17 21  1  0  0  0  0
 17 18  1  0  0  0  0
 18 19  2  0  0  0  0
 18 46  1  0  0  0  0
 19 20  1  0  0  0  0
 20 21  2  0  0  0  0
 20 47  1  0  0  0  0
M  END
> <s_m_source_file>
AV-unprocessed.smi

> <i_m_source_file_index>
2902

> <i_lp_mmshare_version>
43012

> <i_f3d_flags>
0

> <s_epik_input>
W0NIMl0xW0NIMl1bQ0gyXVtDSDJdW0NIXTFPW0NAQEhdKFtDSDJdW0NIM10pQyg9TylbTkhdW0NASF0oW0NIM10pW0NASF0oW0NIM10pbjJbY0hdbltjSF1uMg==

> <s_epik_cmdline>
J2VwaWtfcHl0aG9uJywgJy1waCcsICc3LjAnLCAnLXRuJywgJzgnLCAnLW1hJywgJzIwMCcsICctbWV0YWxfYmluZGluZycsICctaW1hZScsICc8aW5maWxlLm1hZT4nLCAnLW9tYWUnLCAnPG91dGZpbGUubWFlPic=

> <r_lp_tautomer_probability>
1

> <r_epik_Ionization_Penalty>
6.95617e-05

> <r_epik_Ionization_Penalty_Charging>
0

> <r_epik_Ionization_Penalty_Neutral>
6.95617e-05

> <r_epik_State_Penalty>
-0

> <r_epik_Charging_Adjusted_Penalty>
0

> <i_epik_Tot_Q>
0

> <i_epik_Tot_abs_Q>
0

> <r_epik_Metal_State_Penalty>
-0

> <b_epik_Metal_Only>
0

> <s_lp_Force_Field>
OPLS_2005

> <r_lp_Energy>
29.4531

> <b_lp_Chiralities_Consistent>
1

> <s_lp_Variant>
AV-unprocessed.smi:2902-1

> <Gold.Version>
5.8.1

> <Gold.Id.Protein>
6NUR|6NUR_protein|mol2

> <Gold.PLP.Fitness>
38.3283

> <Gold.PLP.PLP>
-34.1627

> <Gold.PLP.part.hbond>
-3.0000

> <Gold.PLP.part.metal>
0.0000

> <Gold.PLP.part.buried>
-6.6283

> <Gold.PLP.part.nonpolar>
-25.6912

> <Gold.PLP.part.repulsive>
0.2229

> <Gold.PLP.ligand.clash>
0.0000

> <Gold.PLP.ligand.torsion>
1.9191

> <Gold.PLP.Chemscore.Hbond>
2.6240

> <Gold.PLP.Chemscore.CHOScore>
0.0000

> <Gold.PLP.Chemscore.Metal>
0.0000

> <Gold.Chemscore.Hbonds>
donor molecule, donor type, donor heavy atom, donor atom, acceptor molecule, acceptor atom, score
      L1  H    12    37       P1  7948  1.00
      P1  H  7997  8009       L1    19  0.95
      P1  H 10752 10764       L1    21  0.64

> <Gold.PLP.Chemscore.Internal.Correction>
0.1319

> <Gold.Rescore>
     Score         DG    S(hbond)    S(metal)    S(lipo)     H(rot)  DE(clash)    DE(int)     intcor
     12.30     -14.63       2.55        0.00      64.24       2.69       0.01       2.31       ----

> <Gold.Chemscore.Fitness>
12.3002

> <Gold.Chemscore.DG>
-14.6276

> <Gold.Chemscore.ZeroCoef>
-5.4800

> <Gold.Chemscore.Hbond>
2.5529

> <Gold.Chemscore.Metal>
0.0000

> <Gold.Chemscore.Lipo>
64.2411

> <Gold.Chemscore.Internal_Hbond>
0.0000

> <Gold.Chemscore.DEClash>
0.0134

> <Gold.Chemscore.DEInternal>
2.3140

> <Gold.Chemscore.Rot>
2.6935

> <Gold.Chemscore.Internal.Correction>
   9.000000E+99

> <Gold.Chemscore.Hbonds>
donor molecule, donor type, donor heavy atom, donor atom, acceptor molecule, acceptor atom, score
      L1  H    12    37       P1  7948  0.99
      P1  H  7997  8009       L1    19  0.21
      P1  H 10752 10764       L1    21  0.35

> <Gold.Chemscore.Hbond.Weighted>
-8.5267

> <Gold.Chemscore.Metal.Weighted>
-0.0000

> <Gold.Chemscore.Lipo.Weighted>
-7.5162

> <Gold.Chemscore.Internal_Hbond.Weighted>
0.0000

> <Gold.Chemscore.DEClash.Weighted>
0.0134

> <Gold.Chemscore.DEInternal.Weighted>
2.3140

> <Gold.Chemscore.Rot.Weighted>
6.8954

> <Gold.Chemscore.Internal.Correction.Weighted>
   9.000000E+99

> <Gold.Protein.RotatedTorsions>
[ 6907 6896 6895 6894 ] final  166.68 input  -60.11 | X-H torsion
[ 7974 7965 7964 7962 ] final -148.31 input  175.53 | X-H torsion
[ 8008 7997 7996 7995 ] final -152.54 input   59.86 | X-H torsion
[ 10167 10162 10161 10158 ] final -115.20 input  -65.29 | X-H torsion
[ 10718 10713 10712 10709 ] final -177.94 input   66.30 | X-H torsion
[ 10763 10752 10751 10750 ] final  -94.49 input  -60.55 | X-H torsion
[ 11005 11000 10999 10996 ] final   54.73 input  -57.11 | X-H torsion

> <Gold.Protein.ActiveResidues>
 VAL166  LYS551  ARG553  GLY616  TRP617  ASP618  TYR619  PRO620  LYS621  CYS622 
 ASP623  PHE694  ASN695  SER759  ASP760  ASP761  ALA762  ILE779  LEU786  VAL792 
 PHE793  MET794  SER795  GLU796  ALA797  LYS798  CYS799  TRP800  GLU811  SER814 

> <Gold.Protein.RotatedAtoms>
  151.8751  133.3483  159.3747 H   0  0  0  0  0  0  0  0  0  0  0  0  # atno 6907 bound_to 6896
  150.7142  134.5074  159.5600 H   0  0  0  0  0  0  0  0  0  0  0  0  # atno 6908 bound_to 6896
  152.2614  134.8030  160.0481 H   0  0  0  0  0  0  0  0  0  0  0  0  # atno 6909 bound_to 6896
  144.8037  140.5213  143.5689 H   0  0  0  0  0  0  0  0  0  0  0  0  # atno 7974 bound_to 7965
  155.6567  140.0718  157.2568 H   0  0  0  0  0  0  0  0  0  0  0  0  # atno 8008 bound_to 7997
  154.4151  140.1723  156.1783 H   0  0  0  0  0  0  0  0  0  0  0  0  # atno 8009 bound_to 7997
  155.9731  140.3360  155.6597 H   0  0  0  0  0  0  0  0  0  0  0  0  # atno 8010 bound_to 7997
  140.0926  143.4685  152.1860 H   0  0  0  0  0  0  0  0  0  0  0  0  # atno 10167 bound_to 10162
  156.8369  130.9673  151.3103 H   0  0  0  0  0  0  0  0  0  0  0  0  # atno 10718 bound_to 10713
  154.7060  135.5155  153.8595 H   0  0  0  0  0  0  0  0  0  0  0  0  # atno 10763 bound_to 10752
  153.0741  135.6611  154.0192 H   0  0  0  0  0  0  0  0  0  0  0  0  # atno 10764 bound_to 10752
  154.0043  135.3008  155.3379 H   0  0  0  0  0  0  0  0  0  0  0  0  # atno 10765 bound_to 10752
  140.0663  134.5532  155.9095 H   0  0  0  0  0  0  0  0  0  0  0  0  # atno 11005 bound_to 11000
  145.5489  139.1476  143.3405 LP  0  0  0  0  0  0  0  0  0  0  0  0  # atno 17320 bound_to 7965
  146.2324  140.5628  142.8969 LP  0  0  0  0  0  0  0  0  0  0  0  0  # atno 17321 bound_to 7965
  139.5716  144.7465  151.3876 LP  0  0  0  0  0  0  0  0  0  0  0  0  # atno 17342 bound_to 10162
  140.7020  143.7608  150.7419 LP  0  0  0  0  0  0  0  0  0  0  0  0  # atno 17343 bound_to 10162
  157.6376  130.8780  149.9389 LP  0  0  0  0  0  0  0  0  0  0  0  0  # atno 17370 bound_to 10713
  156.0902  130.3664  150.0409 LP  0  0  0  0  0  0  0  0  0  0  0  0  # atno 17371 bound_to 10713
  141.1994  133.6606  156.5842 LP  0  0  0  0  0  0  0  0  0  0  0  0  # atno 17394 bound_to 11000
  140.3694  134.7619  157.4588 LP  0  0  0  0  0  0  0  0  0  0  0  0  # atno 17395 bound_to 11000

$$$$
