#       Name:                AV-unprocessed.smi:2739
#       Creating user name   scv26
#       Creation time:       Fri Mar 27 15:00:24 2020


#       File generated by GOLD software.
#

@<TRIPOS>MOLECULE
AV-unprocessed.smi:2739
    40    40     1
SMALL
NO_CHARGES


@<TRIPOS>ATOM
      1 ****        -2.4491  -0.5427   3.8652 C.3            1 S1                 0.0000
      2 ****        -2.7412  -1.2824   2.5516 C.3            1 S1                 0.0000
      3 ****        -2.4838  -0.4388   1.2872 C.3            1 S1                 0.0000
      4 ****        -2.9054  -1.1854   0.0141 C.3            1 S1                 0.0000
      5 ****        -1.0710  -0.0789   1.1823 N.am           1 S1                 0.0000
      6 ****        -0.5509   1.1449   1.3697 C.2            1 S1                 0.0000
      7 ****        -1.2180   2.1323   1.6771 O.2            1 S1                 0.0000
      8 ****         0.9611   1.2742   1.1843 C.3            1 S1                 0.0000
      9 ****         1.3120   1.3173  -0.2236 N.pl3          1 S1                 0.0000
     10 ****         1.2545   2.3891  -1.0884 C.2            1 S1                 0.0000
     11 ****         1.6784   1.9485  -2.3090 C.2            1 S1                 0.0000
     12 ****         1.9776   0.5723  -2.0961 C.2            1 S1                 0.0000
     13 ****         2.4958  -0.4231  -3.1020 C.3            1 S1                 0.0000
     14 ****         3.9901  -0.7077  -2.8976 C.3            1 S1                 0.0000
     15 ****         1.7942  -1.6493  -3.0558 O.3            1 S1                 0.0000
     16 ****         1.7565   0.2018  -0.8414 N.2            1 S1                 0.0000
     17 ****        -2.7075  -1.1630   4.7235 H              1 S1                 0.0000
     18 ****        -3.0279   0.3786   3.9346 H              1 S1                 0.0000
     19 ****        -1.3941  -0.2836   3.9543 H              1 S1                 0.0000
     20 ****        -2.1480  -2.1970   2.5135 H              1 S1                 0.0000
     21 ****        -3.7845  -1.6000   2.5606 H              1 S1                 0.0000
     22 ****        -3.0962   0.4623   1.3503 H              1 S1                 0.0000
     23 ****        -3.9641  -1.4440   0.0432 H              1 S1                 0.0000
     24 ****        -2.3405  -2.1099  -0.1110 H              1 S1                 0.0000
     25 ****        -2.7417  -0.5721  -0.8727 H              1 S1                 0.0000
     26 ****        -0.4344  -0.8219   0.9315 H              1 S1                 0.0000
     27 ****         1.3188   2.1871   1.6622 H              1 S1                 0.0000
     28 ****         1.4720   0.4384   1.6655 H              1 S1                 0.0000
     29 ****         0.9192   3.3641  -0.7661 H              1 S1                 0.0000
     30 ****         1.7623   2.5233  -3.2193 H              1 S1                 0.0000
     31 ****         2.3582  -0.0193  -4.1056 H              1 S1                 0.0000
     32 ****         4.5760   0.2088  -2.9749 H              1 S1                 0.0000
     33 ****         4.3654  -1.4027  -3.6493 H              1 S1                 0.0000
     34 ****         4.1819  -1.1431  -1.9162 H              1 S1                 0.0000
     35 ****         0.8837  -1.4787  -3.2422 H              1 S1                 0.0000
     36 ****        -2.2067   2.0488   1.8013 LP             1 S1                 0.0000
     37 ****        -0.7713   3.0182   1.8027 LP             1 S1                 0.0000
     38 ****         1.8826  -2.0550  -2.1461 LP             1 S1                 0.0000
     39 ****         2.1669  -2.2777  -3.7386 LP             1 S1                 0.0000
     40 ****         1.8898  -0.7048  -0.4410 LP             1 S1                 0.0000
@<TRIPOS>BOND
    1    1    2 1     
    2    1   17 1     
    3    1   18 1     
    4    1   19 1     
    5    2    3 1     
    6    2   20 1     
    7    2   21 1     
    8    3    4 1     
    9    3    5 1     
   10    3   22 1     
   11    4   23 1     
   12    4   24 1     
   13    4   25 1     
   14    5    6 am    
   15    5   26 1     
   16    6    7 2     
   17    6    8 1     
   18    8    9 1     
   19    8   27 1     
   20    8   28 1     
   21    9   16 1     
   22    9   10 1     
   23   10   11 2     
   24   10   29 1     
   25   11   12 1     
   26   11   30 1     
   27   12   13 1     
   28   12   16 2     
   29   13   14 1     
   30   13   15 1     
   31   13   31 1     
   32   14   32 1     
   33   14   33 1     
   34   14   34 1     
   35   15   35 1     
   36    7   36 1     
   37    7   37 1     
   38   15   38 1     
   39   15   39 1     
   40   16   40 1     
@<TRIPOS>SUBSTRUCTURE
      1 S1             1
@<TRIPOS>SET
LONE_PAIRS      STATIC     ATOMS    <user>   **** ""
5 36 37 38 39 40
DONOR_HYDROGENS      STATIC     ATOMS    <user>   **** ""
2 26 35
ATOM$BLUE        STATIC     ATOMS    COLORGROUP SYSTEM
5 36 37 38 39 40
ATOM$RED        STATIC     ATOMS    COLORGROUP SYSTEM
2 26 35
