#       Name:                AV-unprocessed.smi:1641
#       Creating user name   scv26
#       Creation time:       Fri Mar 27 07:25:06 2020


#       File generated by GOLD software.
#

@<TRIPOS>MOLECULE
AV-unprocessed.smi:1641
    48    49     1
SMALL
NO_CHARGES


@<TRIPOS>ATOM
      1 ****        -6.7754   5.5173   0.9425 C.3            1 S1                 0.0000
      2 ****        -5.6583   4.7782   0.2894 C.2            1 S1                 0.0000
      3 ****        -5.7620   4.2476  -0.9314 N.2            1 S1                 0.0000
      4 ****        -4.5940   3.6106  -1.3253 N.2            1 S1                 0.0000
      5 ****        -3.6287   3.6598  -0.3964 C.2            1 S1                 0.0000
      6 ****        -2.4190   3.1077  -0.5874 N.pl3          1 S1                -1.0000
      7 ****        -2.1302   1.9030  -0.0443 C.2            1 S1                 0.0000
      8 ****        -2.8765   1.2205   0.6614 O.2            1 S1                 0.0000
      9 ****        -0.8995   1.4615  -0.3359 N.am           1 S1                 0.0000
     10 ****        -0.3286   0.1988   0.1125 C.3            1 S1                 0.0000
     11 ****         1.0016  -0.0664  -0.6106 C.3            1 S1                 0.0000
     12 ****         1.6277  -1.3512  -0.3022 N.3            1 S1                 0.0000
     13 ****         2.1099  -1.4215   1.0757 C.3            1 S1                 0.0000
     14 ****         2.8091  -2.7581   1.3971 C.3            1 S1                 0.0000
     15 ****         1.8303  -3.9337   1.5569 C.3            1 S1                 0.0000
     16 ****         3.8200  -3.0387   0.4271 O.3            1 S1                 0.0000
     17 ****         3.3883  -2.9864  -0.9315 C.3            1 S1                 0.0000
     18 ****         4.6044  -3.2376  -1.8294 C.3            1 S1                 0.0000
     19 ****         2.7383  -1.6190  -1.2066 C.3            1 S1                 0.0000
     20 ****        -4.0996   4.5358   1.0604 S.3            1 S1                 0.0000
     21 ****        -7.6256   4.8520   1.0939 H              1 S1                 0.0000
     22 ****        -7.0884   6.3528   0.3159 H              1 S1                 0.0000
     23 ****        -6.4595   5.9063   1.9106 H              1 S1                 0.0000
     24 ****        -0.3187   2.0487  -0.9161 H              1 S1                 0.0000
     25 ****        -0.1886   0.2503   1.1923 H              1 S1                 0.0000
     26 ****        -1.0280  -0.6146  -0.0887 H              1 S1                 0.0000
     27 ****         0.8057  -0.0211  -1.6830 H              1 S1                 0.0000
     28 ****         1.7012   0.7439  -0.3999 H              1 S1                 0.0000
     29 ****         2.8126  -0.6059   1.2537 H              1 S1                 0.0000
     30 ****         1.2885  -1.2769   1.7769 H              1 S1                 0.0000
     31 ****         3.3250  -2.6441   2.3509 H              1 S1                 0.0000
     32 ****         1.1375  -3.7514   2.3788 H              1 S1                 0.0000
     33 ****         2.3652  -4.8582   1.7743 H              1 S1                 0.0000
     34 ****         1.2334  -4.0953   0.6596 H              1 S1                 0.0000
     35 ****         2.6607  -3.7785  -1.1112 H              1 S1                 0.0000
     36 ****         4.3238  -3.2236  -2.8828 H              1 S1                 0.0000
     37 ****         5.0506  -4.2094  -1.6174 H              1 S1                 0.0000
     38 ****         5.3718  -2.4782  -1.6768 H              1 S1                 0.0000
     39 ****         2.3870  -1.5923  -2.2389 H              1 S1                 0.0000
     40 ****         3.4884  -0.8320  -1.1128 H              1 S1                 0.0000
     41 ****        -6.5855   4.3028  -1.4961 LP             1 S1                 0.0000
     42 ****        -4.4836   3.1607  -2.2116 LP             1 S1                 0.0000
     43 ****        -1.7312   3.5879  -1.1318 LP             1 S1                 0.0000
     44 ****        -3.7953   1.5487   0.8809 LP             1 S1                 0.0000
     45 ****        -2.5629   0.3389   1.0141 LP             1 S1                 0.0000
     46 ****         0.9165  -2.0441  -0.4213 LP             1 S1                 0.0000
     47 ****         4.1728  -3.9574   0.6046 LP             1 S1                 0.0000
     48 ****         4.5551  -2.3710   0.5441 LP             1 S1                 0.0000
@<TRIPOS>BOND
    1    1    2 1     
    2    1   21 1     
    3    1   22 1     
    4    1   23 1     
    5    2   20 1     
    6    2    3 2     
    7    3    4 1     
    8    4    5 2     
    9    5    6 1     
   10    5   20 1     
   11    6    7 1     
   12    7    8 2     
   13    7    9 am    
   14    9   10 1     
   15    9   24 1     
   16   10   11 1     
   17   10   25 1     
   18   10   26 1     
   19   11   12 1     
   20   11   27 1     
   21   11   28 1     
   22   12   19 1     
   23   12   13 1     
   24   13   14 1     
   25   13   29 1     
   26   13   30 1     
   27   14   15 1     
   28   14   16 1     
   29   14   31 1     
   30   15   32 1     
   31   15   33 1     
   32   15   34 1     
   33   16   17 1     
   34   17   18 1     
   35   17   19 1     
   36   17   35 1     
   37   18   36 1     
   38   18   37 1     
   39   18   38 1     
   40   19   39 1     
   41   19   40 1     
   42    3   41 1     
   43    4   42 1     
   44    6   43 1     
   45    8   44 1     
   46    8   45 1     
   47   12   46 1     
   48   16   47 1     
   49   16   48 1     
@<TRIPOS>SUBSTRUCTURE
      1 S1             1
@<TRIPOS>SET
LONE_PAIRS      STATIC     ATOMS    <user>   **** ""
8 41 42 43 44 45 46 47 48
DONOR_HYDROGENS      STATIC     ATOMS    <user>   **** ""
1 24
ATOM$BLUE        STATIC     ATOMS    COLORGROUP SYSTEM
8 41 42 43 44 45 46 47 48
ATOM$RED        STATIC     ATOMS    COLORGROUP SYSTEM
1 24
