AV-unprocessed.smi:3348|AV-procd|sdf|12923|dock1
  -GOLD-   2272019343D 1   1.00000     0.00000
 Structure written by MMmdl.
 46 47  0  0  0  0  0  0  0  0  1 V2000
  145.9768  135.2415  153.2233 C   0  0  0  0  0  0  0  0  0  0  0  0
  145.1872  135.9721  152.1282 C   0  0  2  0  0  0  0  0  0  0  0  0
  145.3432  135.2273  150.7767 C   0  0  0  0  0  0  0  0  0  0  0  0
  145.3416  133.7767  150.8728 N   0  0  0  0  0  0  0  0  0  0  0  0
  144.2546  132.9295  150.9399 C   0  0  0  0  0  0  0  0  0  0  0  0
  144.7343  131.6526  150.9924 C   0  0  0  0  0  0  0  0  0  0  0  0
  146.1456  131.8198  150.9278 C   0  0  0  0  0  0  0  0  0  0  0  0
  146.5055  133.0904  150.8434 N   0  0  0  0  0  0  0  0  0  0  0  0
  145.6468  137.3656  152.0721 N   0  0  0  0  0  0  0  0  0  0  0  0
  147.0028  137.5739  151.5674 C   0  0  0  0  0  0  0  0  0  0  0  0
  147.6663  138.7846  152.2445 C   0  0  0  0  0  0  0  0  0  0  0  0
  148.4071  138.4173  153.4032 O   0  0  0  0  0  0  0  0  0  0  0  0
  149.6376  139.1098  153.5872 C   0  0  2  0  0  0  0  0  0  0  0  0
  150.6148  138.1387  154.2751 C   0  0  0  0  0  0  0  0  0  0  0  0
  151.9484  138.8252  154.5997 C   0  0  0  0  0  0  0  0  0  0  0  0
  151.7227  140.0740  155.4651 C   0  0  0  0  0  0  0  0  0  0  0  0
  150.7386  141.0460  154.7945 C   0  0  0  0  0  0  0  0  0  0  0  0
  149.3965  140.3645  154.4557 C   0  0  1  0  0  0  0  0  0  0  0  0
  148.4396  141.3565  153.7749 C   0  0  0  0  0  0  0  0  0  0  0  0
  145.6292  134.2146  153.3401 H   0  0  0  0  0  0  0  0  0  0  0  0
  145.8602  135.7350  154.1888 H   0  0  0  0  0  0  0  0  0  0  0  0
  147.0421  135.2075  152.9915 H   0  0  0  0  0  0  0  0  0  0  0  0
  144.1410  135.9507  152.4357 H   0  0  0  0  0  0  0  0  0  0  0  0
  144.5600  135.5359  150.0828 H   0  0  0  0  0  0  0  0  0  0  0  0
  146.2885  135.5069  150.3098 H   0  0  0  0  0  0  0  0  0  0  0  0
  143.2411  133.3022  150.9503 H   0  0  0  0  0  0  0  0  0  0  0  0
  144.1636  130.7383  151.0599 H   0  0  0  0  0  0  0  0  0  0  0  0
  146.9140  131.0609  150.9346 H   0  0  0  0  0  0  0  0  0  0  0  0
  144.9960  137.9151  151.5202 H   0  0  0  0  0  0  0  0  0  0  0  0
  147.6186  136.6891  151.7013 H   0  0  0  0  0  0  0  0  0  0  0  0
  146.9607  137.7572  150.4933 H   0  0  0  0  0  0  0  0  0  0  0  0
  148.3252  139.2960  151.5413 H   0  0  0  0  0  0  0  0  0  0  0  0
  146.9072  139.5119  152.5339 H   0  0  0  0  0  0  0  0  0  0  0  0
  150.0670  139.4282  152.6351 H   0  0  0  0  0  0  0  0  0  0  0  0
  150.1684  137.7601  155.1956 H   0  0  0  0  0  0  0  0  0  0  0  0
  150.7893  137.2694  153.6417 H   0  0  0  0  0  0  0  0  0  0  0  0
  152.6098  138.1284  155.1150 H   0  0  0  0  0  0  0  0  0  0  0  0
  152.4519  139.1041  153.6732 H   0  0  0  0  0  0  0  0  0  0  0  0
  151.3351  139.7776  156.4405 H   0  0  0  0  0  0  0  0  0  0  0  0
  152.6734  140.5752  155.6491 H   0  0  0  0  0  0  0  0  0  0  0  0
  150.5682  141.9005  155.4504 H   0  0  0  0  0  0  0  0  0  0  0  0
  151.1889  141.4435  153.8838 H   0  0  0  0  0  0  0  0  0  0  0  0
  148.9349  140.0473  155.3921 H   0  0  0  0  0  0  0  0  0  0  0  0
  148.8360  141.6966  152.8176 H   0  0  0  0  0  0  0  0  0  0  0  0
  148.2755  142.2355  154.3988 H   0  0  0  0  0  0  0  0  0  0  0  0
  147.4655  140.9035  153.5891 H   0  0  0  0  0  0  0  0  0  0  0  0
  1  2  1  0  0  0  0
  1 20  1  0  0  0  0
  1 21  1  0  0  0  0
  1 22  1  0  0  0  0
  2  3  1  0  0  0  0
  2  9  1  0  0  0  0
  2 23  1  0  0  0  0
  3  4  1  0  0  0  0
  3 24  1  0  0  0  0
  3 25  1  0  0  0  0
  4  8  1  0  0  0  0
  4  5  1  0  0  0  0
  5  6  2  0  0  0  0
  5 26  1  0  0  0  0
  6  7  1  0  0  0  0
  6 27  1  0  0  0  0
  7  8  2  0  0  0  0
  7 28  1  0  0  0  0
  9 10  1  0  0  0  0
  9 29  1  0  0  0  0
 10 11  1  0  0  0  0
 10 30  1  0  0  0  0
 10 31  1  0  0  0  0
 11 12  1  0  0  0  0
 11 32  1  0  0  0  0
 11 33  1  0  0  0  0
 12 13  1  0  0  0  0
 13 18  1  0  0  0  0
 13 14  1  0  0  0  0
 13 34  1  0  0  0  0
 14 15  1  0  0  0  0
 14 35  1  0  0  0  0
 14 36  1  0  0  0  0
 15 16  1  0  0  0  0
 15 37  1  0  0  0  0
 15 38  1  0  0  0  0
 16 17  1  0  0  0  0
 16 39  1  0  0  0  0
 16 40  1  0  0  0  0
 17 18  1  0  0  0  0
 17 41  1  0  0  0  0
 17 42  1  0  0  0  0
 18 19  1  0  0  0  0
 18 43  1  0  0  0  0
 19 44  1  0  0  0  0
 19 45  1  0  0  0  0
 19 46  1  0  0  0  0
M  END
> <s_m_source_file>
AV-unprocessed.smi

> <i_m_source_file_index>
3348

> <i_lp_mmshare_version>
43012

> <i_f3d_flags>
0

> <s_epik_input>
bjFbY0hdW2NIXVtjSF1uMVtDSDJdW0NAQEhdKFtDSDNdKVtOSF1bQ0gyXVtDSDJdT1tDQEBIXTJbQ0gyXVtDSDJdW0NIMl1bQ0gyXVtDQEhdMltDSDNd

> <s_epik_cmdline>
J2VwaWtfcHl0aG9uJywgJy1waCcsICc3LjAnLCAnLXRuJywgJzgnLCAnLW1hJywgJzIwMCcsICctbWV0YWxfYmluZGluZycsICctaW1hZScsICc8aW5maWxlLm1hZT4nLCAnLW9tYWUnLCAnPG91dGZpbGUubWFlPic=

> <r_lp_tautomer_probability>
1

> <r_epik_Ionization_Penalty>
2.46945

> <r_epik_Ionization_Penalty_Charging>
0

> <r_epik_Ionization_Penalty_Neutral>
2.46945

> <r_epik_State_Penalty>
2.6322

> <r_epik_Charging_Adjusted_Penalty>
2.6322

> <i_epik_Tot_Q>
0

> <i_epik_Tot_abs_Q>
0

> <r_epik_Metal_State_Penalty>
2.63217

> <b_epik_Metal_Only>
0

> <s_lp_Force_Field>
OPLS_2005

> <r_lp_Energy>
18.2161

> <b_lp_Chiralities_Consistent>
1

> <s_lp_Variant>
AV-unprocessed.smi:3348-9

> <Gold.Version>
5.8.1

> <Gold.Id.Protein>
6NUR|6NUR_protein|mol2

> <Gold.PLP.Fitness>
46.1317

> <Gold.PLP.PLP>
-40.3572

> <Gold.PLP.part.hbond>
-1.7368

> <Gold.PLP.part.metal>
0.0000

> <Gold.PLP.part.buried>
0.9005

> <Gold.PLP.part.nonpolar>
-40.5224

> <Gold.PLP.part.repulsive>
0.4066

> <Gold.PLP.ligand.clash>
0.0000

> <Gold.PLP.ligand.torsion>
1.6373

> <Gold.PLP.Chemscore.Hbond>
0.9120

> <Gold.PLP.Chemscore.CHOScore>
2.0000

> <Gold.PLP.Chemscore.Metal>
0.0000

> <Gold.Chemscore.Hbonds>
donor molecule, donor type, donor heavy atom, donor atom, acceptor molecule, acceptor atom, score
      L1  H     9    29       P1 10171  0.70
      L1  C     5    26       P1 10186  0.17
      L1  C     7    28       P1 10747  1.00

> <Gold.PLP.Chemscore.Internal.Correction>
0.3131

> <Gold.Rescore>
     Score         DG    S(hbond)    S(metal)    S(lipo)     H(rot)  DE(clash)    DE(int)     intcor
     13.96     -16.00       0.93        0.00     100.97       1.72       0.20       1.84       ----

> <Gold.Chemscore.Fitness>
13.9638

> <Gold.Chemscore.DG>
-15.9987

> <Gold.Chemscore.ZeroCoef>
-5.4800

> <Gold.Chemscore.Hbond>
0.9336

> <Gold.Chemscore.Metal>
0.0000

> <Gold.Chemscore.Lipo>
100.9665

> <Gold.Chemscore.Internal_Hbond>
0.0000

> <Gold.Chemscore.DEClash>
0.1989

> <Gold.Chemscore.DEInternal>
1.8360

> <Gold.Chemscore.Rot>
1.7237

> <Gold.Chemscore.Internal.Correction>
   9.000000E+99

> <Gold.Chemscore.Hbonds>
donor molecule, donor type, donor heavy atom, donor atom, acceptor molecule, acceptor atom, score
      L1  H     9    29       P1 10171  0.68

> <Gold.Chemscore.Hbond.Weighted>
-3.1182

> <Gold.Chemscore.Metal.Weighted>
-0.0000

> <Gold.Chemscore.Lipo.Weighted>
-11.8131

> <Gold.Chemscore.Internal_Hbond.Weighted>
0.0000

> <Gold.Chemscore.DEClash.Weighted>
0.1989

> <Gold.Chemscore.DEInternal.Weighted>
1.8360

> <Gold.Chemscore.Rot.Weighted>
4.4126

> <Gold.Chemscore.Internal.Correction.Weighted>
   9.000000E+99

> <Gold.Protein.RotatedTorsions>
[ 6907 6896 6895 6894 ] final   32.82 input  -60.11 | X-H torsion
[ 7974 7965 7964 7962 ] final  -34.69 input  175.53 | X-H torsion
[ 8008 7997 7996 7995 ] final   24.16 input   59.86 | X-H torsion
[ 10167 10162 10161 10158 ] final  174.44 input  -65.29 | X-H torsion
[ 10718 10713 10712 10709 ] final -112.20 input   66.30 | X-H torsion
[ 10763 10752 10751 10750 ] final   -5.01 input  -60.55 | X-H torsion
[ 11005 11000 10999 10996 ] final -170.47 input  -57.11 | X-H torsion

> <Gold.Protein.ActiveResidues>
 VAL166  LYS551  ARG553  GLY616  TRP617  ASP618  TYR619  PRO620  LYS621  CYS622 
 ASP623  PHE694  ASN695  SER759  ASP760  ASP761  ALA762  ILE779  LEU786  VAL792 
 PHE793  MET794  SER795  GLU796  ALA797  LYS798  CYS799  TRP800  GLU811  SER814 

> <Gold.Protein.RotatedAtoms>
  152.0799  134.9478  160.0573 H   0  0  0  0  0  0  0  0  0  0  0  0  # atno 6907 bound_to 6896
  152.0771  133.4129  159.4493 H   0  0  0  0  0  0  0  0  0  0  0  0  # atno 6908 bound_to 6896
  150.6836  134.2945  159.4724 H   0  0  0  0  0  0  0  0  0  0  0  0  # atno 6909 bound_to 6896
  146.0809  140.6069  142.8909 H   0  0  0  0  0  0  0  0  0  0  0  0  # atno 7974 bound_to 7965
  154.9919  140.3115  155.4902 H   0  0  0  0  0  0  0  0  0  0  0  0  # atno 8008 bound_to 7997
  156.2938  140.2247  156.4965 H   0  0  0  0  0  0  0  0  0  0  0  0  # atno 8009 bound_to 7997
  154.7695  140.0453  157.1028 H   0  0  0  0  0  0  0  0  0  0  0  0  # atno 8010 bound_to 7997
  139.5142  144.3146  152.0260 H   0  0  0  0  0  0  0  0  0  0  0  0  # atno 10167 bound_to 10162
  156.0691  130.5907  150.8476 H   0  0  0  0  0  0  0  0  0  0  0  0  # atno 10718 bound_to 10713
  153.3926  135.7002  153.6484 H   0  0  0  0  0  0  0  0  0  0  0  0  # atno 10763 bound_to 10752
  153.5050  135.3644  155.2559 H   0  0  0  0  0  0  0  0  0  0  0  0  # atno 10764 bound_to 10752
  154.8704  135.4121  154.3246 H   0  0  0  0  0  0  0  0  0  0  0  0  # atno 10765 bound_to 10752
  140.5192  134.5726  157.5042 H   0  0  0  0  0  0  0  0  0  0  0  0  # atno 11005 bound_to 11000
  144.7292  140.4620  143.6950 LP  0  0  0  0  0  0  0  0  0  0  0  0  # atno 17320 bound_to 7965
  145.6220  139.1525  143.3017 LP  0  0  0  0  0  0  0  0  0  0  0  0  # atno 17321 bound_to 7965
  140.2589  144.4088  150.6193 LP  0  0  0  0  0  0  0  0  0  0  0  0  # atno 17342 bound_to 10162
  140.6171  143.2173  151.6769 LP  0  0  0  0  0  0  0  0  0  0  0  0  # atno 17343 bound_to 10162
  157.5752  131.0946  150.9357 LP  0  0  0  0  0  0  0  0  0  0  0  0  # atno 17370 bound_to 10713
  156.9565  130.5439  149.5284 LP  0  0  0  0  0  0  0  0  0  0  0  0  # atno 17371 bound_to 10713
  139.9615  134.7444  156.0226 LP  0  0  0  0  0  0  0  0  0  0  0  0  # atno 17394 bound_to 11000
  141.1344  133.6578  156.3552 LP  0  0  0  0  0  0  0  0  0  0  0  0  # atno 17395 bound_to 11000

$$$$
