#       Name:                AV-unprocessed.smi:1867
#       Creating user name   scv26
#       Creation time:       Fri Mar 27 09:28:26 2020


#       File generated by GOLD software.
#

@<TRIPOS>MOLECULE
AV-unprocessed.smi:1867
    55    58     1
SMALL
NO_CHARGES


@<TRIPOS>ATOM
      1 ****        -0.7132   2.7092   1.4927 O.2            1 S1                 0.0000
      2 ****        -1.1607   1.6034   1.1999 C.2            1 S1                 0.0000
      3 ****        -0.4117   0.5368   0.8555 N.am           1 S1                 0.0000
      4 ****         1.0040   0.4283   0.7843 C.ar           1 S1                 0.0000
      5 ****         1.5429  -0.6673   0.0770 C.ar           1 S1                 0.0000
      6 ****         2.9409  -0.8270  -0.0116 C.ar           1 S1                 0.0000
      7 ****         3.7941   0.1077   0.6203 C.ar           1 S1                 0.0000
      8 ****         5.1978   0.0152   0.5710 N.pl3          1 S1                 0.0000
      9 ****         6.0468   0.8673   1.3881 C.3            1 S1                 0.0000
     10 ****         7.4608   0.3380   1.1546 C.3            1 S1                 0.0000
     11 ****         7.2384  -1.1587   0.9354 C.3            1 S1                 0.0000
     12 ****         5.8666  -1.2392   0.2549 C.3            1 S1                 0.0000
     13 ****         3.2337   1.1401   1.2943 N.pl3          1 S1                 1.0000
     14 ****         1.9014   1.3317   1.4030 C.ar           1 S1                 0.0000
     15 ****        -2.4868   1.3790   1.1726 N.am           1 S1                 0.0000
     16 ****        -3.5722   2.3114   1.4868 C.3            1 S1                 0.0000
     17 ****        -4.9294   1.8319   0.9874 C.3            1 S1                 0.0000
     18 ****        -5.9177   2.6601   1.8142 C.3            1 S1                 0.0000
     19 ****        -5.2326   3.0010   3.0849 N.4            1 S1                 1.0000
     20 ****        -5.9684   2.5674   4.3028 C.3            1 S1                 0.0000
     21 ****        -5.0543   2.5991   5.5366 C.3            1 S1                 0.0000
     22 ****        -3.8654   1.6315   5.3842 C.3            1 S1                 0.0000
     23 ****        -3.5425   1.3211   3.9102 C.3            1 S1                 0.0000
     24 ****        -3.8182   2.5374   2.9924 C.3            1 S1                 0.0000
     25 ****        -0.9220  -0.2869   0.5735 H              1 S1                 0.0000
     26 ****         0.8911  -1.3825  -0.4034 H              1 S1                 0.0000
     27 ****         3.3416  -1.6620  -0.5673 H              1 S1                 0.0000
     28 ****         5.9574   1.9169   1.1061 H              1 S1                 0.0000
     29 ****         5.7654   0.7639   2.4371 H              1 S1                 0.0000
     30 ****         7.8782   0.7840   0.2508 H              1 S1                 0.0000
     31 ****         8.1378   0.5548   1.9812 H              1 S1                 0.0000
     32 ****         8.0298  -1.6250   0.3481 H              1 S1                 0.0000
     33 ****         7.1968  -1.6645   1.9009 H              1 S1                 0.0000
     34 ****         5.3079  -2.1068   0.6075 H              1 S1                 0.0000
     35 ****         5.9760  -1.3170  -0.8273 H              1 S1                 0.0000
     36 ****         1.6178   2.1931   1.9884 H              1 S1                 0.0000
     37 ****        -2.7752   0.4560   0.8805 H              1 S1                 0.0000
     38 ****        -3.3722   3.2735   1.0105 H              1 S1                 0.0000
     39 ****        -5.0606   1.9686  -0.0868 H              1 S1                 0.0000
     40 ****        -5.0618   0.7717   1.2093 H              1 S1                 0.0000
     41 ****        -6.1464   3.5927   1.2975 H              1 S1                 0.0000
     42 ****        -6.8606   2.1315   1.9610 H              1 S1                 0.0000
     43 ****        -6.8310   3.2188   4.4471 H              1 S1                 0.0000
     44 ****        -6.3556   1.5555   4.1696 H              1 S1                 0.0000
     45 ****        -4.6823   3.6152   5.6753 H              1 S1                 0.0000
     46 ****        -5.6185   2.3565   6.4378 H              1 S1                 0.0000
     47 ****        -2.9924   2.0625   5.8757 H              1 S1                 0.0000
     48 ****        -4.0741   0.6961   5.9046 H              1 S1                 0.0000
     49 ****        -2.5041   0.9974   3.8369 H              1 S1                 0.0000
     50 ****        -4.1470   0.4756   3.5785 H              1 S1                 0.0000
     51 ****        -3.1789   3.3531   3.3333 H              1 S1                 0.0000
     52 ****        -5.1907   4.0096   3.1201 H              1 S1                 0.0000
     53 ****         3.8526   1.8109   1.7500 H              1 S1                 0.0000
     54 ****         0.2743   2.8668   1.4859 LP             1 S1                 0.0000
     55 ****        -1.3364   3.4519   1.7378 LP             1 S1                 0.0000
@<TRIPOS>BOND
    1    1    2 2     
    2    2    3 am    
    3    2   15 am    
    4    3    4 1     
    5    3   25 1     
    6    4   14 ar    
    7    4    5 ar    
    8    5    6 ar    
    9    5   26 1     
   10    6    7 ar    
   11    6   27 1     
   12    7    8 1     
   13    7   13 ar    
   14    8   12 1     
   15    8    9 1     
   16    9   10 1     
   17    9   28 1     
   18    9   29 1     
   19   10   11 1     
   20   10   30 1     
   21   10   31 1     
   22   11   12 1     
   23   11   32 1     
   24   11   33 1     
   25   12   34 1     
   26   12   35 1     
   27   13   14 ar    
   28   13   53 1     
   29   14   36 1     
   30   15   16 1     
   31   15   37 1     
   32   16   24 1     
   33   16   17 1     
   34   16   38 1     
   35   17   18 1     
   36   17   39 1     
   37   17   40 1     
   38   18   19 1     
   39   18   41 1     
   40   18   42 1     
   41   19   24 1     
   42   19   20 1     
   43   19   52 1     
   44   20   21 1     
   45   20   43 1     
   46   20   44 1     
   47   21   22 1     
   48   21   45 1     
   49   21   46 1     
   50   22   23 1     
   51   22   47 1     
   52   22   48 1     
   53   23   24 1     
   54   23   49 1     
   55   23   50 1     
   56   24   51 1     
   57    1   54 1     
   58    1   55 1     
@<TRIPOS>SUBSTRUCTURE
      1 S1             1
@<TRIPOS>SET
LONE_PAIRS      STATIC     ATOMS    <user>   **** ""
2 54 55
DONOR_HYDROGENS      STATIC     ATOMS    <user>   **** ""
4 25 53 37 52
ATOM$BLUE        STATIC     ATOMS    COLORGROUP SYSTEM
2 54 55
ATOM$RED        STATIC     ATOMS    COLORGROUP SYSTEM
4 25 53 37 52
