#       Name:                AV-unprocessed.smi:281
#       Creating user name   scv26
#       Creation time:       Thu Mar 26 21:40:12 2020


#       File generated by GOLD software.
#

@<TRIPOS>MOLECULE
AV-unprocessed.smi:281
    67    71     1
SMALL
NO_CHARGES


@<TRIPOS>ATOM
      1 ****        -4.2399  -2.1426  -0.9934 C.3            1 S1                 0.0000
      2 ****        -3.6262  -1.3461   0.1627 C.3            1 S1                 0.0000
      3 ****        -2.0946  -1.2529   0.0503 C.3            1 S1                 0.0000
      4 ****        -1.5733  -0.4028   1.1114 N.3            1 S1                 0.0000
      5 ****        -0.2288  -0.3896   1.2191 C.ar           1 S1                 0.0000
      6 ****         0.2954  -0.7511   2.4153 N.ar           1 S1                 0.0000
      7 ****         1.6206  -0.7520   2.5898 C.ar           1 S1                 0.0000
      8 ****         2.5784  -0.4314   1.7169 N.ar           1 S1                 0.0000
      9 ****         2.0518  -0.0632   0.5134 C.ar           1 S1                 0.0000
     10 ****         0.6688  -0.0081   0.1820 C.ar           1 S1                 0.0000
     11 ****         0.5128   0.4298  -1.1275 N.2            1 S1                 0.0000
     12 ****         1.7338   0.6154  -1.5485 C.2            1 S1                 0.0000
     13 ****         2.7215   0.3301  -0.6325 N.pl3          1 S1                 0.0000
     14 ****         4.1588   0.4386  -0.8346 C.3            1 S1                 0.0000
     15 ****         4.8159  -0.8688  -1.3410 C.3            1 S1                 0.0000
     16 ****         4.6165  -1.8863  -0.3767 O.3            1 S1                 0.0000
     17 ****         6.3171  -0.7100  -1.5955 C.3            1 S1                 0.0000
     18 ****         6.4361  -0.7784  -3.1136 C.3            1 S1                 0.0000
     19 ****         5.4145  -1.6937  -3.4655 O.3            1 S1                 0.0000
     20 ****         4.2690  -1.3505  -2.6998 C.3            1 S1                 0.0000
     21 ****        -2.1618   0.9287   1.1035 C.3            1 S1                 0.0000
     22 ****        -3.7075   0.8391   1.1728 C.3            1 S1                 0.0000
     23 ****        -4.2150   0.4026   2.5440 C.3            1 S1                 0.0000
     24 ****        -4.2541   1.7083   3.3289 C.3            1 S1                 0.0000
     25 ****        -4.5494   2.7185   2.3725 O.3            1 S1                 0.0000
     26 ****        -4.4244   2.1991   1.0511 C.3            1 S1                 0.0000
     27 ****        -3.7899   3.2374   0.1146 C.3            1 S1                 0.0000
     28 ****        -4.1837  -0.0310   0.1405 O.3            1 S1                 0.0000
     29 ****        -3.8571  -3.1633  -1.0138 H              1 S1                 0.0000
     30 ****        -4.0140  -1.6806  -1.9549 H              1 S1                 0.0000
     31 ****        -5.3244  -2.1968  -0.8964 H              1 S1                 0.0000
     32 ****        -3.8941  -1.8409   1.0970 H              1 S1                 0.0000
     33 ****        -1.6496  -2.2465   0.1197 H              1 S1                 0.0000
     34 ****        -1.8232  -0.8432  -0.9230 H              1 S1                 0.0000
     35 ****         1.9627  -1.0529   3.5690 H              1 S1                 0.0000
     36 ****         1.9472   0.9651  -2.5481 H              1 S1                 0.0000
     37 ****         4.3417   1.2478  -1.5431 H              1 S1                 0.0000
     38 ****         4.6142   0.7500   0.1065 H              1 S1                 0.0000
     39 ****         5.0129  -2.6828  -0.6954 H              1 S1                 0.0000
     40 ****         6.7320   0.2139  -1.1907 H              1 S1                 0.0000
     41 ****         6.8785  -1.5375  -1.1581 H              1 S1                 0.0000
     42 ****         6.2338   0.1933  -3.5676 H              1 S1                 0.0000
     43 ****         7.4166  -1.1195  -3.4461 H              1 S1                 0.0000
     44 ****         3.5728  -2.1866  -2.6215 H              1 S1                 0.0000
     45 ****         3.7567  -0.5439  -3.2253 H              1 S1                 0.0000
     46 ****        -1.7698   1.5192   1.9328 H              1 S1                 0.0000
     47 ****        -1.8542   1.4276   0.1839 H              1 S1                 0.0000
     48 ****        -5.2274   0.0059   2.4552 H              1 S1                 0.0000
     49 ****        -3.6010  -0.3595   3.0247 H              1 S1                 0.0000
     50 ****        -4.9928   1.6901   4.1304 H              1 S1                 0.0000
     51 ****        -3.2802   1.9195   3.7717 H              1 S1                 0.0000
     52 ****        -5.4442   2.0120   0.7102 H              1 S1                 0.0000
     53 ****        -3.6712   2.8360  -0.8921 H              1 S1                 0.0000
     54 ****        -2.8106   3.5571   0.4714 H              1 S1                 0.0000
     55 ****        -4.4166   4.1265   0.0449 H              1 S1                 0.0000
     56 ****        -1.8763  -0.8428   1.9567 LP             1 S1                 0.0000
     57 ****        -0.3086  -1.0169   3.1666 LP             1 S1                 0.0000
     58 ****         3.5573  -0.4578   1.9194 LP             1 S1                 0.0000
     59 ****        -0.3394   0.5704  -1.6315 LP             1 S1                 0.0000
     60 ****         3.6370  -2.0300  -0.2354 LP             1 S1                 0.0000
     61 ****         5.0425  -1.6199   0.4879 LP             1 S1                 0.0000
     62 ****         5.7021  -2.6277  -3.2537 LP             1 S1                 0.0000
     63 ****         5.2096  -1.6213  -4.4416 LP             1 S1                 0.0000
     64 ****        -3.9121   3.4802   2.4894 LP             1 S1                 0.0000
     65 ****        -5.4851   3.0424   2.5127 LP             1 S1                 0.0000
     66 ****        -5.1760  -0.1119   0.2346 LP             1 S1                 0.0000
     67 ****        -3.9655   0.3848  -0.7424 LP             1 S1                 0.0000
@<TRIPOS>BOND
    1    1    2 1     
    2    1   29 1     
    3    1   30 1     
    4    1   31 1     
    5    2   28 1     
    6    2    3 1     
    7    2   32 1     
    8    3    4 1     
    9    3   33 1     
   10    3   34 1     
   11    4    5 1     
   12    4   21 1     
   13    5   10 ar    
   14    5    6 ar    
   15    6    7 ar    
   16    7    8 ar    
   17    7   35 1     
   18    8    9 ar    
   19    9   13 1     
   20    9   10 ar    
   21   10   11 1     
   22   11   12 2     
   23   12   13 1     
   24   12   36 1     
   25   13   14 1     
   26   14   15 1     
   27   14   37 1     
   28   14   38 1     
   29   15   20 1     
   30   15   16 1     
   31   15   17 1     
   32   16   39 1     
   33   17   18 1     
   34   17   40 1     
   35   17   41 1     
   36   18   19 1     
   37   18   42 1     
   38   18   43 1     
   39   19   20 1     
   40   20   44 1     
   41   20   45 1     
   42   21   22 1     
   43   21   46 1     
   44   21   47 1     
   45   22   26 1     
   46   22   23 1     
   47   22   28 1     
   48   23   24 1     
   49   23   48 1     
   50   23   49 1     
   51   24   25 1     
   52   24   50 1     
   53   24   51 1     
   54   25   26 1     
   55   26   27 1     
   56   26   52 1     
   57   27   53 1     
   58   27   54 1     
   59   27   55 1     
   60    4   56 1     
   61    6   57 1     
   62    8   58 1     
   63   11   59 1     
   64   16   60 1     
   65   16   61 1     
   66   19   62 1     
   67   19   63 1     
   68   25   64 1     
   69   25   65 1     
   70   28   66 1     
   71   28   67 1     
@<TRIPOS>SUBSTRUCTURE
      1 S1             1
@<TRIPOS>SET
LONE_PAIRS      STATIC     ATOMS    <user>   **** ""
12 56 57 58 59 60 61 62 63 64 65 66 67
DONOR_HYDROGENS      STATIC     ATOMS    <user>   **** ""
1 39
ATOM$BLUE        STATIC     ATOMS    COLORGROUP SYSTEM
12 56 57 58 59 60 61 62 63 64 65 66 67
ATOM$RED        STATIC     ATOMS    COLORGROUP SYSTEM
1 39
