AV-unprocessed.smi:1957|AV-procd|sdf|7905|dock3
  -GOLD-   2272010 63D 1   1.00000     0.00000
 Structure written by MMmdl.
 42 43  0  0  0  0  0  0  0  0  1 V2000
  151.5360  145.5954  160.1150 C   0  0  0  0  0  0  0  0  0  0  0  0
  151.8903  144.6241  161.0837 O   0  0  0  0  0  0  0  0  0  0  0  0
  152.6801  143.5799  160.5406 C   0  0  0  0  0  0  0  0  0  0  0  0
  153.1974  142.7006  161.6889 C   0  0  0  0  0  0  0  0  0  0  0  0
  153.6159  141.3798  161.2088 N   0  0  0  0  0  0  0  0  0  0  0  0
  152.8991  140.9238  160.1150 N   0  0  0  0  0  0  0  0  0  0  0  0
  153.1780  139.7755  159.5876 C   0  0  0  0  0  0  0  0  0  0  0  0
  152.4344  139.2513  158.4090 C   0  0  0  0  0  0  0  0  0  0  0  0
  152.6700  138.1399  157.9318 O   0  0  0  0  0  0  0  0  0  0  0  0
  151.4996  140.0784  157.9047 N   0  0  0  0  0  0  0  0  0  0  0  0
  150.6771  139.8160  156.7218 C   0  0  1  0  0  0  0  0  0  0  0  0
  149.9219  141.1209  156.3805 C   0  0  0  0  0  0  0  0  0  0  0  0
  148.6545  140.9011  155.5359 C   0  0  0  0  0  0  0  0  0  0  0  0
  148.9028  140.3511  154.1230 C   0  0  0  0  0  0  0  0  0  0  0  0
  149.5505  138.9559  154.1072 C   0  0  0  0  0  0  0  0  0  0  0  0
  150.9799  139.0119  154.3838 N   0  0  0  0  0  0  0  0  0  0  0  0
  151.5662  139.4157  155.5208 C   0  0  0  0  0  0  0  0  0  0  0  0
  152.7936  139.4698  155.6008 O   0  0  0  0  0  0  0  0  0  0  0  0
  154.2409  138.9460  160.1301 C   0  0  0  0  0  0  0  0  0  0  0  0
  154.9330  139.4055  161.1955 C   0  0  0  0  0  0  0  0  0  0  0  0
  154.6407  140.7022  161.8085 C   0  0  0  0  0  0  0  0  0  0  0  0
  155.2621  141.1458  162.7735 O   0  0  0  0  0  0  0  0  0  0  0  0
  150.9384  146.3779  160.5823 H   0  0  0  0  0  0  0  0  0  0  0  0
  150.9441  145.1533  159.3126 H   0  0  0  0  0  0  0  0  0  0  0  0
  152.4214  146.0620  159.6811 H   0  0  0  0  0  0  0  0  0  0  0  0
  152.0840  142.9814  159.8495 H   0  0  0  0  0  0  0  0  0  0  0  0
  153.5138  144.0012  159.9767 H   0  0  0  0  0  0  0  0  0  0  0  0
  154.0226  143.1991  162.2004 H   0  0  0  0  0  0  0  0  0  0  0  0
  152.4139  142.5913  162.4411 H   0  0  0  0  0  0  0  0  0  0  0  0
  151.3736  140.9738  158.3544 H   0  0  0  0  0  0  0  0  0  0  0  0
  149.9670  139.0183  156.9477 H   0  0  0  0  0  0  0  0  0  0  0  0
  149.6055  141.6004  157.3084 H   0  0  0  0  0  0  0  0  0  0  0  0
  150.5820  141.8403  155.8926 H   0  0  0  0  0  0  0  0  0  0  0  0
  147.9765  140.2336  156.0693 H   0  0  0  0  0  0  0  0  0  0  0  0
  148.1263  141.8511  155.4492 H   0  0  0  0  0  0  0  0  0  0  0  0
  147.9424  140.2904  153.6103 H   0  0  0  0  0  0  0  0  0  0  0  0
  149.5053  141.0533  153.5449 H   0  0  0  0  0  0  0  0  0  0  0  0
  149.0514  138.2786  154.8017 H   0  0  0  0  0  0  0  0  0  0  0  0
  149.4339  138.5183  153.1154 H   0  0  0  0  0  0  0  0  0  0  0  0
  151.5904  138.7477  153.6240 H   0  0  0  0  0  0  0  0  0  0  0  0
  154.4785  137.9849  159.6978 H   0  0  0  0  0  0  0  0  0  0  0  0
  155.7263  138.7997  161.6082 H   0  0  0  0  0  0  0  0  0  0  0  0
  1  2  1  0  0  0  0
  1 23  1  0  0  0  0
  1 24  1  0  0  0  0
  1 25  1  0  0  0  0
  2  3  1  0  0  0  0
  3  4  1  0  0  0  0
  3 26  1  0  0  0  0
  3 27  1  0  0  0  0
  4  5  1  0  0  0  0
  4 28  1  0  0  0  0
  4 29  1  0  0  0  0
  5 21  1  0  0  0  0
  5  6  1  0  0  0  0
  6  7  2  0  0  0  0
  7  8  1  0  0  0  0
  7 19  1  0  0  0  0
  8  9  2  0  0  0  0
  8 10  1  0  0  0  0
 10 11  1  0  0  0  0
 10 30  1  0  0  0  0
 11 17  1  0  0  0  0
 11 12  1  0  0  0  0
 11 31  1  0  0  0  0
 12 13  1  0  0  0  0
 12 32  1  0  0  0  0
 12 33  1  0  0  0  0
 13 14  1  0  0  0  0
 13 34  1  0  0  0  0
 13 35  1  0  0  0  0
 14 15  1  0  0  0  0
 14 36  1  0  0  0  0
 14 37  1  0  0  0  0
 15 16  1  0  0  0  0
 15 38  1  0  0  0  0
 15 39  1  0  0  0  0
 16 17  1  0  0  0  0
 16 40  1  0  0  0  0
 17 18  2  0  0  0  0
 19 20  2  0  0  0  0
 19 41  1  0  0  0  0
 20 21  1  0  0  0  0
 20 42  1  0  0  0  0
 21 22  2  0  0  0  0
M  END
> <s_m_source_file>
AV-unprocessed.smi

> <i_m_source_file_index>
1957

> <i_lp_mmshare_version>
43012

> <i_f3d_flags>
0

> <s_epik_input>
W0NIM11PW0NIMl1bQ0gyXW4xbmMoW2NIXVtjSF1jMT1PKUMoPU8pW05IXVtDQEBIXTJbQ0gyXVtDSDJdW0NIMl1bQ0gyXVtOSF1DMj1P

> <s_epik_cmdline>
J2VwaWtfcHl0aG9uJywgJy1waCcsICc3LjAnLCAnLXRuJywgJzgnLCAnLW1hJywgJzIwMCcsICctbWV0YWxfYmluZGluZycsICctaW1hZScsICc8aW5maWxlLm1hZT4nLCAnLW9tYWUnLCAnPG91dGZpbGUubWFlPic=

> <r_lp_tautomer_probability>
1

> <r_epik_Ionization_Penalty>
2.17512e-06

> <r_epik_Ionization_Penalty_Charging>
5.0222e-09

> <r_epik_Ionization_Penalty_Neutral>
2.1701e-06

> <r_epik_State_Penalty>
-0

> <r_epik_Charging_Adjusted_Penalty>
5.0222e-09

> <i_epik_Tot_Q>
0

> <i_epik_Tot_abs_Q>
0

> <r_epik_Metal_State_Penalty>
-0

> <b_epik_Metal_Only>
0

> <s_lp_Force_Field>
OPLS_2005

> <r_lp_Energy>
29.6922

> <b_lp_Chiralities_Consistent>
1

> <s_lp_Variant>
AV-unprocessed.smi:1957-2

> <Gold.Version>
5.8.1

> <Gold.Id.Protein>
6NUR|6NUR_protein|mol2

> <Gold.PLP.Fitness>
41.4895

> <Gold.PLP.PLP>
-39.5910

> <Gold.PLP.part.hbond>
-2.0000

> <Gold.PLP.part.metal>
0.0000

> <Gold.PLP.part.buried>
-4.8572

> <Gold.PLP.part.nonpolar>
-32.5798

> <Gold.PLP.part.repulsive>
0.3728

> <Gold.PLP.ligand.clash>
0.0000

> <Gold.PLP.ligand.torsion>
0.5564

> <Gold.PLP.Chemscore.Hbond>
1.0000

> <Gold.PLP.Chemscore.CHOScore>
0.0000

> <Gold.PLP.Chemscore.Metal>
0.0000

> <Gold.Chemscore.Hbonds>
donor molecule, donor type, donor heavy atom, donor atom, acceptor molecule, acceptor atom, score
      P1  H  7997  8008       L1    18  1.00

> <Gold.PLP.Chemscore.Internal.Correction>
0.0113

> <Gold.Rescore>
     Score         DG    S(hbond)    S(metal)    S(lipo)     H(rot)  DE(clash)    DE(int)     intcor
      8.48     -14.23       1.00        0.00      85.18       1.78       1.56       4.20       ----

> <Gold.Chemscore.Fitness>
8.4753

> <Gold.Chemscore.DG>
-14.2313

> <Gold.Chemscore.ZeroCoef>
-5.4800

> <Gold.Chemscore.Hbond>
0.9997

> <Gold.Chemscore.Metal>
0.0000

> <Gold.Chemscore.Lipo>
85.1845

> <Gold.Chemscore.Internal_Hbond>
0.0000

> <Gold.Chemscore.DEClash>
1.5592

> <Gold.Chemscore.DEInternal>
4.1968

> <Gold.Chemscore.Rot>
1.7791

> <Gold.Chemscore.Internal.Correction>
   9.000000E+99

> <Gold.Chemscore.Hbonds>
donor molecule, donor type, donor heavy atom, donor atom, acceptor molecule, acceptor atom, score
      P1  H  7997  8008       L1    18  1.00

> <Gold.Chemscore.Hbond.Weighted>
-3.3391

> <Gold.Chemscore.Metal.Weighted>
-0.0000

> <Gold.Chemscore.Lipo.Weighted>
-9.9666

> <Gold.Chemscore.Internal_Hbond.Weighted>
0.0000

> <Gold.Chemscore.DEClash.Weighted>
1.5592

> <Gold.Chemscore.DEInternal.Weighted>
4.1968

> <Gold.Chemscore.Rot.Weighted>
4.5544

> <Gold.Chemscore.Internal.Correction.Weighted>
   9.000000E+99

> <Gold.Protein.RotatedTorsions>
[ 6907 6896 6895 6894 ] final   31.36 input  -60.11 | X-H torsion
[ 7974 7965 7964 7962 ] final   37.72 input  175.53 | X-H torsion
[ 8008 7997 7996 7995 ] final  -31.40 input   59.86 | X-H torsion
[ 10167 10162 10161 10158 ] final   65.36 input  -65.29 | X-H torsion
[ 10718 10713 10712 10709 ] final  -25.22 input   66.30 | X-H torsion
[ 10763 10752 10751 10750 ] final -107.36 input  -60.55 | X-H torsion
[ 11005 11000 10999 10996 ] final   70.32 input  -57.11 | X-H torsion

> <Gold.Protein.ActiveResidues>
 VAL166  LYS551  ARG553  GLY616  TRP617  ASP618  TYR619  PRO620  LYS621  CYS622 
 ASP623  PHE694  ASN695  SER759  ASP760  ASP761  ALA762  ILE779  LEU786  VAL792 
 PHE793  MET794  SER795  GLU796  ALA797  LYS798  CYS799  TRP800  GLU811  SER814 

> <Gold.Protein.RotatedAtoms>
  152.0591  134.9605  160.0574 H   0  0  0  0  0  0  0  0  0  0  0  0  # atno 6907 bound_to 6896
  152.0976  133.4228  159.4580 H   0  0  0  0  0  0  0  0  0  0  0  0  # atno 6908 bound_to 6896
  150.6838  134.2718  159.4634 H   0  0  0  0  0  0  0  0  0  0  0  0  # atno 6909 bound_to 6896
  146.1116  139.5859  142.9348 H   0  0  0  0  0  0  0  0  0  0  0  0  # atno 7974 bound_to 7965
  154.4215  140.1765  156.1560 H   0  0  0  0  0  0  0  0  0  0  0  0  # atno 8008 bound_to 7997
  155.9876  140.3372  155.6698 H   0  0  0  0  0  0  0  0  0  0  0  0  # atno 8009 bound_to 7997
  155.6415  140.0680  157.2607 H   0  0  0  0  0  0  0  0  0  0  0  0  # atno 8010 bound_to 7997
  140.1121  144.4809  150.6972 H   0  0  0  0  0  0  0  0  0  0  0  0  # atno 10167 bound_to 10162
  156.4672  130.4516  149.6891 H   0  0  0  0  0  0  0  0  0  0  0  0  # atno 10718 bound_to 10713
  154.8070  135.4677  154.0419 H   0  0  0  0  0  0  0  0  0  0  0  0  # atno 10763 bound_to 10752
  153.1879  135.6850  153.8397 H   0  0  0  0  0  0  0  0  0  0  0  0  # atno 10764 bound_to 10752
  153.7925  135.3241  155.3357 H   0  0  0  0  0  0  0  0  0  0  0  0  # atno 10765 bound_to 10752
  139.9604  134.7071  156.0658 H   0  0  0  0  0  0  0  0  0  0  0  0  # atno 11005 bound_to 11000
  145.5652  141.0400  143.2204 LP  0  0  0  0  0  0  0  0  0  0  0  0  # atno 17320 bound_to 7965
  144.7516  139.7179  143.7271 LP  0  0  0  0  0  0  0  0  0  0  0  0  # atno 17321 bound_to 7965
  140.6920  143.2381  151.5105 LP  0  0  0  0  0  0  0  0  0  0  0  0  # atno 17342 bound_to 10162
  139.5614  144.2148  152.1696 LP  0  0  0  0  0  0  0  0  0  0  0  0  # atno 17343 bound_to 10162
  156.3655  130.7503  151.2481 LP  0  0  0  0  0  0  0  0  0  0  0  0  # atno 17370 bound_to 10713
  157.7494  131.0338  150.4288 LP  0  0  0  0  0  0  0  0  0  0  0  0  # atno 17371 bound_to 10713
  141.1281  133.6594  156.3389 LP  0  0  0  0  0  0  0  0  0  0  0  0  # atno 17394 bound_to 11000
  140.5513  134.6025  157.5408 LP  0  0  0  0  0  0  0  0  0  0  0  0  # atno 17395 bound_to 11000

$$$$
