AV-unprocessed.smi:1323|AV-procd|sdf|5465|dock9
  -GOLD-   22720 5 33D 1   1.00000     0.00000
 Structure written by MMmdl.
 45 46  0  0  0  0  0  0  0  0  1 V2000
  145.4025  136.2866  151.8354 C   0  0  0  0  0  0  0  0  0  0  0  0
  145.6562  134.8841  151.2591 C   0  0  2  0  0  0  0  0  0  0  0  0
  144.3826  134.3366  150.5833 C   0  0  0  0  0  0  0  0  0  0  0  0
  144.6036  132.9315  150.0035 C   0  0  0  0  0  0  0  0  0  0  0  0
  145.0962  131.9619  151.0864 C   0  0  0  0  0  0  0  0  0  0  0  0
  146.3724  132.4899  151.7581 C   0  0  0  0  0  0  0  0  0  0  0  0
  146.1673  133.9049  152.3404 C   0  0  1  0  0  0  0  0  0  0  0  0
  147.4128  134.3948  152.8212 O   0  0  0  0  0  0  0  0  0  0  0  0
  147.9201  133.7015  153.9520 C   0  0  0  0  0  0  0  0  0  0  0  0
  148.2454  134.7173  155.0520 C   0  0  0  0  0  0  0  0  0  0  0  0
  148.9813  135.8463  154.5003 N   0  0  0  0  0  0  0  0  0  0  0  0
  150.0197  136.4443  155.0999 C   0  0  0  0  0  0  0  0  0  0  0  0
  150.4591  136.0899  156.1951 O   0  0  0  0  0  0  0  0  0  0  0  0
  150.6363  137.6272  154.3390 C   0  0  0  0  0  0  0  0  0  0  0  0
  149.8799  138.8824  154.4829 N   0  0  0  0  0  0  0  0  0  0  0  0
  148.5142  138.8482  154.1372 C   0  0  0  0  0  0  0  0  0  0  0  0
  147.7306  139.9339  154.2311 C   0  0  0  0  0  0  0  0  0  0  0  0
  148.3223  141.1642  154.7005 C   0  0  0  0  0  0  0  0  0  0  0  0
  149.6266  141.2069  155.0383 C   0  0  0  0  0  0  0  0  0  0  0  0
  150.4860  140.0210  154.9412 C   0  0  0  0  0  0  0  0  0  0  0  0
  151.6770  140.0499  155.2527 O   0  0  0  0  0  0  0  0  0  0  0  0
  144.6458  136.2622  152.6202 H   0  0  0  0  0  0  0  0  0  0  0  0
  145.0563  136.9716  151.0610 H   0  0  0  0  0  0  0  0  0  0  0  0
  146.3110  136.7113  152.2627 H   0  0  0  0  0  0  0  0  0  0  0  0
  146.4275  134.9751  150.4926 H   0  0  0  0  0  0  0  0  0  0  0  0
  143.5660  134.3047  151.3061 H   0  0  0  0  0  0  0  0  0  0  0  0
  144.0631  135.0110  149.7880 H   0  0  0  0  0  0  0  0  0  0  0  0
  143.6773  132.5598  149.5643 H   0  0  0  0  0  0  0  0  0  0  0  0
  145.3332  132.9796  149.1943 H   0  0  0  0  0  0  0  0  0  0  0  0
  144.3173  131.8225  151.8370 H   0  0  0  0  0  0  0  0  0  0  0  0
  145.2843  130.9810  150.6491 H   0  0  0  0  0  0  0  0  0  0  0  0
  146.6817  131.7948  152.5383 H   0  0  0  0  0  0  0  0  0  0  0  0
  147.1822  132.5111  151.0276 H   0  0  0  0  0  0  0  0  0  0  0  0
  145.4343  133.8686  153.1491 H   0  0  0  0  0  0  0  0  0  0  0  0
  147.1682  132.9978  154.3119 H   0  0  0  0  0  0  0  0  0  0  0  0
  148.8107  133.1251  153.6997 H   0  0  0  0  0  0  0  0  0  0  0  0
  147.3283  135.0680  155.5277 H   0  0  0  0  0  0  0  0  0  0  0  0
  148.8487  134.2398  155.8256 H   0  0  0  0  0  0  0  0  0  0  0  0
  148.6741  136.1999  153.6056 H   0  0  0  0  0  0  0  0  0  0  0  0
  151.6666  137.7653  154.6726 H   0  0  0  0  0  0  0  0  0  0  0  0
  150.7140  137.3516  153.2861 H   0  0  0  0  0  0  0  0  0  0  0  0
  148.1486  137.8886  153.8017 H   0  0  0  0  0  0  0  0  0  0  0  0
  146.6846  139.8871  153.9664 H   0  0  0  0  0  0  0  0  0  0  0  0
  147.7156  142.0541  154.7825 H   0  0  0  0  0  0  0  0  0  0  0  0
  150.0516  142.1358  155.3888 H   0  0  0  0  0  0  0  0  0  0  0  0
  1  2  1  0  0  0  0
  1 22  1  0  0  0  0
  1 23  1  0  0  0  0
  1 24  1  0  0  0  0
  2  7  1  0  0  0  0
  2  3  1  0  0  0  0
  2 25  1  0  0  0  0
  3  4  1  0  0  0  0
  3 26  1  0  0  0  0
  3 27  1  0  0  0  0
  4  5  1  0  0  0  0
  4 28  1  0  0  0  0
  4 29  1  0  0  0  0
  5  6  1  0  0  0  0
  5 30  1  0  0  0  0
  5 31  1  0  0  0  0
  6  7  1  0  0  0  0
  6 32  1  0  0  0  0
  6 33  1  0  0  0  0
  7  8  1  0  0  0  0
  7 34  1  0  0  0  0
  8  9  1  0  0  0  0
  9 10  1  0  0  0  0
  9 35  1  0  0  0  0
  9 36  1  0  0  0  0
 10 11  1  0  0  0  0
 10 37  1  0  0  0  0
 10 38  1  0  0  0  0
 11 12  1  0  0  0  0
 11 39  1  0  0  0  0
 12 13  2  0  0  0  0
 12 14  1  0  0  0  0
 14 15  1  0  0  0  0
 14 40  1  0  0  0  0
 14 41  1  0  0  0  0
 15 20  1  0  0  0  0
 15 16  1  0  0  0  0
 16 17  2  0  0  0  0
 16 42  1  0  0  0  0
 17 18  1  0  0  0  0
 17 43  1  0  0  0  0
 18 19  2  0  0  0  0
 18 44  1  0  0  0  0
 19 20  1  0  0  0  0
 19 45  1  0  0  0  0
 20 21  2  0  0  0  0
M  END
> <s_m_source_file>
AV-unprocessed.smi

> <i_m_source_file_index>
1323

> <i_lp_mmshare_version>
43012

> <i_f3d_flags>
0

> <s_epik_input>
W0NIM11bQ0BASF0xW0NIMl1bQ0gyXVtDSDJdW0NIMl1bQ0BIXTFPW0NIMl1bQ0gyXVtOSF1DKD1PKVtDSDJdbjJbY0hdW2NIXVtjSF1bY0hdYzI9Tw==

> <s_epik_cmdline>
J2VwaWtfcHl0aG9uJywgJy1waCcsICc3LjAnLCAnLXRuJywgJzgnLCAnLW1hJywgJzIwMCcsICctbWV0YWxfYmluZGluZycsICctaW1hZScsICc8aW5maWxlLm1hZT4nLCAnLW9tYWUnLCAnPG91dGZpbGUubWFlPic=

> <r_lp_tautomer_probability>
1

> <r_epik_Ionization_Penalty>
4.02412e-07

> <r_epik_Ionization_Penalty_Charging>
3.74552e-07

> <r_epik_Ionization_Penalty_Neutral>
2.78599e-08

> <r_epik_State_Penalty>
-0

> <r_epik_Charging_Adjusted_Penalty>
3.74552e-07

> <i_epik_Tot_Q>
0

> <i_epik_Tot_abs_Q>
0

> <r_epik_Metal_State_Penalty>
-0

> <b_epik_Metal_Only>
0

> <s_lp_Force_Field>
OPLS_2005

> <r_lp_Energy>
21.1571

> <b_lp_Chiralities_Consistent>
1

> <s_lp_Variant>
AV-unprocessed.smi:1323-1

> <Gold.Version>
5.8.1

> <Gold.Id.Protein>
6NUR|6NUR_protein|mol2

> <Gold.PLP.Fitness>
40.3077

> <Gold.PLP.PLP>
-36.0022

> <Gold.PLP.part.hbond>
-2.0000

> <Gold.PLP.part.metal>
0.0000

> <Gold.PLP.part.buried>
-3.6041

> <Gold.PLP.part.nonpolar>
-33.4782

> <Gold.PLP.part.repulsive>
3.6115

> <Gold.PLP.ligand.clash>
0.0000

> <Gold.PLP.ligand.torsion>
0.8750

> <Gold.PLP.Chemscore.Hbond>
1.0000

> <Gold.PLP.Chemscore.CHOScore>
1.0000

> <Gold.PLP.Chemscore.Metal>
0.0000

> <Gold.Chemscore.Hbonds>
donor molecule, donor type, donor heavy atom, donor atom, acceptor molecule, acceptor atom, score
      L1  H    11    39       P1  7948  0.91
      L1  C    16    42       P1  7948  0.66

> <Gold.PLP.Chemscore.Internal.Correction>
0.0555

> <Gold.Rescore>
     Score         DG    S(hbond)    S(metal)    S(lipo)     H(rot)  DE(clash)    DE(int)     intcor
     11.69     -14.15       0.98        0.00      88.59       1.94       1.52       0.94       ----

> <Gold.Chemscore.Fitness>
11.6938

> <Gold.Chemscore.DG>
-14.1538

> <Gold.Chemscore.ZeroCoef>
-5.4800

> <Gold.Chemscore.Hbond>
0.9804

> <Gold.Chemscore.Metal>
0.0000

> <Gold.Chemscore.Lipo>
88.5913

> <Gold.Chemscore.Internal_Hbond>
0.0000

> <Gold.Chemscore.DEClash>
1.5212

> <Gold.Chemscore.DEInternal>
0.9388

> <Gold.Chemscore.Rot>
1.9398

> <Gold.Chemscore.Internal.Correction>
   9.000000E+99

> <Gold.Chemscore.Hbonds>
donor molecule, donor type, donor heavy atom, donor atom, acceptor molecule, acceptor atom, score
      L1  H    11    39       P1  7948  0.88

> <Gold.Chemscore.Hbond.Weighted>
-3.2745

> <Gold.Chemscore.Metal.Weighted>
-0.0000

> <Gold.Chemscore.Lipo.Weighted>
-10.3652

> <Gold.Chemscore.Internal_Hbond.Weighted>
0.0000

> <Gold.Chemscore.DEClash.Weighted>
1.5212

> <Gold.Chemscore.DEInternal.Weighted>
0.9388

> <Gold.Chemscore.Rot.Weighted>
4.9659

> <Gold.Chemscore.Internal.Correction.Weighted>
   9.000000E+99

> <Gold.Protein.RotatedTorsions>
[ 6907 6896 6895 6894 ] final   76.73 input  -60.11 | X-H torsion
[ 7974 7965 7964 7962 ] final  -32.94 input  175.53 | X-H torsion
[ 8008 7997 7996 7995 ] final  104.79 input   59.86 | X-H torsion
[ 10167 10162 10161 10158 ] final  -74.84 input  -65.29 | X-H torsion
[ 10718 10713 10712 10709 ] final  146.47 input   66.30 | X-H torsion
[ 10763 10752 10751 10750 ] final  -84.32 input  -60.55 | X-H torsion
[ 11005 11000 10999 10996 ] final  139.69 input  -57.11 | X-H torsion

> <Gold.Protein.ActiveResidues>
 VAL166  LYS551  ARG553  GLY616  TRP617  ASP618  TYR619  PRO620  LYS621  CYS622 
 ASP623  PHE694  ASN695  SER759  ASP760  ASP761  ALA762  ILE779  LEU786  VAL792 
 PHE793  MET794  SER795  GLU796  ALA797  LYS798  CYS799  TRP800  GLU811  SER814 

> <Gold.Protein.RotatedAtoms>
  152.5086  134.3925  159.9388 H   0  0  0  0  0  0  0  0  0  0  0  0  # atno 6907 bound_to 6896
  151.3886  133.3790  159.2726 H   0  0  0  0  0  0  0  0  0  0  0  0  # atno 6908 bound_to 6896
  150.9450  134.8876  159.7695 H   0  0  0  0  0  0  0  0  0  0  0  0  # atno 6909 bound_to 6896
  146.0950  140.5855  142.8847 H   0  0  0  0  0  0  0  0  0  0  0  0  # atno 7974 bound_to 7965
  156.1604  140.3141  155.8797 H   0  0  0  0  0  0  0  0  0  0  0  0  # atno 8008 bound_to 7997
  155.3794  140.0487  157.3061 H   0  0  0  0  0  0  0  0  0  0  0  0  # atno 8009 bound_to 7997
  154.5141  140.2175  155.9111 H   0  0  0  0  0  0  0  0  0  0  0  0  # atno 8010 bound_to 7997
  140.4993  143.2364  151.7779 H   0  0  0  0  0  0  0  0  0  0  0  0  # atno 10167 bound_to 10162
  157.3328  131.0923  151.1148 H   0  0  0  0  0  0  0  0  0  0  0  0  # atno 10718 bound_to 10713
  154.5982  135.5524  153.7347 H   0  0  0  0  0  0  0  0  0  0  0  0  # atno 10763 bound_to 10752
  153.0143  135.6360  154.1753 H   0  0  0  0  0  0  0  0  0  0  0  0  # atno 10764 bound_to 10752
  154.1693  135.2893  155.3066 H   0  0  0  0  0  0  0  0  0  0  0  0  # atno 10765 bound_to 10752
  140.0273  134.9368  157.0593 H   0  0  0  0  0  0  0  0  0  0  0  0  # atno 11005 bound_to 11000
  144.7388  140.4885  143.6884 LP  0  0  0  0  0  0  0  0  0  0  0  0  # atno 17320 bound_to 7965
  145.5966  139.1500  143.3152 LP  0  0  0  0  0  0  0  0  0  0  0  0  # atno 17321 bound_to 7965
  139.4868  144.4544  151.9616 LP  0  0  0  0  0  0  0  0  0  0  0  0  # atno 17342 bound_to 10162
  140.3632  144.2947  150.5930 LP  0  0  0  0  0  0  0  0  0  0  0  0  # atno 17343 bound_to 10162
  157.2390  130.6560  149.5882 LP  0  0  0  0  0  0  0  0  0  0  0  0  # atno 17370 bound_to 10713
  155.9698  130.4574  150.5962 LP  0  0  0  0  0  0  0  0  0  0  0  0  # atno 17371 bound_to 10713
  140.4285  134.1806  155.7167 LP  0  0  0  0  0  0  0  0  0  0  0  0  # atno 17394 bound_to 11000
  141.1810  133.8413  157.1257 LP  0  0  0  0  0  0  0  0  0  0  0  0  # atno 17395 bound_to 11000

$$$$
