AV-unprocessed.smi:1166|AV-procd|sdf|4936|dock5
  -GOLD-   22720 3523D 1   1.00000     0.00000
 Structure written by MMmdl.
 46 47  0  0  0  0  0  0  0  0  1 V2000
  147.3241  128.4068  152.9267 C   0  0  0  0  0  0  0  0  0  0  0  0
  148.5745  128.9891  153.4033 N   0  0  0  0  0  0  0  0  0  0  0  0
  149.7304  128.1328  153.6384 C   0  0  0  0  0  0  0  0  0  0  0  0
  148.6879  130.3911  153.5463 C   0  0  0  0  0  0  0  0  0  0  0  0
  149.8582  130.9883  154.0771 C   0  0  0  0  0  0  0  0  0  0  0  0
  149.9204  132.3892  154.1990 C   0  0  0  0  0  0  0  0  0  0  0  0
  148.8168  133.1667  153.8004 C   0  0  0  0  0  0  0  0  0  0  0  0
  148.9170  134.5791  153.9171 N   0  0  0  0  0  0  0  0  0  0  0  0
  149.6157  135.2961  154.8135 C   0  0  0  0  0  0  0  0  0  0  0  0
  150.3298  134.8282  155.7001 O   0  0  0  0  0  0  0  0  0  0  0  0
  149.4565  136.6112  154.6089 N   0  0  0  0  0  0  0  0  0  0  0  0
  150.1037  137.6681  155.3793 C   0  0  2  0  0  0  0  0  0  0  0  0
  149.5467  139.0480  154.9927 C   0  0  0  0  0  0  0  0  0  0  0  0
  150.2806  140.1399  155.7795 C   0  0  0  0  0  0  0  0  0  0  0  0
  151.8023  140.0586  155.5647 C   0  0  0  0  0  0  0  0  0  0  0  0
  152.3236  138.7069  155.8542 N   0  0  0  0  0  0  0  0  0  0  0  0
  153.1333  138.3893  157.3616 S   0  0  0  0  0  0  0  0  0  0  0  0
  151.7763  137.9308  158.5162 C   0  0  0  0  0  0  0  0  0  0  0  0
  153.9904  137.2091  157.1710 O   0  0  0  0  0  0  0  0  0  0  0  0
  153.7255  139.6523  157.8284 O   0  0  0  0  0  0  0  0  0  0  0  0
  151.6263  137.6134  155.1490 C   0  0  0  0  0  0  0  0  0  0  0  0
  147.6948  132.4872  153.2715 C   0  0  0  0  0  0  0  0  0  0  0  0
  147.6321  131.1444  153.1518 N   0  0  0  0  0  0  0  0  0  0  0  0
  146.4980  128.6797  153.5841 H   0  0  0  0  0  0  0  0  0  0  0  0
  147.3777  127.3184  152.8962 H   0  0  0  0  0  0  0  0  0  0  0  0
  147.0973  128.7593  151.9201 H   0  0  0  0  0  0  0  0  0  0  0  0
  150.5536  128.4107  152.9794 H   0  0  0  0  0  0  0  0  0  0  0  0
  149.4935  127.0856  153.4499 H   0  0  0  0  0  0  0  0  0  0  0  0
  150.0656  128.2163  154.6725 H   0  0  0  0  0  0  0  0  0  0  0  0
  150.7078  130.4020  154.3928 H   0  0  0  0  0  0  0  0  0  0  0  0
  150.8074  132.8580  154.5994 H   0  0  0  0  0  0  0  0  0  0  0  0
  148.4447  135.1065  153.1976 H   0  0  0  0  0  0  0  0  0  0  0  0
  148.8526  136.9048  153.8552 H   0  0  0  0  0  0  0  0  0  0  0  0
  149.9063  137.4955  156.4373 H   0  0  0  0  0  0  0  0  0  0  0  0
  149.6711  139.2179  153.9223 H   0  0  0  0  0  0  0  0  0  0  0  0
  148.4767  139.1008  155.1975 H   0  0  0  0  0  0  0  0  0  0  0  0
  149.9184  141.1218  155.4739 H   0  0  0  0  0  0  0  0  0  0  0  0
  150.0459  140.0470  156.8391 H   0  0  0  0  0  0  0  0  0  0  0  0
  152.0371  140.3015  154.5279 H   0  0  0  0  0  0  0  0  0  0  0  0
  152.3116  140.8021  156.1769 H   0  0  0  0  0  0  0  0  0  0  0  0
  152.1995  137.7372  159.5015 H   0  0  0  0  0  0  0  0  0  0  0  0
  151.2776  137.0291  158.1652 H   0  0  0  0  0  0  0  0  0  0  0  0
  151.0614  138.7479  158.5938 H   0  0  0  0  0  0  0  0  0  0  0  0
  152.0252  136.6491  155.4635 H   0  0  0  0  0  0  0  0  0  0  0  0
  151.8431  137.7021  154.0834 H   0  0  0  0  0  0  0  0  0  0  0  0
  146.8248  133.0124  152.9097 H   0  0  0  0  0  0  0  0  0  0  0  0
  1  2  1  0  0  0  0
  1 24  1  0  0  0  0
  1 25  1  0  0  0  0
  1 26  1  0  0  0  0
  2  3  1  0  0  0  0
  2  4  1  0  0  0  0
  3 27  1  0  0  0  0
  3 28  1  0  0  0  0
  3 29  1  0  0  0  0
  4 23  1  0  0  0  0
  4  5  2  0  0  0  0
  5  6  1  0  0  0  0
  5 30  1  0  0  0  0
  6  7  2  0  0  0  0
  6 31  1  0  0  0  0
  7  8  1  0  0  0  0
  7 22  1  0  0  0  0
  8  9  1  0  0  0  0
  8 32  1  0  0  0  0
  9 10  2  0  0  0  0
  9 11  1  0  0  0  0
 11 12  1  0  0  0  0
 11 33  1  0  0  0  0
 12 21  1  0  0  0  0
 12 13  1  0  0  0  0
 12 34  1  0  0  0  0
 13 14  1  0  0  0  0
 13 35  1  0  0  0  0
 13 36  1  0  0  0  0
 14 15  1  0  0  0  0
 14 37  1  0  0  0  0
 14 38  1  0  0  0  0
 15 16  1  0  0  0  0
 15 39  1  0  0  0  0
 15 40  1  0  0  0  0
 16 17  1  0  0  0  0
 16 21  1  0  0  0  0
 17 18  1  0  0  0  0
 17 19  2  0  0  0  0
 17 20  2  0  0  0  0
 18 41  1  0  0  0  0
 18 42  1  0  0  0  0
 18 43  1  0  0  0  0
 21 44  1  0  0  0  0
 21 45  1  0  0  0  0
 22 23  2  0  0  0  0
 22 46  1  0  0  0  0
M  END
> <s_m_source_file>
AV-unprocessed.smi

> <i_m_source_file_index>
1166

> <i_lp_mmshare_version>
43012

> <i_f3d_flags>
0

> <s_epik_input>
W0NIM11OKFtDSDNdKWMxW2NIXVtjSF1jKFtjSF1uMSlbTkhdQyg9TylbTkhdW0NAQEhdMltDSDJdW0NIMl1bQ0gyXU4oW0NIMl0yKVMoPU8pKD1PKVtDSDNd

> <s_epik_cmdline>
J2VwaWtfcHl0aG9uJywgJy1waCcsICc3LjAnLCAnLXRuJywgJzgnLCAnLW1hJywgJzIwMCcsICctbWV0YWxfYmluZGluZycsICctaW1hZScsICc8aW5maWxlLm1hZT4nLCAnLW9tYWUnLCAnPG91dGZpbGUubWFlPic=

> <r_lp_tautomer_probability>
1

> <r_epik_Ionization_Penalty>
0.585334

> <r_epik_Ionization_Penalty_Charging>
0

> <r_epik_Ionization_Penalty_Neutral>
0.585334

> <r_epik_State_Penalty>
0.597345

> <r_epik_Charging_Adjusted_Penalty>
0.597345

> <i_epik_Tot_Q>
0

> <i_epik_Tot_abs_Q>
0

> <r_epik_Metal_State_Penalty>
0.29678

> <b_epik_Metal_Only>
0

> <s_lp_Force_Field>
OPLS_2005

> <r_lp_Energy>
0.833523

> <b_lp_Chiralities_Consistent>
1

> <s_lp_Variant>
AV-unprocessed.smi:1166-3

> <Gold.Version>
5.8.1

> <Gold.Id.Protein>
6NUR|6NUR_protein|mol2

> <Gold.PLP.Fitness>
42.5684

> <Gold.PLP.PLP>
-34.5786

> <Gold.PLP.part.hbond>
-3.0000

> <Gold.PLP.part.metal>
0.0000

> <Gold.PLP.part.buried>
-1.8334

> <Gold.PLP.part.nonpolar>
-30.4502

> <Gold.PLP.part.repulsive>
0.7022

> <Gold.PLP.ligand.clash>
0.0000

> <Gold.PLP.ligand.torsion>
1.2748

> <Gold.PLP.Chemscore.Hbond>
2.8240

> <Gold.PLP.Chemscore.CHOScore>
0.0000

> <Gold.PLP.Chemscore.Metal>
0.0000

> <Gold.Chemscore.Hbonds>
donor molecule, donor type, donor heavy atom, donor atom, acceptor molecule, acceptor atom, score
      L1  H     8    32       P1  7948  0.70
      L1  H    11    33       P1  7948  0.42
      P1  H  7997  8009       L1    20  0.47

> <Gold.PLP.Chemscore.Internal.Correction>
2.0674

> <Gold.Rescore>
     Score         DG    S(hbond)    S(metal)    S(lipo)     H(rot)  DE(clash)    DE(int)     intcor
     15.99     -18.61       2.37        0.00      66.52       1.00       0.07       2.55       ----

> <Gold.Chemscore.Fitness>
15.9871

> <Gold.Chemscore.DG>
-18.6066

> <Gold.Chemscore.ZeroCoef>
-5.4800

> <Gold.Chemscore.Hbond>
2.3663

> <Gold.Chemscore.Metal>
0.0000

> <Gold.Chemscore.Lipo>
66.5235

> <Gold.Chemscore.Internal_Hbond>
0.0000

> <Gold.Chemscore.DEClash>
0.0707

> <Gold.Chemscore.DEInternal>
2.5488

> <Gold.Chemscore.Rot>
1.0000

> <Gold.Chemscore.Internal.Correction>
   9.000000E+99

> <Gold.Chemscore.Hbonds>
donor molecule, donor type, donor heavy atom, donor atom, acceptor molecule, acceptor atom, score
      L1  H     8    32       P1  7948  0.62
      L1  H    11    33       P1  7948  0.41
      P1  H  7997  8009       L1    20  0.42

> <Gold.Chemscore.Hbond.Weighted>
-7.9033

> <Gold.Chemscore.Metal.Weighted>
-0.0000

> <Gold.Chemscore.Lipo.Weighted>
-7.7832

> <Gold.Chemscore.Internal_Hbond.Weighted>
0.0000

> <Gold.Chemscore.DEClash.Weighted>
0.0707

> <Gold.Chemscore.DEInternal.Weighted>
2.5488

> <Gold.Chemscore.Rot.Weighted>
2.5600

> <Gold.Chemscore.Internal.Correction.Weighted>
   9.000000E+99

> <Gold.Protein.RotatedTorsions>
[ 6907 6896 6895 6894 ] final  -28.51 input  -60.11 | X-H torsion
[ 7974 7965 7964 7962 ] final -136.97 input  175.53 | X-H torsion
[ 8008 7997 7996 7995 ] final  133.04 input   59.86 | X-H torsion
[ 10167 10162 10161 10158 ] final  -15.52 input  -65.29 | X-H torsion
[ 10718 10713 10712 10709 ] final -156.33 input   66.30 | X-H torsion
[ 10763 10752 10751 10750 ] final   64.76 input  -60.55 | X-H torsion
[ 11005 11000 10999 10996 ] final  -41.04 input  -57.11 | X-H torsion

> <Gold.Protein.ActiveResidues>
 VAL166  LYS551  ARG553  GLY616  TRP617  ASP618  TYR619  PRO620  LYS621  CYS622 
 ASP623  PHE694  ASN695  SER759  ASP760  ASP761  ALA762  ILE779  LEU786  VAL792 
 PHE793  MET794  SER795  GLU796  ALA797  LYS798  CYS799  TRP800  GLU811  SER814 

> <Gold.Protein.RotatedAtoms>
  151.1320  135.0135  159.8586 H   0  0  0  0  0  0  0  0  0  0  0  0  # atno 6907 bound_to 6896
  152.5451  134.1599  159.8563 H   0  0  0  0  0  0  0  0  0  0  0  0  # atno 6908 bound_to 6896
  151.1667  133.4765  159.2627 H   0  0  0  0  0  0  0  0  0  0  0  0  # atno 6909 bound_to 6896
  144.8882  140.6604  143.5162 H   0  0  0  0  0  0  0  0  0  0  0  0  # atno 7974 bound_to 7965
  156.2988  140.2531  156.3187 H   0  0  0  0  0  0  0  0  0  0  0  0  # atno 8008 bound_to 7997
  154.9256  140.0399  157.2040 H   0  0  0  0  0  0  0  0  0  0  0  0  # atno 8009 bound_to 7997
  154.8268  140.2869  155.5753 H   0  0  0  0  0  0  0  0  0  0  0  0  # atno 8010 bound_to 7997
  140.7220  143.5209  150.9634 H   0  0  0  0  0  0  0  0  0  0  0  0  # atno 10167 bound_to 10162
  156.5250  130.8495  151.2696 H   0  0  0  0  0  0  0  0  0  0  0  0  # atno 10718 bound_to 10713
  153.0068  135.5381  154.6560 H   0  0  0  0  0  0  0  0  0  0  0  0  # atno 10763 bound_to 10752
  154.5780  135.2847  155.0763 H   0  0  0  0  0  0  0  0  0  0  0  0  # atno 10764 bound_to 10752
  154.1903  135.6501  153.5110 H   0  0  0  0  0  0  0  0  0  0  0  0  # atno 10765 bound_to 10752
  141.0217  133.6859  156.2403 H   0  0  0  0  0  0  0  0  0  0  0  0  # atno 11005 bound_to 11000
  145.3831  139.1632  143.4270 LP  0  0  0  0  0  0  0  0  0  0  0  0  # atno 17320 bound_to 7965
  146.3037  140.3914  142.8695 LP  0  0  0  0  0  0  0  0  0  0  0  0  # atno 17321 bound_to 7965
  139.8926  143.6934  152.3143 LP  0  0  0  0  0  0  0  0  0  0  0  0  # atno 17342 bound_to 10162
  139.7255  144.7594  151.0886 LP  0  0  0  0  0  0  0  0  0  0  0  0  # atno 17343 bound_to 10162
  157.7431  130.9904  150.2565 LP  0  0  0  0  0  0  0  0  0  0  0  0  # atno 17370 bound_to 10713
  156.3113  130.3772  149.7659 LP  0  0  0  0  0  0  0  0  0  0  0  0  # atno 17371 bound_to 10713
  140.6561  134.5017  157.5580 LP  0  0  0  0  0  0  0  0  0  0  0  0  # atno 17394 bound_to 11000
  139.9150  134.8264  156.1396 LP  0  0  0  0  0  0  0  0  0  0  0  0  # atno 17395 bound_to 11000

$$$$
