AV-unprocessed.smi:1920|AV-procd|sdf|7782|dock5
  -GOLD-   22720 9523D 1   1.00000     0.00000
 Structure written by MMmdl.
 36 37  0  0  0  0  0  0  0  0  1 V2000
  147.7636  141.7537  156.6963 C   0  0  0  0  0  0  0  0  0  0  0  0
  149.2436  141.4200  156.4523 C   0  0  1  0  0  0  0  0  0  0  0  0
  149.4732  140.8885  155.0248 C   0  0  0  0  0  0  0  0  0  0  0  0
  150.6011  139.9780  154.9505 N   0  0  0  0  0  0  0  0  0  0  0  0
  150.6459  138.7520  154.3001 C   0  0  0  0  0  0  0  0  0  0  0  0
  151.9104  138.2463  154.5012 C   0  0  0  0  0  0  0  0  0  0  0  0
  152.6568  139.1404  155.2654 N   0  0  0  0  0  0  0  0  0  0  0  0
  151.8161  140.1415  155.4918 C   0  0  0  0  0  0  0  0  0  0  0  0
  150.0640  142.6068  156.6847 N   0  0  0  0  0  0  0  0  0  0  0  0
  151.0906  142.6862  157.5449 C   0  0  0  0  0  0  0  0  0  0  0  0
  151.4667  141.7425  158.2403 O   0  0  0  0  0  0  0  0  0  0  0  0
  151.7999  144.0411  157.6379 C   0  0  0  0  0  0  0  0  0  0  0  0
  152.7021  144.1754  158.8840 C   0  0  2  0  0  0  0  0  0  0  0  0
  153.7420  143.0868  159.0033 C   0  0  0  0  0  0  0  0  0  0  0  0
  153.7268  142.4907  160.1933 C   0  0  0  0  0  0  0  0  0  0  0  0
  152.6769  143.0585  161.1074 C   0  0  0  0  0  0  0  0  0  0  0  0
  151.9214  144.0718  160.2192 C   0  0  0  0  0  0  0  0  0  0  0  0
  147.1349  140.8751  156.5494 H   0  0  0  0  0  0  0  0  0  0  0  0
  147.4144  142.5309  156.0158 H   0  0  0  0  0  0  0  0  0  0  0  0
  147.5994  142.1054  157.7154 H   0  0  0  0  0  0  0  0  0  0  0  0
  149.5343  140.6366  157.1550 H   0  0  0  0  0  0  0  0  0  0  0  0
  148.5890  140.3530  154.6765 H   0  0  0  0  0  0  0  0  0  0  0  0
  149.6349  141.7117  154.3269 H   0  0  0  0  0  0  0  0  0  0  0  0
  149.7974  138.3510  153.7658 H   0  0  0  0  0  0  0  0  0  0  0  0
  152.3370  137.3158  154.1566 H   0  0  0  0  0  0  0  0  0  0  0  0
  152.0893  141.0131  156.0684 H   0  0  0  0  0  0  0  0  0  0  0  0
  149.8288  143.4335  156.1546 H   0  0  0  0  0  0  0  0  0  0  0  0
  152.4005  144.1686  156.7366 H   0  0  0  0  0  0  0  0  0  0  0  0
  151.0600  144.8433  157.6299 H   0  0  0  0  0  0  0  0  0  0  0  0
  153.2330  145.1281  158.8528 H   0  0  0  0  0  0  0  0  0  0  0  0
  154.4260  142.8489  158.2017 H   0  0  0  0  0  0  0  0  0  0  0  0
  154.3922  141.6978  160.5014 H   0  0  0  0  0  0  0  0  0  0  0  0
  152.0191  142.2722  161.4785 H   0  0  0  0  0  0  0  0  0  0  0  0
  153.1544  143.5458  161.9580 H   0  0  0  0  0  0  0  0  0  0  0  0
  151.8354  145.0436  160.7065 H   0  0  0  0  0  0  0  0  0  0  0  0
  150.9058  143.7137  160.0453 H   0  0  0  0  0  0  0  0  0  0  0  0
  1  2  1  0  0  0  0
  1 18  1  0  0  0  0
  1 19  1  0  0  0  0
  1 20  1  0  0  0  0
  2  3  1  0  0  0  0
  2  9  1  0  0  0  0
  2 21  1  0  0  0  0
  3  4  1  0  0  0  0
  3 22  1  0  0  0  0
  3 23  1  0  0  0  0
  4  8  1  0  0  0  0
  4  5  1  0  0  0  0
  5  6  2  0  0  0  0
  5 24  1  0  0  0  0
  6  7  1  0  0  0  0
  6 25  1  0  0  0  0
  7  8  2  0  0  0  0
  8 26  1  0  0  0  0
  9 10  1  0  0  0  0
  9 27  1  0  0  0  0
 10 11  2  0  0  0  0
 10 12  1  0  0  0  0
 12 13  1  0  0  0  0
 12 28  1  0  0  0  0
 12 29  1  0  0  0  0
 13 17  1  0  0  0  0
 13 14  1  0  0  0  0
 13 30  1  0  0  0  0
 14 15  2  0  0  0  0
 14 31  1  0  0  0  0
 15 16  1  0  0  0  0
 15 32  1  0  0  0  0
 16 17  1  0  0  0  0
 16 33  1  0  0  0  0
 16 34  1  0  0  0  0
 17 35  1  0  0  0  0
 17 36  1  0  0  0  0
M  END
> <s_m_source_file>
AV-unprocessed.smi

> <i_m_source_file_index>
1920

> <i_lp_mmshare_version>
43012

> <i_f3d_flags>
0

> <s_epik_input>
W2NIXTFuW2NIXVtjSF1uMVtDSDJdW0NAQEhdKFtDSDNdKVtOSF1DKD1PKVtDSDJdW0NAQEhdMltDSF09W0NIXVtDSDJdW0NIMl0y

> <s_epik_cmdline>
J2VwaWtfcHl0aG9uJywgJy1waCcsICc3LjAnLCAnLXRuJywgJzgnLCAnLW1hJywgJzIwMCcsICctbWV0YWxfYmluZGluZycsICctaW1hZScsICc8aW5maWxlLm1hZT4nLCAnLW9tYWUnLCAnPG91dGZpbGUubWFlPic=

> <r_lp_tautomer_probability>
1

> <r_epik_Ionization_Penalty>
0.635367

> <r_epik_Ionization_Penalty_Charging>
0.635367

> <r_epik_Ionization_Penalty_Neutral>
2.1249e-08

> <r_epik_State_Penalty>
0.65258

> <r_epik_Charging_Adjusted_Penalty>
1.28795

> <i_epik_Tot_Q>
0

> <i_epik_Tot_abs_Q>
0

> <r_epik_Metal_State_Penalty>
0.310403

> <b_epik_Metal_Only>
0

> <s_lp_Force_Field>
OPLS_2005

> <r_lp_Energy>
19.6981

> <b_lp_Chiralities_Consistent>
1

> <s_lp_Variant>
AV-unprocessed.smi:1920-6

> <Gold.Version>
5.8.1

> <Gold.Id.Protein>
6NUR|6NUR_protein|mol2

> <Gold.PLP.Fitness>
49.3979

> <Gold.PLP.PLP>
-44.9630

> <Gold.PLP.part.hbond>
-2.0000

> <Gold.PLP.part.metal>
0.0000

> <Gold.PLP.part.buried>
-3.5243

> <Gold.PLP.part.nonpolar>
-39.6270

> <Gold.PLP.part.repulsive>
0.0564

> <Gold.PLP.ligand.clash>
0.0000

> <Gold.PLP.ligand.torsion>
0.7299

> <Gold.PLP.Chemscore.Hbond>
1.9500

> <Gold.PLP.Chemscore.CHOScore>
0.0000

> <Gold.PLP.Chemscore.Metal>
0.0000

> <Gold.Chemscore.Hbonds>
donor molecule, donor type, donor heavy atom, donor atom, acceptor molecule, acceptor atom, score
      L1  H     9    27       P1  8028  1.00
      P1  H  7997  8008       L1     7  0.49

> <Gold.PLP.Chemscore.Internal.Correction>
0.0448

> <Gold.Rescore>
     Score         DG    S(hbond)    S(metal)    S(lipo)     H(rot)  DE(clash)    DE(int)     intcor
     13.54     -18.24       1.65        0.00     104.29       1.93       0.21       4.49       ----

> <Gold.Chemscore.Fitness>
13.5389

> <Gold.Chemscore.DG>
-18.2436

> <Gold.Chemscore.ZeroCoef>
-5.4800

> <Gold.Chemscore.Hbond>
1.6479

> <Gold.Chemscore.Metal>
0.0000

> <Gold.Chemscore.Lipo>
104.2910

> <Gold.Chemscore.Internal_Hbond>
0.0000

> <Gold.Chemscore.DEClash>
0.2129

> <Gold.Chemscore.DEInternal>
4.4918

> <Gold.Chemscore.Rot>
1.9306

> <Gold.Chemscore.Internal.Correction>
   9.000000E+99

> <Gold.Chemscore.Hbonds>
donor molecule, donor type, donor heavy atom, donor atom, acceptor molecule, acceptor atom, score
      L1  H     9    27       P1  8028  0.99
      P1  H  7997  8008       L1     7  0.06

> <Gold.Chemscore.Hbond.Weighted>
-5.5040

> <Gold.Chemscore.Metal.Weighted>
-0.0000

> <Gold.Chemscore.Lipo.Weighted>
-12.2020

> <Gold.Chemscore.Internal_Hbond.Weighted>
0.0000

> <Gold.Chemscore.DEClash.Weighted>
0.2129

> <Gold.Chemscore.DEInternal.Weighted>
4.4918

> <Gold.Chemscore.Rot.Weighted>
4.9424

> <Gold.Chemscore.Internal.Correction.Weighted>
   9.000000E+99

> <Gold.Protein.RotatedTorsions>
[ 6907 6896 6895 6894 ] final  -77.78 input  -60.11 | X-H torsion
[ 7974 7965 7964 7962 ] final   -6.52 input  175.53 | X-H torsion
[ 8008 7997 7996 7995 ] final  -33.34 input   59.86 | X-H torsion
[ 10167 10162 10161 10158 ] final   64.28 input  -65.29 | X-H torsion
[ 10718 10713 10712 10709 ] final -148.31 input   66.30 | X-H torsion
[ 10763 10752 10751 10750 ] final  -58.04 input  -60.55 | X-H torsion
[ 11005 11000 10999 10996 ] final   93.98 input  -57.11 | X-H torsion

> <Gold.Protein.ActiveResidues>
 VAL166  LYS551  ARG553  GLY616  TRP617  ASP618  TYR619  PRO620  LYS621  CYS622 
 ASP623  PHE694  ASN695  SER759  ASP760  ASP761  ALA762  ILE779  LEU786  VAL792 
 PHE793  MET794  SER795  GLU796  ALA797  LYS798  CYS799  TRP800  GLU811  SER814 

> <Gold.Protein.RotatedAtoms>
  150.6989  134.4371  159.5274 H   0  0  0  0  0  0  0  0  0  0  0  0  # atno 6907 bound_to 6896
  152.2087  134.8518  160.0509 H   0  0  0  0  0  0  0  0  0  0  0  0  # atno 6908 bound_to 6896
  151.9412  133.3603  159.4002 H   0  0  0  0  0  0  0  0  0  0  0  0  # atno 6909 bound_to 6896
  146.2329  140.2182  142.8337 H   0  0  0  0  0  0  0  0  0  0  0  0  # atno 7974 bound_to 7965
  154.4152  140.1713  156.1872 H   0  0  0  0  0  0  0  0  0  0  0  0  # atno 8008 bound_to 7997
  155.9633  140.3391  155.6486 H   0  0  0  0  0  0  0  0  0  0  0  0  # atno 8009 bound_to 7997
  155.6720  140.0713  157.2507 H   0  0  0  0  0  0  0  0  0  0  0  0  # atno 8010 bound_to 7997
  140.1239  144.4705  150.6904 H   0  0  0  0  0  0  0  0  0  0  0  0  # atno 10167 bound_to 10162
  156.4187  130.8018  151.2239 H   0  0  0  0  0  0  0  0  0  0  0  0  # atno 10718 bound_to 10713
  154.2319  135.6359  153.5178 H   0  0  0  0  0  0  0  0  0  0  0  0  # atno 10763 bound_to 10752
  152.9947  135.5521  154.6003 H   0  0  0  0  0  0  0  0  0  0  0  0  # atno 10764 bound_to 10752
  154.5488  135.2900  155.1002 H   0  0  0  0  0  0  0  0  0  0  0  0  # atno 10765 bound_to 10752
  139.8803  134.8820  156.3798 H   0  0  0  0  0  0  0  0  0  0  0  0  # atno 11005 bound_to 11000
  144.9652  140.8315  143.5489 LP  0  0  0  0  0  0  0  0  0  0  0  0  # atno 17320 bound_to 7965
  145.2158  139.2183  143.5119 LP  0  0  0  0  0  0  0  0  0  0  0  0  # atno 17321 bound_to 7965
  140.6856  143.2348  151.5269 LP  0  0  0  0  0  0  0  0  0  0  0  0  # atno 17342 bound_to 10162
  139.5554  144.2289  152.1603 LP  0  0  0  0  0  0  0  0  0  0  0  0  # atno 17343 bound_to 10162
  157.7508  131.0235  150.3836 LP  0  0  0  0  0  0  0  0  0  0  0  0  # atno 17370 bound_to 10713
  156.4149  130.3941  149.6865 LP  0  0  0  0  0  0  0  0  0  0  0  0  # atno 17371 bound_to 10713
  140.9407  133.7517  156.0142 LP  0  0  0  0  0  0  0  0  0  0  0  0  # atno 17394 bound_to 11000
  140.8223  134.3275  157.5377 LP  0  0  0  0  0  0  0  0  0  0  0  0  # atno 17395 bound_to 11000

$$$$
