AV-unprocessed.smi:2140|AV-procd|sdf|8715|dock9
  -GOLD-   2272011483D 1   1.00000     0.00000
 Structure written by MMmdl.
 39 40  0  0  0  0  0  0  0  0  1 V2000
  146.9185  139.3081  152.5926 C   0  0  0  0  0  0  0  0  0  0  0  0
  146.9257  139.0796  154.1259 C   0  0  1  0  0  0  0  0  0  0  0  0
  146.4412  137.6297  154.4204 C   0  0  0  0  0  0  0  0  0  0  0  0
  146.7813  136.6766  153.3673 N   0  0  0  0  0  0  0  0  0  0  0  0
  145.9171  135.8356  152.7822 C   0  0  0  0  0  0  0  0  0  0  0  0
  144.7249  135.7712  153.0815 O   0  0  0  0  0  0  0  0  0  0  0  0
  146.5204  135.1069  151.8277 N   0  0  0  0  0  0  0  0  0  0  0  0
  145.9529  134.1150  150.9834 C   0  0  0  0  0  0  0  0  0  0  0  0
  144.6134  134.1312  150.5247 C   0  0  0  0  0  0  0  0  0  0  0  0
  144.1629  133.0777  149.7058 C   0  0  0  0  0  0  0  0  0  0  0  0
  145.0638  132.0448  149.3819 C   0  0  0  0  0  0  0  0  0  0  0  0
  146.3387  132.0093  149.8237 N   0  0  0  0  0  0  0  0  0  0  0  0
  146.7631  133.0219  150.6092 C   0  0  0  0  0  0  0  0  0  0  0  0
  148.2338  139.3947  154.7463 N   0  0  0  0  0  0  0  0  0  0  0  0
  149.3179  138.5450  154.2398 C   0  0  0  0  0  0  0  0  0  0  0  0
  150.6824  138.8833  154.8643 C   0  0  0  0  0  0  0  0  0  0  0  0
  150.9900  140.2498  154.6272 O   0  0  0  0  0  0  0  0  0  0  0  0
  150.0041  141.1185  155.1671 C   0  0  0  0  0  0  0  0  0  0  0  0
  148.6307  140.7945  154.5528 C   0  0  0  0  0  0  0  0  0  0  0  0
  145.9718  139.0268  152.1330 H   0  0  0  0  0  0  0  0  0  0  0  0
  147.7040  138.7308  152.1040 H   0  0  0  0  0  0  0  0  0  0  0  0
  147.0574  140.3561  152.3309 H   0  0  0  0  0  0  0  0  0  0  0  0
  146.1851  139.7593  154.5503 H   0  0  0  0  0  0  0  0  0  0  0  0
  146.8820  137.2746  155.3523 H   0  0  0  0  0  0  0  0  0  0  0  0
  145.3614  137.5768  154.5521 H   0  0  0  0  0  0  0  0  0  0  0  0
  147.7418  136.6662  153.0571 H   0  0  0  0  0  0  0  0  0  0  0  0
  147.4862  135.3333  151.6405 H   0  0  0  0  0  0  0  0  0  0  0  0
  143.9235  134.9158  150.7938 H   0  0  0  0  0  0  0  0  0  0  0  0
  143.1476  133.0598  149.3379 H   0  0  0  0  0  0  0  0  0  0  0  0
  144.7503  131.2223  148.7560 H   0  0  0  0  0  0  0  0  0  0  0  0
  147.7876  132.9589  150.9459 H   0  0  0  0  0  0  0  0  0  0  0  0
  149.1197  137.4974  154.4590 H   0  0  0  0  0  0  0  0  0  0  0  0
  149.3835  138.6356  153.1544 H   0  0  0  0  0  0  0  0  0  0  0  0
  150.6772  138.6826  155.9371 H   0  0  0  0  0  0  0  0  0  0  0  0
  151.4636  138.2617  154.4267 H   0  0  0  0  0  0  0  0  0  0  0  0
  149.9749  141.0185  156.2533 H   0  0  0  0  0  0  0  0  0  0  0  0
  150.2821  142.1497  154.9487 H   0  0  0  0  0  0  0  0  0  0  0  0
  148.6454  141.0309  153.4877 H   0  0  0  0  0  0  0  0  0  0  0  0
  147.9136  141.4678  155.0172 H   0  0  0  0  0  0  0  0  0  0  0  0
  1  2  1  0  0  0  0
  1 20  1  0  0  0  0
  1 21  1  0  0  0  0
  1 22  1  0  0  0  0
  2  3  1  0  0  0  0
  2 14  1  0  0  0  0
  2 23  1  0  0  0  0
  3  4  1  0  0  0  0
  3 24  1  0  0  0  0
  3 25  1  0  0  0  0
  4  5  1  0  0  0  0
  4 26  1  0  0  0  0
  5  6  2  0  0  0  0
  5  7  1  0  0  0  0
  7  8  1  0  0  0  0
  7 27  1  0  0  0  0
  8 13  1  0  0  0  0
  8  9  2  0  0  0  0
  9 10  1  0  0  0  0
  9 28  1  0  0  0  0
 10 11  2  0  0  0  0
 10 29  1  0  0  0  0
 11 12  1  0  0  0  0
 11 30  1  0  0  0  0
 12 13  2  0  0  0  0
 13 31  1  0  0  0  0
 14 19  1  0  0  0  0
 14 15  1  0  0  0  0
 15 16  1  0  0  0  0
 15 32  1  0  0  0  0
 15 33  1  0  0  0  0
 16 17  1  0  0  0  0
 16 34  1  0  0  0  0
 16 35  1  0  0  0  0
 17 18  1  0  0  0  0
 18 19  1  0  0  0  0
 18 36  1  0  0  0  0
 18 37  1  0  0  0  0
 19 38  1  0  0  0  0
 19 39  1  0  0  0  0
M  END
> <s_m_source_file>
AV-unprocessed.smi

> <i_m_source_file_index>
2140

> <i_lp_mmshare_version>
43012

> <i_f3d_flags>
0

> <s_epik_input>
W0NIMl0xW0NIMl1PW0NIMl1bQ0gyXU4xW0NASF0oW0NIM10pW0NIMl1bTkhdQyg9TylbTkhdYzJbY0hdW2NIXVtjSF1uW2NIXTI=

> <s_epik_cmdline>
J2VwaWtfcHl0aG9uJywgJy1waCcsICc3LjAnLCAnLXRuJywgJzgnLCAnLW1hJywgJzIwMCcsICctbWV0YWxfYmluZGluZycsICctaW1hZScsICc8aW5maWxlLm1hZT4nLCAnLW9tYWUnLCAnPG91dGZpbGUubWFlPic=

> <r_epik_Ionization_Penalty>
0.270748

> <r_epik_Ionization_Penalty_Charging>
0

> <r_epik_Ionization_Penalty_Neutral>
0.270748

> <r_epik_State_Penalty>
0.268258

> <r_epik_Charging_Adjusted_Penalty>
0.268258

> <i_epik_Tot_Q>
0

> <i_epik_Tot_abs_Q>
0

> <r_epik_Metal_State_Penalty>
0.264828

> <b_epik_Metal_Only>
0

> <s_lp_Force_Field>
OPLS_2005

> <r_lp_Energy>
31.3995

> <b_lp_Chiralities_Consistent>
1

> <s_lp_Variant>
AV-unprocessed.smi:2140-2

> <Gold.Version>
5.8.1

> <Gold.Id.Protein>
6NUR|6NUR_protein|mol2

> <Gold.PLP.Fitness>
40.5553

> <Gold.PLP.PLP>
-30.6965

> <Gold.PLP.part.hbond>
-3.0000

> <Gold.PLP.part.metal>
0.0000

> <Gold.PLP.part.buried>
-2.8932

> <Gold.PLP.part.nonpolar>
-25.8642

> <Gold.PLP.part.repulsive>
0.9139

> <Gold.PLP.ligand.clash>
0.1226

> <Gold.PLP.ligand.torsion>
0.6862

> <Gold.PLP.Chemscore.Hbond>
3.0000

> <Gold.PLP.Chemscore.CHOScore>
0.7763

> <Gold.PLP.Chemscore.Metal>
0.0000

> <Gold.Chemscore.Hbonds>
donor molecule, donor type, donor heavy atom, donor atom, acceptor molecule, acceptor atom, score
      L1  H     4    26       P1  7948  1.00
      L1  H     7    27       P1  7948  1.00
      P1  H  7989  7998       L1    17  0.76
      L1  C    13    31       P1 10747  0.70

> <Gold.PLP.Chemscore.Internal.Correction>
0.0248

> <Gold.Rescore>
     Score         DG    S(hbond)    S(metal)    S(lipo)     H(rot)  DE(clash)    DE(int)     intcor
     18.84     -20.19       2.91        0.00      74.81       1.47       0.00       1.34       ----

> <Gold.Chemscore.Fitness>
18.8394

> <Gold.Chemscore.DG>
-20.1852

> <Gold.Chemscore.ZeroCoef>
-5.4800

> <Gold.Chemscore.Hbond>
2.9103

> <Gold.Chemscore.Metal>
0.0000

> <Gold.Chemscore.Lipo>
74.8102

> <Gold.Chemscore.Internal_Hbond>
0.0000

> <Gold.Chemscore.DEClash>
0.0029

> <Gold.Chemscore.DEInternal>
1.3430

> <Gold.Chemscore.Rot>
1.4719

> <Gold.Chemscore.Internal.Correction>
   9.000000E+99

> <Gold.Chemscore.Hbonds>
donor molecule, donor type, donor heavy atom, donor atom, acceptor molecule, acceptor atom, score
      L1  H     4    26       P1  7948  0.94
      L1  H     7    27       P1  7948  0.91
      P1  H  7989  7998       L1    17  0.57

> <Gold.Chemscore.Hbond.Weighted>
-9.7205

> <Gold.Chemscore.Metal.Weighted>
-0.0000

> <Gold.Chemscore.Lipo.Weighted>
-8.7528

> <Gold.Chemscore.Internal_Hbond.Weighted>
0.0000

> <Gold.Chemscore.DEClash.Weighted>
0.0029

> <Gold.Chemscore.DEInternal.Weighted>
1.3430

> <Gold.Chemscore.Rot.Weighted>
3.7681

> <Gold.Chemscore.Internal.Correction.Weighted>
   9.000000E+99

> <Gold.Protein.RotatedTorsions>
[ 6907 6896 6895 6894 ] final  -36.56 input  -60.11 | X-H torsion
[ 7974 7965 7964 7962 ] final  -44.66 input  175.53 | X-H torsion
[ 8008 7997 7996 7995 ] final  164.57 input   59.86 | X-H torsion
[ 10167 10162 10161 10158 ] final  133.23 input  -65.29 | X-H torsion
[ 10718 10713 10712 10709 ] final -149.24 input   66.30 | X-H torsion
[ 10763 10752 10751 10750 ] final -130.55 input  -60.55 | X-H torsion
[ 11005 11000 10999 10996 ] final  -96.42 input  -57.11 | X-H torsion

> <Gold.Protein.ActiveResidues>
 VAL166  LYS551  ARG553  GLY616  TRP617  ASP618  TYR619  PRO620  LYS621  CYS622 
 ASP623  PHE694  ASN695  SER759  ASP760  ASP761  ALA762  ILE779  LEU786  VAL792 
 PHE793  MET794  SER795  GLU796  ALA797  LYS798  CYS799  TRP800  GLU811  SER814 

> <Gold.Protein.RotatedAtoms>
  151.0256  134.9501  159.8082 H   0  0  0  0  0  0  0  0  0  0  0  0  # atno 6907 bound_to 6896
  152.5334  134.2847  159.9030 H   0  0  0  0  0  0  0  0  0  0  0  0  # atno 6908 bound_to 6896
  151.2855  133.4147  159.2663 H   0  0  0  0  0  0  0  0  0  0  0  0  # atno 6909 bound_to 6896
  145.9899  140.7193  142.9322 H   0  0  0  0  0  0  0  0  0  0  0  0  # atno 7974 bound_to 7965
  156.1870  140.1693  156.8166 H   0  0  0  0  0  0  0  0  0  0  0  0  # atno 8008 bound_to 7997
  154.5425  140.0733  156.8567 H   0  0  0  0  0  0  0  0  0  0  0  0  # atno 8009 bound_to 7997
  155.3186  140.3372  155.4244 H   0  0  0  0  0  0  0  0  0  0  0  0  # atno 8010 bound_to 7997
  139.5306  144.6625  151.4966 H   0  0  0  0  0  0  0  0  0  0  0  0  # atno 10167 bound_to 10162
  156.4306  130.8073  151.2300 H   0  0  0  0  0  0  0  0  0  0  0  0  # atno 10718 bound_to 10713
  154.8755  135.3859  154.4101 H   0  0  0  0  0  0  0  0  0  0  0  0  # atno 10763 bound_to 10752
  153.4816  135.7030  153.5940 H   0  0  0  0  0  0  0  0  0  0  0  0  # atno 10764 bound_to 10752
  153.4353  135.3869  155.2163 H   0  0  0  0  0  0  0  0  0  0  0  0  # atno 10765 bound_to 10752
  141.1412  133.8097  157.0569 H   0  0  0  0  0  0  0  0  0  0  0  0  # atno 11005 bound_to 11000
  144.6885  140.3051  143.7257 LP  0  0  0  0  0  0  0  0  0  0  0  0  # atno 17320 bound_to 7965
  145.7646  139.1836  143.2247 LP  0  0  0  0  0  0  0  0  0  0  0  0  # atno 17321 bound_to 7965
  140.6481  143.8753  150.6757 LP  0  0  0  0  0  0  0  0  0  0  0  0  # atno 17342 bound_to 10162
  140.2109  143.3884  152.1719 LP  0  0  0  0  0  0  0  0  0  0  0  0  # atno 17343 bound_to 10162
  157.7508  131.0199  150.3688 LP  0  0  0  0  0  0  0  0  0  0  0  0  # atno 17370 bound_to 10713
  156.4024  130.3918  149.6950 LP  0  0  0  0  0  0  0  0  0  0  0  0  # atno 17371 bound_to 10713
  140.0596  134.9762  157.1281 LP  0  0  0  0  0  0  0  0  0  0  0  0  # atno 17394 bound_to 11000
  140.3868  134.2227  155.7168 LP  0  0  0  0  0  0  0  0  0  0  0  0  # atno 17395 bound_to 11000

$$$$
