AV-unprocessed.smi:249|AV-procd|sdf|1920|dock8
  -GOLD-   2262021 23D 1   1.00000     0.00000
 Structure written by MMmdl.
 64 67  0  0  0  0  0  0  0  0  2 V2000
  147.2557  130.5982  153.3986 C   0  0  0  0  0  0  0  0  0  0  0  0
  146.3543  131.3008  152.3716 C   0  0  0  0  0  0  0  0  0  0  0  0
  147.0176  132.4620  151.7081 N   0  3  2  0  0  0  0  0  0  0  0  0
  147.4847  133.5163  152.6525 C   0  0  0  0  0  0  0  0  0  0  0  0
  146.3137  134.3373  153.2266 C   0  0  0  0  0  0  0  0  0  0  0  0
  145.4676  134.9520  152.0942 C   0  0  2  0  0  0  0  0  0  0  0  0
  144.3402  135.7423  152.6011 N   0  0  0  0  0  0  0  0  0  0  0  0
  143.0107  135.1403  152.6975 C   0  0  0  0  0  0  0  0  0  0  0  0
  144.6575  136.6675  153.5432 C   0  0  0  0  0  0  0  0  0  0  0  0
  144.1140  136.5758  154.7864 N   0  0  0  0  0  0  0  0  0  0  0  0
  144.4312  137.4678  155.7292 C   0  0  0  0  0  0  0  0  0  0  0  0
  145.2534  138.5151  155.6435 N   0  0  0  0  0  0  0  0  0  0  0  0
  145.7926  138.6201  154.3957 C   0  0  0  0  0  0  0  0  0  0  0  0
  145.5546  137.7454  153.2982 C   0  0  0  0  0  0  0  0  0  0  0  0
  146.2790  138.1691  152.1898 N   0  0  0  0  0  0  0  0  0  0  0  0
  146.9140  139.2292  152.6099 C   0  0  0  0  0  0  0  0  0  0  0  0
  146.6643  139.5827  153.9169 N   0  0  0  0  0  0  0  0  0  0  0  0
  147.2349  140.7088  154.6350 C   0  0  0  0  0  0  0  0  0  0  0  0
  148.5354  140.3867  155.4179 C   0  0  1  0  0  0  0  0  0  0  0  0
  149.6107  139.8762  154.4309 C   0  0  0  0  0  0  0  0  0  0  0  0
  149.6603  140.6648  153.2588 O   0  0  0  0  0  0  0  0  0  0  0  0
  149.0521  141.5498  156.3149 C   0  0  2  0  0  0  0  0  0  0  0  0
  150.3816  141.2780  157.0019 C   0  0  0  0  0  0  0  0  0  0  0  0
  150.3899  142.3192  158.1113 C   0  0  0  0  0  0  0  0  0  0  0  0
  149.0445  142.3670  158.5597 O   0  0  0  0  0  0  0  0  0  0  0  0
  148.1774  141.8990  157.5306 C   0  0  0  0  0  0  0  0  0  0  0  0
  145.0278  133.8619  151.0973 C   0  0  0  0  0  0  0  0  0  0  0  0
  146.2500  133.0749  150.5802 C   0  0  2  0  0  0  0  0  0  0  0  0
  145.8835  132.0760  149.4677 C   0  0  0  0  0  0  0  0  0  0  0  0
  146.7901  129.6750  153.7443 H   0  0  0  0  0  0  0  0  0  0  0  0
  147.4335  131.2120  154.2810 H   0  0  0  0  0  0  0  0  0  0  0  0
  148.2210  130.3366  152.9642 H   0  0  0  0  0  0  0  0  0  0  0  0
  146.0955  130.5494  151.6286 H   0  0  0  0  0  0  0  0  0  0  0  0
  145.4162  131.6001  152.8385 H   0  0  0  0  0  0  0  0  0  0  0  0
  148.0841  133.0937  153.4570 H   0  0  0  0  0  0  0  0  0  0  0  0
  148.1580  134.1840  152.1130 H   0  0  0  0  0  0  0  0  0  0  0  0
  145.6988  133.7067  153.8685 H   0  0  0  0  0  0  0  0  0  0  0  0
  146.7065  135.1284  153.8664 H   0  0  0  0  0  0  0  0  0  0  0  0
  146.1324  135.6153  151.5416 H   0  0  0  0  0  0  0  0  0  0  0  0
  142.2586  135.8997  152.9163 H   0  0  0  0  0  0  0  0  0  0  0  0
  142.9764  134.3898  153.4875 H   0  0  0  0  0  0  0  0  0  0  0  0
  142.7220  134.6645  151.7616 H   0  0  0  0  0  0  0  0  0  0  0  0
  143.9586  137.3216  156.6893 H   0  0  0  0  0  0  0  0  0  0  0  0
  147.5751  139.7946  151.9693 H   0  0  0  0  0  0  0  0  0  0  0  0
  147.4266  141.4924  153.9011 H   0  0  0  0  0  0  0  0  0  0  0  0
  146.4777  141.1050  155.3128 H   0  0  0  0  0  0  0  0  0  0  0  0
  148.3215  139.5451  156.0771 H   0  0  0  0  0  0  0  0  0  0  0  0
  150.5978  139.8688  154.8928 H   0  0  0  0  0  0  0  0  0  0  0  0
  149.4041  138.8440  154.1462 H   0  0  0  0  0  0  0  0  0  0  0  0
  149.6012  140.0922  152.5090 H   0  0  0  0  0  0  0  0  0  0  0  0
  149.1680  142.4480  155.7062 H   0  0  0  0  0  0  0  0  0  0  0  0
  150.3934  140.2754  157.4323 H   0  0  0  0  0  0  0  0  0  0  0  0
  151.2390  141.3763  156.3356 H   0  0  0  0  0  0  0  0  0  0  0  0
  151.0750  142.0694  158.9218 H   0  0  0  0  0  0  0  0  0  0  0  0
  150.6672  143.2976  157.7168 H   0  0  0  0  0  0  0  0  0  0  0  0
  147.4357  142.6610  157.2948 H   0  0  0  0  0  0  0  0  0  0  0  0
  147.6534  141.0207  157.9087 H   0  0  0  0  0  0  0  0  0  0  0  0
  144.3176  133.1739  151.5549 H   0  0  0  0  0  0  0  0  0  0  0  0
  144.5081  134.3280  150.2590 H   0  0  0  0  0  0  0  0  0  0  0  0
  146.9260  133.7945  150.1154 H   0  0  0  0  0  0  0  0  0  0  0  0
  145.5252  132.6043  148.5837 H   0  0  0  0  0  0  0  0  0  0  0  0
  145.0896  131.3930  149.7695 H   0  0  0  0  0  0  0  0  0  0  0  0
  146.7480  131.4841  149.1656 H   0  0  0  0  0  0  0  0  0  0  0  0
  147.8527  132.0796  151.2876 H   0  0  0  0  0  0  0  0  0  0  0  0
  1  2  1  0  0  0  0
  1 30  1  0  0  0  0
  1 31  1  0  0  0  0
  1 32  1  0  0  0  0
  2  3  1  0  0  0  0
  2 33  1  0  0  0  0
  2 34  1  0  0  0  0
  3 28  1  0  0  0  0
  3  4  1  0  0  0  0
  3 64  1  0  0  0  0
  4  5  1  0  0  0  0
  4 35  1  0  0  0  0
  4 36  1  0  0  0  0
  5  6  1  0  0  0  0
  5 37  1  0  0  0  0
  5 38  1  0  0  0  0
  6  7  1  0  0  0  0
  6 27  1  0  0  0  0
  6 39  1  0  0  0  0
  7  8  1  0  0  0  0
  7  9  1  0  0  0  0
  8 40  1  0  0  0  0
  8 41  1  0  0  0  0
  8 42  1  0  0  0  0
  9 14  1  0  0  0  0
  9 10  2  0  0  0  0
 10 11  1  0  0  0  0
 11 12  2  0  0  0  0
 11 43  1  0  0  0  0
 12 13  1  0  0  0  0
 13 17  1  0  0  0  0
 13 14  2  0  0  0  0
 14 15  1  0  0  0  0
 15 16  2  0  0  0  0
 16 17  1  0  0  0  0
 16 44  1  0  0  0  0
 17 18  1  0  0  0  0
 18 19  1  0  0  0  0
 18 45  1  0  0  0  0
 18 46  1  0  0  0  0
 19 20  1  0  0  0  0
 19 22  1  0  0  0  0
 19 47  1  0  0  0  0
 20 21  1  0  0  0  0
 20 48  1  0  0  0  0
 20 49  1  0  0  0  0
 21 50  1  0  0  0  0
 22 26  1  0  0  0  0
 22 23  1  0  0  0  0
 22 51  1  0  0  0  0
 23 24  1  0  0  0  0
 23 52  1  0  0  0  0
 23 53  1  0  0  0  0
 24 25  1  0  0  0  0
 24 54  1  0  0  0  0
 24 55  1  0  0  0  0
 25 26  1  0  0  0  0
 26 56  1  0  0  0  0
 26 57  1  0  0  0  0
 27 28  1  0  0  0  0
 27 58  1  0  0  0  0
 27 59  1  0  0  0  0
 28 29  1  0  0  0  0
 28 60  1  0  0  0  0
 29 61  1  0  0  0  0
 29 62  1  0  0  0  0
 29 63  1  0  0  0  0
M  CHG  1   3   1
M  END
> <s_m_source_file>
AV-unprocessed.smi

> <i_m_source_file_index>
249

> <i_lp_mmshare_version>
43012

> <i_f3d_flags>
0

> <s_epik_input>
W0NIM11bQ0gyXU4xW0NIMl1bQ0gyXVtDQEhdKFtDSDJdW0NASF0xW0NIM10pTihbQ0gzXSljKG5bY0hdbjIpYyhjMjMpbltjSF1uM1tDSDJdW0NASF0oW0NIMl1bT0hdKVtDQEBIXTRbQ0gyXVtDSDJdT1tDSDJdNA==

> <s_epik_cmdline>
J2VwaWtfcHl0aG9uJywgJy1waCcsICc3LjAnLCAnLXRuJywgJzgnLCAnLW1hJywgJzIwMCcsICctbWV0YWxfYmluZGluZycsICctaW1hZScsICc8aW5maWxlLm1hZT4nLCAnLW9tYWUnLCAnPG91dGZpbGUubWFlPic=

> <r_lp_tautomer_probability>
1

> <r_epik_Ionization_Penalty>
0.00294688

> <r_epik_Ionization_Penalty_Charging>
0.00169971

> <r_epik_Ionization_Penalty_Neutral>
0.00124717

> <r_epik_State_Penalty>
-0

> <r_epik_Charging_Adjusted_Penalty>
0.00169971

> <i_epik_Tot_Q>
1

> <i_epik_Tot_abs_Q>
1

> <r_epik_Metal_State_Penalty>
-0

> <b_epik_Metal_Only>
0

> <s_lp_Force_Field>
OPLS_2005

> <r_lp_Energy>
55.0731

> <b_lp_Chiralities_Consistent>
1

> <s_lp_Variant>
AV-unprocessed.smi:249-23

> <Gold.Version>
5.8.1

> <Gold.Id.Protein>
6NUR|6NUR_protein|mol2

> <Gold.PLP.Fitness>
48.7364

> <Gold.PLP.PLP>
-39.9568

> <Gold.PLP.part.hbond>
-3.6456

> <Gold.PLP.part.metal>
0.0000

> <Gold.PLP.part.buried>
-7.4993

> <Gold.PLP.part.nonpolar>
-30.7242

> <Gold.PLP.part.repulsive>
0.5120

> <Gold.PLP.ligand.clash>
0.0000

> <Gold.PLP.ligand.torsion>
1.8324

> <Gold.PLP.Chemscore.Hbond>
2.7249

> <Gold.PLP.Chemscore.CHOScore>
1.0000

> <Gold.PLP.Chemscore.Metal>
0.0000

> <Gold.Chemscore.Hbonds>
donor molecule, donor type, donor heavy atom, donor atom, acceptor molecule, acceptor atom, score
      L1  H     3    64       P1 10747  1.00
      L1  H    21    50       P1  7957  0.50
      P1  H  7989  7998       L1    21  0.17
      P1  H  8011  8017       L1    21  0.95
      L1  C    16    44       P1  7957  1.00

> <Gold.PLP.Chemscore.Internal.Correction>
1.2698

> <Gold.Rescore>
     Score         DG    S(hbond)    S(metal)    S(lipo)     H(rot)  DE(clash)    DE(int)     intcor
     13.77     -15.71       1.99        0.00      88.68       2.65       0.18       1.76       ----

> <Gold.Chemscore.Fitness>
13.7718

> <Gold.Chemscore.DG>
-15.7113

> <Gold.Chemscore.ZeroCoef>
-5.4800

> <Gold.Chemscore.Hbond>
1.9891

> <Gold.Chemscore.Metal>
0.0000

> <Gold.Chemscore.Lipo>
88.6818

> <Gold.Chemscore.Internal_Hbond>
0.0000

> <Gold.Chemscore.DEClash>
0.1766

> <Gold.Chemscore.DEInternal>
1.7629

> <Gold.Chemscore.Rot>
2.6515

> <Gold.Chemscore.Internal.Correction>
   9.000000E+99

> <Gold.Chemscore.Hbonds>
donor molecule, donor type, donor heavy atom, donor atom, acceptor molecule, acceptor atom, score
      L1  H     3    64       P1 10747  0.99
      L1  H    21    50       P1  7957  0.47
      P1  H  8011  8017       L1    21  0.21

> <Gold.Chemscore.Hbond.Weighted>
-6.6435

> <Gold.Chemscore.Metal.Weighted>
-0.0000

> <Gold.Chemscore.Lipo.Weighted>
-10.3758

> <Gold.Chemscore.Internal_Hbond.Weighted>
0.0000

> <Gold.Chemscore.DEClash.Weighted>
0.1766

> <Gold.Chemscore.DEInternal.Weighted>
1.7629

> <Gold.Chemscore.Rot.Weighted>
6.7880

> <Gold.Chemscore.Internal.Correction.Weighted>
   9.000000E+99

> <Gold.Protein.RotatedTorsions>
[ 6907 6896 6895 6894 ] final  -58.24 input  -60.11 | X-H torsion
[ 7974 7965 7964 7962 ] final  176.49 input  175.53 | X-H torsion
[ 8008 7997 7996 7995 ] final   44.12 input   59.86 | X-H torsion
[ 10167 10162 10161 10158 ] final  173.19 input  -65.29 | X-H torsion
[ 10718 10713 10712 10709 ] final  152.67 input   66.30 | X-H torsion
[ 10763 10752 10751 10750 ] final   68.08 input  -60.55 | X-H torsion
[ 11005 11000 10999 10996 ] final -145.37 input  -57.11 | X-H torsion

> <Gold.Protein.ActiveResidues>
 VAL166  LYS551  ARG553  GLY616  TRP617  ASP618  TYR619  PRO620  LYS621  CYS622 
 ASP623  PHE694  ASN695  SER759  ASP760  ASP761  ALA762  ILE779  LEU786  VAL792 
 PHE793  MET794  SER795  GLU796  ALA797  LYS798  CYS799  TRP800  GLU811  SER814 

> <Gold.Protein.RotatedAtoms>
  150.8023  134.7124  159.6611 H   0  0  0  0  0  0  0  0  0  0  0  0  # atno 6907 bound_to 6896
  152.4140  134.6071  160.0025 H   0  0  0  0  0  0  0  0  0  0  0  0  # atno 6908 bound_to 6896
  151.6305  133.3295  159.3144 H   0  0  0  0  0  0  0  0  0  0  0  0  # atno 6909 bound_to 6896
  144.7183  140.0105  143.6440 H   0  0  0  0  0  0  0  0  0  0  0  0  # atno 7974 bound_to 7965
  155.3141  140.3393  155.4243 H   0  0  0  0  0  0  0  0  0  0  0  0  # atno 8008 bound_to 7997
  156.1941  140.1708  156.8071 H   0  0  0  0  0  0  0  0  0  0  0  0  # atno 8009 bound_to 7997
  154.5478  140.0712  156.8601 H   0  0  0  0  0  0  0  0  0  0  0  0  # atno 8010 bound_to 7997
  139.5100  144.3289  152.0131 H   0  0  0  0  0  0  0  0  0  0  0  0  # atno 10167 bound_to 10162
  157.2548  131.0786  151.1706 H   0  0  0  0  0  0  0  0  0  0  0  0  # atno 10718 bound_to 10713
  153.0218  135.5260  154.7080 H   0  0  0  0  0  0  0  0  0  0  0  0  # atno 10763 bound_to 10752
  154.6170  135.2884  155.0371 H   0  0  0  0  0  0  0  0  0  0  0  0  # atno 10764 bound_to 10752
  154.1372  135.6584  153.4987 H   0  0  0  0  0  0  0  0  0  0  0  0  # atno 10765 bound_to 10752
  140.7930  134.2946  157.5006 H   0  0  0  0  0  0  0  0  0  0  0  0  # atno 11005 bound_to 11000
  146.0262  139.3294  143.0783 LP  0  0  0  0  0  0  0  0  0  0  0  0  # atno 17320 bound_to 7965
  145.8508  140.9530  143.0751 LP  0  0  0  0  0  0  0  0  0  0  0  0  # atno 17321 bound_to 7965
  140.2729  144.3944  150.6145 LP  0  0  0  0  0  0  0  0  0  0  0  0  # atno 17342 bound_to 10162
  140.6075  143.2168  151.6952 LP  0  0  0  0  0  0  0  0  0  0  0  0  # atno 17343 bound_to 10162
  157.3239  130.6951  149.6285 LP  0  0  0  0  0  0  0  0  0  0  0  0  # atno 17370 bound_to 10713
  155.9665  130.4327  150.4975 LP  0  0  0  0  0  0  0  0  0  0  0  0  # atno 17371 bound_to 10713
  139.8729  134.9385  156.3717 LP  0  0  0  0  0  0  0  0  0  0  0  0  # atno 17394 bound_to 11000
  140.9371  133.7540  156.0098 LP  0  0  0  0  0  0  0  0  0  0  0  0  # atno 17395 bound_to 11000

$$$$
