AV-unprocessed.smi:786|AV-procd|sdf|3724|dock6
  -GOLD-   22720 1153D 1   1.00000     0.00000
 Structure written by MMmdl.
 39 40  0  0  0  0  0  0  0  0  3 V2000
  152.6526  137.2250  155.8057 O   0  0  0  0  0  0  0  0  0  0  0  0
  152.8434  138.6235  155.3899 S   0  0  0  0  0  0  0  0  0  0  0  0
  154.0108  138.9062  154.5394 O   0  0  0  0  0  0  0  0  0  0  0  0
  151.3677  139.0856  154.3690 C   0  0  0  0  0  0  0  0  0  0  0  0
  149.9959  138.6656  154.9515 C   0  0  0  0  0  0  0  0  0  0  0  0
  149.7322  137.1479  154.9550 C   0  0  0  0  0  0  0  0  0  0  0  0
  148.3041  136.8330  155.4312 C   0  0  0  0  0  0  0  0  0  0  0  0
  147.3510  137.5203  154.6295 O   0  0  0  0  0  0  0  0  0  0  0  0
  147.4823  138.9339  154.7160 C   0  0  0  0  0  0  0  0  0  0  0  0
  148.8588  139.3616  154.1834 C   0  0  0  0  0  0  0  0  0  0  0  0
  152.7199  139.6744  156.6211 N   0  5  0  0  0  0  0  0  0  0  0  0
  151.4394  139.8983  157.2802 C   0  0  0  0  0  0  0  0  0  0  0  0
  150.8598  141.3007  156.9736 C   0  0  0  0  0  0  0  0  0  0  0  0
  151.2745  142.3998  157.9467 C   0  0  0  0  0  0  0  0  0  0  0  0
  152.0945  142.1420  159.0690 C   0  0  0  0  0  0  0  0  0  0  0  0
  152.4446  143.2042  159.9283 C   0  0  0  0  0  0  0  0  0  0  0  0
  151.9738  144.5037  159.6485 C   0  0  0  0  0  0  0  0  0  0  0  0
  151.1637  144.7088  158.5133 C   0  0  0  0  0  0  0  0  0  0  0  0
  150.8508  143.6659  157.7147 N   0  3  0  0  0  0  0  0  0  0  0  0
  151.3959  140.1679  154.2433 H   0  0  0  0  0  0  0  0  0  0  0  0
  151.5101  138.6494  153.3803 H   0  0  0  0  0  0  0  0  0  0  0  0
  149.9452  139.0119  155.9844 H   0  0  0  0  0  0  0  0  0  0  0  0
  149.8842  136.7412  153.9546 H   0  0  0  0  0  0  0  0  0  0  0  0
  150.4284  136.6358  155.6168 H   0  0  0  0  0  0  0  0  0  0  0  0
  148.1154  135.7618  155.3605 H   0  0  0  0  0  0  0  0  0  0  0  0
  148.1768  137.1080  156.4794 H   0  0  0  0  0  0  0  0  0  0  0  0
  146.6922  139.3976  154.1253 H   0  0  0  0  0  0  0  0  0  0  0  0
  147.3435  139.2626  155.7473 H   0  0  0  0  0  0  0  0  0  0  0  0
  148.9613  140.4446  154.2583 H   0  0  0  0  0  0  0  0  0  0  0  0
  148.9249  139.1153  153.1227 H   0  0  0  0  0  0  0  0  0  0  0  0
  150.7091  139.1507  156.9693 H   0  0  0  0  0  0  0  0  0  0  0  0
  151.5244  139.7830  158.3609 H   0  0  0  0  0  0  0  0  0  0  0  0
  151.1806  141.5986  155.9750 H   0  0  0  0  0  0  0  0  0  0  0  0
  149.7714  141.2599  156.9233 H   0  0  0  0  0  0  0  0  0  0  0  0
  152.4464  141.1411  159.2718 H   0  0  0  0  0  0  0  0  0  0  0  0
  153.0669  143.0237  160.7925 H   0  0  0  0  0  0  0  0  0  0  0  0
  152.2294  145.3300  160.2952 H   0  0  0  0  0  0  0  0  0  0  0  0
  150.7574  145.6663  158.2223 H   0  0  0  0  0  0  0  0  0  0  0  0
  150.2555  143.8335  156.9014 H   0  0  0  0  0  0  0  0  0  0  0  0
  1  2  2  0  0  0  0
  2  3  2  0  0  0  0
  2  4  1  0  0  0  0
  2 11  1  0  0  0  0
  4  5  1  0  0  0  0
  4 20  1  0  0  0  0
  4 21  1  0  0  0  0
  5 10  1  0  0  0  0
  5  6  1  0  0  0  0
  5 22  1  0  0  0  0
  6  7  1  0  0  0  0
  6 23  1  0  0  0  0
  6 24  1  0  0  0  0
  7  8  1  0  0  0  0
  7 25  1  0  0  0  0
  7 26  1  0  0  0  0
  8  9  1  0  0  0  0
  9 10  1  0  0  0  0
  9 27  1  0  0  0  0
  9 28  1  0  0  0  0
 10 29  1  0  0  0  0
 10 30  1  0  0  0  0
 11 12  1  0  0  0  0
 12 13  1  0  0  0  0
 12 31  1  0  0  0  0
 12 32  1  0  0  0  0
 13 14  1  0  0  0  0
 13 33  1  0  0  0  0
 13 34  1  0  0  0  0
 14 19  1  0  0  0  0
 14 15  2  0  0  0  0
 15 16  1  0  0  0  0
 15 35  1  0  0  0  0
 16 17  2  0  0  0  0
 16 36  1  0  0  0  0
 17 18  1  0  0  0  0
 17 37  1  0  0  0  0
 18 19  2  0  0  0  0
 18 38  1  0  0  0  0
 19 39  1  0  0  0  0
M  CHG  1  11  -1
M  CHG  1  19   1
M  END
> <s_m_source_file>
AV-unprocessed.smi

> <i_m_source_file_index>
786

> <i_lp_mmshare_version>
43012

> <i_f3d_flags>
0

> <s_epik_input>
W0NIMl0xW0NIMl1PW0NIMl1bQ0gyXVtDSF0xW0NIMl1TKD1PKSg9TylbTkhdW0NIMl1bQ0gyXWMyW2NIXVtjSF1bY0hdW2NIXW4y

> <s_epik_cmdline>
J2VwaWtfcHl0aG9uJywgJy1waCcsICc3LjAnLCAnLXRuJywgJzgnLCAnLW1hJywgJzIwMCcsICctbWV0YWxfYmluZGluZycsICctaW1hZScsICc8aW5maWxlLm1hZT4nLCAnLW9tYWUnLCAnPG91dGZpbGUubWFlPic=

> <r_epik_Ionization_Penalty>
7.39271

> <r_epik_Ionization_Penalty_Charging>
7.39271

> <r_epik_Ionization_Penalty_Neutral>
5.66014e-11

> <r_epik_State_Penalty>
8.23716

> <r_epik_Charging_Adjusted_Penalty>
15.6299

> <i_epik_Tot_Q>
0

> <i_epik_Tot_abs_Q>
2

> <r_epik_Metal_State_Penalty>
4.19267

> <b_epik_Metal_Only>
1

> <s_lp_Force_Field>
OPLS_2005

> <r_lp_Energy>
3.22126

> <b_lp_Chiralities_Consistent>
1

> <s_lp_Variant>
AV-unprocessed.smi:786-4

> <Gold.Version>
5.8.1

> <Gold.Id.Protein>
6NUR|6NUR_protein|mol2

> <Gold.PLP.Fitness>
50.3985

> <Gold.PLP.PLP>
-36.6945

> <Gold.PLP.part.hbond>
-4.0000

> <Gold.PLP.part.metal>
0.0000

> <Gold.PLP.part.buried>
-4.3032

> <Gold.PLP.part.nonpolar>
-27.9075

> <Gold.PLP.part.repulsive>
0.0937

> <Gold.PLP.ligand.clash>
0.0000

> <Gold.PLP.ligand.torsion>
1.0727

> <Gold.PLP.Chemscore.Hbond>
4.9295

> <Gold.PLP.Chemscore.CHOScore>
0.0000

> <Gold.PLP.Chemscore.Metal>
0.0000

> <Gold.Chemscore.Hbonds>
donor molecule, donor type, donor heavy atom, donor atom, acceptor molecule, acceptor atom, score
      L1  H    19    39       P1  8028  1.98
      P1  H  7997  8008       L1    11  1.73
      P1  H  7997  8009       L1     3  0.32
      P1  H 10752 10763       L1     1  0.67

> <Gold.PLP.Chemscore.Internal.Correction>
1.0608

> <Gold.Rescore>
     Score         DG    S(hbond)    S(metal)    S(lipo)     H(rot)  DE(clash)    DE(int)     intcor
     18.71     -20.04       2.32        0.00      95.01       1.68       0.01       1.32       ----

> <Gold.Chemscore.Fitness>
18.7085

> <Gold.Chemscore.DG>
-20.0450

> <Gold.Chemscore.ZeroCoef>
-5.4800

> <Gold.Chemscore.Hbond>
2.3223

> <Gold.Chemscore.Metal>
0.0000

> <Gold.Chemscore.Lipo>
95.0059

> <Gold.Chemscore.Internal_Hbond>
0.0000

> <Gold.Chemscore.DEClash>
0.0131

> <Gold.Chemscore.DEInternal>
1.3234

> <Gold.Chemscore.Rot>
1.6824

> <Gold.Chemscore.Internal.Correction>
   9.000000E+99

> <Gold.Chemscore.Hbonds>
donor molecule, donor type, donor heavy atom, donor atom, acceptor molecule, acceptor atom, score
      L1  H    19    39       P1  8028  0.91
      P1  H  7997  8008       L1    11  0.16
      P1  H  7997  8009       L1     3  0.28
      P1  H 10752 10763       L1     1  0.65

> <Gold.Chemscore.Hbond.Weighted>
-7.7563

> <Gold.Chemscore.Metal.Weighted>
-0.0000

> <Gold.Chemscore.Lipo.Weighted>
-11.1157

> <Gold.Chemscore.Internal_Hbond.Weighted>
0.0000

> <Gold.Chemscore.DEClash.Weighted>
0.0131

> <Gold.Chemscore.DEInternal.Weighted>
1.3234

> <Gold.Chemscore.Rot.Weighted>
4.3070

> <Gold.Chemscore.Internal.Correction.Weighted>
   9.000000E+99

> <Gold.Protein.RotatedTorsions>
[ 6907 6896 6895 6894 ] final   83.04 input  -60.11 | X-H torsion
[ 7974 7965 7964 7962 ] final  -31.35 input  175.53 | X-H torsion
[ 8008 7997 7996 7995 ] final  -71.96 input   59.86 | X-H torsion
[ 10167 10162 10161 10158 ] final   23.01 input  -65.29 | X-H torsion
[ 10718 10713 10712 10709 ] final   90.31 input   66.30 | X-H torsion
[ 10763 10752 10751 10750 ] final   79.63 input  -60.55 | X-H torsion
[ 11005 11000 10999 10996 ] final  149.64 input  -57.11 | X-H torsion

> <Gold.Protein.ActiveResidues>
 VAL166  LYS551  ARG553  GLY616  TRP617  ASP618  TYR619  PRO620  LYS621  CYS622 
 ASP623  PHE694  ASN695  SER759  ASP760  ASP761  ALA762  ILE779  LEU786  VAL792 
 PHE793  MET794  SER795  GLU796  ALA797  LYS798  CYS799  TRP800  GLU811  SER814 

> <Gold.Protein.RotatedAtoms>
  152.5316  134.2957  159.9059 H   0  0  0  0  0  0  0  0  0  0  0  0  # atno 6907 bound_to 6896
  151.2908  133.4160  159.2640 H   0  0  0  0  0  0  0  0  0  0  0  0  # atno 6908 bound_to 6896
  151.0202  134.9479  159.8112 H   0  0  0  0  0  0  0  0  0  0  0  0  # atno 6909 bound_to 6896
  146.1074  140.5656  142.8793 H   0  0  0  0  0  0  0  0  0  0  0  0  # atno 7974 bound_to 7965
  154.5128  140.0806  156.8024 H   0  0  0  0  0  0  0  0  0  0  0  0  # atno 8008 bound_to 7997
  155.3746  140.3424  155.4226 H   0  0  0  0  0  0  0  0  0  0  0  0  # atno 8009 bound_to 7997
  156.1593  140.1583  156.8626 H   0  0  0  0  0  0  0  0  0  0  0  0  # atno 8010 bound_to 7997
  140.5303  143.9853  150.6462 H   0  0  0  0  0  0  0  0  0  0  0  0  # atno 10167 bound_to 10162
  157.6958  131.0366  150.3558 H   0  0  0  0  0  0  0  0  0  0  0  0  # atno 10718 bound_to 10713
  153.0968  135.4832  154.8793 H   0  0  0  0  0  0  0  0  0  0  0  0  # atno 10763 bound_to 10752
  154.7334  135.3065  154.8856 H   0  0  0  0  0  0  0  0  0  0  0  0  # atno 10764 bound_to 10752
  153.9485  135.6826  153.4797 H   0  0  0  0  0  0  0  0  0  0  0  0  # atno 10765 bound_to 10752
  140.1063  134.8952  157.1870 H   0  0  0  0  0  0  0  0  0  0  0  0  # atno 11005 bound_to 11000
  144.7482  140.5123  143.6820 LP  0  0  0  0  0  0  0  0  0  0  0  0  # atno 17320 bound_to 7965
  145.5734  139.1484  143.3276 LP  0  0  0  0  0  0  0  0  0  0  0  0  # atno 17321 bound_to 7965
  140.3226  143.3127  152.0769 LP  0  0  0  0  0  0  0  0  0  0  0  0  # atno 17342 bound_to 10162
  139.4952  144.6563  151.6564 LP  0  0  0  0  0  0  0  0  0  0  0  0  # atno 17343 bound_to 10162
  156.4001  130.3914  149.6966 LP  0  0  0  0  0  0  0  0  0  0  0  0  # atno 17370 bound_to 10713
  156.4286  130.7804  151.2823 LP  0  0  0  0  0  0  0  0  0  0  0  0  # atno 17371 bound_to 10713
  140.3152  134.2979  155.7258 LP  0  0  0  0  0  0  0  0  0  0  0  0  # atno 17394 bound_to 11000
  141.2119  133.7675  156.9833 LP  0  0  0  0  0  0  0  0  0  0  0  0  # atno 17395 bound_to 11000

$$$$
