AV-unprocessed.smi:2593|AV-procd|sdf|10163|dock1
  -GOLD-   2272014173D 1   1.00000     0.00000
 Structure written by MMmdl.
 40 42  0  0  0  0  0  0  0  0  1 V2000
  152.1957  139.3003  157.6688 C   0  0  0  0  0  0  0  0  0  0  0  0
  153.1996  140.0429  158.3372 O   0  0  0  0  0  0  0  0  0  0  0  0
  153.0269  140.0472  159.7452 C   0  0  0  0  0  0  0  0  0  0  0  0
  153.9700  141.0802  160.3769 C   0  0  0  0  0  0  0  0  0  0  0  0
  153.2735  142.3047  160.7422 N   0  0  0  0  0  0  0  0  0  0  0  0
  153.1540  142.8568  161.9736 C   0  0  0  0  0  0  0  0  0  0  0  0
  153.8810  142.1270  163.4004 S   0  0  0  0  0  0  0  0  0  0  0  0
  154.1111  143.6538  164.3498 C   0  0  0  0  0  0  0  0  0  0  0  0
  154.7300  143.3293  165.6939 C   0  0  0  0  0  0  0  0  0  0  0  0
  155.0083  144.3549  166.6223 C   0  0  0  0  0  0  0  0  0  0  0  0
  155.5893  144.0025  167.8554 C   0  0  0  0  0  0  0  0  0  0  0  0
  155.8693  142.6461  168.1107 C   0  0  0  0  0  0  0  0  0  0  0  0
  155.5553  141.6967  167.1168 C   0  0  0  0  0  0  0  0  0  0  0  0
  155.8200  140.3467  167.3326 N   0  0  0  0  0  0  0  0  0  0  0  0
  154.9970  142.0252  165.9320 N   0  0  0  0  0  0  0  0  0  0  0  0
  152.4530  143.9886  162.0364 N   0  0  0  0  0  0  0  0  0  0  0  0
  152.0918  144.1956  160.7194 C   0  0  0  0  0  0  0  0  0  0  0  0
  151.3393  145.2344  160.1258 C   0  0  0  0  0  0  0  0  0  0  0  0
  151.0972  145.2362  158.7364 C   0  0  0  0  0  0  0  0  0  0  0  0
  151.6041  144.2027  157.9223 C   0  0  0  0  0  0  0  0  0  0  0  0
  152.3549  143.1574  158.4937 C   0  0  0  0  0  0  0  0  0  0  0  0
  152.5921  143.1592  159.8813 C   0  0  0  0  0  0  0  0  0  0  0  0
  152.3721  139.3313  156.5937 H   0  0  0  0  0  0  0  0  0  0  0  0
  151.2054  139.7153  157.8598 H   0  0  0  0  0  0  0  0  0  0  0  0
  152.2049  138.2555  157.9815 H   0  0  0  0  0  0  0  0  0  0  0  0
  151.9930  140.2904  159.9938 H   0  0  0  0  0  0  0  0  0  0  0  0
  153.2340  139.0554  160.1500 H   0  0  0  0  0  0  0  0  0  0  0  0
  154.4337  140.6626  161.2709 H   0  0  0  0  0  0  0  0  0  0  0  0
  154.7859  141.3214  159.6951 H   0  0  0  0  0  0  0  0  0  0  0  0
  154.7590  144.3355  163.7977 H   0  0  0  0  0  0  0  0  0  0  0  0
  153.1491  144.1513  164.4811 H   0  0  0  0  0  0  0  0  0  0  0  0
  154.7840  145.3866  166.3942 H   0  0  0  0  0  0  0  0  0  0  0  0
  155.8176  144.7589  168.5916 H   0  0  0  0  0  0  0  0  0  0  0  0
  156.3149  142.3462  169.0479 H   0  0  0  0  0  0  0  0  0  0  0  0
  156.2367  140.0207  168.1926 H   0  0  0  0  0  0  0  0  0  0  0  0
  155.6272  139.6537  166.6238 H   0  0  0  0  0  0  0  0  0  0  0  0
  150.9486  146.0318  160.7404 H   0  0  0  0  0  0  0  0  0  0  0  0
  150.5211  146.0351  158.2930 H   0  0  0  0  0  0  0  0  0  0  0  0
  151.4164  144.2129  156.8586 H   0  0  0  0  0  0  0  0  0  0  0  0
  152.7468  142.3660  157.8724 H   0  0  0  0  0  0  0  0  0  0  0  0
  1  2  1  0  0  0  0
  1 23  1  0  0  0  0
  1 24  1  0  0  0  0
  1 25  1  0  0  0  0
  2  3  1  0  0  0  0
  3  4  1  0  0  0  0
  3 26  1  0  0  0  0
  3 27  1  0  0  0  0
  4  5  1  0  0  0  0
  4 28  1  0  0  0  0
  4 29  1  0  0  0  0
  5 22  1  0  0  0  0
  5  6  1  0  0  0  0
  6  7  1  0  0  0  0
  6 16  2  0  0  0  0
  7  8  1  0  0  0  0
  8  9  1  0  0  0  0
  8 30  1  0  0  0  0
  8 31  1  0  0  0  0
  9 15  1  0  0  0  0
  9 10  2  0  0  0  0
 10 11  1  0  0  0  0
 10 32  1  0  0  0  0
 11 12  2  0  0  0  0
 11 33  1  0  0  0  0
 12 13  1  0  0  0  0
 12 34  1  0  0  0  0
 13 14  1  0  0  0  0
 13 15  2  0  0  0  0
 14 35  1  0  0  0  0
 14 36  1  0  0  0  0
 16 17  1  0  0  0  0
 17 22  2  0  0  0  0
 17 18  1  0  0  0  0
 18 19  2  0  0  0  0
 18 37  1  0  0  0  0
 19 20  1  0  0  0  0
 19 38  1  0  0  0  0
 20 21  2  0  0  0  0
 20 39  1  0  0  0  0
 21 22  1  0  0  0  0
 21 40  1  0  0  0  0
M  END
> <s_m_source_file>
AV-unprocessed.smi

> <i_m_source_file_index>
2593

> <i_lp_mmshare_version>
43012

> <i_f3d_flags>
0

> <s_epik_input>
W2NIXTFbY0hdW2NIXVtjSF1jKGMxMiluKFtDSDJdW0NIMl1PW0NIM10pYyhuMilTW0NIMl1jM1tjSF1bY0hdW2NIXWMobjMpW05IMl0=

> <s_epik_cmdline>
J2VwaWtfcHl0aG9uJywgJy1waCcsICc3LjAnLCAnLXRuJywgJzgnLCAnLW1hJywgJzIwMCcsICctbWV0YWxfYmluZGluZycsICctaW1hZScsICc8aW5maWxlLm1hZT4nLCAnLW9tYWUnLCAnPG91dGZpbGUubWFlPic=

> <r_lp_tautomer_probability>
1

> <r_epik_Ionization_Penalty>
0.0555631

> <r_epik_Ionization_Penalty_Charging>
0

> <r_epik_Ionization_Penalty_Neutral>
0.0555631

> <r_epik_State_Penalty>
0.0451694

> <r_epik_Charging_Adjusted_Penalty>
0.0451694

> <i_epik_Tot_Q>
0

> <i_epik_Tot_abs_Q>
0

> <r_epik_Metal_State_Penalty>
0.0431775

> <b_epik_Metal_Only>
0

> <s_lp_Force_Field>
OPLS_2005

> <r_lp_Energy>
6.83129

> <b_lp_Chiralities_Consistent>
1

> <s_lp_Variant>
AV-unprocessed.smi:2593-1

> <Gold.Version>
5.8.1

> <Gold.Id.Protein>
6NUR|6NUR_protein|mol2

> <Gold.PLP.Fitness>
58.4095

> <Gold.PLP.PLP>
-56.7210

> <Gold.PLP.part.hbond>
-1.0000

> <Gold.PLP.part.metal>
0.0000

> <Gold.PLP.part.buried>
-5.4706

> <Gold.PLP.part.nonpolar>
-48.3230

> <Gold.PLP.part.repulsive>
0.2908

> <Gold.PLP.ligand.clash>
0.0000

> <Gold.PLP.ligand.torsion>
0.7022

> <Gold.PLP.Chemscore.Hbond>
1.0000

> <Gold.PLP.Chemscore.CHOScore>
0.0000

> <Gold.PLP.Chemscore.Metal>
0.0000

> <Gold.Chemscore.Hbonds>
donor molecule, donor type, donor heavy atom, donor atom, acceptor molecule, acceptor atom, score
      P1  H  7997  8010       L1     2  1.00

> <Gold.PLP.Chemscore.Internal.Correction>
0.0929

> <Gold.Rescore>
     Score         DG    S(hbond)    S(metal)    S(lipo)     H(rot)  DE(clash)    DE(int)     intcor
     19.46     -20.26       0.92        0.00     146.56       2.13       0.09       0.72       ----

> <Gold.Chemscore.Fitness>
19.4571

> <Gold.Chemscore.DG>
-20.2647

> <Gold.Chemscore.ZeroCoef>
-5.4800

> <Gold.Chemscore.Hbond>
0.9223

> <Gold.Chemscore.Metal>
0.0000

> <Gold.Chemscore.Lipo>
146.5550

> <Gold.Chemscore.Internal_Hbond>
0.0000

> <Gold.Chemscore.DEClash>
0.0859

> <Gold.Chemscore.DEInternal>
0.7217

> <Gold.Chemscore.Rot>
2.1260

> <Gold.Chemscore.Internal.Correction>
   9.000000E+99

> <Gold.Chemscore.Hbonds>
donor molecule, donor type, donor heavy atom, donor atom, acceptor molecule, acceptor atom, score
      P1  H  7997  8010       L1     2  0.43

> <Gold.Chemscore.Hbond.Weighted>
-3.0803

> <Gold.Chemscore.Metal.Weighted>
-0.0000

> <Gold.Chemscore.Lipo.Weighted>
-17.1469

> <Gold.Chemscore.Internal_Hbond.Weighted>
0.0000

> <Gold.Chemscore.DEClash.Weighted>
0.0859

> <Gold.Chemscore.DEInternal.Weighted>
0.7217

> <Gold.Chemscore.Rot.Weighted>
5.4425

> <Gold.Chemscore.Internal.Correction.Weighted>
   9.000000E+99

> <Gold.Protein.RotatedTorsions>
[ 6907 6896 6895 6894 ] final   95.78 input  -60.11 | X-H torsion
[ 7974 7965 7964 7962 ] final -152.27 input  175.53 | X-H torsion
[ 8008 7997 7996 7995 ] final   27.69 input   59.86 | X-H torsion
[ 10167 10162 10161 10158 ] final  -18.05 input  -65.29 | X-H torsion
[ 10718 10713 10712 10709 ] final   12.17 input   66.30 | X-H torsion
[ 10763 10752 10751 10750 ] final   18.01 input  -60.55 | X-H torsion
[ 11005 11000 10999 10996 ] final -177.29 input  -57.11 | X-H torsion

> <Gold.Protein.ActiveResidues>
 VAL166  LYS551  ARG553  GLY616  TRP617  ASP618  TYR619  PRO620  LYS621  CYS622 
 ASP623  PHE694  ASN695  SER759  ASP760  ASP761  ALA762  ILE779  LEU786  VAL792 
 PHE793  MET794  SER795  GLU796  ALA797  LYS798  CYS799  TRP800  GLU811  SER814 

> <Gold.Protein.RotatedAtoms>
  152.5441  134.0987  159.8308 H   0  0  0  0  0  0  0  0  0  0  0  0  # atno 6907 bound_to 6896
  151.1068  133.5195  159.2615 H   0  0  0  0  0  0  0  0  0  0  0  0  # atno 6908 bound_to 6896
  151.1929  135.0419  159.8894 H   0  0  0  0  0  0  0  0  0  0  0  0  # atno 6909 bound_to 6896
  144.7803  140.4684  143.5844 H   0  0  0  0  0  0  0  0  0  0  0  0  # atno 7974 bound_to 7965
  155.0470  140.3175  155.4705 H   0  0  0  0  0  0  0  0  0  0  0  0  # atno 8008 bound_to 7997
  156.2843  140.2153  156.5538 H   0  0  0  0  0  0  0  0  0  0  0  0  # atno 8009 bound_to 7997
  154.7242  140.0487  157.0655 H   0  0  0  0  0  0  0  0  0  0  0  0  # atno 8010 bound_to 7997
  140.7254  143.4955  150.9937 H   0  0  0  0  0  0  0  0  0  0  0  0  # atno 10167 bound_to 10162
  157.0063  130.6099  149.5702 H   0  0  0  0  0  0  0  0  0  0  0  0  # atno 10718 bound_to 10713
  153.1287  135.6735  153.9214 H   0  0  0  0  0  0  0  0  0  0  0  0  # atno 10763 bound_to 10752
  153.8707  135.3070  155.3443 H   0  0  0  0  0  0  0  0  0  0  0  0  # atno 10764 bound_to 10752
  154.7688  135.4950  153.9688 H   0  0  0  0  0  0  0  0  0  0  0  0  # atno 10765 bound_to 10752
  140.4425  134.6418  157.4764 H   0  0  0  0  0  0  0  0  0  0  0  0  # atno 11005 bound_to 11000
  145.6069  139.1509  143.3098 LP  0  0  0  0  0  0  0  0  0  0  0  0  # atno 17320 bound_to 7965
  146.2007  140.6187  142.9103 LP  0  0  0  0  0  0  0  0  0  0  0  0  # atno 17321 bound_to 7965
  139.8661  143.7252  152.3170 LP  0  0  0  0  0  0  0  0  0  0  0  0  # atno 17342 bound_to 10162
  139.7484  144.7541  151.0544 LP  0  0  0  0  0  0  0  0  0  0  0  0  # atno 17343 bound_to 10162
  156.0152  130.5246  150.8113 LP  0  0  0  0  0  0  0  0  0  0  0  0  # atno 17370 bound_to 10713
  157.5353  131.0938  150.9900 LP  0  0  0  0  0  0  0  0  0  0  0  0  # atno 17371 bound_to 10713
  140.0060  134.6763  155.9454 LP  0  0  0  0  0  0  0  0  0  0  0  0  # atno 17394 bound_to 11000
  141.1699  133.6537  156.4614 LP  0  0  0  0  0  0  0  0  0  0  0  0  # atno 17395 bound_to 11000

$$$$
