AV-unprocessed.smi:2044|AV-procd|sdf|8303|dock6
  -GOLD-   2272010573D 1   1.00000     0.00000
 Structure written by MMmdl.
 38 39  0  0  0  0  0  0  0  0  2 V2000
  146.2200  132.5787  161.5727 C   0  0  0  0  0  0  0  0  0  0  0  0
  146.6605  133.9938  161.4155 C   0  0  0  0  0  0  0  0  0  0  0  0
  147.2405  134.6761  160.3840 C   0  0  0  0  0  0  0  0  0  0  0  0
  147.3961  135.9883  160.9090 C   0  0  0  0  0  0  0  0  0  0  0  0
  147.9146  137.0420  160.2596 N   0  5  0  0  0  0  0  0  0  0  0  0
  148.9267  136.8694  159.3783 C   0  0  0  0  0  0  0  0  0  0  0  0
  149.2393  135.8147  158.8208 O   0  0  0  0  0  0  0  0  0  0  0  0
  149.6158  137.9908  159.1224 N   0  0  0  0  0  0  0  0  0  0  0  0
  150.7392  138.1138  158.1961 C   0  0  0  0  0  0  0  0  0  0  0  0
  150.7376  139.4470  157.3918 C   0  0  1  0  0  0  0  0  0  0  0  0
  149.4174  139.5433  156.5850 C   0  0  0  0  0  0  0  0  0  0  0  0
  150.9810  140.6422  158.2336 N   0  0  0  0  0  0  0  0  0  0  0  0
  150.7863  141.8955  157.4953 C   0  0  0  0  0  0  0  0  0  0  0  0
  151.0629  143.1436  158.3509 C   0  0  0  0  0  0  0  0  0  0  0  0
  152.3845  143.0857  158.8690 O   0  0  0  0  0  0  0  0  0  0  0  0
  152.5965  141.9226  159.6570 C   0  0  0  0  0  0  0  0  0  0  0  0
  152.3293  140.6643  158.8124 C   0  0  0  0  0  0  0  0  0  0  0  0
  146.9363  136.0963  162.1442 N   0  0  0  0  0  0  0  0  0  0  0  0
  146.4682  134.8200  162.4786 O   0  0  0  0  0  0  0  0  0  0  0  0
  145.3507  132.3748  160.9477 H   0  0  0  0  0  0  0  0  0  0  0  0
  145.9511  132.3634  162.6071 H   0  0  0  0  0  0  0  0  0  0  0  0
  147.0150  131.8921  161.2812 H   0  0  0  0  0  0  0  0  0  0  0  0
  147.5140  134.2981  159.4105 H   0  0  0  0  0  0  0  0  0  0  0  0
  149.3279  138.8304  159.6030 H   0  0  0  0  0  0  0  0  0  0  0  0
  151.6613  138.0294  158.7719 H   0  0  0  0  0  0  0  0  0  0  0  0
  150.7024  137.2416  157.5448 H   0  0  0  0  0  0  0  0  0  0  0  0
  151.5482  139.3832  156.6644 H   0  0  0  0  0  0  0  0  0  0  0  0
  149.2179  138.6433  156.0045 H   0  0  0  0  0  0  0  0  0  0  0  0
  149.4363  140.3501  155.8542 H   0  0  0  0  0  0  0  0  0  0  0  0
  148.5638  139.7028  157.2443 H   0  0  0  0  0  0  0  0  0  0  0  0
  151.4316  141.9103  156.6157 H   0  0  0  0  0  0  0  0  0  0  0  0
  149.7616  141.9759  157.1373 H   0  0  0  0  0  0  0  0  0  0  0  0
  150.9565  144.0459  157.7488 H   0  0  0  0  0  0  0  0  0  0  0  0
  150.3446  143.2184  159.1689 H   0  0  0  0  0  0  0  0  0  0  0  0
  153.6238  141.9224  160.0213 H   0  0  0  0  0  0  0  0  0  0  0  0
  151.9465  141.9441  160.5332 H   0  0  0  0  0  0  0  0  0  0  0  0
  152.4815  139.8093  159.4677 H   0  0  0  0  0  0  0  0  0  0  0  0
  153.0746  140.5943  158.0184 H   0  0  0  0  0  0  0  0  0  0  0  0
  1  2  1  0  0  0  0
  1 20  1  0  0  0  0
  1 21  1  0  0  0  0
  1 22  1  0  0  0  0
  2 19  1  0  0  0  0
  2  3  2  0  0  0  0
  3  4  1  0  0  0  0
  3 23  1  0  0  0  0
  4  5  1  0  0  0  0
  4 18  2  0  0  0  0
  5  6  1  0  0  0  0
  6  7  2  0  0  0  0
  6  8  1  0  0  0  0
  8  9  1  0  0  0  0
  8 24  1  0  0  0  0
  9 10  1  0  0  0  0
  9 25  1  0  0  0  0
  9 26  1  0  0  0  0
 10 11  1  0  0  0  0
 10 12  1  0  0  0  0
 10 27  1  0  0  0  0
 11 28  1  0  0  0  0
 11 29  1  0  0  0  0
 11 30  1  0  0  0  0
 12 17  1  0  0  0  0
 12 13  1  0  0  0  0
 13 14  1  0  0  0  0
 13 31  1  0  0  0  0
 13 32  1  0  0  0  0
 14 15  1  0  0  0  0
 14 33  1  0  0  0  0
 14 34  1  0  0  0  0
 15 16  1  0  0  0  0
 16 17  1  0  0  0  0
 16 35  1  0  0  0  0
 16 36  1  0  0  0  0
 17 37  1  0  0  0  0
 17 38  1  0  0  0  0
 18 19  1  0  0  0  0
M  CHG  1   5  -1
M  END
> <s_m_source_file>
AV-unprocessed.smi

> <i_m_source_file_index>
2044

> <i_lp_mmshare_version>
43012

> <i_f3d_flags>
0

> <s_epik_input>
W0NIM11jMVtjSF1jKG5vMSlbTkhdQyg9TylbTkhdW0NIMl1bQ0BIXShbQ0gzXSlOMltDSDJdW0NIMl1PW0NIMl1bQ0gyXTI=

> <s_epik_cmdline>
J2VwaWtfcHl0aG9uJywgJy1waCcsICc3LjAnLCAnLXRuJywgJzgnLCAnLW1hJywgJzIwMCcsICctbWV0YWxfYmluZGluZycsICctaW1hZScsICc8aW5maWxlLm1hZT4nLCAnLW9tYWUnLCAnPG91dGZpbGUubWFlPic=

> <r_epik_Ionization_Penalty>
6.88367

> <r_epik_Ionization_Penalty_Charging>
6.57198

> <r_epik_Ionization_Penalty_Neutral>
0.311681

> <r_epik_State_Penalty>
6.77619

> <r_epik_Charging_Adjusted_Penalty>
13.3482

> <i_epik_Tot_Q>
-1

> <i_epik_Tot_abs_Q>
1

> <r_epik_Metal_State_Penalty>
2.70533

> <b_epik_Metal_Only>
1

> <s_lp_Force_Field>
OPLS_2005

> <r_lp_Energy>
21.654

> <b_lp_Chiralities_Consistent>
1

> <s_lp_Variant>
AV-unprocessed.smi:2044-6

> <Gold.Version>
5.8.1

> <Gold.Id.Protein>
6NUR|6NUR_protein|mol2

> <Gold.PLP.Fitness>
38.0390

> <Gold.PLP.PLP>
-27.7919

> <Gold.PLP.part.hbond>
-3.0000

> <Gold.PLP.part.metal>
0.0000

> <Gold.PLP.part.buried>
-6.5832

> <Gold.PLP.part.nonpolar>
-20.5679

> <Gold.PLP.part.repulsive>
1.2278

> <Gold.PLP.ligand.clash>
0.0000

> <Gold.PLP.ligand.torsion>
0.5743

> <Gold.PLP.Chemscore.Hbond>
3.7824

> <Gold.PLP.Chemscore.CHOScore>
0.0000

> <Gold.PLP.Chemscore.Metal>
0.0000

> <Gold.Chemscore.Hbonds>
donor molecule, donor type, donor heavy atom, donor atom, acceptor molecule, acceptor atom, score
      P1  H  6896  6909       L1     7  1.00
      P1  H  6931  6943       L1     5  0.39
      P1  H  6934  6947       L1     5  0.90

> <Gold.PLP.Chemscore.Internal.Correction>
0.0485

> <Gold.Rescore>
     Score         DG    S(hbond)    S(metal)    S(lipo)     H(rot)  DE(clash)    DE(int)     intcor
     11.99     -14.96       1.69        0.00      66.62       1.55       0.94       2.02       ----

> <Gold.Chemscore.Fitness>
11.9943

> <Gold.Chemscore.DG>
-14.9554

> <Gold.Chemscore.ZeroCoef>
-5.4800

> <Gold.Chemscore.Hbond>
1.6890

> <Gold.Chemscore.Metal>
0.0000

> <Gold.Chemscore.Lipo>
66.6173

> <Gold.Chemscore.Internal_Hbond>
0.0000

> <Gold.Chemscore.DEClash>
0.9387

> <Gold.Chemscore.DEInternal>
2.0224

> <Gold.Chemscore.Rot>
1.5470

> <Gold.Chemscore.Internal.Correction>
   9.000000E+99

> <Gold.Chemscore.Hbonds>
donor molecule, donor type, donor heavy atom, donor atom, acceptor molecule, acceptor atom, score
      P1  H  6896  6909       L1     7  0.93
      P1  H  6931  6943       L1     5  0.02
      P1  H  6934  6947       L1     5  0.42

> <Gold.Chemscore.Hbond.Weighted>
-5.6414

> <Gold.Chemscore.Metal.Weighted>
-0.0000

> <Gold.Chemscore.Lipo.Weighted>
-7.7942

> <Gold.Chemscore.Internal_Hbond.Weighted>
0.0000

> <Gold.Chemscore.DEClash.Weighted>
0.9387

> <Gold.Chemscore.DEInternal.Weighted>
2.0224

> <Gold.Chemscore.Rot.Weighted>
3.9603

> <Gold.Chemscore.Internal.Correction.Weighted>
   9.000000E+99

> <Gold.Protein.RotatedTorsions>
[ 6907 6896 6895 6894 ] final   50.82 input  -60.11 | X-H torsion
[ 7974 7965 7964 7962 ] final  144.96 input  175.53 | X-H torsion
[ 8008 7997 7996 7995 ] final -166.50 input   59.86 | X-H torsion
[ 10167 10162 10161 10158 ] final -179.76 input  -65.29 | X-H torsion
[ 10718 10713 10712 10709 ] final -104.95 input   66.30 | X-H torsion
[ 10763 10752 10751 10750 ] final   59.65 input  -60.55 | X-H torsion
[ 11005 11000 10999 10996 ] final  -93.55 input  -57.11 | X-H torsion

> <Gold.Protein.ActiveResidues>
 VAL166  LYS551  ARG553  GLY616  TRP617  ASP618  TYR619  PRO620  LYS621  CYS622 
 ASP623  PHE694  ASN695  SER759  ASP760  ASP761  ALA762  ILE779  LEU786  VAL792 
 PHE793  MET794  SER795  GLU796  ALA797  LYS798  CYS799  TRP800  GLU811  SER814 

> <Gold.Protein.RotatedAtoms>
  152.3059  134.7555  160.0347 H   0  0  0  0  0  0  0  0  0  0  0  0  # atno 6907 bound_to 6896
  151.8052  133.3369  159.3547 H   0  0  0  0  0  0  0  0  0  0  0  0  # atno 6908 bound_to 6896
  150.7296  134.5645  159.5903 H   0  0  0  0  0  0  0  0  0  0  0  0  # atno 6909 bound_to 6896
  144.8792  139.5725  143.5850 H   0  0  0  0  0  0  0  0  0  0  0  0  # atno 7974 bound_to 7965
  155.8646  140.0983  157.1590 H   0  0  0  0  0  0  0  0  0  0  0  0  # atno 8008 bound_to 7997
  154.3993  140.1358  156.4066 H   0  0  0  0  0  0  0  0  0  0  0  0  # atno 8009 bound_to 7997
  155.7818  140.3458  155.5304 H   0  0  0  0  0  0  0  0  0  0  0  0  # atno 8010 bound_to 7997
  139.5372  144.2464  152.0819 H   0  0  0  0  0  0  0  0  0  0  0  0  # atno 10167 bound_to 10162
  156.0325  130.5540  150.7470 H   0  0  0  0  0  0  0  0  0  0  0  0  # atno 10718 bound_to 10713
  152.9900  135.5564  154.5747 H   0  0  0  0  0  0  0  0  0  0  0  0  # atno 10763 bound_to 10752
  154.5141  135.2804  155.1320 H   0  0  0  0  0  0  0  0  0  0  0  0  # atno 10764 bound_to 10752
  154.2700  135.6365  153.5359 H   0  0  0  0  0  0  0  0  0  0  0  0  # atno 10765 bound_to 10752
  141.1494  133.7895  157.0174 H   0  0  0  0  0  0  0  0  0  0  0  0  # atno 11005 bound_to 11000
  146.2983  139.7347  142.9110 LP  0  0  0  0  0  0  0  0  0  0  0  0  # atno 17320 bound_to 7965
  145.3985  141.0382  143.3084 LP  0  0  0  0  0  0  0  0  0  0  0  0  # atno 17321 bound_to 7965
  140.1937  144.4727  150.6466 LP  0  0  0  0  0  0  0  0  0  0  0  0  # atno 17342 bound_to 10162
  140.6584  143.2244  151.5914 LP  0  0  0  0  0  0  0  0  0  0  0  0  # atno 17343 bound_to 10162
  157.5024  131.0919  151.0298 LP  0  0  0  0  0  0  0  0  0  0  0  0  # atno 17370 bound_to 10713
  157.0676  130.5851  149.5396 LP  0  0  0  0  0  0  0  0  0  0  0  0  # atno 17371 bound_to 10713
  140.0838  134.9633  157.1666 LP  0  0  0  0  0  0  0  0  0  0  0  0  # atno 17394 bound_to 11000
  140.3540  134.2567  155.7195 LP  0  0  0  0  0  0  0  0  0  0  0  0  # atno 17395 bound_to 11000

$$$$
