AV-unprocessed.smi:441|AV-procd|sdf|2582|dock6
  -GOLD-   2262022573D 1   1.00000     0.00000
 Structure written by MMmdl.
 34 35  0  0  0  0  0  0  0  0  1 V2000
  150.9440  140.5538  155.3188 O   0  0  0  0  0  0  0  0  0  0  0  0
  150.1109  141.4598  155.3748 C   0  0  0  0  0  0  0  0  0  0  0  0
  148.8256  141.4003  154.5361 C   0  0  0  0  0  0  0  0  0  0  0  0
  147.6095  141.6905  155.3104 N   0  0  0  0  0  0  0  0  0  0  0  0
  147.5089  140.9768  156.4919 N   0  0  0  0  0  0  0  0  0  0  0  0
  146.4923  141.1634  157.2611 C   0  0  0  0  0  0  0  0  0  0  0  0
  145.4380  142.0969  156.9318 C   0  0  0  0  0  0  0  0  0  0  0  0
  144.0981  142.3047  158.0036 Cl  0  0  0  0  0  0  0  0  0  0  0  0
  145.5431  142.7868  155.7683 C   0  0  0  0  0  0  0  0  0  0  0  0
  144.3203  143.9200  155.3048 Cl  0  0  0  0  0  0  0  0  0  0  0  0
  146.6883  142.6003  154.8664 C   0  0  0  0  0  0  0  0  0  0  0  0
  146.8194  143.2055  153.8017 O   0  0  0  0  0  0  0  0  0  0  0  0
  150.2649  142.5536  156.1365 N   0  0  0  0  0  0  0  0  0  0  0  0
  151.4050  142.8224  157.0079 C   0  0  0  0  0  0  0  0  0  0  0  0
  151.3374  141.9046  158.2433 C   0  0  0  0  0  0  0  0  0  0  0  0
  152.4871  142.1927  159.2226 C   0  0  0  0  0  0  0  0  0  0  0  0
  152.5071  143.6716  159.6392 C   0  0  0  0  0  0  0  0  0  0  0  0
  152.5794  144.5922  158.4110 C   0  0  0  0  0  0  0  0  0  0  0  0
  151.4308  144.3063  157.4299 C   0  0  0  0  0  0  0  0  0  0  0  0
  148.9055  142.0915  153.6949 H   0  0  0  0  0  0  0  0  0  0  0  0
  148.7608  140.4060  154.0908 H   0  0  0  0  0  0  0  0  0  0  0  0
  146.3723  140.6265  158.2022 H   0  0  0  0  0  0  0  0  0  0  0  0
  149.5339  143.2499  156.1175 H   0  0  0  0  0  0  0  0  0  0  0  0
  152.3258  142.5932  156.4679 H   0  0  0  0  0  0  0  0  0  0  0  0
  150.3842  142.0436  158.7558 H   0  0  0  0  0  0  0  0  0  0  0  0
  151.3732  140.8590  157.9347 H   0  0  0  0  0  0  0  0  0  0  0  0
  152.3918  141.5592  160.1048 H   0  0  0  0  0  0  0  0  0  0  0  0
  153.4376  141.9316  158.7559 H   0  0  0  0  0  0  0  0  0  0  0  0
  151.6103  143.9009  160.2161 H   0  0  0  0  0  0  0  0  0  0  0  0
  153.3555  143.8614  160.2971 H   0  0  0  0  0  0  0  0  0  0  0  0
  152.5479  145.6354  158.7257 H   0  0  0  0  0  0  0  0  0  0  0  0
  153.5350  144.4510  157.9044 H   0  0  0  0  0  0  0  0  0  0  0  0
  151.5344  144.9467  156.5533 H   0  0  0  0  0  0  0  0  0  0  0  0
  150.4822  144.5744  157.8970 H   0  0  0  0  0  0  0  0  0  0  0  0
  1  2  2  0  0  0  0
  2  3  1  0  0  0  0
  2 13  1  0  0  0  0
  3  4  1  0  0  0  0
  3 20  1  0  0  0  0
  3 21  1  0  0  0  0
  4 11  1  0  0  0  0
  4  5  1  0  0  0  0
  5  6  2  0  0  0  0
  6  7  1  0  0  0  0
  6 22  1  0  0  0  0
  7  8  1  0  0  0  0
  7  9  2  0  0  0  0
  9 10  1  0  0  0  0
  9 11  1  0  0  0  0
 11 12  2  0  0  0  0
 13 14  1  0  0  0  0
 13 23  1  0  0  0  0
 14 19  1  0  0  0  0
 14 15  1  0  0  0  0
 14 24  1  0  0  0  0
 15 16  1  0  0  0  0
 15 25  1  0  0  0  0
 15 26  1  0  0  0  0
 16 17  1  0  0  0  0
 16 27  1  0  0  0  0
 16 28  1  0  0  0  0
 17 18  1  0  0  0  0
 17 29  1  0  0  0  0
 17 30  1  0  0  0  0
 18 19  1  0  0  0  0
 18 31  1  0  0  0  0
 18 32  1  0  0  0  0
 19 33  1  0  0  0  0
 19 34  1  0  0  0  0
M  END
> <s_m_source_file>
AV-unprocessed.smi

> <i_m_source_file_index>
441

> <i_lp_mmshare_version>
43012

> <i_f3d_flags>
0

> <s_epik_input>
W0NIMl0xW0NIMl1bQ0gyXVtDSDJdW0NIMl1bQ0hdMVtOSF1DKD1PKVtDSDJdbjJuW2NIXWMoQ2wpYyhDbCljMj1P

> <s_epik_cmdline>
J2VwaWtfcHl0aG9uJywgJy1waCcsICc3LjAnLCAnLXRuJywgJzgnLCAnLW1hJywgJzIwMCcsICctbWV0YWxfYmluZGluZycsICctaW1hZScsICc8aW5maWxlLm1hZT4nLCAnLW9tYWUnLCAnPG91dGZpbGUubWFlPic=

> <r_lp_tautomer_probability>
1

> <r_epik_Ionization_Penalty>
1.90776e-08

> <r_epik_Ionization_Penalty_Charging>
3.07389e-11

> <r_epik_Ionization_Penalty_Neutral>
1.90469e-08

> <r_epik_State_Penalty>
-0

> <r_epik_Charging_Adjusted_Penalty>
3.07389e-11

> <i_epik_Tot_Q>
0

> <i_epik_Tot_abs_Q>
0

> <r_epik_Metal_State_Penalty>
-0

> <b_epik_Metal_Only>
0

> <s_lp_Force_Field>
OPLS_2005

> <r_lp_Energy>
22.7857

> <b_lp_Chiralities_Consistent>
1

> <s_lp_Variant>
AV-unprocessed.smi:441-1

> <Gold.Version>
5.8.1

> <Gold.Id.Protein>
6NUR|6NUR_protein|mol2

> <Gold.PLP.Fitness>
41.3139

> <Gold.PLP.PLP>
-36.1544

> <Gold.PLP.part.hbond>
-3.0000

> <Gold.PLP.part.metal>
0.0000

> <Gold.PLP.part.buried>
-1.2380

> <Gold.PLP.part.nonpolar>
-31.3128

> <Gold.PLP.part.repulsive>
0.5486

> <Gold.PLP.ligand.clash>
0.0000

> <Gold.PLP.ligand.torsion>
0.3825

> <Gold.PLP.Chemscore.Hbond>
1.9732

> <Gold.PLP.Chemscore.CHOScore>
0.0000

> <Gold.PLP.Chemscore.Metal>
0.0000

> <Gold.Chemscore.Hbonds>
donor molecule, donor type, donor heavy atom, donor atom, acceptor molecule, acceptor atom, score
      L1  H    13    23       P1  8028  1.00
      P1  H  7989  7998       L1     1  0.90
      P1  H  8022  8030       L1    12  0.08

> <Gold.PLP.Chemscore.Internal.Correction>
0.0047

> <Gold.Rescore>
     Score         DG    S(hbond)    S(metal)    S(lipo)     H(rot)  DE(clash)    DE(int)     intcor
     14.82     -16.80       1.59        0.00      84.35       1.51       1.85       0.13       ----

> <Gold.Chemscore.Fitness>
14.8241

> <Gold.Chemscore.DG>
-16.8028

> <Gold.Chemscore.ZeroCoef>
-5.4800

> <Gold.Chemscore.Hbond>
1.5941

> <Gold.Chemscore.Metal>
0.0000

> <Gold.Chemscore.Lipo>
84.3468

> <Gold.Chemscore.Internal_Hbond>
0.0000

> <Gold.Chemscore.DEClash>
1.8500

> <Gold.Chemscore.DEInternal>
0.1287

> <Gold.Chemscore.Rot>
1.5118

> <Gold.Chemscore.Internal.Correction>
   9.000000E+99

> <Gold.Chemscore.Hbonds>
donor molecule, donor type, donor heavy atom, donor atom, acceptor molecule, acceptor atom, score
      L1  H    13    23       P1  8028  0.97
      P1  H  7989  7998       L1     1  0.19
      P1  H  8022  8030       L1    12  0.08

> <Gold.Chemscore.Hbond.Weighted>
-5.3245

> <Gold.Chemscore.Metal.Weighted>
-0.0000

> <Gold.Chemscore.Lipo.Weighted>
-9.8686

> <Gold.Chemscore.Internal_Hbond.Weighted>
0.0000

> <Gold.Chemscore.DEClash.Weighted>
1.8500

> <Gold.Chemscore.DEInternal.Weighted>
0.1287

> <Gold.Chemscore.Rot.Weighted>
3.8702

> <Gold.Chemscore.Internal.Correction.Weighted>
   9.000000E+99

> <Gold.Protein.RotatedTorsions>
[ 6907 6896 6895 6894 ] final  -12.19 input  -60.11 | X-H torsion
[ 7974 7965 7964 7962 ] final  -11.02 input  175.53 | X-H torsion
[ 8008 7997 7996 7995 ] final  -54.40 input   59.86 | X-H torsion
[ 10167 10162 10161 10158 ] final  -25.02 input  -65.29 | X-H torsion
[ 10718 10713 10712 10709 ] final  101.76 input   66.30 | X-H torsion
[ 10763 10752 10751 10750 ] final  161.06 input  -60.55 | X-H torsion
[ 11005 11000 10999 10996 ] final  108.50 input  -57.11 | X-H torsion

> <Gold.Protein.ActiveResidues>
 VAL166  LYS551  ARG553  GLY616  TRP617  ASP618  TYR619  PRO620  LYS621  CYS622 
 ASP623  PHE694  ASN695  SER759  ASP760  ASP761  ALA762  ILE779  LEU786  VAL792 
 PHE793  MET794  SER795  GLU796  ALA797  LYS798  CYS799  TRP800  GLU811  SER814 

> <Gold.Protein.RotatedAtoms>
  151.3743  135.0928  159.9475 H   0  0  0  0  0  0  0  0  0  0  0  0  # atno 6907 bound_to 6896
  152.5126  133.9134  159.7509 H   0  0  0  0  0  0  0  0  0  0  0  0  # atno 6908 bound_to 6896
  150.9554  133.6448  159.2793 H   0  0  0  0  0  0  0  0  0  0  0  0  # atno 6909 bound_to 6896
  146.2201  140.2849  142.8364 H   0  0  0  0  0  0  0  0  0  0  0  0  # atno 7974 bound_to 7965
  154.4162  140.1177  156.5310 H   0  0  0  0  0  0  0  0  0  0  0  0  # atno 8008 bound_to 7997
  155.6606  140.3496  155.4762 H   0  0  0  0  0  0  0  0  0  0  0  0  # atno 8009 bound_to 7997
  155.9716  140.1142  157.0796 H   0  0  0  0  0  0  0  0  0  0  0  0  # atno 8010 bound_to 7997
  140.7287  143.4302  151.0814 H   0  0  0  0  0  0  0  0  0  0  0  0  # atno 10167 bound_to 10162
  157.6821  131.0735  150.5301 H   0  0  0  0  0  0  0  0  0  0  0  0  # atno 10718 bound_to 10713
  154.2571  135.2769  155.2793 H   0  0  0  0  0  0  0  0  0  0  0  0  # atno 10763 bound_to 10752
  154.5416  135.5701  153.6847 H   0  0  0  0  0  0  0  0  0  0  0  0  # atno 10764 bound_to 10752
  152.9969  135.6252  154.2720 H   0  0  0  0  0  0  0  0  0  0  0  0  # atno 10765 bound_to 10752
  139.8845  134.9432  156.5983 H   0  0  0  0  0  0  0  0  0  0  0  0  # atno 11005 bound_to 11000
  144.9169  140.7823  143.5772 LP  0  0  0  0  0  0  0  0  0  0  0  0  # atno 17320 bound_to 7965
  145.2783  139.1928  143.4804 LP  0  0  0  0  0  0  0  0  0  0  0  0  # atno 17321 bound_to 7965
  139.7957  143.8154  152.3157 LP  0  0  0  0  0  0  0  0  0  0  0  0  # atno 17342 bound_to 10162
  139.8154  144.7318  150.9642 LP  0  0  0  0  0  0  0  0  0  0  0  0  # atno 17343 bound_to 10162
  156.5611  130.4256  149.6062 LP  0  0  0  0  0  0  0  0  0  0  0  0  # atno 17370 bound_to 10713
  156.2820  130.7076  151.1903 LP  0  0  0  0  0  0  0  0  0  0  0  0  # atno 17371 bound_to 10713
  140.7903  133.8587  155.8641 LP  0  0  0  0  0  0  0  0  0  0  0  0  # atno 17394 bound_to 11000
  140.9683  134.1565  157.4598 LP  0  0  0  0  0  0  0  0  0  0  0  0  # atno 17395 bound_to 11000

$$$$
