#       Name:                AV-unprocessed.smi:1760
#       Creating user name   scv26
#       Creation time:       Fri Mar 27 08:30:51 2020


#       File generated by GOLD software.
#

@<TRIPOS>MOLECULE
AV-unprocessed.smi:1760
    48    50     1
SMALL
NO_CHARGES


@<TRIPOS>ATOM
      1 ****         1.7742   1.2856  -0.0462 O.2            1 S1                 0.0000
      2 ****         1.4157   0.1097   0.0118 C.2            1 S1                 0.0000
      3 ****         2.2303  -0.9603   0.0637 N.am           1 S1                 0.0000
      4 ****         3.6344  -1.0120   0.0427 C.2            1 S1                 0.0000
      5 ****         4.4445   0.0005  -0.3632 C.2            1 S1                 0.0000
      6 ****         5.8927  -0.1241  -0.3662 C.2            1 S1                 0.0000
      7 ****         6.7914   1.0448  -0.7390 C.3            1 S1                 0.0000
      8 ****         7.9551   0.9869  -0.0900 F              1 S1                 0.0000
      9 ****         7.0443   1.0218  -2.0468 F              1 S1                 0.0000
     10 ****         6.2083   2.2081  -0.4494 F              1 S1                 0.0000
     11 ****         6.3950  -1.2976   0.0602 C.2            1 S1                 0.0000
     12 ****         5.5687  -2.3519   0.4553 N.am           1 S1                 0.0000
     13 ****         4.2183  -2.2922   0.4762 C.2            1 S1                 0.0000
     14 ****         3.5590  -3.2655   0.8402 O.2            1 S1                 0.0000
     15 ****         0.1299  -0.2689   0.0564 N.am           1 S1                 0.0000
     16 ****        -1.0259   0.6245   0.0579 C.3            1 S1                 0.0000
     17 ****        -1.8711   0.3857   1.3201 C.3            1 S1                 0.0000
     18 ****        -3.1555   1.2359   1.2988 C.3            1 S1                 0.0000
     19 ****        -3.9578   1.0057   0.0697 N.4            1 S1                 1.0000
     20 ****        -4.6776  -0.2897   0.0730 C.3            1 S1                 0.0000
     21 ****        -5.9888  -0.2566  -0.6769 C.3            1 S1                 0.0000
     22 ****        -5.9815  -0.2560   0.8355 C.3            1 S1                 0.0000
     23 ****        -3.1655   1.2359  -1.1660 C.3            1 S1                 0.0000
     24 ****        -1.8804   0.3866  -1.1984 C.3            1 S1                 0.0000
     25 ****         6.0218  -3.2069   0.7445 H              1 S1                 0.0000
     26 ****         1.7830  -1.8583   0.1776 H              1 S1                 0.0000
     27 ****         4.0349   0.9316  -0.7188 H              1 S1                 0.0000
     28 ****         7.4500  -1.5157   0.1375 H              1 S1                 0.0000
     29 ****        -0.0647  -1.2584   0.1058 H              1 S1                 0.0000
     30 ****        -0.7039   1.6676   0.0585 H              1 S1                 0.0000
     31 ****        -2.1290  -0.6709   1.4032 H              1 S1                 0.0000
     32 ****        -1.2875   0.6275   2.2093 H              1 S1                 0.0000
     33 ****        -3.7610   1.0336   2.1829 H              1 S1                 0.0000
     34 ****        -2.8912   2.2932   1.3436 H              1 S1                 0.0000
     35 ****        -4.0684  -1.1913   0.0703 H              1 S1                 0.0000
     36 ****        -6.2740   0.6667  -1.1781 H              1 S1                 0.0000
     37 ****        -6.3062  -1.1715  -1.1731 H              1 S1                 0.0000
     38 ****        -6.2939  -1.1705   1.3358 H              1 S1                 0.0000
     39 ****        -6.2621   0.6677   1.3386 H              1 S1                 0.0000
     40 ****        -3.7784   1.0333  -2.0449 H              1 S1                 0.0000
     41 ****        -2.9025   2.2935  -1.2131 H              1 S1                 0.0000
     42 ****        -1.3038   0.6303  -2.0915 H              1 S1                 0.0000
     43 ****        -2.1381  -0.6700  -1.2811 H              1 S1                 0.0000
     44 ****        -4.6818   1.7101   0.0727 H              1 S1                 0.0000
     45 ****         2.7483   1.5114  -0.0580 LP             1 S1                 0.0000
     46 ****         1.0914   2.0154  -0.0815 LP             1 S1                 0.0000
     47 ****         2.5603  -3.2160   0.8539 LP             1 S1                 0.0000
     48 ****         4.0219  -4.1058   1.1223 LP             1 S1                 0.0000
@<TRIPOS>BOND
    1    1    2 2     
    2    2    3 am    
    3    2   15 am    
    4    3    4 1     
    5    3   26 1     
    6    4   13 1     
    7    4    5 2     
    8    5    6 1     
    9    5   27 1     
   10    6    7 1     
   11    6   11 2     
   12    7    8 1     
   13    7    9 1     
   14    7   10 1     
   15   11   12 1     
   16   11   28 1     
   17   12   25 1     
   18   12   13 am    
   19   13   14 2     
   20   15   16 1     
   21   15   29 1     
   22   16   24 1     
   23   16   17 1     
   24   16   30 1     
   25   17   18 1     
   26   17   31 1     
   27   17   32 1     
   28   18   19 1     
   29   18   33 1     
   30   18   34 1     
   31   19   20 1     
   32   19   23 1     
   33   19   44 1     
   34   20   22 1     
   35   20   21 1     
   36   20   35 1     
   37   21   22 1     
   38   21   36 1     
   39   21   37 1     
   40   22   38 1     
   41   22   39 1     
   42   23   24 1     
   43   23   40 1     
   44   23   41 1     
   45   24   42 1     
   46   24   43 1     
   47    1   45 1     
   48    1   46 1     
   49   14   47 1     
   50   14   48 1     
@<TRIPOS>SUBSTRUCTURE
      1 S1             1
@<TRIPOS>SET
LONE_PAIRS      STATIC     ATOMS    <user>   **** ""
4 45 46 47 48
DONOR_HYDROGENS      STATIC     ATOMS    <user>   **** ""
4 26 25 29 44
ATOM$BLUE        STATIC     ATOMS    COLORGROUP SYSTEM
4 45 46 47 48
ATOM$RED        STATIC     ATOMS    COLORGROUP SYSTEM
4 26 25 29 44
