#       Name:                AV-unprocessed.smi:2772
#       Creating user name   scv26
#       Creation time:       Fri Mar 27 15:11:18 2020


#       File generated by GOLD software.
#

@<TRIPOS>MOLECULE
AV-unprocessed.smi:2772
    58    60     1
SMALL
NO_CHARGES


@<TRIPOS>ATOM
      1 ****        -7.6375   5.5083  -0.1033 C.3            1 S1                 0.0000
      2 ****        -6.3546   4.7059  -0.0442 C.ar           1 S1                 0.0000
      3 ****        -5.1507   5.2947   0.3948 C.ar           1 S1                 0.0000
      4 ****        -3.9872   4.5022   0.4293 C.ar           1 S1                 0.0000
      5 ****        -4.0673   3.1505   0.0157 C.ar           1 S1                 0.0000
      6 ****        -2.9717   2.2459   0.0251 N.am           1 S1                 0.0000
      7 ****        -1.6575   2.5251  -0.0078 C.2            1 S1                 0.0000
      8 ****        -1.1716   3.6526  -0.0922 O.2            1 S1                 0.0000
      9 ****        -0.9254   1.4028   0.0430 N.am           1 S1                 0.0000
     10 ****         0.5335   1.3329   0.0205 C.3            1 S1                 0.0000
     11 ****         1.0061   0.6153  -1.2578 C.3            1 S1                 0.0000
     12 ****         2.5261   0.3616  -1.2257 C.3            1 S1                 0.0000
     13 ****         2.9347  -0.4150  -0.0195 N.4            1 S1                 1.0000
     14 ****         2.5299  -1.8639  -0.0192 C.3            1 S1                 0.0000
     15 ****         3.0395  -2.6172   1.2362 C.3            1 S1                 0.0000
     16 ****         2.6994  -4.1171   1.2041 C.3            1 S1                 0.0000
     17 ****         3.2363  -4.7616  -0.0160 N.4            1 S1                 1.0000
     18 ****         3.0335  -6.2266  -0.0169 C.3            1 S1                 0.0000
     19 ****         2.7099  -4.1170  -1.2406 C.3            1 S1                 0.0000
     20 ****         3.0508  -2.6172  -1.2698 C.3            1 S1                 0.0000
     21 ****         2.5597   0.3549   1.2016 C.3            1 S1                 0.0000
     22 ****         1.0407   0.6023   1.2775 C.3            1 S1                 0.0000
     23 ****        -5.3265   2.6613  -0.3912 C.ar           1 S1                 0.0000
     24 ****        -6.4465   3.4144  -0.4280 N.ar           1 S1                 0.0000
     25 ****        -7.4768   6.5375   0.2189 H              1 S1                 0.0000
     26 ****        -8.3933   5.0634   0.5445 H              1 S1                 0.0000
     27 ****        -8.0262   5.5278  -1.1218 H              1 S1                 0.0000
     28 ****        -5.1165   6.3290   0.7041 H              1 S1                 0.0000
     29 ****        -3.0674   4.9404   0.7842 H              1 S1                 0.0000
     30 ****        -3.2206   1.2677   0.0048 H              1 S1                 0.0000
     31 ****        -1.4203   0.5251   0.1046 H              1 S1                 0.0000
     32 ****         0.9653   2.3356   0.0220 H              1 S1                 0.0000
     33 ****         0.4737  -0.3283  -1.3818 H              1 S1                 0.0000
     34 ****         0.7554   1.2193  -2.1306 H              1 S1                 0.0000
     35 ****         2.8640  -0.1022  -2.1498 H              1 S1                 0.0000
     36 ****         3.0423   1.3225  -1.1996 H              1 S1                 0.0000
     37 ****         1.4415  -1.9243  -0.0229 H              1 S1                 0.0000
     38 ****         4.1188  -2.4904   1.3326 H              1 S1                 0.0000
     39 ****         2.5929  -2.2137   2.1436 H              1 S1                 0.0000
     40 ****         3.1174  -4.6032   2.0867 H              1 S1                 0.0000
     41 ****         1.6181  -4.2586   1.2475 H              1 S1                 0.0000
     42 ****         1.9715  -6.4763  -0.0212 H              1 S1                 0.0000
     43 ****         3.4880  -6.6787   0.8654 H              1 S1                 0.0000
     44 ****         3.4953  -6.6788  -0.8952 H              1 S1                 0.0000
     45 ****         3.1352  -4.6032  -2.1197 H              1 S1                 0.0000
     46 ****         1.6289  -4.2581  -1.2933 H              1 S1                 0.0000
     47 ****         2.6142  -2.2130  -2.1818 H              1 S1                 0.0000
     48 ****         4.1311  -2.4909  -1.3555 H              1 S1                 0.0000
     49 ****         2.9266  -0.1113   2.1134 H              1 S1                 0.0000
     50 ****         3.0714   1.3178   1.1650 H              1 S1                 0.0000
     51 ****         0.8111   1.1955   2.1634 H              1 S1                 0.0000
     52 ****         0.5147  -0.3446   1.4044 H              1 S1                 0.0000
     53 ****        -5.4401   1.6331  -0.7025 H              1 S1                 0.0000
     54 ****         3.9449  -0.4235  -0.0326 H              1 S1                 0.0000
     55 ****         4.2355  -4.6129  -0.0117 H              1 S1                 0.0000
     56 ****        -1.7698   4.4524  -0.1426 LP             1 S1                 0.0000
     57 ****        -0.1786   3.7691  -0.1104 LP             1 S1                 0.0000
     58 ****        -7.3177   3.0276  -0.7303 LP             1 S1                 0.0000
@<TRIPOS>BOND
    1    1    2 1     
    2    1   25 1     
    3    1   26 1     
    4    1   27 1     
    5    2   24 ar    
    6    2    3 ar    
    7    3    4 ar    
    8    3   28 1     
    9    4    5 ar    
   10    4   29 1     
   11    5    6 1     
   12    5   23 ar    
   13    6    7 am    
   14    6   30 1     
   15    7    8 2     
   16    7    9 am    
   17    9   10 1     
   18    9   31 1     
   19   10   22 1     
   20   10   11 1     
   21   10   32 1     
   22   11   12 1     
   23   11   33 1     
   24   11   34 1     
   25   12   13 1     
   26   12   35 1     
   27   12   36 1     
   28   13   14 1     
   29   13   21 1     
   30   13   54 1     
   31   14   20 1     
   32   14   15 1     
   33   14   37 1     
   34   15   16 1     
   35   15   38 1     
   36   15   39 1     
   37   16   17 1     
   38   16   40 1     
   39   16   41 1     
   40   17   18 1     
   41   17   19 1     
   42   17   55 1     
   43   18   42 1     
   44   18   43 1     
   45   18   44 1     
   46   19   20 1     
   47   19   45 1     
   48   19   46 1     
   49   20   47 1     
   50   20   48 1     
   51   21   22 1     
   52   21   49 1     
   53   21   50 1     
   54   22   51 1     
   55   22   52 1     
   56   23   24 ar    
   57   23   53 1     
   58    8   56 1     
   59    8   57 1     
   60   24   58 1     
@<TRIPOS>SUBSTRUCTURE
      1 S1             1
@<TRIPOS>SET
LONE_PAIRS      STATIC     ATOMS    <user>   **** ""
3 56 57 58
DONOR_HYDROGENS      STATIC     ATOMS    <user>   **** ""
4 30 31 54 55
ATOM$BLUE        STATIC     ATOMS    COLORGROUP SYSTEM
3 56 57 58
ATOM$RED        STATIC     ATOMS    COLORGROUP SYSTEM
4 30 31 54 55
