AV-unprocessed.smi:3115|AV-procd|sdf|11860|dock1
  -GOLD-   2272017243D 1   1.00000     0.00000
 Structure written by MMmdl.
 32 33  0  0  0  0  0  0  0  0  1 V2000
  151.8229  145.3744  159.5357 C   0  0  0  0  0  0  0  0  0  0  0  0
  152.4226  143.9731  159.3787 C   0  0  2  0  0  0  0  0  0  0  0  0
  151.7319  143.1692  158.2595 C   0  0  0  0  0  0  0  0  0  0  0  0
  152.2677  141.8145  158.2109 N   0  0  0  0  0  0  0  0  0  0  0  0
  151.7743  141.0544  157.1410 C   0  0  0  0  0  0  0  0  0  0  0  0
  150.5682  141.4466  156.5224 C   0  0  0  0  0  0  0  0  0  0  0  0
  150.0779  140.6808  155.4452 C   0  0  0  0  0  0  0  0  0  0  0  0
  148.7838  141.0576  154.7549 C   0  0  0  0  0  0  0  0  0  0  0  0
  148.8793  142.3288  154.0670 N   0  0  0  0  0  0  0  0  0  0  0  0
  150.8087  139.5492  155.0319 C   0  0  0  0  0  0  0  0  0  0  0  0
  152.0020  139.2381  155.7122 C   0  0  0  0  0  0  0  0  0  0  0  0
  152.4799  139.9686  156.7422 N   0  0  0  0  0  0  0  0  0  0  0  0
  152.1752  141.1348  159.4967 C   0  0  0  0  0  0  0  0  0  0  0  0
  152.8546  141.9810  160.5864 C   0  0  0  0  0  0  0  0  0  0  0  0
  152.2691  143.2797  160.6156 O   0  0  0  0  0  0  0  0  0  0  0  0
  151.9258  145.9508  158.6161 H   0  0  0  0  0  0  0  0  0  0  0  0
  152.3240  145.9258  160.3316 H   0  0  0  0  0  0  0  0  0  0  0  0
  150.7620  145.3237  159.7824 H   0  0  0  0  0  0  0  0  0  0  0  0
  153.4866  144.0727  159.1556 H   0  0  0  0  0  0  0  0  0  0  0  0
  150.6558  143.1335  158.4361 H   0  0  0  0  0  0  0  0  0  0  0  0
  151.8848  143.6578  157.2962 H   0  0  0  0  0  0  0  0  0  0  0  0
  150.0293  142.3170  156.8680 H   0  0  0  0  0  0  0  0  0  0  0  0
  148.4994  140.2833  154.0418 H   0  0  0  0  0  0  0  0  0  0  0  0
  147.9861  141.1161  155.4959 H   0  0  0  0  0  0  0  0  0  0  0  0
  147.9670  142.6050  153.7332 H   0  0  0  0  0  0  0  0  0  0  0  0
  149.1794  143.0415  154.7169 H   0  0  0  0  0  0  0  0  0  0  0  0
  150.4653  138.9333  154.2137 H   0  0  0  0  0  0  0  0  0  0  0  0
  152.5883  138.3789  155.4220 H   0  0  0  0  0  0  0  0  0  0  0  0
  151.1277  140.9726  159.7549 H   0  0  0  0  0  0  0  0  0  0  0  0
  152.6485  140.1542  159.4326 H   0  0  0  0  0  0  0  0  0  0  0  0
  152.7264  141.5111  161.5616 H   0  0  0  0  0  0  0  0  0  0  0  0
  153.9282  142.0580  160.4073 H   0  0  0  0  0  0  0  0  0  0  0  0
  1  2  1  0  0  0  0
  1 16  1  0  0  0  0
  1 17  1  0  0  0  0
  1 18  1  0  0  0  0
  2 15  1  0  0  0  0
  2  3  1  0  0  0  0
  2 19  1  0  0  0  0
  3  4  1  0  0  0  0
  3 20  1  0  0  0  0
  3 21  1  0  0  0  0
  4  5  1  0  0  0  0
  4 13  1  0  0  0  0
  5 12  1  0  0  0  0
  5  6  2  0  0  0  0
  6  7  1  0  0  0  0
  6 22  1  0  0  0  0
  7  8  1  0  0  0  0
  7 10  2  0  0  0  0
  8  9  1  0  0  0  0
  8 23  1  0  0  0  0
  8 24  1  0  0  0  0
  9 25  1  0  0  0  0
  9 26  1  0  0  0  0
 10 11  1  0  0  0  0
 10 27  1  0  0  0  0
 11 12  2  0  0  0  0
 11 28  1  0  0  0  0
 13 14  1  0  0  0  0
 13 29  1  0  0  0  0
 13 30  1  0  0  0  0
 14 15  1  0  0  0  0
 14 31  1  0  0  0  0
 14 32  1  0  0  0  0
M  END
> <s_m_source_file>
AV-unprocessed.smi

> <i_m_source_file_index>
3115

> <i_lp_mmshare_version>
43012

> <i_f3d_flags>
0

> <s_epik_input>
W0NIM11bQ0BASF0xW0NIMl1OKFtDSDJdW0NIMl1PMSljMltjSF1jKFtDSDJdW05IMl0pW2NIXVtjSF1uMg==

> <s_epik_cmdline>
J2VwaWtfcHl0aG9uJywgJy1waCcsICc3LjAnLCAnLXRuJywgJzgnLCAnLW1hJywgJzIwMCcsICctbWV0YWxfYmluZGluZycsICctaW1hZScsICc8aW5maWxlLm1hZT4nLCAnLW9tYWUnLCAnPG91dGZpbGUubWFlPic=

> <r_lp_tautomer_probability>
1

> <r_epik_Ionization_Penalty>
1.27341

> <r_epik_Ionization_Penalty_Charging>
0

> <r_epik_Ionization_Penalty_Neutral>
1.27341

> <r_epik_State_Penalty>
2.46834

> <r_epik_Charging_Adjusted_Penalty>
2.46834

> <i_epik_Tot_Q>
0

> <i_epik_Tot_abs_Q>
0

> <r_epik_Metal_State_Penalty>
2.44319

> <b_epik_Metal_Only>
0

> <s_lp_Force_Field>
OPLS_2005

> <r_lp_Energy>
17.2418

> <b_lp_Chiralities_Consistent>
1

> <s_lp_Variant>
AV-unprocessed.smi:3115-3

> <Gold.Version>
5.8.1

> <Gold.Id.Protein>
6NUR|6NUR_protein|mol2

> <Gold.PLP.Fitness>
40.5640

> <Gold.PLP.PLP>
-36.1265

> <Gold.PLP.part.hbond>
-3.0000

> <Gold.PLP.part.metal>
0.0000

> <Gold.PLP.part.buried>
-2.9102

> <Gold.PLP.part.nonpolar>
-29.4809

> <Gold.PLP.part.repulsive>
0.0559

> <Gold.PLP.ligand.clash>
1.4770

> <Gold.PLP.ligand.torsion>
0.4168

> <Gold.PLP.Chemscore.Hbond>
2.2160

> <Gold.PLP.Chemscore.CHOScore>
0.0000

> <Gold.PLP.Chemscore.Metal>
0.0000

> <Gold.Chemscore.Hbonds>
donor molecule, donor type, donor heavy atom, donor atom, acceptor molecule, acceptor atom, score
      L1  H     9    26       P1  8028  1.00
      P1  H  7997  8009       L1    12  1.00
      P1  H  8011  8017       L1     9  0.18

> <Gold.PLP.Chemscore.Internal.Correction>
0.1000

> <Gold.Rescore>
     Score         DG    S(hbond)    S(metal)    S(lipo)     H(rot)  DE(clash)    DE(int)     intcor
     18.16     -18.57       1.79        0.00      88.66       1.28       0.01       0.40       ----

> <Gold.Chemscore.Fitness>
18.1643

> <Gold.Chemscore.DG>
-18.5749

> <Gold.Chemscore.ZeroCoef>
-5.4800

> <Gold.Chemscore.Hbond>
1.7930

> <Gold.Chemscore.Metal>
0.0000

> <Gold.Chemscore.Lipo>
88.6602

> <Gold.Chemscore.Internal_Hbond>
0.0000

> <Gold.Chemscore.DEClash>
0.0064

> <Gold.Chemscore.DEInternal>
0.4042

> <Gold.Chemscore.Rot>
1.2762

> <Gold.Chemscore.Internal.Correction>
   9.000000E+99

> <Gold.Chemscore.Hbonds>
donor molecule, donor type, donor heavy atom, donor atom, acceptor molecule, acceptor atom, score
      L1  H     9    26       P1  8028  0.94
      P1  H  7997  8009       L1    12  0.58
      P1  H  8011  8017       L1     9  0.02

> <Gold.Chemscore.Hbond.Weighted>
-5.9887

> <Gold.Chemscore.Metal.Weighted>
-0.0000

> <Gold.Chemscore.Lipo.Weighted>
-10.3732

> <Gold.Chemscore.Internal_Hbond.Weighted>
0.0000

> <Gold.Chemscore.DEClash.Weighted>
0.0064

> <Gold.Chemscore.DEInternal.Weighted>
0.4042

> <Gold.Chemscore.Rot.Weighted>
3.2671

> <Gold.Chemscore.Internal.Correction.Weighted>
   9.000000E+99

> <Gold.Protein.RotatedTorsions>
[ 6907 6896 6895 6894 ] final -116.08 input  -60.11 | X-H torsion
[ 7974 7965 7964 7962 ] final  -72.85 input  175.53 | X-H torsion
[ 8008 7997 7996 7995 ] final -170.16 input   59.86 | X-H torsion
[ 10167 10162 10161 10158 ] final  102.87 input  -65.29 | X-H torsion
[ 10718 10713 10712 10709 ] final  169.77 input   66.30 | X-H torsion
[ 10763 10752 10751 10750 ] final  -24.97 input  -60.55 | X-H torsion
[ 11005 11000 10999 10996 ] final -176.95 input  -57.11 | X-H torsion

> <Gold.Protein.ActiveResidues>
 VAL166  LYS551  ARG553  GLY616  TRP617  ASP618  TYR619  PRO620  LYS621  CYS622 
 ASP623  PHE694  ASN695  SER759  ASP760  ASP761  ALA762  ILE779  LEU786  VAL792 
 PHE793  MET794  SER795  GLU796  ALA797  LYS798  CYS799  TRP800  GLU811  SER814 

> <Gold.Protein.RotatedAtoms>
  150.8028  133.8567  159.3220 H   0  0  0  0  0  0  0  0  0  0  0  0  # atno 6907 bound_to 6896
  151.6374  135.1014  160.0144 H   0  0  0  0  0  0  0  0  0  0  0  0  # atno 6908 bound_to 6896
  152.4116  133.6933  159.6438 H   0  0  0  0  0  0  0  0  0  0  0  0  # atno 6909 bound_to 6896
  145.6598  140.9256  143.0940 H   0  0  0  0  0  0  0  0  0  0  0  0  # atno 7974 bound_to 7965
  155.9147  140.1063  157.1253 H   0  0  0  0  0  0  0  0  0  0  0  0  # atno 8008 bound_to 7997
  154.4044  140.1267  156.4667 H   0  0  0  0  0  0  0  0  0  0  0  0  # atno 8009 bound_to 7997
  155.7268  140.3469  155.5043 H   0  0  0  0  0  0  0  0  0  0  0  0  # atno 8010 bound_to 7997
  139.7312  144.7035  151.0719 H   0  0  0  0  0  0  0  0  0  0  0  0  # atno 10167 bound_to 10162
  157.0178  131.0223  151.2784 H   0  0  0  0  0  0  0  0  0  0  0  0  # atno 10718 bound_to 10713
  153.6923  135.6961  153.5086 H   0  0  0  0  0  0  0  0  0  0  0  0  # atno 10763 bound_to 10752
  153.2404  135.4308  155.0691 H   0  0  0  0  0  0  0  0  0  0  0  0  # atno 10764 bound_to 10752
  154.8369  135.3506  154.6464 H   0  0  0  0  0  0  0  0  0  0  0  0  # atno 10765 bound_to 10752
  140.4464  134.6384  157.4781 H   0  0  0  0  0  0  0  0  0  0  0  0  # atno 11005 bound_to 11000
  144.7093  139.8434  143.7420 LP  0  0  0  0  0  0  0  0  0  0  0  0  # atno 17320 bound_to 7965
  146.1135  139.4142  143.0273 LP  0  0  0  0  0  0  0  0  0  0  0  0  # atno 17321 bound_to 7965
  140.7771  143.5041  150.9734 LP  0  0  0  0  0  0  0  0  0  0  0  0  # atno 17342 bound_to 10162
  139.8729  143.7169  152.3164 LP  0  0  0  0  0  0  0  0  0  0  0  0  # atno 17343 bound_to 10162
  157.5272  130.8035  149.7875 LP  0  0  0  0  0  0  0  0  0  0  0  0  # atno 17370 bound_to 10713
  156.0113  130.3832  150.2256 LP  0  0  0  0  0  0  0  0  0  0  0  0  # atno 17371 bound_to 10713
  140.0036  134.6799  155.9491 LP  0  0  0  0  0  0  0  0  0  0  0  0  # atno 17394 bound_to 11000
  141.1683  133.6537  156.4560 LP  0  0  0  0  0  0  0  0  0  0  0  0  # atno 17395 bound_to 11000

$$$$
