AV-unprocessed.smi:2979|AV-procd|sdf|11371|dock1
  -GOLD-   2272016293D 1   1.00000     0.00000
 Structure written by MMmdl.
 36 37  0  0  0  0  0  0  0  0  2 V2000
  153.3686  138.1115  159.1321 C   0  0  0  0  0  0  0  0  0  0  0  0
  153.5655  138.9217  157.9866 O   0  0  0  0  0  0  0  0  0  0  0  0
  152.3822  139.5884  157.5840 C   0  0  0  0  0  0  0  0  0  0  0  0
  151.8975  140.4727  158.7414 C   0  0  0  0  0  0  0  0  0  0  0  0
  151.4696  141.8035  158.2866 N   0  0  0  0  0  0  0  0  0  0  0  0
  150.8800  142.2014  157.1210 C   0  0  0  0  0  0  0  0  0  0  0  0
  150.5170  141.3453  155.9504 C   0  0  0  0  0  0  0  0  0  0  0  0
  149.0171  141.4284  155.6346 C   0  0  0  0  0  0  0  0  0  0  0  0
  148.6309  140.6047  154.4000 C   0  0  0  0  0  0  0  0  0  0  0  0
  149.4601  140.9594  153.3151 O   0  0  0  0  0  0  0  0  0  0  0  0
  150.6996  143.5503  157.2013 N   0  3  0  0  0  0  0  0  0  0  0  0
  151.1690  144.0187  158.4290 C   0  0  0  0  0  0  0  0  0  0  0  0
  151.2012  145.3032  158.9630 C   0  0  0  0  0  0  0  0  0  0  0  0
  151.7546  145.4383  160.2535 C   0  0  0  0  0  0  0  0  0  0  0  0
  152.2458  144.3226  160.9623 C   0  0  0  0  0  0  0  0  0  0  0  0
  152.2061  143.0251  160.4108 C   0  0  0  0  0  0  0  0  0  0  0  0
  151.6611  142.9014  159.1331 C   0  0  0  0  0  0  0  0  0  0  0  0
  154.3068  137.6284  159.4046 H   0  0  0  0  0  0  0  0  0  0  0  0
  152.6316  137.3306  158.9402 H   0  0  0  0  0  0  0  0  0  0  0  0
  153.0361  138.7057  159.9842 H   0  0  0  0  0  0  0  0  0  0  0  0
  152.5810  140.1933  156.6983 H   0  0  0  0  0  0  0  0  0  0  0  0
  151.6167  138.8592  157.3170 H   0  0  0  0  0  0  0  0  0  0  0  0
  151.0563  139.9985  159.2465 H   0  0  0  0  0  0  0  0  0  0  0  0
  152.6789  140.5973  159.4919 H   0  0  0  0  0  0  0  0  0  0  0  0
  151.1066  141.6466  155.0844 H   0  0  0  0  0  0  0  0  0  0  0  0
  150.7951  140.3137  156.1691 H   0  0  0  0  0  0  0  0  0  0  0  0
  148.4454  141.0816  156.4966 H   0  0  0  0  0  0  0  0  0  0  0  0
  148.7350  142.4689  155.4737 H   0  0  0  0  0  0  0  0  0  0  0  0
  148.7412  139.5380  154.5976 H   0  0  0  0  0  0  0  0  0  0  0  0
  147.5906  140.7826  154.1256 H   0  0  0  0  0  0  0  0  0  0  0  0
  149.3470  140.3211  152.6273 H   0  0  0  0  0  0  0  0  0  0  0  0
  150.8253  146.1590  158.4216 H   0  0  0  0  0  0  0  0  0  0  0  0
  151.8036  146.4172  160.7084 H   0  0  0  0  0  0  0  0  0  0  0  0
  152.6628  144.4643  161.9489 H   0  0  0  0  0  0  0  0  0  0  0  0
  152.5862  142.1767  160.9604 H   0  0  0  0  0  0  0  0  0  0  0  0
  150.2850  144.1085  156.4661 H   0  0  0  0  0  0  0  0  0  0  0  0
  1  2  1  0  0  0  0
  1 18  1  0  0  0  0
  1 19  1  0  0  0  0
  1 20  1  0  0  0  0
  2  3  1  0  0  0  0
  3  4  1  0  0  0  0
  3 21  1  0  0  0  0
  3 22  1  0  0  0  0
  4  5  1  0  0  0  0
  4 23  1  0  0  0  0
  4 24  1  0  0  0  0
  5 17  1  0  0  0  0
  5  6  1  0  0  0  0
  6  7  1  0  0  0  0
  6 11  2  0  0  0  0
  7  8  1  0  0  0  0
  7 25  1  0  0  0  0
  7 26  1  0  0  0  0
  8  9  1  0  0  0  0
  8 27  1  0  0  0  0
  8 28  1  0  0  0  0
  9 10  1  0  0  0  0
  9 29  1  0  0  0  0
  9 30  1  0  0  0  0
 10 31  1  0  0  0  0
 11 12  1  0  0  0  0
 11 36  1  0  0  0  0
 12 17  2  0  0  0  0
 12 13  1  0  0  0  0
 13 14  2  0  0  0  0
 13 32  1  0  0  0  0
 14 15  1  0  0  0  0
 14 33  1  0  0  0  0
 15 16  2  0  0  0  0
 15 34  1  0  0  0  0
 16 17  1  0  0  0  0
 16 35  1  0  0  0  0
M  CHG  1  11   1
M  END
> <s_m_source_file>
AV-unprocessed.smi

> <i_m_source_file_index>
2979

> <i_lp_mmshare_version>
43012

> <i_f3d_flags>
0

> <s_epik_input>
W2NIXTFbY0hdW2NIXVtjSF1jKGMxMiluKFtDSDJdW0NIMl1PW0NIM10pYyhuMilbQ0gyXVtDSDJdW0NIMl1bT0hd

> <s_epik_cmdline>
J2VwaWtfcHl0aG9uJywgJy1waCcsICc3LjAnLCAnLXRuJywgJzgnLCAnLW1hJywgJzIwMCcsICctbWV0YWxfYmluZGluZycsICctaW1hZScsICc8aW5maWxlLm1hZT4nLCAnLW9tYWUnLCAnPG91dGZpbGUubWFlPic=

> <r_epik_Ionization_Penalty>
0.784545

> <r_epik_Ionization_Penalty_Charging>
0.784544

> <r_epik_Ionization_Penalty_Neutral>
1.64912e-07

> <r_epik_State_Penalty>
0.814415

> <r_epik_Charging_Adjusted_Penalty>
1.59896

> <i_epik_Tot_Q>
1

> <i_epik_Tot_abs_Q>
1

> <r_epik_Metal_State_Penalty>
4.73458

> <b_epik_Metal_Only>
0

> <s_lp_Force_Field>
OPLS_2005

> <r_lp_Energy>
12.3561

> <b_lp_Chiralities_Consistent>
1

> <s_lp_Variant>
AV-unprocessed.smi:2979-2

> <Gold.Version>
5.8.1

> <Gold.Id.Protein>
6NUR|6NUR_protein|mol2

> <Gold.PLP.Fitness>
56.3615

> <Gold.PLP.PLP>
-42.7042

> <Gold.PLP.part.hbond>
-4.3269

> <Gold.PLP.part.metal>
0.0000

> <Gold.PLP.part.buried>
-5.7167

> <Gold.PLP.part.nonpolar>
-32.6244

> <Gold.PLP.part.repulsive>
0.0000

> <Gold.PLP.ligand.clash>
0.0000

> <Gold.PLP.ligand.torsion>
0.6938

> <Gold.PLP.Chemscore.Hbond>
4.9907

> <Gold.PLP.Chemscore.CHOScore>
0.0000

> <Gold.PLP.Chemscore.Metal>
0.0000

> <Gold.Chemscore.Hbonds>
donor molecule, donor type, donor heavy atom, donor atom, acceptor molecule, acceptor atom, score
      L1  H    10    31       P1  7957  0.83
      L1  H    11    36       P1  8028  2.00
      P1  H  7989  7998       L1    10  0.14
      P1  H  7997  8010       L1     2  1.00
      P1  H  8011  8017       L1    10  1.00

> <Gold.PLP.Chemscore.Internal.Correction>
0.0728

> <Gold.Rescore>
     Score         DG    S(hbond)    S(metal)    S(lipo)     H(rot)  DE(clash)    DE(int)     intcor
     19.81     -21.35       3.06        0.00     103.77       2.54       0.00       1.54       ----

> <Gold.Chemscore.Fitness>
19.8107

> <Gold.Chemscore.DG>
-21.3487

> <Gold.Chemscore.ZeroCoef>
-5.4800

> <Gold.Chemscore.Hbond>
3.0592

> <Gold.Chemscore.Metal>
0.0000

> <Gold.Chemscore.Lipo>
103.7739

> <Gold.Chemscore.Internal_Hbond>
0.0000

> <Gold.Chemscore.DEClash>
0.0004

> <Gold.Chemscore.DEInternal>
1.5376

> <Gold.Chemscore.Rot>
2.5353

> <Gold.Chemscore.Internal.Correction>
   9.000000E+99

> <Gold.Chemscore.Hbonds>
donor molecule, donor type, donor heavy atom, donor atom, acceptor molecule, acceptor atom, score
      L1  H    10    31       P1  7957  0.77
      L1  H    11    36       P1  8028  0.95
      P1  H  7989  7998       L1    10  0.03
      P1  H  7997  8010       L1     2  0.33
      P1  H  8011  8017       L1    10  0.25

> <Gold.Chemscore.Hbond.Weighted>
-10.2177

> <Gold.Chemscore.Metal.Weighted>
-0.0000

> <Gold.Chemscore.Lipo.Weighted>
-12.1415

> <Gold.Chemscore.Internal_Hbond.Weighted>
0.0000

> <Gold.Chemscore.DEClash.Weighted>
0.0004

> <Gold.Chemscore.DEInternal.Weighted>
1.5376

> <Gold.Chemscore.Rot.Weighted>
6.4905

> <Gold.Chemscore.Internal.Correction.Weighted>
   9.000000E+99

> <Gold.Protein.RotatedTorsions>
[ 6907 6896 6895 6894 ] final   61.63 input  -60.11 | X-H torsion
[ 7974 7965 7964 7962 ] final -115.15 input  175.53 | X-H torsion
[ 8008 7997 7996 7995 ] final   12.26 input   59.86 | X-H torsion
[ 10167 10162 10161 10158 ] final   57.61 input  -65.29 | X-H torsion
[ 10718 10713 10712 10709 ] final  -77.64 input   66.30 | X-H torsion
[ 10763 10752 10751 10750 ] final   50.04 input  -60.55 | X-H torsion
[ 11005 11000 10999 10996 ] final  139.08 input  -57.11 | X-H torsion

> <Gold.Protein.ActiveResidues>
 VAL166  LYS551  ARG553  GLY616  TRP617  ASP618  TYR619  PRO620  LYS621  CYS622 
 ASP623  PHE694  ASN695  SER759  ASP760  ASP761  ALA762  ILE779  LEU786  VAL792 
 PHE793  MET794  SER795  GLU796  ALA797  LYS798  CYS799  TRP800  GLU811  SER814 

> <Gold.Protein.RotatedAtoms>
  152.4105  134.6133  160.0031 H   0  0  0  0  0  0  0  0  0  0  0  0  # atno 6907 bound_to 6896
  151.6312  133.3326  159.3117 H   0  0  0  0  0  0  0  0  0  0  0  0  # atno 6908 bound_to 6896
  150.7996  134.7121  159.6654 H   0  0  0  0  0  0  0  0  0  0  0  0  # atno 6909 bound_to 6896
  145.1118  140.8616  143.3865 H   0  0  0  0  0  0  0  0  0  0  0  0  # atno 7974 bound_to 7965
  154.8181  140.2879  155.5806 H   0  0  0  0  0  0  0  0  0  0  0  0  # atno 8008 bound_to 7997
  156.2995  140.2555  156.3013 H   0  0  0  0  0  0  0  0  0  0  0  0  # atno 8009 bound_to 7997
  154.9370  140.0382  157.2066 H   0  0  0  0  0  0  0  0  0  0  0  0  # atno 8010 bound_to 7997
  140.1961  144.4035  150.6549 H   0  0  0  0  0  0  0  0  0  0  0  0  # atno 10167 bound_to 10162
  156.0139  130.4496  150.3375 H   0  0  0  0  0  0  0  0  0  0  0  0  # atno 10718 bound_to 10713
  152.9785  135.5892  154.4188 H   0  0  0  0  0  0  0  0  0  0  0  0  # atno 10763 bound_to 10752
  154.3815  135.2767  155.2210 H   0  0  0  0  0  0  0  0  0  0  0  0  # atno 10764 bound_to 10752
  154.4122  135.6079  153.6014 H   0  0  0  0  0  0  0  0  0  0  0  0  # atno 10765 bound_to 10752
  140.0229  134.9388  157.0511 H   0  0  0  0  0  0  0  0  0  0  0  0  # atno 11005 bound_to 11000
  145.0838  139.2940  143.5770 LP  0  0  0  0  0  0  0  0  0  0  0  0  # atno 17320 bound_to 7965
  146.3526  140.0353  142.8647 LP  0  0  0  0  0  0  0  0  0  0  0  0  # atno 17321 bound_to 7965
  140.6422  143.2206  151.6265 LP  0  0  0  0  0  0  0  0  0  0  0  0  # atno 17342 bound_to 10162
  139.5236  144.3129  152.0977 LP  0  0  0  0  0  0  0  0  0  0  0  0  # atno 17343 bound_to 10162
  157.1472  131.0311  151.2901 LP  0  0  0  0  0  0  0  0  0  0  0  0  # atno 17370 bound_to 10713
  157.4423  130.7551  149.7080 LP  0  0  0  0  0  0  0  0  0  0  0  0  # atno 17371 bound_to 10713
  140.4356  134.1735  155.7170 LP  0  0  0  0  0  0  0  0  0  0  0  0  # atno 17394 bound_to 11000
  141.1785  133.8464  157.1339 LP  0  0  0  0  0  0  0  0  0  0  0  0  # atno 17395 bound_to 11000

$$$$
