AV-unprocessed.smi:2612|AV-procd|sdf|10211|dock6
  -GOLD-   2272014213D 1   1.00000     0.00000
 Structure written by MMmdl.
 40 41  0  0  0  0  0  0  0  0  1 V2000
  146.7986  138.3493  163.4795 C   0  0  0  0  0  0  0  0  0  0  0  0
  147.0060  137.8532  162.1626 O   0  0  0  0  0  0  0  0  0  0  0  0
  146.8961  136.4430  161.9259 C   0  0  0  0  0  0  0  0  0  0  0  0
  147.3583  136.2962  160.4523 C   0  0  0  0  0  0  0  0  0  0  0  0
  148.7520  136.6864  160.2475 N   0  0  0  0  0  0  0  0  0  0  0  0
  149.1336  137.5823  159.2382 C   0  0  0  0  0  0  0  0  0  0  0  0
  150.5058  137.8802  159.0917 C   0  0  0  0  0  0  0  0  0  0  0  0
  150.9053  138.7744  158.0790 C   0  0  0  0  0  0  0  0  0  0  0  0
  149.9130  139.3306  157.2497 C   0  0  0  0  0  0  0  0  0  0  0  0
  150.3504  140.5025  155.9739 S   0  0  0  0  0  0  0  0  0  0  0  0
  148.8516  140.5696  154.9110 C   0  0  0  0  0  0  0  0  0  0  0  0
  150.5219  141.8204  156.6046 O   0  0  0  0  0  0  0  0  0  0  0  0
  151.4472  139.9264  155.1809 O   0  0  0  0  0  0  0  0  0  0  0  0
  148.5651  138.9921  157.4783 C   0  0  0  0  0  0  0  0  0  0  0  0
  148.1816  138.1355  158.4491 N   0  0  0  0  0  0  0  0  0  0  0  0
  147.7307  135.5742  162.9043 C   0  0  0  0  0  0  0  0  0  0  0  0
  147.4394  134.0740  162.7204 C   0  0  0  0  0  0  0  0  0  0  0  0
  146.0488  133.8280  162.8963 O   0  0  0  0  0  0  0  0  0  0  0  0
  145.2385  134.4944  161.9346 C   0  0  0  0  0  0  0  0  0  0  0  0
  145.4145  136.0195  162.0594 C   0  0  0  0  0  0  0  0  0  0  0  0
  146.7928  139.4384  163.4481 H   0  0  0  0  0  0  0  0  0  0  0  0
  147.6063  138.0540  164.1490 H   0  0  0  0  0  0  0  0  0  0  0  0
  145.8491  138.0309  163.9071 H   0  0  0  0  0  0  0  0  0  0  0  0
  147.1698  135.2923  160.0765 H   0  0  0  0  0  0  0  0  0  0  0  0
  146.7548  136.9527  159.8248 H   0  0  0  0  0  0  0  0  0  0  0  0
  149.4565  136.0627  160.6146 H   0  0  0  0  0  0  0  0  0  0  0  0
  151.2431  137.4309  159.7411 H   0  0  0  0  0  0  0  0  0  0  0  0
  151.9477  139.0240  157.9469 H   0  0  0  0  0  0  0  0  0  0  0  0
  149.0232  141.2616  154.0868 H   0  0  0  0  0  0  0  0  0  0  0  0
  148.0014  140.9122  155.5003 H   0  0  0  0  0  0  0  0  0  0  0  0
  148.6418  139.5771  154.5129 H   0  0  0  0  0  0  0  0  0  0  0  0
  147.7744  139.4155  156.8769 H   0  0  0  0  0  0  0  0  0  0  0  0
  148.7969  135.7723  162.7997 H   0  0  0  0  0  0  0  0  0  0  0  0
  147.4792  135.8146  163.9368 H   0  0  0  0  0  0  0  0  0  0  0  0
  147.7612  133.7152  161.7432 H   0  0  0  0  0  0  0  0  0  0  0  0
  147.9917  133.4964  163.4616 H   0  0  0  0  0  0  0  0  0  0  0  0
  145.4804  134.1432  160.9312 H   0  0  0  0  0  0  0  0  0  0  0  0
  144.1973  134.2265  162.1138 H   0  0  0  0  0  0  0  0  0  0  0  0
  145.0188  136.3166  163.0293 H   0  0  0  0  0  0  0  0  0  0  0  0
  144.8031  136.5301  161.3145 H   0  0  0  0  0  0  0  0  0  0  0  0
  1  2  1  0  0  0  0
  1 21  1  0  0  0  0
  1 22  1  0  0  0  0
  1 23  1  0  0  0  0
  2  3  1  0  0  0  0
  3 20  1  0  0  0  0
  3  4  1  0  0  0  0
  3 16  1  0  0  0  0
  4  5  1  0  0  0  0
  4 24  1  0  0  0  0
  4 25  1  0  0  0  0
  5  6  1  0  0  0  0
  5 26  1  0  0  0  0
  6 15  1  0  0  0  0
  6  7  2  0  0  0  0
  7  8  1  0  0  0  0
  7 27  1  0  0  0  0
  8  9  2  0  0  0  0
  8 28  1  0  0  0  0
  9 10  1  0  0  0  0
  9 14  1  0  0  0  0
 10 11  1  0  0  0  0
 10 12  2  0  0  0  0
 10 13  2  0  0  0  0
 11 29  1  0  0  0  0
 11 30  1  0  0  0  0
 11 31  1  0  0  0  0
 14 15  2  0  0  0  0
 14 32  1  0  0  0  0
 16 17  1  0  0  0  0
 16 33  1  0  0  0  0
 16 34  1  0  0  0  0
 17 18  1  0  0  0  0
 17 35  1  0  0  0  0
 17 36  1  0  0  0  0
 18 19  1  0  0  0  0
 19 20  1  0  0  0  0
 19 37  1  0  0  0  0
 19 38  1  0  0  0  0
 20 39  1  0  0  0  0
 20 40  1  0  0  0  0
M  END
> <s_m_source_file>
AV-unprocessed.smi

> <i_m_source_file_index>
2612

> <i_lp_mmshare_version>
43012

> <i_f3d_flags>
0

> <s_epik_input>
W0NIMl0xW0NIMl1PW0NIMl1bQ0gyXUMxKE9bQ0gzXSlbQ0gyXVtOSF1jMltjSF1bY0hdYyhbY0hdbjIpUyg9TykoPU8pW0NIM10=

> <s_epik_cmdline>
J2VwaWtfcHl0aG9uJywgJy1waCcsICc3LjAnLCAnLXRuJywgJzgnLCAnLW1hJywgJzIwMCcsICctbWV0YWxfYmluZGluZycsICctaW1hZScsICc8aW5maWxlLm1hZT4nLCAnLW9tYWUnLCAnPG91dGZpbGUubWFlPic=

> <r_lp_tautomer_probability>
1

> <r_epik_Ionization_Penalty>
1.02976e-06

> <r_epik_Ionization_Penalty_Charging>
0

> <r_epik_Ionization_Penalty_Neutral>
1.02976e-06

> <r_epik_State_Penalty>
-0

> <r_epik_Charging_Adjusted_Penalty>
0

> <i_epik_Tot_Q>
0

> <i_epik_Tot_abs_Q>
0

> <r_epik_Metal_State_Penalty>
-0

> <b_epik_Metal_Only>
0

> <s_lp_Force_Field>
OPLS_2005

> <r_lp_Energy>
16.1681

> <b_lp_Chiralities_Consistent>
1

> <s_lp_Variant>
AV-unprocessed.smi:2612-1

> <Gold.Version>
5.8.1

> <Gold.Id.Protein>
6NUR|6NUR_protein|mol2

> <Gold.PLP.Fitness>
36.6821

> <Gold.PLP.PLP>
-30.9438

> <Gold.PLP.part.hbond>
-3.7926

> <Gold.PLP.part.metal>
0.0000

> <Gold.PLP.part.buried>
-4.8758

> <Gold.PLP.part.nonpolar>
-22.7575

> <Gold.PLP.part.repulsive>
0.3357

> <Gold.PLP.ligand.clash>
0.0000

> <Gold.PLP.ligand.torsion>
1.3279

> <Gold.PLP.Chemscore.Hbond>
2.1152

> <Gold.PLP.Chemscore.CHOScore>
0.0000

> <Gold.PLP.Chemscore.Metal>
0.0000

> <Gold.Chemscore.Hbonds>
donor molecule, donor type, donor heavy atom, donor atom, acceptor molecule, acceptor atom, score
      P1  H  6931  6943       L1     2  0.43
      P1  H  6934  6947       L1     2  0.54
      P1  H  7989  7998       L1    13  1.00

> <Gold.PLP.Chemscore.Internal.Correction>
2.0486

> <Gold.Rescore>
     Score         DG    S(hbond)    S(metal)    S(lipo)     H(rot)  DE(clash)    DE(int)     intcor
     12.88     -14.71       1.62        0.00      64.22       1.45       0.35       1.48       ----

> <Gold.Chemscore.Fitness>
12.8781

> <Gold.Chemscore.DG>
-14.7059

> <Gold.Chemscore.ZeroCoef>
-5.4800

> <Gold.Chemscore.Hbond>
1.6232

> <Gold.Chemscore.Metal>
0.0000

> <Gold.Chemscore.Lipo>
64.2197

> <Gold.Chemscore.Internal_Hbond>
0.0000

> <Gold.Chemscore.DEClash>
0.3491

> <Gold.Chemscore.DEInternal>
1.4786

> <Gold.Chemscore.Rot>
1.4490

> <Gold.Chemscore.Internal.Correction>
   9.000000E+99

> <Gold.Chemscore.Hbonds>
donor molecule, donor type, donor heavy atom, donor atom, acceptor molecule, acceptor atom, score
      P1  H  6931  6943       L1     2  0.05
      P1  H  6934  6947       L1     2  0.49
      P1  H  7989  7998       L1    13  0.77

> <Gold.Chemscore.Hbond.Weighted>
-5.4216

> <Gold.Chemscore.Metal.Weighted>
-0.0000

> <Gold.Chemscore.Lipo.Weighted>
-7.5137

> <Gold.Chemscore.Internal_Hbond.Weighted>
0.0000

> <Gold.Chemscore.DEClash.Weighted>
0.3491

> <Gold.Chemscore.DEInternal.Weighted>
1.4786

> <Gold.Chemscore.Rot.Weighted>
3.7094

> <Gold.Chemscore.Internal.Correction.Weighted>
   9.000000E+99

> <Gold.Protein.RotatedTorsions>
[ 6907 6896 6895 6894 ] final -135.06 input  -60.11 | X-H torsion
[ 7974 7965 7964 7962 ] final  -78.52 input  175.53 | X-H torsion
[ 8008 7997 7996 7995 ] final  -29.88 input   59.86 | X-H torsion
[ 10167 10162 10161 10158 ] final -129.83 input  -65.29 | X-H torsion
[ 10718 10713 10712 10709 ] final -118.49 input   66.30 | X-H torsion
[ 10763 10752 10751 10750 ] final -130.18 input  -60.55 | X-H torsion
[ 11005 11000 10999 10996 ] final   86.71 input  -57.11 | X-H torsion

> <Gold.Protein.ActiveResidues>
 VAL166  LYS551  ARG553  GLY616  TRP617  ASP618  TYR619  PRO620  LYS621  CYS622 
 ASP623  PHE694  ASN695  SER759  ASP760  ASP761  ALA762  ILE779  LEU786  VAL792 
 PHE793  MET794  SER795  GLU796  ALA797  LYS798  CYS799  TRP800  GLU811  SER814 

> <Gold.Protein.RotatedAtoms>
  150.9934  133.6127  159.2704 H   0  0  0  0  0  0  0  0  0  0  0  0  # atno 6907 bound_to 6896
  151.3340  135.0847  159.9358 H   0  0  0  0  0  0  0  0  0  0  0  0  # atno 6908 bound_to 6896
  152.5252  133.9558  159.7748 H   0  0  0  0  0  0  0  0  0  0  0  0  # atno 6909 bound_to 6896
  145.5854  140.9440  143.1321 H   0  0  0  0  0  0  0  0  0  0  0  0  # atno 7974 bound_to 7965
  154.4272  140.1806  156.1319 H   0  0  0  0  0  0  0  0  0  0  0  0  # atno 8008 bound_to 7997
  156.0061  140.3355  155.6869 H   0  0  0  0  0  0  0  0  0  0  0  0  # atno 8009 bound_to 7997
  155.6176  140.0656  157.2678 H   0  0  0  0  0  0  0  0  0  0  0  0  # atno 8010 bound_to 7997
  139.9357  143.6221  152.2517 H   0  0  0  0  0  0  0  0  0  0  0  0  # atno 10167 bound_to 10162
  156.1110  130.6249  150.9298 H   0  0  0  0  0  0  0  0  0  0  0  0  # atno 10718 bound_to 10713
  154.8756  135.3871  154.4041 H   0  0  0  0  0  0  0  0  0  0  0  0  # atno 10763 bound_to 10752
  153.4762  135.7030  153.5969 H   0  0  0  0  0  0  0  0  0  0  0  0  # atno 10764 bound_to 10752
  153.4405  135.3857  155.2193 H   0  0  0  0  0  0  0  0  0  0  0  0  # atno 10765 bound_to 10752
  139.8937  134.8374  156.2758 H   0  0  0  0  0  0  0  0  0  0  0  0  # atno 11005 bound_to 11000
  144.7375  139.7543  143.7323 LP  0  0  0  0  0  0  0  0  0  0  0  0  # atno 17320 bound_to 7965
  146.1686  139.4827  142.9942 LP  0  0  0  0  0  0  0  0  0  0  0  0  # atno 17321 bound_to 7965
  139.6745  144.7659  151.1721 LP  0  0  0  0  0  0  0  0  0  0  0  0  # atno 17342 bound_to 10162
  140.7625  143.5815  150.8890 LP  0  0  0  0  0  0  0  0  0  0  0  0  # atno 17343 bound_to 10162
  157.6291  131.0923  150.8476 LP  0  0  0  0  0  0  0  0  0  0  0  0  # atno 17370 bound_to 10713
  156.8586  130.5105  149.5305 LP  0  0  0  0  0  0  0  0  0  0  0  0  # atno 17371 bound_to 10713
  141.0071  133.7117  156.1051 LP  0  0  0  0  0  0  0  0  0  0  0  0  # atno 17394 bound_to 11000
  140.7419  134.4141  157.5553 LP  0  0  0  0  0  0  0  0  0  0  0  0  # atno 17395 bound_to 11000

$$$$
