AV-unprocessed.smi:3023|AV-procd|sdf|11501|dock3
  -GOLD-   2272016433D 1   1.00000     0.00000
 Structure written by MMmdl.
 43 44  0  0  0  0  0  0  0  0  2 V2000
  144.2913  139.7134  155.5280 C   0  0  0  0  0  0  0  0  0  0  0  0
  145.4743  140.1895  154.7759 N   0  3  2  0  0  0  0  0  0  0  0  0
  146.4023  139.0754  154.4386 C   0  0  0  0  0  0  0  0  0  0  0  0
  147.0563  139.2283  153.0471 C   0  0  0  0  0  0  0  0  0  0  0  0
  147.6306  140.6227  152.7240 C   0  0  0  0  0  0  0  0  0  0  0  0
  148.1057  141.3096  153.9347 N   0  0  0  0  0  0  0  0  0  0  0  0
  149.3054  141.1009  154.5340 C   0  0  0  0  0  0  0  0  0  0  0  0
  150.0175  140.1263  154.2885 O   0  0  0  0  0  0  0  0  0  0  0  0
  149.6556  142.0403  155.4297 N   0  0  0  0  0  0  0  0  0  0  0  0
  150.8964  142.0482  156.1956 C   0  0  0  0  0  0  0  0  0  0  0  0
  151.1256  143.3983  156.8935 C   0  0  0  0  0  0  0  0  0  0  0  0
  151.5385  143.2102  158.3258 C   0  0  0  0  0  0  0  0  0  0  0  0
  151.7863  141.9847  159.0077 C   0  0  0  0  0  0  0  0  0  0  0  0
  152.1407  142.1610  160.2701 N   0  0  0  0  0  0  0  0  0  0  0  0
  152.1295  143.4992  160.4383 N   0  0  0  0  0  0  0  0  0  0  0  0
  152.4766  144.0596  161.7267 C   0  0  0  0  0  0  0  0  0  0  0  0
  151.7707  144.1582  159.2821 C   0  0  0  0  0  0  0  0  0  0  0  0
  147.0752  142.1479  154.5611 C   0  0  0  0  0  0  0  0  0  0  0  0
  146.1404  141.3269  155.4727 C   0  0  0  0  0  0  0  0  0  0  0  0
  144.5836  139.2984  156.4937 H   0  0  0  0  0  0  0  0  0  0  0  0
  143.7609  138.9421  154.9684 H   0  0  0  0  0  0  0  0  0  0  0  0
  143.5883  140.5284  155.7041 H   0  0  0  0  0  0  0  0  0  0  0  0
  147.1630  138.9765  155.2146 H   0  0  0  0  0  0  0  0  0  0  0  0
  145.8650  138.1260  154.4409 H   0  0  0  0  0  0  0  0  0  0  0  0
  147.8544  138.4894  152.9687 H   0  0  0  0  0  0  0  0  0  0  0  0
  146.3346  138.9626  152.2738 H   0  0  0  0  0  0  0  0  0  0  0  0
  148.4114  140.5486  151.9655 H   0  0  0  0  0  0  0  0  0  0  0  0
  146.8505  141.2140  152.2434 H   0  0  0  0  0  0  0  0  0  0  0  0
  149.0175  142.8066  155.5876 H   0  0  0  0  0  0  0  0  0  0  0  0
  150.8893  141.2361  156.9248 H   0  0  0  0  0  0  0  0  0  0  0  0
  151.7182  141.8412  155.5094 H   0  0  0  0  0  0  0  0  0  0  0  0
  151.8835  143.9624  156.3484 H   0  0  0  0  0  0  0  0  0  0  0  0
  150.2160  143.9977  156.8400 H   0  0  0  0  0  0  0  0  0  0  0  0
  151.7202  140.9779  158.6227 H   0  0  0  0  0  0  0  0  0  0  0  0
  152.2104  145.1165  161.7582 H   0  0  0  0  0  0  0  0  0  0  0  0
  153.5490  143.9576  161.8945 H   0  0  0  0  0  0  0  0  0  0  0  0
  151.9384  143.5361  162.5178 H   0  0  0  0  0  0  0  0  0  0  0  0
  151.7126  145.2357  159.2347 H   0  0  0  0  0  0  0  0  0  0  0  0
  147.5303  142.9542  155.1388 H   0  0  0  0  0  0  0  0  0  0  0  0
  146.4851  142.6599  153.8001 H   0  0  0  0  0  0  0  0  0  0  0  0
  145.3794  142.0055  155.8602 H   0  0  0  0  0  0  0  0  0  0  0  0
  146.6850  140.9574  156.3432 H   0  0  0  0  0  0  0  0  0  0  0  0
  145.1143  140.5461  153.9020 H   0  0  0  0  0  0  0  0  0  0  0  0
  1  2  1  0  0  0  0
  1 20  1  0  0  0  0
  1 21  1  0  0  0  0
  1 22  1  0  0  0  0
  2 19  1  0  0  0  0
  2  3  1  0  0  0  0
  2 43  1  0  0  0  0
  3  4  1  0  0  0  0
  3 23  1  0  0  0  0
  3 24  1  0  0  0  0
  4  5  1  0  0  0  0
  4 25  1  0  0  0  0
  4 26  1  0  0  0  0
  5  6  1  0  0  0  0
  5 27  1  0  0  0  0
  5 28  1  0  0  0  0
  6  7  1  0  0  0  0
  6 18  1  0  0  0  0
  7  8  2  0  0  0  0
  7  9  1  0  0  0  0
  9 10  1  0  0  0  0
  9 29  1  0  0  0  0
 10 11  1  0  0  0  0
 10 30  1  0  0  0  0
 10 31  1  0  0  0  0
 11 12  1  0  0  0  0
 11 32  1  0  0  0  0
 11 33  1  0  0  0  0
 12 17  2  0  0  0  0
 12 13  1  0  0  0  0
 13 14  2  0  0  0  0
 13 34  1  0  0  0  0
 14 15  1  0  0  0  0
 15 16  1  0  0  0  0
 15 17  1  0  0  0  0
 16 35  1  0  0  0  0
 16 36  1  0  0  0  0
 16 37  1  0  0  0  0
 17 38  1  0  0  0  0
 18 19  1  0  0  0  0
 18 39  1  0  0  0  0
 18 40  1  0  0  0  0
 19 41  1  0  0  0  0
 19 42  1  0  0  0  0
M  CHG  1   2   1
M  END
> <s_m_source_file>
AV-unprocessed.smi

> <i_m_source_file_index>
3023

> <i_lp_mmshare_version>
43012

> <i_f3d_flags>
0

> <s_epik_input>
W0NIM11OMVtDSDJdW0NIMl1bQ0gyXU4oW0NIMl1bQ0gyXTEpQyg9TylbTkhdW0NIMl1bQ0gyXWMyW2NIXW5uKFtDSDNdKVtjSF0y

> <s_epik_cmdline>
J2VwaWtfcHl0aG9uJywgJy1waCcsICc3LjAnLCAnLXRuJywgJzgnLCAnLW1hJywgJzIwMCcsICctbWV0YWxfYmluZGluZycsICctaW1hZScsICc8aW5maWxlLm1hZT4nLCAnLW9tYWUnLCAnPG91dGZpbGUubWFlPic=

> <r_lp_tautomer_probability>
1

> <r_epik_Ionization_Penalty>
0.00258886

> <r_epik_Ionization_Penalty_Charging>
0.00208099

> <r_epik_Ionization_Penalty_Neutral>
0.00050787

> <r_epik_State_Penalty>
-0

> <r_epik_Charging_Adjusted_Penalty>
0.00208099

> <i_epik_Tot_Q>
1

> <i_epik_Tot_abs_Q>
1

> <r_epik_Metal_State_Penalty>
-0

> <b_epik_Metal_Only>
0

> <s_lp_Force_Field>
OPLS_2005

> <r_lp_Energy>
38.3541

> <b_lp_Chiralities_Consistent>
1

> <s_lp_Variant>
AV-unprocessed.smi:3023-1

> <Gold.Version>
5.8.1

> <Gold.Id.Protein>
6NUR|6NUR_protein|mol2

> <Gold.PLP.Fitness>
46.5930

> <Gold.PLP.PLP>
-37.1754

> <Gold.PLP.part.hbond>
-3.0713

> <Gold.PLP.part.metal>
0.0000

> <Gold.PLP.part.buried>
-0.7317

> <Gold.PLP.part.nonpolar>
-33.3790

> <Gold.PLP.part.repulsive>
0.2905

> <Gold.PLP.ligand.clash>
0.9109

> <Gold.PLP.ligand.torsion>
0.5701

> <Gold.PLP.Chemscore.Hbond>
3.8153

> <Gold.PLP.Chemscore.CHOScore>
0.0000

> <Gold.PLP.Chemscore.Metal>
0.0000

> <Gold.Chemscore.Hbonds>
donor molecule, donor type, donor heavy atom, donor atom, acceptor molecule, acceptor atom, score
      L1  H     2    43       P1 10175  1.95
      L1  H     9    29       P1  8028  0.88
      P1  H  7989  7998       L1     8  0.98

> <Gold.PLP.Chemscore.Internal.Correction>
0.0228

> <Gold.Rescore>
     Score         DG    S(hbond)    S(metal)    S(lipo)     H(rot)  DE(clash)    DE(int)     intcor
     16.99     -20.65       2.36        0.00      92.54       1.39       2.98       0.68       ----

> <Gold.Chemscore.Fitness>
16.9852

> <Gold.Chemscore.DG>
-20.6457

> <Gold.Chemscore.ZeroCoef>
-5.4800

> <Gold.Chemscore.Hbond>
2.3646

> <Gold.Chemscore.Metal>
0.0000

> <Gold.Chemscore.Lipo>
92.5441

> <Gold.Chemscore.Internal_Hbond>
0.0000

> <Gold.Chemscore.DEClash>
2.9836

> <Gold.Chemscore.DEInternal>
0.6770

> <Gold.Chemscore.Rot>
1.3906

> <Gold.Chemscore.Internal.Correction>
   9.000000E+99

> <Gold.Chemscore.Hbonds>
donor molecule, donor type, donor heavy atom, donor atom, acceptor molecule, acceptor atom, score
      L1  H     2    43       P1 10175  0.87
      L1  H     9    29       P1  8028  0.86
      P1  H  7989  7998       L1     8  0.46

> <Gold.Chemscore.Hbond.Weighted>
-7.8979

> <Gold.Chemscore.Metal.Weighted>
-0.0000

> <Gold.Chemscore.Lipo.Weighted>
-10.8277

> <Gold.Chemscore.Internal_Hbond.Weighted>
0.0000

> <Gold.Chemscore.DEClash.Weighted>
2.9836

> <Gold.Chemscore.DEInternal.Weighted>
0.6770

> <Gold.Chemscore.Rot.Weighted>
3.5598

> <Gold.Chemscore.Internal.Correction.Weighted>
   9.000000E+99

> <Gold.Protein.RotatedTorsions>
[ 6907 6896 6895 6894 ] final   78.59 input  -60.11 | X-H torsion
[ 7974 7965 7964 7962 ] final -133.16 input  175.53 | X-H torsion
[ 8008 7997 7996 7995 ] final  141.11 input   59.86 | X-H torsion
[ 10167 10162 10161 10158 ] final  -86.48 input  -65.29 | X-H torsion
[ 10718 10713 10712 10709 ] final  -72.88 input   66.30 | X-H torsion
[ 10763 10752 10751 10750 ] final -118.84 input  -60.55 | X-H torsion
[ 11005 11000 10999 10996 ] final   47.36 input  -57.11 | X-H torsion

> <Gold.Protein.ActiveResidues>
 VAL166  LYS551  ARG553  GLY616  TRP617  ASP618  TYR619  PRO620  LYS621  CYS622 
 ASP623  PHE694  ASN695  SER759  ASP760  ASP761  ALA762  ILE779  LEU786  VAL792 
 PHE793  MET794  SER795  GLU796  ALA797  LYS798  CYS799  TRP800  GLU811  SER814 

> <Gold.Protein.RotatedAtoms>
  152.5165  134.3640  159.9294 H   0  0  0  0  0  0  0  0  0  0  0  0  # atno 6907 bound_to 6896
  151.3593  133.3889  159.2696 H   0  0  0  0  0  0  0  0  0  0  0  0  # atno 6908 bound_to 6896
  150.9664  134.9063  159.7820 H   0  0  0  0  0  0  0  0  0  0  0  0  # atno 6909 bound_to 6896
  144.9219  140.7024  143.4960 H   0  0  0  0  0  0  0  0  0  0  0  0  # atno 7974 bound_to 7965
  156.2970  140.2324  156.4511 H   0  0  0  0  0  0  0  0  0  0  0  0  # atno 8008 bound_to 7997
  154.8101  140.0443  157.1357 H   0  0  0  0  0  0  0  0  0  0  0  0  # atno 8009 bound_to 7997
  154.9433  140.3032  155.5113 H   0  0  0  0  0  0  0  0  0  0  0  0  # atno 8010 bound_to 7997
  140.3937  143.2693  151.9231 H   0  0  0  0  0  0  0  0  0  0  0  0  # atno 10167 bound_to 10162
  156.0302  130.4382  150.2658 H   0  0  0  0  0  0  0  0  0  0  0  0  # atno 10718 bound_to 10713
  154.8599  135.4259  154.2203 H   0  0  0  0  0  0  0  0  0  0  0  0  # atno 10763 bound_to 10752
  153.3209  135.6982  153.7037 H   0  0  0  0  0  0  0  0  0  0  0  0  # atno 10764 bound_to 10752
  153.6092  135.3522  155.2946 H   0  0  0  0  0  0  0  0  0  0  0  0  # atno 10765 bound_to 10752
  140.1286  134.4736  155.8540 H   0  0  0  0  0  0  0  0  0  0  0  0  # atno 11005 bound_to 11000
  145.3283  139.1767  143.4551 LP  0  0  0  0  0  0  0  0  0  0  0  0  # atno 17320 bound_to 7965
  146.3208  140.3309  142.8640 LP  0  0  0  0  0  0  0  0  0  0  0  0  # atno 17321 bound_to 7965
  139.4787  144.5702  151.8100 LP  0  0  0  0  0  0  0  0  0  0  0  0  # atno 17342 bound_to 10162
  140.4813  144.1446  150.5933 LP  0  0  0  0  0  0  0  0  0  0  0  0  # atno 17343 bound_to 10162
  157.0761  131.0130  151.3173 LP  0  0  0  0  0  0  0  0  0  0  0  0  # atno 17370 bound_to 10713
  157.4963  130.7852  149.7558 LP  0  0  0  0  0  0  0  0  0  0  0  0  # atno 17371 bound_to 10713
  141.2166  133.6787  156.7025 LP  0  0  0  0  0  0  0  0  0  0  0  0  # atno 17394 bound_to 11000
  140.2872  134.8270  157.3985 LP  0  0  0  0  0  0  0  0  0  0  0  0  # atno 17395 bound_to 11000

$$$$
