AV-unprocessed.smi:1762|AV-procd|sdf|7126|dock8
  -GOLD-   22720 8363D 1   1.00000     0.00000
 Structure written by MMmdl.
 52 53  0  0  0  0  0  0  0  0  3 V2000
  146.7024  133.2937  150.9508 C   0  0  0  0  0  0  0  0  0  0  0  0
  145.9098  133.3466  152.2692 C   0  0  1  0  0  0  0  0  0  0  0  0
  146.7965  133.5489  153.5110 C   0  0  0  0  0  0  0  0  0  0  0  0
  147.3270  134.9411  153.5930 N   0  3  2  0  0  0  0  0  0  0  0  0
  148.2781  135.1432  154.7387 C   0  0  1  0  0  0  0  0  0  0  0  0
  147.5594  134.9163  156.0915 C   0  0  0  0  0  0  0  0  0  0  0  0
  146.9347  133.8626  156.2576 O   0  0  0  0  0  0  0  0  0  0  0  0
  147.7052  135.9894  156.9176 N   0  5  0  0  0  0  0  0  0  0  0  0
  146.9959  136.1452  158.1863 C   0  0  0  0  0  0  0  0  0  0  0  0
  147.9881  136.5206  159.3116 C   0  0  0  0  0  0  0  0  0  0  0  0
  147.4396  136.3324  160.7222 C   0  0  0  0  0  0  0  0  0  0  0  0
  147.8472  135.2319  161.5105 C   0  0  0  0  0  0  0  0  0  0  0  0
  147.3282  135.1054  162.8135 C   0  0  0  0  0  0  0  0  0  0  0  0
  146.4277  136.0808  163.2828 C   0  0  0  0  0  0  0  0  0  0  0  0
  146.0862  137.1451  162.4251 C   0  0  0  0  0  0  0  0  0  0  0  0
  146.5791  137.2772  161.1749 N   0  0  0  0  0  0  0  0  0  0  0  0
  149.5962  134.3002  154.6508 C   0  0  0  0  0  0  0  0  0  0  0  0
  149.3946  132.7769  154.7960 C   0  0  0  0  0  0  0  0  0  0  0  0
  150.6860  134.7846  155.6272 C   0  0  0  0  0  0  0  0  0  0  0  0
  146.1844  135.8938  153.5450 C   0  0  0  0  0  0  0  0  0  0  0  0
  145.3298  135.6692  152.2841 C   0  0  2  0  0  0  0  0  0  0  0  0
  144.0992  136.5826  152.2546 C   0  0  0  0  0  0  0  0  0  0  0  0
  144.8719  134.3227  152.2443 O   0  0  0  0  0  0  0  0  0  0  0  0
  147.3911  132.4483  150.9493 H   0  0  0  0  0  0  0  0  0  0  0  0
  147.2967  134.1923  150.7865 H   0  0  0  0  0  0  0  0  0  0  0  0
  146.0328  133.1734  150.0990 H   0  0  0  0  0  0  0  0  0  0  0  0
  145.4106  132.3827  152.3732 H   0  0  0  0  0  0  0  0  0  0  0  0
  146.2166  133.3394  154.4116 H   0  0  0  0  0  0  0  0  0  0  0  0
  147.5952  132.8082  153.4822 H   0  0  0  0  0  0  0  0  0  0  0  0
  148.5881  136.1893  154.6710 H   0  0  0  0  0  0  0  0  0  0  0  0
  146.2099  136.8993  158.1272 H   0  0  0  0  0  0  0  0  0  0  0  0
  146.4900  135.2192  158.4602 H   0  0  0  0  0  0  0  0  0  0  0  0
  148.8969  135.9249  159.2133 H   0  0  0  0  0  0  0  0  0  0  0  0
  148.2993  137.5606  159.2000 H   0  0  0  0  0  0  0  0  0  0  0  0
  148.5399  134.4990  161.1232 H   0  0  0  0  0  0  0  0  0  0  0  0
  147.6169  134.2759  163.4420 H   0  0  0  0  0  0  0  0  0  0  0  0
  146.0095  136.0160  164.2764 H   0  0  0  0  0  0  0  0  0  0  0  0
  145.4008  137.9126  162.7531 H   0  0  0  0  0  0  0  0  0  0  0  0
  150.0318  134.4746  153.6678 H   0  0  0  0  0  0  0  0  0  0  0  0
  149.1017  132.5020  155.8091 H   0  0  0  0  0  0  0  0  0  0  0  0
  150.3193  132.2434  154.5754 H   0  0  0  0  0  0  0  0  0  0  0  0
  148.6321  132.3959  154.1177 H   0  0  0  0  0  0  0  0  0  0  0  0
  150.4228  134.5840  156.6662 H   0  0  0  0  0  0  0  0  0  0  0  0
  150.8542  135.8573  155.5276 H   0  0  0  0  0  0  0  0  0  0  0  0
  151.6350  134.2852  155.4311 H   0  0  0  0  0  0  0  0  0  0  0  0
  145.5784  135.7802  154.4453 H   0  0  0  0  0  0  0  0  0  0  0  0
  146.5275  136.9258  153.5161 H   0  0  0  0  0  0  0  0  0  0  0  0
  145.9259  135.8823  151.3966 H   0  0  0  0  0  0  0  0  0  0  0  0
  144.3895  137.6336  152.2620 H   0  0  0  0  0  0  0  0  0  0  0  0
  143.4551  136.4067  153.1168 H   0  0  0  0  0  0  0  0  0  0  0  0
  143.5071  136.4088  151.3558 H   0  0  0  0  0  0  0  0  0  0  0  0
  147.8697  135.0958  152.7553 H   0  0  0  0  0  0  0  0  0  0  0  0
  1  2  1  0  0  0  0
  1 24  1  0  0  0  0
  1 25  1  0  0  0  0
  1 26  1  0  0  0  0
  2 23  1  0  0  0  0
  2  3  1  0  0  0  0
  2 27  1  0  0  0  0
  3  4  1  0  0  0  0
  3 28  1  0  0  0  0
  3 29  1  0  0  0  0
  4  5  1  0  0  0  0
  4 20  1  0  0  0  0
  4 52  1  0  0  0  0
  5  6  1  0  0  0  0
  5 17  1  0  0  0  0
  5 30  1  0  0  0  0
  6  7  2  0  0  0  0
  6  8  1  0  0  0  0
  8  9  1  0  0  0  0
  9 10  1  0  0  0  0
  9 31  1  0  0  0  0
  9 32  1  0  0  0  0
 10 11  1  0  0  0  0
 10 33  1  0  0  0  0
 10 34  1  0  0  0  0
 11 16  1  0  0  0  0
 11 12  2  0  0  0  0
 12 13  1  0  0  0  0
 12 35  1  0  0  0  0
 13 14  2  0  0  0  0
 13 36  1  0  0  0  0
 14 15  1  0  0  0  0
 14 37  1  0  0  0  0
 15 16  2  0  0  0  0
 15 38  1  0  0  0  0
 17 18  1  0  0  0  0
 17 19  1  0  0  0  0
 17 39  1  0  0  0  0
 18 40  1  0  0  0  0
 18 41  1  0  0  0  0
 18 42  1  0  0  0  0
 19 43  1  0  0  0  0
 19 44  1  0  0  0  0
 19 45  1  0  0  0  0
 20 21  1  0  0  0  0
 20 46  1  0  0  0  0
 20 47  1  0  0  0  0
 21 22  1  0  0  0  0
 21 23  1  0  0  0  0
 21 48  1  0  0  0  0
 22 49  1  0  0  0  0
 22 50  1  0  0  0  0
 22 51  1  0  0  0  0
M  CHG  1   4   1
M  CHG  1   8  -1
M  END
> <s_m_source_file>
AV-unprocessed.smi

> <i_m_source_file_index>
1762

> <i_lp_mmshare_version>
43012

> <i_f3d_flags>
0

> <s_epik_input>
W0NIM11bQ0BASF0xW0NIMl1OKFtDSDJdW0NASF0oTzEpW0NIM10pW0NAQEhdKFtDSF0oW0NIM10pW0NIM10pQyg9TylbTkhdW0NIMl1bQ0gyXWMyW2NIXVtjSF1bY0hdW2NIXW4y

> <s_epik_cmdline>
J2VwaWtfcHl0aG9uJywgJy1waCcsICc3LjAnLCAnLXRuJywgJzgnLCAnLW1hJywgJzIwMCcsICctbWV0YWxfYmluZGluZycsICctaW1hZScsICc8aW5maWxlLm1hZT4nLCAnLW9tYWUnLCAnPG91dGZpbGUubWFlPic=

> <r_epik_Ionization_Penalty>
7.82966

> <r_epik_Ionization_Penalty_Charging>
7.7461

> <r_epik_Ionization_Penalty_Neutral>
0.0835571

> <r_epik_State_Penalty>
8.52273

> <r_epik_Charging_Adjusted_Penalty>
16.2688

> <i_epik_Tot_Q>
0

> <i_epik_Tot_abs_Q>
2

> <r_epik_Metal_State_Penalty>
4.47451

> <b_epik_Metal_Only>
1

> <s_lp_Force_Field>
OPLS_2005

> <r_lp_Energy>
24.57

> <b_lp_Chiralities_Consistent>
1

> <s_lp_Variant>
AV-unprocessed.smi:1762-28

> <Gold.Version>
5.8.1

> <Gold.Id.Protein>
6NUR|6NUR_protein|mol2

> <Gold.PLP.Fitness>
38.8785

> <Gold.PLP.PLP>
-31.2872

> <Gold.PLP.part.hbond>
-2.0000

> <Gold.PLP.part.metal>
0.0000

> <Gold.PLP.part.buried>
-3.3865

> <Gold.PLP.part.nonpolar>
-25.7559

> <Gold.PLP.part.repulsive>
0.0830

> <Gold.PLP.ligand.clash>
0.0152

> <Gold.PLP.ligand.torsion>
0.6945

> <Gold.PLP.Chemscore.Hbond>
2.9200

> <Gold.PLP.Chemscore.CHOScore>
0.0000

> <Gold.PLP.Chemscore.Metal>
0.0000

> <Gold.Chemscore.Hbonds>
donor molecule, donor type, donor heavy atom, donor atom, acceptor molecule, acceptor atom, score
      L1  H     4    52       P1  7948  1.92
      P1  H  6934  6947       L1    16  1.00

> <Gold.PLP.Chemscore.Internal.Correction>
0.2354

> <Gold.Rescore>
     Score         DG    S(hbond)    S(metal)    S(lipo)     H(rot)  DE(clash)    DE(int)     intcor
     13.30     -18.14       1.87        0.00      89.91       1.60       1.46       3.37       ----

> <Gold.Chemscore.Fitness>
13.3001

> <Gold.Chemscore.DG>
-18.1361

> <Gold.Chemscore.ZeroCoef>
-5.4800

> <Gold.Chemscore.Hbond>
1.8668

> <Gold.Chemscore.Metal>
0.0000

> <Gold.Chemscore.Lipo>
89.9130

> <Gold.Chemscore.Internal_Hbond>
0.0000

> <Gold.Chemscore.DEClash>
1.4619

> <Gold.Chemscore.DEInternal>
3.3741

> <Gold.Chemscore.Rot>
1.6012

> <Gold.Chemscore.Internal.Correction>
   9.000000E+99

> <Gold.Chemscore.Hbonds>
donor molecule, donor type, donor heavy atom, donor atom, acceptor molecule, acceptor atom, score
      L1  H     4    52       P1  7948  0.91
      P1  H  6934  6947       L1    16  0.63

> <Gold.Chemscore.Hbond.Weighted>
-6.2352

> <Gold.Chemscore.Metal.Weighted>
-0.0000

> <Gold.Chemscore.Lipo.Weighted>
-10.5198

> <Gold.Chemscore.Internal_Hbond.Weighted>
0.0000

> <Gold.Chemscore.DEClash.Weighted>
1.4619

> <Gold.Chemscore.DEInternal.Weighted>
3.3741

> <Gold.Chemscore.Rot.Weighted>
4.0990

> <Gold.Chemscore.Internal.Correction.Weighted>
   9.000000E+99

> <Gold.Protein.RotatedTorsions>
[ 6907 6896 6895 6894 ] final -111.67 input  -60.11 | X-H torsion
[ 7974 7965 7964 7962 ] final  124.35 input  175.53 | X-H torsion
[ 8008 7997 7996 7995 ] final  -37.72 input   59.86 | X-H torsion
[ 10167 10162 10161 10158 ] final   58.78 input  -65.29 | X-H torsion
[ 10718 10713 10712 10709 ] final  175.33 input   66.30 | X-H torsion
[ 10763 10752 10751 10750 ] final -116.71 input  -60.55 | X-H torsion
[ 11005 11000 10999 10996 ] final   22.70 input  -57.11 | X-H torsion

> <Gold.Protein.ActiveResidues>
 VAL166  LYS551  ARG553  GLY616  TRP617  ASP618  TYR619  PRO620  LYS621  CYS622 
 ASP623  PHE694  ASN695  SER759  ASP760  ASP761  ALA762  ILE779  LEU786  VAL792 
 PHE793  MET794  SER795  GLU796  ALA797  LYS798  CYS799  TRP800  GLU811  SER814 

> <Gold.Protein.RotatedAtoms>
  150.7706  133.9202  159.3395 H   0  0  0  0  0  0  0  0  0  0  0  0  # atno 6907 bound_to 6896
  151.7089  135.0914  160.0273 H   0  0  0  0  0  0  0  0  0  0  0  0  # atno 6908 bound_to 6896
  152.3721  133.6395  159.6131 H   0  0  0  0  0  0  0  0  0  0  0  0  # atno 6909 bound_to 6896
  145.0855  139.3625  143.4887 H   0  0  0  0  0  0  0  0  0  0  0  0  # atno 7974 bound_to 7965
  154.4048  140.1596  156.2583 H   0  0  0  0  0  0  0  0  0  0  0  0  # atno 8008 bound_to 7997
  155.9058  140.3430  155.6039 H   0  0  0  0  0  0  0  0  0  0  0  0  # atno 8009 bound_to 7997
  155.7394  140.0790  157.2243 H   0  0  0  0  0  0  0  0  0  0  0  0  # atno 8010 bound_to 7997
  140.1835  144.4157  150.6604 H   0  0  0  0  0  0  0  0  0  0  0  0  # atno 10167 bound_to 10162
  156.9365  130.9988  151.2977 H   0  0  0  0  0  0  0  0  0  0  0  0  # atno 10718 bound_to 10713
  154.8529  135.4335  154.1865 H   0  0  0  0  0  0  0  0  0  0  0  0  # atno 10763 bound_to 10752
  153.2943  135.6964  153.7269 H   0  0  0  0  0  0  0  0  0  0  0  0  # atno 10764 bound_to 10752
  153.6424  135.3465  155.3050 H   0  0  0  0  0  0  0  0  0  0  0  0  # atno 10765 bound_to 10752
  140.3777  134.1955  155.7664 H   0  0  0  0  0  0  0  0  0  0  0  0  # atno 11005 bound_to 11000
  146.3531  140.0664  142.8626 LP  0  0  0  0  0  0  0  0  0  0  0  0  # atno 17320 bound_to 7965
  145.1128  140.9415  143.4646 LP  0  0  0  0  0  0  0  0  0  0  0  0  # atno 17321 bound_to 7965
  140.6503  143.2223  151.6091 LP  0  0  0  0  0  0  0  0  0  0  0  0  # atno 17342 bound_to 10162
  139.5286  144.2984  152.1094 LP  0  0  0  0  0  0  0  0  0  0  0  0  # atno 17343 bound_to 10162
  157.5813  130.8378  149.8526 LP  0  0  0  0  0  0  0  0  0  0  0  0  # atno 17370 bound_to 10713
  156.0423  130.3736  150.1403 LP  0  0  0  0  0  0  0  0  0  0  0  0  # atno 17371 bound_to 10713
  141.1934  133.8152  157.0801 LP  0  0  0  0  0  0  0  0  0  0  0  0  # atno 17394 bound_to 11000
  140.0503  134.9809  157.1124 LP  0  0  0  0  0  0  0  0  0  0  0  0  # atno 17395 bound_to 11000

$$$$
