AV-unprocessed.smi:3195|AV-procd|sdf|12214|dock3
  -GOLD-   2272018 53D 1   1.00000     0.00000
 Structure written by MMmdl.
 30 31  0  0  0  0  0  0  0  0  1 V2000
  152.8025  139.0789  154.5955 C   0  0  0  0  0  0  0  0  0  0  0  0
  151.5930  139.4564  155.4679 C   0  0  2  0  0  0  0  0  0  0  0  0
  152.0607  140.1632  156.7586 C   0  0  0  0  0  0  0  0  0  0  0  0
  152.8615  139.5901  157.4985 O   0  0  0  0  0  0  0  0  0  0  0  0
  151.5576  141.3904  156.9945 N   0  0  0  0  0  0  0  0  0  0  0  0
  151.8019  142.2577  158.0945 C   0  0  0  0  0  0  0  0  0  0  0  0
  152.2670  141.8223  159.2924 N   0  0  0  0  0  0  0  0  0  0  0  0
  152.4731  142.7117  160.2857 C   0  0  0  0  0  0  0  0  0  0  0  0
  152.2286  144.0895  160.1477 C   0  0  0  0  0  0  0  0  0  0  0  0
  151.7469  144.5558  158.9124 C   0  0  0  0  0  0  0  0  0  0  0  0
  151.5291  143.6316  157.8710 C   0  0  0  0  0  0  0  0  0  0  0  0
  151.0594  144.0784  156.6668 O   0  0  0  0  0  0  0  0  0  0  0  0
  150.6958  138.2344  155.7762 C   0  0  0  0  0  0  0  0  0  0  0  0
  149.3991  138.5198  155.0401 C   0  0  0  0  0  0  0  0  0  0  0  0
  149.3971  140.0368  154.9488 C   0  0  0  0  0  0  0  0  0  0  0  0
  150.7626  140.3342  154.6991 O   0  0  0  0  0  0  0  0  0  0  0  0
  153.4518  138.3621  155.0998 H   0  0  0  0  0  0  0  0  0  0  0  0
  153.4026  139.9556  154.3483 H   0  0  0  0  0  0  0  0  0  0  0  0
  152.4807  138.6276  153.6566 H   0  0  0  0  0  0  0  0  0  0  0  0
  150.9140  141.7450  156.3018 H   0  0  0  0  0  0  0  0  0  0  0  0
  152.8445  142.3124  161.2178 H   0  0  0  0  0  0  0  0  0  0  0  0
  152.4068  144.7694  160.9677 H   0  0  0  0  0  0  0  0  0  0  0  0
  151.5480  145.6075  158.7673 H   0  0  0  0  0  0  0  0  0  0  0  0
  150.1273  144.2337  156.6670 H   0  0  0  0  0  0  0  0  0  0  0  0
  151.1375  137.2912  155.4526 H   0  0  0  0  0  0  0  0  0  0  0  0
  150.4903  138.1396  156.8441 H   0  0  0  0  0  0  0  0  0  0  0  0
  149.4378  138.0897  154.0386 H   0  0  0  0  0  0  0  0  0  0  0  0
  148.5209  138.1218  155.5491 H   0  0  0  0  0  0  0  0  0  0  0  0
  148.7513  140.4132  154.1555 H   0  0  0  0  0  0  0  0  0  0  0  0
  149.0853  140.4861  155.8931 H   0  0  0  0  0  0  0  0  0  0  0  0
  1  2  1  0  0  0  0
  1 17  1  0  0  0  0
  1 18  1  0  0  0  0
  1 19  1  0  0  0  0
  2 16  1  0  0  0  0
  2  3  1  0  0  0  0
  2 13  1  0  0  0  0
  3  4  2  0  0  0  0
  3  5  1  0  0  0  0
  5  6  1  0  0  0  0
  5 20  1  0  0  0  0
  6 11  1  0  0  0  0
  6  7  2  0  0  0  0
  7  8  1  0  0  0  0
  8  9  2  0  0  0  0
  8 21  1  0  0  0  0
  9 10  1  0  0  0  0
  9 22  1  0  0  0  0
 10 11  2  0  0  0  0
 10 23  1  0  0  0  0
 11 12  1  0  0  0  0
 12 24  1  0  0  0  0
 13 14  1  0  0  0  0
 13 25  1  0  0  0  0
 13 26  1  0  0  0  0
 14 15  1  0  0  0  0
 14 27  1  0  0  0  0
 14 28  1  0  0  0  0
 15 16  1  0  0  0  0
 15 29  1  0  0  0  0
 15 30  1  0  0  0  0
M  END
> <s_m_source_file>
AV-unprocessed.smi

> <i_m_source_file_index>
3195

> <i_lp_mmshare_version>
43012

> <i_f3d_flags>
0

> <s_epik_input>
TzFbQ0gyXVtDSDJdW0NIMl1bQ0BAXTEoW0NIM10pQyg9TylbTkhdYzJuW2NIXVtjSF1bY0hdYzJbT0hd

> <s_epik_cmdline>
J2VwaWtfcHl0aG9uJywgJy1waCcsICc3LjAnLCAnLXRuJywgJzgnLCAnLW1hJywgJzIwMCcsICctbWV0YWxfYmluZGluZycsICctaW1hZScsICc8aW5maWxlLm1hZT4nLCAnLW9tYWUnLCAnPG91dGZpbGUubWFlPic=

> <r_lp_tautomer_probability>
0.43658

> <r_epik_Ionization_Penalty>
0.0203228

> <r_epik_Ionization_Penalty_Charging>
0

> <r_epik_Ionization_Penalty_Neutral>
0.0203228

> <r_epik_State_Penalty>
0.430346

> <r_epik_Charging_Adjusted_Penalty>
0.430346

> <i_epik_Tot_Q>
0

> <i_epik_Tot_abs_Q>
0

> <r_epik_Metal_State_Penalty>
0.387439

> <b_epik_Metal_Only>
0

> <s_lp_Force_Field>
OPLS_2005

> <r_lp_Energy>
21.4304

> <b_lp_Chiralities_Consistent>
1

> <s_lp_Variant>
AV-unprocessed.smi:3195-2

> <Gold.Version>
5.8.1

> <Gold.Id.Protein>
6NUR|6NUR_protein|mol2

> <Gold.PLP.Fitness>
42.1199

> <Gold.PLP.PLP>
-33.5097

> <Gold.PLP.part.hbond>
-2.9243

> <Gold.PLP.part.metal>
0.0000

> <Gold.PLP.part.buried>
-3.6896

> <Gold.PLP.part.nonpolar>
-26.8916

> <Gold.PLP.part.repulsive>
0.1868

> <Gold.PLP.ligand.clash>
0.0000

> <Gold.PLP.ligand.torsion>
0.2111

> <Gold.PLP.Chemscore.Hbond>
3.0000

> <Gold.PLP.Chemscore.CHOScore>
0.0000

> <Gold.PLP.Chemscore.Metal>
0.0000

> <Gold.Chemscore.Hbonds>
donor molecule, donor type, donor heavy atom, donor atom, acceptor molecule, acceptor atom, score
      L1  H    12    24       P1  8028  0.82
      P1  H  7989  7998       L1    16  1.00
      P1  H  7997  8008       L1     4  1.00

> <Gold.PLP.Chemscore.Internal.Correction>
0.0325

> <Gold.Rescore>
     Score         DG    S(hbond)    S(metal)    S(lipo)     H(rot)  DE(clash)    DE(int)     intcor
     17.89     -19.73       2.51        0.00      82.30       1.46       0.32       1.53       ----

> <Gold.Chemscore.Fitness>
17.8921

> <Gold.Chemscore.DG>
-19.7348

> <Gold.Chemscore.ZeroCoef>
-5.4800

> <Gold.Chemscore.Hbond>
2.5060

> <Gold.Chemscore.Metal>
0.0000

> <Gold.Chemscore.Lipo>
82.2971

> <Gold.Chemscore.Internal_Hbond>
0.0000

> <Gold.Chemscore.DEClash>
0.3153

> <Gold.Chemscore.DEInternal>
1.5274

> <Gold.Chemscore.Rot>
1.4625

> <Gold.Chemscore.Internal.Correction>
   9.000000E+99

> <Gold.Chemscore.Hbonds>
donor molecule, donor type, donor heavy atom, donor atom, acceptor molecule, acceptor atom, score
      L1  H    12    24       P1  8028  0.80
      P1  H  7989  7998       L1    16  0.63
      P1  H  7997  8008       L1     4  0.69

> <Gold.Chemscore.Hbond.Weighted>
-8.3700

> <Gold.Chemscore.Metal.Weighted>
-0.0000

> <Gold.Chemscore.Lipo.Weighted>
-9.6288

> <Gold.Chemscore.Internal_Hbond.Weighted>
0.0000

> <Gold.Chemscore.DEClash.Weighted>
0.3153

> <Gold.Chemscore.DEInternal.Weighted>
1.5274

> <Gold.Chemscore.Rot.Weighted>
3.7440

> <Gold.Chemscore.Internal.Correction.Weighted>
   9.000000E+99

> <Gold.Protein.RotatedTorsions>
[ 6907 6896 6895 6894 ] final  -20.23 input  -60.11 | X-H torsion
[ 7974 7965 7964 7962 ] final  -14.83 input  175.53 | X-H torsion
[ 8008 7997 7996 7995 ] final  -85.22 input   59.86 | X-H torsion
[ 10167 10162 10161 10158 ] final  124.41 input  -65.29 | X-H torsion
[ 10718 10713 10712 10709 ] final -126.74 input   66.30 | X-H torsion
[ 10763 10752 10751 10750 ] final  -95.77 input  -60.55 | X-H torsion
[ 11005 11000 10999 10996 ] final  -25.74 input  -57.11 | X-H torsion

> <Gold.Protein.ActiveResidues>
 VAL166  LYS551  ARG553  GLY616  TRP617  ASP618  TYR619  PRO620  LYS621  CYS622 
 ASP623  PHE694  ASN695  SER759  ASP760  ASP761  ALA762  ILE779  LEU786  VAL792 
 PHE793  MET794  SER795  GLU796  ALA797  LYS798  CYS799  TRP800  GLU811  SER814 

> <Gold.Protein.RotatedAtoms>
  151.2513  135.0623  159.9062 H   0  0  0  0  0  0  0  0  0  0  0  0  # atno 6907 bound_to 6896
  152.5379  134.0329  159.8043 H   0  0  0  0  0  0  0  0  0  0  0  0  # atno 6908 bound_to 6896
  151.0538  133.5552  159.2671 H   0  0  0  0  0  0  0  0  0  0  0  0  # atno 6909 bound_to 6896
  146.2058  140.3405  142.8407 H   0  0  0  0  0  0  0  0  0  0  0  0  # atno 7974 bound_to 7965
  154.6384  140.0594  156.9816 H   0  0  0  0  0  0  0  0  0  0  0  0  # atno 8008 bound_to 7997
  155.1556  140.3278  155.4403 H   0  0  0  0  0  0  0  0  0  0  0  0  # atno 8009 bound_to 7997
  156.2518  140.1940  156.6665 H   0  0  0  0  0  0  0  0  0  0  0  0  # atno 8010 bound_to 7997
  139.5743  144.6955  151.3695 H   0  0  0  0  0  0  0  0  0  0  0  0  # atno 10167 bound_to 10162
  156.1793  130.6721  151.0284 H   0  0  0  0  0  0  0  0  0  0  0  0  # atno 10718 bound_to 10713
  154.7179  135.5108  153.8766 H   0  0  0  0  0  0  0  0  0  0  0  0  # atno 10763 bound_to 10752
  153.0836  135.6639  154.0003 H   0  0  0  0  0  0  0  0  0  0  0  0  # atno 10764 bound_to 10752
  153.9832  135.3027  155.3398 H   0  0  0  0  0  0  0  0  0  0  0  0  # atno 10765 bound_to 10752
  140.8965  133.7553  156.0488 H   0  0  0  0  0  0  0  0  0  0  0  0  # atno 11005 bound_to 11000
  144.8788  140.7373  143.5999 LP  0  0  0  0  0  0  0  0  0  0  0  0  # atno 17320 bound_to 7965
  145.3325  139.1755  143.4529 LP  0  0  0  0  0  0  0  0  0  0  0  0  # atno 17321 bound_to 7965
  140.7026  143.7593  150.7429 LP  0  0  0  0  0  0  0  0  0  0  0  0  # atno 17342 bound_to 10162
  140.1108  143.4701  152.2371 LP  0  0  0  0  0  0  0  0  0  0  0  0  # atno 17343 bound_to 10162
  157.6857  131.0825  150.7248 LP  0  0  0  0  0  0  0  0  0  0  0  0  # atno 17370 bound_to 10713
  156.7306  130.4708  149.5500 LP  0  0  0  0  0  0  0  0  0  0  0  0  # atno 17371 bound_to 10713
  140.8283  134.3209  157.5358 LP  0  0  0  0  0  0  0  0  0  0  0  0  # atno 17394 bound_to 11000
  139.8736  134.9348  156.3618 LP  0  0  0  0  0  0  0  0  0  0  0  0  # atno 17395 bound_to 11000

$$$$
