AV-unprocessed.smi:1584|AV-procd|sdf|6366|dock6
  -GOLD-   22720 6593D 1   1.00000     0.00000
 Structure written by MMmdl.
 39 40  0  0  0  0  0  0  0  0  1 V2000
  149.8544  141.4095  155.2838 C   0  0  0  0  0  0  0  0  0  0  0  0
  150.1067  141.0786  156.7610 C   0  0  1  0  0  0  0  0  0  0  0  0
  150.4697  139.5891  156.9494 C   0  0  0  0  0  0  0  0  0  0  0  0
  151.2660  139.0591  155.8560 N   0  0  0  0  0  0  0  0  0  0  0  0
  150.8795  138.1895  154.8576 C   0  0  0  0  0  0  0  0  0  0  0  0
  151.9602  137.9968  154.0459 C   0  0  0  0  0  0  0  0  0  0  0  0
  152.9761  138.7961  154.6410 C   0  0  0  0  0  0  0  0  0  0  0  0
  152.5592  139.4260  155.7274 N   0  0  0  0  0  0  0  0  0  0  0  0
  151.1758  141.9397  157.2655 N   0  0  0  0  0  0  0  0  0  0  0  0
  151.6918  141.9018  158.5047 C   0  0  0  0  0  0  0  0  0  0  0  0
  151.2687  141.1572  159.3897 O   0  0  0  0  0  0  0  0  0  0  0  0
  152.8797  142.8395  158.7792 C   0  0  2  0  0  0  0  0  0  0  0  0
  153.6243  142.4757  160.0717 C   0  0  0  0  0  0  0  0  0  0  0  0
  152.8126  142.8477  161.3199 C   0  0  0  0  0  0  0  0  0  0  0  0
  152.2822  144.2162  161.2757 N   0  0  0  0  0  0  0  0  0  0  0  0
  151.9067  144.7755  162.5755 C   0  0  0  0  0  0  0  0  0  0  0  0
  152.0795  144.9273  160.1399 C   0  0  0  0  0  0  0  0  0  0  0  0
  151.6012  146.0622  160.1524 O   0  0  0  0  0  0  0  0  0  0  0  0
  152.4685  144.3299  158.7736 C   0  0  0  0  0  0  0  0  0  0  0  0
  149.0423  140.8042  154.8803 H   0  0  0  0  0  0  0  0  0  0  0  0
  150.7410  141.2236  154.6767 H   0  0  0  0  0  0  0  0  0  0  0  0
  149.5768  142.4565  155.1577 H   0  0  0  0  0  0  0  0  0  0  0  0
  149.1791  141.2846  157.2983 H   0  0  0  0  0  0  0  0  0  0  0  0
  151.0339  139.4538  157.8733 H   0  0  0  0  0  0  0  0  0  0  0  0
  149.5663  138.9854  157.0470 H   0  0  0  0  0  0  0  0  0  0  0  0
  149.8764  137.7932  154.8030 H   0  0  0  0  0  0  0  0  0  0  0  0
  152.0163  137.3814  153.1605 H   0  0  0  0  0  0  0  0  0  0  0  0
  153.9973  138.9358  154.3185 H   0  0  0  0  0  0  0  0  0  0  0  0
  151.5811  142.5899  156.6079 H   0  0  0  0  0  0  0  0  0  0  0  0
  153.5803  142.7010  157.9538 H   0  0  0  0  0  0  0  0  0  0  0  0
  153.8696  141.4128  160.0908 H   0  0  0  0  0  0  0  0  0  0  0  0
  154.5779  143.0050  160.0936 H   0  0  0  0  0  0  0  0  0  0  0  0
  151.9749  142.1603  161.4436 H   0  0  0  0  0  0  0  0  0  0  0  0
  153.4461  142.7198  162.1986 H   0  0  0  0  0  0  0  0  0  0  0  0
  150.8598  145.0825  162.5775 H   0  0  0  0  0  0  0  0  0  0  0  0
  152.5190  145.6479  162.8069 H   0  0  0  0  0  0  0  0  0  0  0  0
  152.0323  144.0574  163.3866 H   0  0  0  0  0  0  0  0  0  0  0  0
  153.3081  144.9190  158.4031 H   0  0  0  0  0  0  0  0  0  0  0  0
  151.6550  144.5063  158.0679 H   0  0  0  0  0  0  0  0  0  0  0  0
  1  2  1  0  0  0  0
  1 20  1  0  0  0  0
  1 21  1  0  0  0  0
  1 22  1  0  0  0  0
  2  3  1  0  0  0  0
  2  9  1  0  0  0  0
  2 23  1  0  0  0  0
  3  4  1  0  0  0  0
  3 24  1  0  0  0  0
  3 25  1  0  0  0  0
  4  8  1  0  0  0  0
  4  5  1  0  0  0  0
  5  6  2  0  0  0  0
  5 26  1  0  0  0  0
  6  7  1  0  0  0  0
  6 27  1  0  0  0  0
  7  8  2  0  0  0  0
  7 28  1  0  0  0  0
  9 10  1  0  0  0  0
  9 29  1  0  0  0  0
 10 11  2  0  0  0  0
 10 12  1  0  0  0  0
 12 19  1  0  0  0  0
 12 13  1  0  0  0  0
 12 30  1  0  0  0  0
 13 14  1  0  0  0  0
 13 31  1  0  0  0  0
 13 32  1  0  0  0  0
 14 15  1  0  0  0  0
 14 33  1  0  0  0  0
 14 34  1  0  0  0  0
 15 16  1  0  0  0  0
 15 17  1  0  0  0  0
 16 35  1  0  0  0  0
 16 36  1  0  0  0  0
 16 37  1  0  0  0  0
 17 18  2  0  0  0  0
 17 19  1  0  0  0  0
 19 38  1  0  0  0  0
 19 39  1  0  0  0  0
M  END
> <s_m_source_file>
AV-unprocessed.smi

> <i_m_source_file_index>
1584

> <i_lp_mmshare_version>
43012

> <i_f3d_flags>
0

> <s_epik_input>
bjFbY0hdW2NIXVtjSF1uMVtDSDJdW0NAQEhdKFtDSDNdKVtOSF1DKD1PKVtDQEBIXTJbQ0gyXVtDSDJdTihbQ0gzXSlDKD1PKVtDSDJdMg==

> <s_epik_cmdline>
J2VwaWtfcHl0aG9uJywgJy1waCcsICc3LjAnLCAnLXRuJywgJzgnLCAnLW1hJywgJzIwMCcsICctbWV0YWxfYmluZGluZycsICctaW1hZScsICc8aW5maWxlLm1hZT4nLCAnLW9tYWUnLCAnPG91dGZpbGUubWFlPic=

> <r_lp_tautomer_probability>
1

> <r_epik_Ionization_Penalty>
0.000299422

> <r_epik_Ionization_Penalty_Charging>
0

> <r_epik_Ionization_Penalty_Neutral>
0.000299422

> <r_epik_State_Penalty>
-0

> <r_epik_Charging_Adjusted_Penalty>
0

> <i_epik_Tot_Q>
0

> <i_epik_Tot_abs_Q>
0

> <r_epik_Metal_State_Penalty>
-0

> <b_epik_Metal_Only>
0

> <s_lp_Force_Field>
OPLS_2005

> <r_lp_Energy>
11.5075

> <b_lp_Chiralities_Consistent>
1

> <s_lp_Variant>
AV-unprocessed.smi:1584-2

> <Gold.Version>
5.8.1

> <Gold.Id.Protein>
6NUR|6NUR_protein|mol2

> <Gold.PLP.Fitness>
39.5155

> <Gold.PLP.PLP>
-37.8137

> <Gold.PLP.part.hbond>
-3.3230

> <Gold.PLP.part.metal>
0.0000

> <Gold.PLP.part.buried>
1.7169

> <Gold.PLP.part.nonpolar>
-37.3779

> <Gold.PLP.part.repulsive>
0.2898

> <Gold.PLP.ligand.clash>
0.0000

> <Gold.PLP.ligand.torsion>
0.6753

> <Gold.PLP.Chemscore.Hbond>
1.0000

> <Gold.PLP.Chemscore.CHOScore>
0.0000

> <Gold.PLP.Chemscore.Metal>
0.0000

> <Gold.Chemscore.Hbonds>
donor molecule, donor type, donor heavy atom, donor atom, acceptor molecule, acceptor atom, score
      P1  H  7997  8008       L1     8  0.96

> <Gold.PLP.Chemscore.Internal.Correction>
0.0524

> <Gold.Rescore>
     Score         DG    S(hbond)    S(metal)    S(lipo)     H(rot)  DE(clash)    DE(int)     intcor
     10.47     -15.48       0.62        0.00     104.28       1.67       2.21       2.79       ----

> <Gold.Chemscore.Fitness>
10.4742

> <Gold.Chemscore.DG>
-15.4819

> <Gold.Chemscore.ZeroCoef>
-5.4800

> <Gold.Chemscore.Hbond>
0.6243

> <Gold.Chemscore.Metal>
0.0000

> <Gold.Chemscore.Lipo>
104.2812

> <Gold.Chemscore.Internal_Hbond>
0.0000

> <Gold.Chemscore.DEClash>
2.2138

> <Gold.Chemscore.DEInternal>
2.7939

> <Gold.Chemscore.Rot>
1.6734

> <Gold.Chemscore.Internal.Correction>
   9.000000E+99

> <Gold.Chemscore.Hbonds>
donor molecule, donor type, donor heavy atom, donor atom, acceptor molecule, acceptor atom, score
      P1  H  7997  8008       L1     8  0.23

> <Gold.Chemscore.Hbond.Weighted>
-2.0851

> <Gold.Chemscore.Metal.Weighted>
-0.0000

> <Gold.Chemscore.Lipo.Weighted>
-12.2009

> <Gold.Chemscore.Internal_Hbond.Weighted>
0.0000

> <Gold.Chemscore.DEClash.Weighted>
2.2138

> <Gold.Chemscore.DEInternal.Weighted>
2.7939

> <Gold.Chemscore.Rot.Weighted>
4.2840

> <Gold.Chemscore.Internal.Correction.Weighted>
   9.000000E+99

> <Gold.Protein.RotatedTorsions>
[ 6907 6896 6895 6894 ] final -156.85 input  -60.11 | X-H torsion
[ 7974 7965 7964 7962 ] final   20.04 input  175.53 | X-H torsion
[ 8008 7997 7996 7995 ] final  -51.26 input   59.86 | X-H torsion
[ 10167 10162 10161 10158 ] final  153.38 input  -65.29 | X-H torsion
[ 10718 10713 10712 10709 ] final  -57.11 input   66.30 | X-H torsion
[ 10763 10752 10751 10750 ] final -124.35 input  -60.55 | X-H torsion
[ 11005 11000 10999 10996 ] final  -15.42 input  -57.11 | X-H torsion

> <Gold.Protein.ActiveResidues>
 VAL166  LYS551  ARG553  GLY616  TRP617  ASP618  TYR619  PRO620  LYS621  CYS622 
 ASP623  PHE694  ASN695  SER759  ASP760  ASP761  ALA762  ILE779  LEU786  VAL792 
 PHE793  MET794  SER795  GLU796  ALA797  LYS798  CYS799  TRP800  GLU811  SER814 

> <Gold.Protein.RotatedAtoms>
  151.2939  133.4153  159.2634 H   0  0  0  0  0  0  0  0  0  0  0  0  # atno 6907 bound_to 6896
  151.0253  134.9500  159.8092 H   0  0  0  0  0  0  0  0  0  0  0  0  # atno 6908 bound_to 6896
  152.5333  134.2901  159.9092 H   0  0  0  0  0  0  0  0  0  0  0  0  # atno 6909 bound_to 6896
  146.2126  139.8226  142.8676 H   0  0  0  0  0  0  0  0  0  0  0  0  # atno 7974 bound_to 7965
  154.4079  140.1252  156.4801 H   0  0  0  0  0  0  0  0  0  0  0  0  # atno 8008 bound_to 7997
  155.7094  140.3494  155.4947 H   0  0  0  0  0  0  0  0  0  0  0  0  # atno 8009 bound_to 7997
  155.9314  140.1070  157.1119 H   0  0  0  0  0  0  0  0  0  0  0  0  # atno 8010 bound_to 7997
  139.4827  144.5278  151.7773 H   0  0  0  0  0  0  0  0  0  0  0  0  # atno 10167 bound_to 10162
  156.1236  130.4164  150.0396 H   0  0  0  0  0  0  0  0  0  0  0  0  # atno 10718 bound_to 10713
  154.8722  135.4066  154.3092 H   0  0  0  0  0  0  0  0  0  0  0  0  # atno 10763 bound_to 10752
  153.3939  135.7016  153.6480 H   0  0  0  0  0  0  0  0  0  0  0  0  # atno 10764 bound_to 10752
  153.5252  135.3679  155.2621 H   0  0  0  0  0  0  0  0  0  0  0  0  # atno 10765 bound_to 10752
  140.7965  133.8247  155.9429 H   0  0  0  0  0  0  0  0  0  0  0  0  # atno 11005 bound_to 11000
  145.3080  141.0212  143.3571 LP  0  0  0  0  0  0  0  0  0  0  0  0  # atno 17320 bound_to 7965
  144.8957  139.4716  143.6657 LP  0  0  0  0  0  0  0  0  0  0  0  0  # atno 17321 bound_to 7965
  140.4800  144.1464  150.5931 LP  0  0  0  0  0  0  0  0  0  0  0  0  # atno 17342 bound_to 10162
  140.4288  143.2577  151.9621 LP  0  0  0  0  0  0  0  0  0  0  0  0  # atno 17343 bound_to 10162
  156.8328  130.9398  151.3636 LP  0  0  0  0  0  0  0  0  0  0  0  0  # atno 17370 bound_to 10713
  157.6418  130.8812  149.9463 LP  0  0  0  0  0  0  0  0  0  0  0  0  # atno 17371 bound_to 10713
  140.9338  134.1988  157.4846 LP  0  0  0  0  0  0  0  0  0  0  0  0  # atno 17394 bound_to 11000
  139.8726  134.9843  156.5236 LP  0  0  0  0  0  0  0  0  0  0  0  0  # atno 17395 bound_to 11000

$$$$
