AV-unprocessed.smi:1157|AV-procd|sdf|4909|dock2
  -GOLD-   22720 3483D 1   1.00000     0.00000
 Structure written by MMmdl.
 56 58  0  0  0  0  0  0  0  0  3 V2000
  145.7653  137.1487  154.4210 C   0  0  0  0  0  0  0  0  0  0  0  0
  145.6245  136.8834  152.8981 C   0  0  0  0  0  0  0  0  0  0  0  0
  144.1143  136.8439  152.5597 C   0  0  0  0  0  0  0  0  0  0  0  0
  146.3085  138.0569  152.1312 C   0  0  0  0  0  0  0  0  0  0  0  0
  147.6471  138.3908  152.6196 N   0  0  0  0  0  0  0  0  0  0  0  0
  147.9213  139.2511  153.6110 C   0  0  0  0  0  0  0  0  0  0  0  0
  147.0587  139.8866  154.2167 O   0  0  0  0  0  0  0  0  0  0  0  0
  149.2448  139.3412  153.8274 N   0  0  0  0  0  0  0  0  0  0  0  0
  149.9266  140.1281  154.7943 C   0  0  0  0  0  0  0  0  0  0  0  0
  151.0916  139.7052  155.4805 C   0  0  0  0  0  0  0  0  0  0  0  0
  151.7039  140.5708  156.4100 C   0  0  0  0  0  0  0  0  0  0  0  0
  151.1546  141.8531  156.6451 C   0  0  0  0  0  0  0  0  0  0  0  0
  151.7164  142.7681  157.5556 N   0  0  0  0  0  0  0  0  0  0  0  0
  151.2394  144.1387  157.6503 C   0  0  0  0  0  0  0  0  0  0  0  0
  151.9805  144.7224  158.8523 C   0  0  0  0  0  0  0  0  0  0  0  0
  152.1446  143.5159  159.7770 C   0  0  0  0  0  0  0  0  0  0  0  0
  152.2877  142.3262  158.8202 C   0  0  0  0  0  0  0  0  0  0  0  0
  150.0509  142.2201  155.9508 N   0  3  0  0  0  0  0  0  0  0  0  0
  149.4338  141.4236  155.0518 C   0  0  0  0  0  0  0  0  0  0  0  0
  146.3071  135.5906  152.5162 N   0  3  0  0  0  0  0  0  0  0  0  0
  146.5068  134.6005  153.6147 C   0  0  0  0  0  0  0  0  0  0  0  0
  147.3372  133.3986  153.1305 C   0  0  0  0  0  0  0  0  0  0  0  0
  146.7154  132.7963  152.0054 O   0  0  0  0  0  0  0  0  0  0  0  0
  146.6218  133.7026  150.9169 C   0  0  0  0  0  0  0  0  0  0  0  0
  145.7422  134.8956  151.3228 C   0  0  0  0  0  0  0  0  0  0  0  0
  145.3597  138.1177  154.7099 H   0  0  0  0  0  0  0  0  0  0  0  0
  146.8095  137.1278  154.7355 H   0  0  0  0  0  0  0  0  0  0  0  0
  145.2135  136.4252  155.0208 H   0  0  0  0  0  0  0  0  0  0  0  0
  143.6023  137.7339  152.9272 H   0  0  0  0  0  0  0  0  0  0  0  0
  143.6188  135.9859  153.0137 H   0  0  0  0  0  0  0  0  0  0  0  0
  143.9346  136.8022  151.4852 H   0  0  0  0  0  0  0  0  0  0  0  0
  146.3268  137.8411  151.0614 H   0  0  0  0  0  0  0  0  0  0  0  0
  145.7400  138.9788  152.2360 H   0  0  0  0  0  0  0  0  0  0  0  0
  148.4211  137.9213  152.1723 H   0  0  0  0  0  0  0  0  0  0  0  0
  149.8363  138.8278  153.1902 H   0  0  0  0  0  0  0  0  0  0  0  0
  151.5389  138.7395  155.3018 H   0  0  0  0  0  0  0  0  0  0  0  0
  152.5954  140.2425  156.9238 H   0  0  0  0  0  0  0  0  0  0  0  0
  151.4437  144.7013  156.7387 H   0  0  0  0  0  0  0  0  0  0  0  0
  150.1626  144.1388  157.8251 H   0  0  0  0  0  0  0  0  0  0  0  0
  152.9617  145.0848  158.5421 H   0  0  0  0  0  0  0  0  0  0  0  0
  151.4466  145.5505  159.3195 H   0  0  0  0  0  0  0  0  0  0  0  0
  152.9897  143.6140  160.4589 H   0  0  0  0  0  0  0  0  0  0  0  0
  151.2425  143.3943  160.3782 H   0  0  0  0  0  0  0  0  0  0  0  0
  151.7828  141.4450  159.2176 H   0  0  0  0  0  0  0  0  0  0  0  0
  153.3385  142.0794  158.6646 H   0  0  0  0  0  0  0  0  0  0  0  0
  148.5628  141.8465  154.5723 H   0  0  0  0  0  0  0  0  0  0  0  0
  147.0476  135.0333  154.4542 H   0  0  0  0  0  0  0  0  0  0  0  0
  145.5420  134.2578  153.9902 H   0  0  0  0  0  0  0  0  0  0  0  0
  148.3534  133.7054  152.8775 H   0  0  0  0  0  0  0  0  0  0  0  0
  147.4199  132.6564  153.9249 H   0  0  0  0  0  0  0  0  0  0  0  0
  147.6151  134.0333  150.6085 H   0  0  0  0  0  0  0  0  0  0  0  0
  146.1806  133.1841  150.0655 H   0  0  0  0  0  0  0  0  0  0  0  0
  144.7365  134.5339  151.5387 H   0  0  0  0  0  0  0  0  0  0  0  0
  145.6658  135.5595  150.4651 H   0  0  0  0  0  0  0  0  0  0  0  0
  147.2415  135.8668  152.2491 H   0  0  0  0  0  0  0  0  0  0  0  0
  149.6639  143.1495  156.1155 H   0  0  0  0  0  0  0  0  0  0  0  0
  1  2  1  0  0  0  0
  1 26  1  0  0  0  0
  1 27  1  0  0  0  0
  1 28  1  0  0  0  0
  2  3  1  0  0  0  0
  2  4  1  0  0  0  0
  2 20  1  0  0  0  0
  3 29  1  0  0  0  0
  3 30  1  0  0  0  0
  3 31  1  0  0  0  0
  4  5  1  0  0  0  0
  4 32  1  0  0  0  0
  4 33  1  0  0  0  0
  5  6  1  0  0  0  0
  5 34  1  0  0  0  0
  6  7  2  0  0  0  0
  6  8  1  0  0  0  0
  8  9  1  0  0  0  0
  8 35  1  0  0  0  0
  9 19  1  0  0  0  0
  9 10  2  0  0  0  0
 10 11  1  0  0  0  0
 10 36  1  0  0  0  0
 11 12  2  0  0  0  0
 11 37  1  0  0  0  0
 12 13  1  0  0  0  0
 12 18  1  0  0  0  0
 13 17  1  0  0  0  0
 13 14  1  0  0  0  0
 14 15  1  0  0  0  0
 14 38  1  0  0  0  0
 14 39  1  0  0  0  0
 15 16  1  0  0  0  0
 15 40  1  0  0  0  0
 15 41  1  0  0  0  0
 16 17  1  0  0  0  0
 16 42  1  0  0  0  0
 16 43  1  0  0  0  0
 17 44  1  0  0  0  0
 17 45  1  0  0  0  0
 18 19  2  0  0  0  0
 18 56  1  0  0  0  0
 19 46  1  0  0  0  0
 20 25  1  0  0  0  0
 20 21  1  0  0  0  0
 20 55  1  0  0  0  0
 21 22  1  0  0  0  0
 21 47  1  0  0  0  0
 21 48  1  0  0  0  0
 22 23  1  0  0  0  0
 22 49  1  0  0  0  0
 22 50  1  0  0  0  0
 23 24  1  0  0  0  0
 24 25  1  0  0  0  0
 24 51  1  0  0  0  0
 24 52  1  0  0  0  0
 25 53  1  0  0  0  0
 25 54  1  0  0  0  0
M  CHG  1  18   1
M  CHG  1  20   1
M  END
> <s_m_source_file>
AV-unprocessed.smi

> <i_m_source_file_index>
1157

> <i_lp_mmshare_version>
43012

> <i_f3d_flags>
0

> <s_epik_input>
W0NIMl0xW0NIMl1PW0NIMl1bQ0gyXU4xQyhbQ0gzXSkoW0NIM10pW0NIMl1bTkhdQyg9TylbTkhdYzJbY0hdW2NIXWMobltjSF0yKU4zW0NIMl1bQ0gyXVtDSDJdW0NIMl0z

> <s_epik_cmdline>
J2VwaWtfcHl0aG9uJywgJy1waCcsICc3LjAnLCAnLXRuJywgJzgnLCAnLW1hJywgJzIwMCcsICctbWV0YWxfYmluZGluZycsICctaW1hZScsICc8aW5maWxlLm1hZT4nLCAnLW9tYWUnLCAnPG91dGZpbGUubWFlPic=

> <r_lp_tautomer_probability>
0.999994

> <r_epik_Ionization_Penalty>
1.80144

> <r_epik_Ionization_Penalty_Charging>
1.80142

> <r_epik_Ionization_Penalty_Neutral>
2.04065e-05

> <r_epik_State_Penalty>
1.84115

> <r_epik_Charging_Adjusted_Penalty>
3.64257

> <i_epik_Tot_Q>
2

> <i_epik_Tot_abs_Q>
2

> <r_epik_Metal_State_Penalty>
1.92436

> <b_epik_Metal_Only>
0

> <s_lp_Force_Field>
OPLS_2005

> <r_lp_Energy>
58.4852

> <b_lp_Chiralities_Consistent>
1

> <s_lp_Variant>
AV-unprocessed.smi:1157-4

> <Gold.Version>
5.8.1

> <Gold.Id.Protein>
6NUR|6NUR_protein|mol2

> <Gold.PLP.Fitness>
59.4258

> <Gold.PLP.PLP>
-48.9203

> <Gold.PLP.part.hbond>
-5.0000

> <Gold.PLP.part.metal>
0.0000

> <Gold.PLP.part.buried>
-4.5052

> <Gold.PLP.part.nonpolar>
-39.8515

> <Gold.PLP.part.repulsive>
0.5724

> <Gold.PLP.ligand.clash>
0.0000

> <Gold.PLP.ligand.torsion>
2.1906

> <Gold.PLP.Chemscore.Hbond>
4.8499

> <Gold.PLP.Chemscore.CHOScore>
0.0000

> <Gold.PLP.Chemscore.Metal>
0.0000

> <Gold.Chemscore.Hbonds>
donor molecule, donor type, donor heavy atom, donor atom, acceptor molecule, acceptor atom, score
      L1  H     5    34       P1  7948  0.78
      L1  H     8    35       P1  7957  0.01
      L1  H    18    56       P1  8028  2.00
      L1  H    20    55       P1  7948  2.00

> <Gold.PLP.Chemscore.Internal.Correction>
0.3368

> <Gold.Rescore>
     Score         DG    S(hbond)    S(metal)    S(lipo)     H(rot)  DE(clash)    DE(int)     intcor
     20.78     -24.49       2.86        0.00     112.32       1.45       0.21       3.50       ----

> <Gold.Chemscore.Fitness>
20.7758

> <Gold.Chemscore.DG>
-24.4851

> <Gold.Chemscore.ZeroCoef>
-5.4800

> <Gold.Chemscore.Hbond>
2.8637

> <Gold.Chemscore.Metal>
0.0000

> <Gold.Chemscore.Lipo>
112.3212

> <Gold.Chemscore.Internal_Hbond>
0.0000

> <Gold.Chemscore.DEClash>
0.2135

> <Gold.Chemscore.DEInternal>
3.4959

> <Gold.Chemscore.Rot>
1.4458

> <Gold.Chemscore.Internal.Correction>
   9.000000E+99

> <Gold.Chemscore.Hbonds>
donor molecule, donor type, donor heavy atom, donor atom, acceptor molecule, acceptor atom, score
      L1  H     5    34       P1  7948  0.78
      L1  H     8    35       P1  7957  0.02
      L1  H    18    56       P1  8028  0.99
      L1  H    20    55       P1  7948  1.00

> <Gold.Chemscore.Hbond.Weighted>
-9.5647

> <Gold.Chemscore.Metal.Weighted>
-0.0000

> <Gold.Chemscore.Lipo.Weighted>
-13.1416

> <Gold.Chemscore.Internal_Hbond.Weighted>
0.0000

> <Gold.Chemscore.DEClash.Weighted>
0.2135

> <Gold.Chemscore.DEInternal.Weighted>
3.4959

> <Gold.Chemscore.Rot.Weighted>
3.7012

> <Gold.Chemscore.Internal.Correction.Weighted>
   9.000000E+99

> <Gold.Protein.RotatedTorsions>
[ 6907 6896 6895 6894 ] final -153.84 input  -60.11 | X-H torsion
[ 7974 7965 7964 7962 ] final -126.88 input  175.53 | X-H torsion
[ 8008 7997 7996 7995 ] final   70.93 input   59.86 | X-H torsion
[ 10167 10162 10161 10158 ] final  -88.07 input  -65.29 | X-H torsion
[ 10718 10713 10712 10709 ] final -121.47 input   66.30 | X-H torsion
[ 10763 10752 10751 10750 ] final  153.69 input  -60.55 | X-H torsion
[ 11005 11000 10999 10996 ] final  -68.50 input  -57.11 | X-H torsion

> <Gold.Protein.ActiveResidues>
 VAL166  LYS551  ARG553  GLY616  TRP617  ASP618  TYR619  PRO620  LYS621  CYS622 
 ASP623  PHE694  ASN695  SER759  ASP760  ASP761  ALA762  ILE779  LEU786  VAL792 
 PHE793  MET794  SER795  GLU796  ALA797  LYS798  CYS799  TRP800  GLU811  SER814 

> <Gold.Protein.RotatedAtoms>
  151.2486  133.4362  159.2610 H   0  0  0  0  0  0  0  0  0  0  0  0  # atno 6907 bound_to 6896
  151.0638  134.9754  159.8284 H   0  0  0  0  0  0  0  0  0  0  0  0  # atno 6908 bound_to 6896
  152.5402  134.2435  159.8924 H   0  0  0  0  0  0  0  0  0  0  0  0  # atno 6909 bound_to 6896
  144.9828  140.7656  143.4602 H   0  0  0  0  0  0  0  0  0  0  0  0  # atno 7974 bound_to 7965
  155.7462  140.3489  155.5128 H   0  0  0  0  0  0  0  0  0  0  0  0  # atno 8008 bound_to 7997
  155.9048  140.1040  157.1344 H   0  0  0  0  0  0  0  0  0  0  0  0  # atno 8009 bound_to 7997
  154.4048  140.1279  156.4469 H   0  0  0  0  0  0  0  0  0  0  0  0  # atno 8010 bound_to 7997
  140.3782  143.2761  151.9416 H   0  0  0  0  0  0  0  0  0  0  0  0  # atno 10167 bound_to 10162
  156.1340  130.6416  150.9666 H   0  0  0  0  0  0  0  0  0  0  0  0  # atno 10718 bound_to 10713
  154.1402  135.2821  155.3163 H   0  0  0  0  0  0  0  0  0  0  0  0  # atno 10763 bound_to 10752
  154.6292  135.5441  153.7665 H   0  0  0  0  0  0  0  0  0  0  0  0  # atno 10764 bound_to 10752
  153.0253  135.6458  154.1549 H   0  0  0  0  0  0  0  0  0  0  0  0  # atno 10765 bound_to 10752
  141.1533  133.6742  156.6455 H   0  0  0  0  0  0  0  0  0  0  0  0  # atno 11005 bound_to 11000
  145.2397  139.2078  143.4999 LP  0  0  0  0  0  0  0  0  0  0  0  0  # atno 17320 bound_to 7965
  146.3412  140.2290  142.8593 LP  0  0  0  0  0  0  0  0  0  0  0  0  # atno 17321 bound_to 7965
  139.4797  144.5843  151.7880 LP  0  0  0  0  0  0  0  0  0  0  0  0  # atno 17342 bound_to 10162
  140.4964  144.1234  150.5961 LP  0  0  0  0  0  0  0  0  0  0  0  0  # atno 17343 bound_to 10162
  157.6515  131.0896  150.8041 LP  0  0  0  0  0  0  0  0  0  0  0  0  # atno 17370 bound_to 10713
  156.8123  130.4956  149.5354 LP  0  0  0  0  0  0  0  0  0  0  0  0  # atno 17371 bound_to 10713
  140.3360  134.7888  157.4362 LP  0  0  0  0  0  0  0  0  0  0  0  0  # atno 17394 bound_to 11000
  140.0977  134.5515  155.8383 LP  0  0  0  0  0  0  0  0  0  0  0  0  # atno 17395 bound_to 11000

$$$$
