AV-unprocessed.smi:160|AV-procd|sdf|1347|dock8
  -GOLD-   2262019 53D 1   1.00000     0.00000
 Structure written by MMmdl.
 29 30  0  0  0  0  0  0  0  0  1 V2000
  150.1244  138.3175  158.9136 N   0  0  0  0  0  0  0  0  0  0  0  0
  150.9388  137.5507  158.1821 C   0  0  0  0  0  0  0  0  0  0  0  0
  151.6589  136.6881  158.6828 O   0  0  0  0  0  0  0  0  0  0  0  0
  150.9268  137.8012  156.6998 C   0  0  0  0  0  0  0  0  0  0  0  0
  151.7118  137.0893  155.8353 N   0  0  0  0  0  0  0  0  0  0  0  0
  151.3404  137.6637  154.6986 C   0  0  0  0  0  0  0  0  0  0  0  0
  150.4446  138.6470  154.8478 N   0  0  0  0  0  0  0  0  0  0  0  0
  149.7336  139.4847  153.8319 C   0  0  2  0  0  0  0  0  0  0  0  0
  149.9655  140.8297  154.1363 O   0  0  0  0  0  0  0  0  0  0  0  0
  148.8179  141.4271  154.7364 C   0  0  2  0  0  0  0  0  0  0  0  0
  148.8595  141.2534  156.2726 C   0  0  0  0  0  0  0  0  0  0  0  0
  149.5534  142.3338  156.8586 O   0  0  0  0  0  0  0  0  0  0  0  0
  147.6799  140.6837  154.0226 C   0  0  2  0  0  0  0  0  0  0  0  0
  146.4598  140.7206  154.7362 O   0  0  0  0  0  0  0  0  0  0  0  0
  148.2093  139.2615  153.8843 C   0  0  1  0  0  0  0  0  0  0  0  0
  147.7218  138.6847  152.6898 O   0  0  0  0  0  0  0  0  0  0  0  0
  150.1343  138.7298  156.1653 N   0  0  0  0  0  0  0  0  0  0  0  0
  150.2013  139.2175  152.8833 H   0  0  0  0  0  0  0  0  0  0  0  0
  148.7786  142.4898  154.4936 H   0  0  0  0  0  0  0  0  0  0  0  0
  147.5349  141.1313  153.0376 H   0  0  0  0  0  0  0  0  0  0  0  0
  147.9385  138.6562  154.7513 H   0  0  0  0  0  0  0  0  0  0  0  0
  150.0861  138.1996  159.9153 H   0  0  0  0  0  0  0  0  0  0  0  0
  149.5519  139.0122  158.4560 H   0  0  0  0  0  0  0  0  0  0  0  0
  151.7315  137.3630  153.7375 H   0  0  0  0  0  0  0  0  0  0  0  0
  147.8515  141.2734  156.6863 H   0  0  0  0  0  0  0  0  0  0  0  0
  149.3027  140.3068  156.5776 H   0  0  0  0  0  0  0  0  0  0  0  0
  149.4662  143.0875  156.2951 H   0  0  0  0  0  0  0  0  0  0  0  0
  145.8896  140.0545  154.3832 H   0  0  0  0  0  0  0  0  0  0  0  0
  148.1520  137.8525  152.5632 H   0  0  0  0  0  0  0  0  0  0  0  0
  1  2  1  0  0  0  0
  1 22  1  0  0  0  0
  1 23  1  0  0  0  0
  2  3  2  0  0  0  0
  2  4  1  0  0  0  0
  4 17  2  0  0  0  0
  4  5  1  0  0  0  0
  5  6  2  0  0  0  0
  6  7  1  0  0  0  0
  6 24  1  0  0  0  0
  7  8  1  0  0  0  0
  7 17  1  0  0  0  0
  8 18  1  0  0  0  0
  8 15  1  0  0  0  0
  8  9  1  0  0  0  0
  9 10  1  0  0  0  0
 10 19  1  0  0  0  0
 10 11  1  0  0  0  0
 10 13  1  0  0  0  0
 11 12  1  0  0  0  0
 11 25  1  0  0  0  0
 11 26  1  0  0  0  0
 12 27  1  0  0  0  0
 13 20  1  0  0  0  0
 13 14  1  0  0  0  0
 13 15  1  0  0  0  0
 14 28  1  0  0  0  0
 15 21  1  0  0  0  0
 15 16  1  0  0  0  0
 16 29  1  0  0  0  0
M  END
> <s_m_source_file>
AV-unprocessed.smi

> <i_m_source_file_index>
160

> <i_lp_mmshare_version>
43012

> <i_f3d_flags>
0

> <s_epik_input>
W05IMl1DKD1PKWMxbltjSF1uKG4xKVtDQEBIXTJPW0NASF0oW0NIMl1bT0hdKVtDQEBIXShbT0hdKVtDQEhdMltPSF0=

> <s_epik_cmdline>
J2VwaWtfcHl0aG9uJywgJy1waCcsICc3LjAnLCAnLXRuJywgJzgnLCAnLW1hJywgJzIwMCcsICctbWV0YWxfYmluZGluZycsICctaW1hZScsICc8aW5maWxlLm1hZT4nLCAnLW9tYWUnLCAnPG91dGZpbGUubWFlPic=

> <r_lp_tautomer_probability>
1

> <r_epik_Ionization_Penalty>
1.06932e-05

> <r_epik_Ionization_Penalty_Charging>
0

> <r_epik_Ionization_Penalty_Neutral>
1.06932e-05

> <r_epik_State_Penalty>
-0

> <r_epik_Charging_Adjusted_Penalty>
0

> <i_epik_Tot_Q>
0

> <i_epik_Tot_abs_Q>
0

> <r_epik_Metal_State_Penalty>
0.0142097

> <b_epik_Metal_Only>
0

> <s_epik_Chemistry_Notes>
This compound contains an acetal/aminal-like group ( X-CH(R)-Y where X, Y are N, S, or O) that may be acid/base labile, releasing an aldehyde.

> <s_lp_Force_Field>
OPLS_2005

> <r_lp_Energy>
36.3531

> <b_lp_Chiralities_Consistent>
1

> <s_lp_Variant>
AV-unprocessed.smi:160-5

> <Gold.Version>
5.8.1

> <Gold.Id.Protein>
6NUR|6NUR_protein|mol2

> <Gold.PLP.Fitness>
37.2526

> <Gold.PLP.PLP>
-22.0712

> <Gold.PLP.part.hbond>
-5.7690

> <Gold.PLP.part.metal>
0.0000

> <Gold.PLP.part.buried>
-0.2331

> <Gold.PLP.part.nonpolar>
-16.3134

> <Gold.PLP.part.repulsive>
0.8306

> <Gold.PLP.ligand.clash>
0.0000

> <Gold.PLP.ligand.torsion>
0.3189

> <Gold.PLP.Chemscore.Hbond>
4.2543

> <Gold.PLP.Chemscore.CHOScore>
1.0000

> <Gold.PLP.Chemscore.Metal>
0.0000

> <Gold.Chemscore.Hbonds>
donor molecule, donor type, donor heavy atom, donor atom, acceptor molecule, acceptor atom, score
      L1  H    12    27       P1  8028  1.00
      L1  H    16    29       P1  7948  1.00
      P1  H  6896  6907       L1     3  0.78
      P1  H  7989  7998       L1     9  0.47
      P1  H  8011  8017       L1     9  0.02
      P1  H 10752 10765       L1     5  0.36
      L1  C     6    24       P1  7949  0.60

> <Gold.PLP.Chemscore.Internal.Correction>
0.0565

> <Gold.Rescore>
     Score         DG    S(hbond)    S(metal)    S(lipo)     H(rot)  DE(clash)    DE(int)     intcor
      6.19      -9.26       3.41        0.00      23.67       4.06       1.06       2.01       ----

> <Gold.Chemscore.Fitness>
6.1945

> <Gold.Chemscore.DG>
-9.2605

> <Gold.Chemscore.ZeroCoef>
-5.4800

> <Gold.Chemscore.Hbond>
3.4148

> <Gold.Chemscore.Metal>
0.0000

> <Gold.Chemscore.Lipo>
23.6652

> <Gold.Chemscore.Internal_Hbond>
0.0000

> <Gold.Chemscore.DEClash>
1.0550

> <Gold.Chemscore.DEInternal>
2.0110

> <Gold.Chemscore.Rot>
4.0600

> <Gold.Chemscore.Internal.Correction>
   9.000000E+99

> <Gold.Chemscore.Hbonds>
donor molecule, donor type, donor heavy atom, donor atom, acceptor molecule, acceptor atom, score
      L1  H    12    27       P1  8028  1.00
      L1  H    16    29       P1  7948  1.00
      P1  H  6896  6907       L1     3  0.76
      P1  H  7989  7998       L1     9  0.07
      P1  H 10752 10765       L1     5  0.06

> <Gold.Chemscore.Hbond.Weighted>
-11.4053

> <Gold.Chemscore.Metal.Weighted>
-0.0000

> <Gold.Chemscore.Lipo.Weighted>
-2.7688

> <Gold.Chemscore.Internal_Hbond.Weighted>
0.0000

> <Gold.Chemscore.DEClash.Weighted>
1.0550

> <Gold.Chemscore.DEInternal.Weighted>
2.0110

> <Gold.Chemscore.Rot.Weighted>
10.3936

> <Gold.Chemscore.Internal.Correction.Weighted>
   9.000000E+99

> <Gold.Protein.RotatedTorsions>
[ 6907 6896 6895 6894 ] final   -4.46 input  -60.11 | X-H torsion
[ 7974 7965 7964 7962 ] final  -26.76 input  175.53 | X-H torsion
[ 8008 7997 7996 7995 ] final  -59.99 input   59.86 | X-H torsion
[ 10167 10162 10161 10158 ] final   93.98 input  -65.29 | X-H torsion
[ 10718 10713 10712 10709 ] final  109.83 input   66.30 | X-H torsion
[ 10763 10752 10751 10750 ] final -157.60 input  -60.55 | X-H torsion
[ 11005 11000 10999 10996 ] final -170.78 input  -57.11 | X-H torsion

> <Gold.Protein.ActiveResidues>
 VAL166  LYS551  ARG553  GLY616  TRP617  ASP618  TYR619  PRO620  LYS621  CYS622 
 ASP623  PHE694  ASN695  SER759  ASP760  ASP761  ALA762  ILE779  LEU786  VAL792 
 PHE793  MET794  SER795  GLU796  ALA797  LYS798  CYS799  TRP800  GLU811  SER814 

> <Gold.Protein.RotatedAtoms>
  151.4973  135.1060  159.9819 H   0  0  0  0  0  0  0  0  0  0  0  0  # atno 6907 bound_to 6896
  152.4716  133.8039  159.6978 H   0  0  0  0  0  0  0  0  0  0  0  0  # atno 6908 bound_to 6896
  150.8729  133.7417  159.2981 H   0  0  0  0  0  0  0  0  0  0  0  0  # atno 6909 bound_to 6896
  146.1404  140.5062  142.8654 H   0  0  0  0  0  0  0  0  0  0  0  0  # atno 7974 bound_to 7965
  154.4377  140.1049  156.6202 H   0  0  0  0  0  0  0  0  0  0  0  0  # atno 8008 bound_to 7997
  155.5715  140.3489  155.4498 H   0  0  0  0  0  0  0  0  0  0  0  0  # atno 8009 bound_to 7997
  156.0386  140.1277  157.0170 H   0  0  0  0  0  0  0  0  0  0  0  0  # atno 8010 bound_to 7997
  139.8127  144.6766  150.9620 H   0  0  0  0  0  0  0  0  0  0  0  0  # atno 10167 bound_to 10162
  157.6523  131.0921  150.6512 H   0  0  0  0  0  0  0  0  0  0  0  0  # atno 10718 bound_to 10713
  154.7623  135.3121  154.8354 H   0  0  0  0  0  0  0  0  0  0  0  0  # atno 10763 bound_to 10752
  153.9112  135.6805  153.4755 H   0  0  0  0  0  0  0  0  0  0  0  0  # atno 10764 bound_to 10752
  153.1225  135.4816  154.9150 H   0  0  0  0  0  0  0  0  0  0  0  0  # atno 10765 bound_to 10752
  140.5157  134.5759  157.5032 H   0  0  0  0  0  0  0  0  0  0  0  0  # atno 11005 bound_to 11000
  144.7786  140.5792  143.6621 LP  0  0  0  0  0  0  0  0  0  0  0  0  # atno 17320 bound_to 7965
  145.5060  139.1481  143.3631 LP  0  0  0  0  0  0  0  0  0  0  0  0  # atno 17321 bound_to 7965
  140.7817  143.4169  151.0903 LP  0  0  0  0  0  0  0  0  0  0  0  0  # atno 17342 bound_to 10162
  139.7835  143.8322  152.3141 LP  0  0  0  0  0  0  0  0  0  0  0  0  # atno 17343 bound_to 10162
  156.6822  130.4570  149.5624 LP  0  0  0  0  0  0  0  0  0  0  0  0  # atno 17370 bound_to 10713
  156.1921  130.6566  151.1073 LP  0  0  0  0  0  0  0  0  0  0  0  0  # atno 17371 bound_to 10713
  139.9634  134.7414  156.0189 LP  0  0  0  0  0  0  0  0  0  0  0  0  # atno 17394 bound_to 11000
  141.1362  133.6574  156.3599 LP  0  0  0  0  0  0  0  0  0  0  0  0  # atno 17395 bound_to 11000

$$$$
