AV-unprocessed.smi:2326|AV-procd|sdf|9297|dock4
  -GOLD-   2272012513D 1   1.00000     0.00000
 Structure written by MMmdl.
 37 38  0  0  0  0  0  0  0  0  1 V2000
  153.5071  141.8068  161.0508 C   0  0  0  0  0  0  0  0  0  0  0  0
  152.6226  142.8532  160.4056 C   0  0  0  0  0  0  0  0  0  0  0  0
  152.5189  144.1494  160.9476 C   0  0  0  0  0  0  0  0  0  0  0  0
  151.6744  145.0713  160.3037 C   0  0  0  0  0  0  0  0  0  0  0  0
  150.9718  144.6619  159.1539 C   0  0  0  0  0  0  0  0  0  0  0  0
  151.1327  143.3425  158.6742 C   0  0  0  0  0  0  0  0  0  0  0  0
  150.3734  143.0253  157.5170 N   0  0  0  0  0  0  0  0  0  0  0  0
  150.2654  141.8388  156.8937 C   0  0  0  0  0  0  0  0  0  0  0  0
  150.8978  140.8244  157.1877 O   0  0  0  0  0  0  0  0  0  0  0  0
  149.3694  141.9033  155.8941 N   0  0  0  0  0  0  0  0  0  0  0  0
  148.9256  140.8311  154.9904 C   0  0  0  0  0  0  0  0  0  0  0  0
  150.1359  139.9739  154.5617 C   0  0  0  0  0  0  0  0  0  0  0  0
  147.8279  139.9490  155.6353 C   0  0  0  0  0  0  0  0  0  0  0  0
  146.5268  140.7345  155.8794 C   0  0  0  0  0  0  0  0  0  0  0  0
  146.0571  141.2828  154.6532 O   0  0  0  0  0  0  0  0  0  0  0  0
  146.9719  142.2034  154.0705 C   0  0  0  0  0  0  0  0  0  0  0  0
  148.3007  141.4947  153.7439 C   0  0  0  0  0  0  0  0  0  0  0  0
  151.9504  142.4609  159.3021 N   0  0  0  0  0  0  0  0  0  0  0  0
  154.1512  142.2488  161.8115 H   0  0  0  0  0  0  0  0  0  0  0  0
  154.1429  141.3295  160.3044 H   0  0  0  0  0  0  0  0  0  0  0  0
  152.8966  141.0376  161.5245 H   0  0  0  0  0  0  0  0  0  0  0  0
  153.0695  144.4317  161.8332 H   0  0  0  0  0  0  0  0  0  0  0  0
  151.5653  146.0755  160.6861 H   0  0  0  0  0  0  0  0  0  0  0  0
  150.3164  145.3569  158.6491 H   0  0  0  0  0  0  0  0  0  0  0  0
  149.8226  143.7820  157.1397 H   0  0  0  0  0  0  0  0  0  0  0  0
  148.9234  142.7971  155.7490 H   0  0  0  0  0  0  0  0  0  0  0  0
  149.8467  139.2219  153.8268 H   0  0  0  0  0  0  0  0  0  0  0  0
  150.5784  139.4415  155.4036 H   0  0  0  0  0  0  0  0  0  0  0  0
  150.9168  140.5876  154.1112 H   0  0  0  0  0  0  0  0  0  0  0  0
  147.6038  139.1124  154.9721 H   0  0  0  0  0  0  0  0  0  0  0  0
  148.1705  139.4984  156.5663 H   0  0  0  0  0  0  0  0  0  0  0  0
  145.7615  140.0704  156.2812 H   0  0  0  0  0  0  0  0  0  0  0  0
  146.6745  141.5268  156.6147 H   0  0  0  0  0  0  0  0  0  0  0  0
  146.5302  142.6047  153.1583 H   0  0  0  0  0  0  0  0  0  0  0  0
  147.1285  143.0494  154.7413 H   0  0  0  0  0  0  0  0  0  0  0  0
  148.9994  142.2032  153.2965 H   0  0  0  0  0  0  0  0  0  0  0  0
  148.1087  140.7371  152.9826 H   0  0  0  0  0  0  0  0  0  0  0  0
  1  2  1  0  0  0  0
  1 19  1  0  0  0  0
  1 20  1  0  0  0  0
  1 21  1  0  0  0  0
  2 18  1  0  0  0  0
  2  3  2  0  0  0  0
  3  4  1  0  0  0  0
  3 22  1  0  0  0  0
  4  5  2  0  0  0  0
  4 23  1  0  0  0  0
  5  6  1  0  0  0  0
  5 24  1  0  0  0  0
  6  7  1  0  0  0  0
  6 18  2  0  0  0  0
  7  8  1  0  0  0  0
  7 25  1  0  0  0  0
  8  9  2  0  0  0  0
  8 10  1  0  0  0  0
 10 11  1  0  0  0  0
 10 26  1  0  0  0  0
 11 17  1  0  0  0  0
 11 12  1  0  0  0  0
 11 13  1  0  0  0  0
 12 27  1  0  0  0  0
 12 28  1  0  0  0  0
 12 29  1  0  0  0  0
 13 14  1  0  0  0  0
 13 30  1  0  0  0  0
 13 31  1  0  0  0  0
 14 15  1  0  0  0  0
 14 32  1  0  0  0  0
 14 33  1  0  0  0  0
 15 16  1  0  0  0  0
 16 17  1  0  0  0  0
 16 34  1  0  0  0  0
 16 35  1  0  0  0  0
 17 36  1  0  0  0  0
 17 37  1  0  0  0  0
M  END
> <s_m_source_file>
AV-unprocessed.smi

> <i_m_source_file_index>
2326

> <i_lp_mmshare_version>
43012

> <i_f3d_flags>
0

> <s_epik_input>
W0NIM11jMVtjSF1bY0hdW2NIXWMobjEpW05IXUMoPU8pW05IXUMyKFtDSDNdKVtDSDJdW0NIMl1PW0NIMl1bQ0gyXTI=

> <s_epik_cmdline>
J2VwaWtfcHl0aG9uJywgJy1waCcsICc3LjAnLCAnLXRuJywgJzgnLCAnLW1hJywgJzIwMCcsICctbWV0YWxfYmluZGluZycsICctaW1hZScsICc8aW5maWxlLm1hZT4nLCAnLW9tYWUnLCAnPG91dGZpbGUubWFlPic=

> <r_lp_tautomer_probability>
1

> <r_epik_Ionization_Penalty>
8.85415e-05

> <r_epik_Ionization_Penalty_Charging>
0

> <r_epik_Ionization_Penalty_Neutral>
8.85415e-05

> <r_epik_State_Penalty>
-0

> <r_epik_Charging_Adjusted_Penalty>
0

> <i_epik_Tot_Q>
0

> <i_epik_Tot_abs_Q>
0

> <r_epik_Metal_State_Penalty>
-0

> <b_epik_Metal_Only>
0

> <s_lp_Force_Field>
OPLS_2005

> <r_lp_Energy>
11.1562

> <b_lp_Chiralities_Consistent>
1

> <s_lp_Variant>
AV-unprocessed.smi:2326-1

> <Gold.Version>
5.8.1

> <Gold.Id.Protein>
6NUR|6NUR_protein|mol2

> <Gold.PLP.Fitness>
42.1565

> <Gold.PLP.PLP>
-37.0111

> <Gold.PLP.part.hbond>
-2.0000

> <Gold.PLP.part.metal>
0.0000

> <Gold.PLP.part.buried>
-5.2578

> <Gold.PLP.part.nonpolar>
-29.4074

> <Gold.PLP.part.repulsive>
0.2771

> <Gold.PLP.ligand.clash>
0.0000

> <Gold.PLP.ligand.torsion>
0.4309

> <Gold.PLP.Chemscore.Hbond>
2.0000

> <Gold.PLP.Chemscore.CHOScore>
0.0000

> <Gold.PLP.Chemscore.Metal>
0.0000

> <Gold.Chemscore.Hbonds>
donor molecule, donor type, donor heavy atom, donor atom, acceptor molecule, acceptor atom, score
      L1  H     7    25       P1  8028  1.00
      L1  H    10    26       P1  8028  1.00

> <Gold.PLP.Chemscore.Internal.Correction>
0.0073

> <Gold.Rescore>
     Score         DG    S(hbond)    S(metal)    S(lipo)     H(rot)  DE(clash)    DE(int)     intcor
     16.74     -19.89       1.93        0.00      89.87       1.00       0.09       3.06       ----

> <Gold.Chemscore.Fitness>
16.7426

> <Gold.Chemscore.DG>
-19.8851

> <Gold.Chemscore.ZeroCoef>
-5.4800

> <Gold.Chemscore.Hbond>
1.9311

> <Gold.Chemscore.Metal>
0.0000

> <Gold.Chemscore.Lipo>
89.8737

> <Gold.Chemscore.Internal_Hbond>
0.0000

> <Gold.Chemscore.DEClash>
0.0873

> <Gold.Chemscore.DEInternal>
3.0551

> <Gold.Chemscore.Rot>
1.0000

> <Gold.Chemscore.Internal.Correction>
   9.000000E+99

> <Gold.Chemscore.Hbonds>
donor molecule, donor type, donor heavy atom, donor atom, acceptor molecule, acceptor atom, score
      L1  H     7    25       P1  8028  0.87
      L1  H    10    26       P1  8028  0.98

> <Gold.Chemscore.Hbond.Weighted>
-6.4499

> <Gold.Chemscore.Metal.Weighted>
-0.0000

> <Gold.Chemscore.Lipo.Weighted>
-10.5152

> <Gold.Chemscore.Internal_Hbond.Weighted>
0.0000

> <Gold.Chemscore.DEClash.Weighted>
0.0873

> <Gold.Chemscore.DEInternal.Weighted>
3.0551

> <Gold.Chemscore.Rot.Weighted>
2.5600

> <Gold.Chemscore.Internal.Correction.Weighted>
   9.000000E+99

> <Gold.Protein.RotatedTorsions>
[ 6907 6896 6895 6894 ] final  -53.62 input  -60.11 | X-H torsion
[ 7974 7965 7964 7962 ] final   80.48 input  175.53 | X-H torsion
[ 8008 7997 7996 7995 ] final  175.78 input   59.86 | X-H torsion
[ 10167 10162 10161 10158 ] final -128.48 input  -65.29 | X-H torsion
[ 10718 10713 10712 10709 ] final  -40.48 input   66.30 | X-H torsion
[ 10763 10752 10751 10750 ] final  117.71 input  -60.55 | X-H torsion
[ 11005 11000 10999 10996 ] final   63.47 input  -57.11 | X-H torsion

> <Gold.Protein.ActiveResidues>
 VAL166  LYS551  ARG553  GLY616  TRP617  ASP618  TYR619  PRO620  LYS621  CYS622 
 ASP623  PHE694  ASN695  SER759  ASP760  ASP761  ALA762  ILE779  LEU786  VAL792 
 PHE793  MET794  SER795  GLU796  ALA797  LYS798  CYS799  TRP800  GLU811  SER814 

> <Gold.Protein.RotatedAtoms>
  150.8410  134.7702  159.6931 H   0  0  0  0  0  0  0  0  0  0  0  0  # atno 6907 bound_to 6896
  152.4497  134.5416  159.9850 H   0  0  0  0  0  0  0  0  0  0  0  0  # atno 6908 bound_to 6896
  151.5556  133.3373  159.2997 H   0  0  0  0  0  0  0  0  0  0  0  0  # atno 6909 bound_to 6896
  145.6507  139.2447  143.1978 H   0  0  0  0  0  0  0  0  0  0  0  0  # atno 7974 bound_to 7965
  156.0835  140.1400  156.9683 H   0  0  0  0  0  0  0  0  0  0  0  0  # atno 8008 bound_to 7997
  154.4599  140.0947  156.6911 H   0  0  0  0  0  0  0  0  0  0  0  0  # atno 8009 bound_to 7997
  155.5038  140.3451  155.4378 H   0  0  0  0  0  0  0  0  0  0  0  0  # atno 8010 bound_to 7997
  139.9498  143.6068  152.2479 H   0  0  0  0  0  0  0  0  0  0  0  0  # atno 10167 bound_to 10162
  156.2809  130.4217  149.8338 H   0  0  0  0  0  0  0  0  0  0  0  0  # atno 10718 bound_to 10713
  153.5566  135.3529  155.2781 H   0  0  0  0  0  0  0  0  0  0  0  0  # atno 10763 bound_to 10752
  154.8700  135.4126  154.2878 H   0  0  0  0  0  0  0  0  0  0  0  0  # atno 10764 bound_to 10752
  153.3615  135.7060  153.6777 H   0  0  0  0  0  0  0  0  0  0  0  0  # atno 10765 bound_to 10752
  140.0022  134.6424  155.9912 H   0  0  0  0  0  0  0  0  0  0  0  0  # atno 11005 bound_to 11000
  146.1206  140.7314  142.9459 LP  0  0  0  0  0  0  0  0  0  0  0  0  # atno 17320 bound_to 7965
  144.7123  140.4086  143.7070 LP  0  0  0  0  0  0  0  0  0  0  0  0  # atno 17321 bound_to 7965
  139.6637  144.7662  151.1913 LP  0  0  0  0  0  0  0  0  0  0  0  0  # atno 17342 bound_to 10162
  140.7586  143.5970  150.8738 LP  0  0  0  0  0  0  0  0  0  0  0  0  # atno 17343 bound_to 10162
  156.5786  130.8456  151.3376 LP  0  0  0  0  0  0  0  0  0  0  0  0  # atno 17370 bound_to 10713
  157.7314  130.9699  150.1878 LP  0  0  0  0  0  0  0  0  0  0  0  0  # atno 17371 bound_to 10713
  141.1650  133.6537  156.4450 LP  0  0  0  0  0  0  0  0  0  0  0  0  # atno 17394 bound_to 11000
  140.4707  134.6756  157.5127 LP  0  0  0  0  0  0  0  0  0  0  0  0  # atno 17395 bound_to 11000

$$$$
