AV-unprocessed.smi:1394|AV-procd|sdf|5667|dock8
  -GOLD-   22720 5293D 1   1.00000     0.00000
 Structure written by MMmdl.
 41 42  0  0  0  0  0  0  0  0  1 V2000
  148.0382  138.6271  156.9663 C   0  0  0  0  0  0  0  0  0  0  0  0
  147.4962  139.6333  155.9366 C   0  0  2  0  0  0  0  0  0  0  0  0
  147.9793  139.2987  154.5101 C   0  0  0  0  0  0  0  0  0  0  0  0
  147.3803  140.2597  153.4705 C   0  0  0  0  0  0  0  0  0  0  0  0
  147.6833  141.7241  153.8208 C   0  0  0  0  0  0  0  0  0  0  0  0
  147.2088  142.0672  155.2440 C   0  0  0  0  0  0  0  0  0  0  0  0
  147.7968  141.1110  156.3014 C   0  0  2  0  0  0  0  0  0  0  0  0
  149.2323  141.3623  156.4459 N   0  0  0  0  0  0  0  0  0  0  0  0
  149.8533  141.8137  157.5464 C   0  0  0  0  0  0  0  0  0  0  0  0
  149.2661  142.0696  158.5984 O   0  0  0  0  0  0  0  0  0  0  0  0
  151.3733  141.9908  157.4208 C   0  0  0  0  0  0  0  0  0  0  0  0
  152.0691  142.0585  158.7171 N   0  0  0  0  0  0  0  0  0  0  0  0
  151.7707  143.1627  159.5351 C   0  0  0  0  0  0  0  0  0  0  0  0
  152.3453  143.3285  160.7338 C   0  0  0  0  0  0  0  0  0  0  0  0
  153.2918  142.3355  161.1794 C   0  0  0  0  0  0  0  0  0  0  0  0
  153.6041  141.2656  160.4118 C   0  0  0  0  0  0  0  0  0  0  0  0
  154.5977  140.2016  160.8723 C   0  0  0  0  0  0  0  0  0  0  0  0
  154.0813  138.9808  160.7267 F   0  0  0  0  0  0  0  0  0  0  0  0
  155.7194  140.2681  160.1545 F   0  0  0  0  0  0  0  0  0  0  0  0
  154.9255  140.3532  162.1565 F   0  0  0  0  0  0  0  0  0  0  0  0
  152.9685  141.0957  159.0889 C   0  0  0  0  0  0  0  0  0  0  0  0
  153.2274  140.1440  158.3505 O   0  0  0  0  0  0  0  0  0  0  0  0
  149.1281  138.6096  156.9801 H   0  0  0  0  0  0  0  0  0  0  0  0
  147.6978  137.6163  156.7402 H   0  0  0  0  0  0  0  0  0  0  0  0
  147.6948  138.8717  157.9718 H   0  0  0  0  0  0  0  0  0  0  0  0
  146.4105  139.5224  155.9410 H   0  0  0  0  0  0  0  0  0  0  0  0
  149.0682  139.3436  154.4650 H   0  0  0  0  0  0  0  0  0  0  0  0
  147.7056  138.2743  154.2552 H   0  0  0  0  0  0  0  0  0  0  0  0
  147.7718  140.0266  152.4798 H   0  0  0  0  0  0  0  0  0  0  0  0
  146.3008  140.1134  153.4182 H   0  0  0  0  0  0  0  0  0  0  0  0
  148.7549  141.9071  153.7329 H   0  0  0  0  0  0  0  0  0  0  0  0
  147.2001  142.3844  153.1001 H   0  0  0  0  0  0  0  0  0  0  0  0
  147.4649  143.0998  155.4842 H   0  0  0  0  0  0  0  0  0  0  0  0
  146.1201  142.0111  155.2786 H   0  0  0  0  0  0  0  0  0  0  0  0
  147.3001  141.3357  157.2470 H   0  0  0  0  0  0  0  0  0  0  0  0
  149.8012  141.1797  155.6320 H   0  0  0  0  0  0  0  0  0  0  0  0
  151.7708  141.1641  156.8296 H   0  0  0  0  0  0  0  0  0  0  0  0
  151.5733  142.8837  156.8260 H   0  0  0  0  0  0  0  0  0  0  0  0
  151.0567  143.8620  159.1245 H   0  0  0  0  0  0  0  0  0  0  0  0
  152.1074  144.1839  161.3489 H   0  0  0  0  0  0  0  0  0  0  0  0
  153.7511  142.4641  162.1480 H   0  0  0  0  0  0  0  0  0  0  0  0
  1  2  1  0  0  0  0
  1 23  1  0  0  0  0
  1 24  1  0  0  0  0
  1 25  1  0  0  0  0
  2  7  1  0  0  0  0
  2  3  1  0  0  0  0
  2 26  1  0  0  0  0
  3  4  1  0  0  0  0
  3 27  1  0  0  0  0
  3 28  1  0  0  0  0
  4  5  1  0  0  0  0
  4 29  1  0  0  0  0
  4 30  1  0  0  0  0
  5  6  1  0  0  0  0
  5 31  1  0  0  0  0
  5 32  1  0  0  0  0
  6  7  1  0  0  0  0
  6 33  1  0  0  0  0
  6 34  1  0  0  0  0
  7  8  1  0  0  0  0
  7 35  1  0  0  0  0
  8  9  1  0  0  0  0
  8 36  1  0  0  0  0
  9 10  2  0  0  0  0
  9 11  1  0  0  0  0
 11 12  1  0  0  0  0
 11 37  1  0  0  0  0
 11 38  1  0  0  0  0
 12 21  1  0  0  0  0
 12 13  1  0  0  0  0
 13 14  2  0  0  0  0
 13 39  1  0  0  0  0
 14 15  1  0  0  0  0
 14 40  1  0  0  0  0
 15 16  2  0  0  0  0
 15 41  1  0  0  0  0
 16 17  1  0  0  0  0
 16 21  1  0  0  0  0
 17 18  1  0  0  0  0
 17 19  1  0  0  0  0
 17 20  1  0  0  0  0
 21 22  2  0  0  0  0
M  END
> <s_m_source_file>
AV-unprocessed.smi

> <i_m_source_file_index>
1394

> <i_lp_mmshare_version>
43012

> <i_f3d_flags>
0

> <s_epik_input>
W0NIM11bQ0BASF0xW0NIMl1bQ0gyXVtDSDJdW0NIMl1bQ0BIXTFbTkhdQyg9TylbQ0gyXW4yW2NIXVtjSF1bY0hdYyhDKEYpKEYpRiljMj1P

> <s_epik_cmdline>
J2VwaWtfcHl0aG9uJywgJy1waCcsICc3LjAnLCAnLXRuJywgJzgnLCAnLW1hJywgJzIwMCcsICctbWV0YWxfYmluZGluZycsICctaW1hZScsICc8aW5maWxlLm1hZT4nLCAnLW9tYWUnLCAnPG91dGZpbGUubWFlPic=

> <r_lp_tautomer_probability>
1

> <r_epik_Ionization_Penalty>
2.11487e-08

> <r_epik_Ionization_Penalty_Charging>
2.10183e-09

> <r_epik_Ionization_Penalty_Neutral>
1.90469e-08

> <r_epik_State_Penalty>
-0

> <r_epik_Charging_Adjusted_Penalty>
2.10183e-09

> <i_epik_Tot_Q>
0

> <i_epik_Tot_abs_Q>
0

> <r_epik_Metal_State_Penalty>
-0

> <b_epik_Metal_Only>
0

> <s_lp_Force_Field>
OPLS_2005

> <r_lp_Energy>
20.183

> <b_lp_Chiralities_Consistent>
1

> <s_lp_Variant>
AV-unprocessed.smi:1394-3

> <Gold.Version>
5.8.1

> <Gold.Id.Protein>
6NUR|6NUR_protein|mol2

> <Gold.PLP.Fitness>
42.6049

> <Gold.PLP.PLP>
-40.4765

> <Gold.PLP.part.hbond>
-1.4373

> <Gold.PLP.part.metal>
0.0000

> <Gold.PLP.part.buried>
-2.8878

> <Gold.PLP.part.nonpolar>
-34.3506

> <Gold.PLP.part.repulsive>
0.1174

> <Gold.PLP.ligand.clash>
0.0614

> <Gold.PLP.ligand.torsion>
0.5686

> <Gold.PLP.Chemscore.Hbond>
0.9920

> <Gold.PLP.Chemscore.CHOScore>
0.0000

> <Gold.PLP.Chemscore.Metal>
0.0000

> <Gold.Chemscore.Hbonds>
donor molecule, donor type, donor heavy atom, donor atom, acceptor molecule, acceptor atom, score
      P1  H  7997  8008       L1    22  0.99

> <Gold.PLP.Chemscore.Internal.Correction>
0.3510

> <Gold.Rescore>
     Score         DG    S(hbond)    S(metal)    S(lipo)     H(rot)  DE(clash)    DE(int)     intcor
     11.45     -14.96       0.95        0.00      87.43       1.52       0.11       3.41       ----

> <Gold.Chemscore.Fitness>
11.4461

> <Gold.Chemscore.DG>
-14.9650

> <Gold.Chemscore.ZeroCoef>
-5.4800

> <Gold.Chemscore.Hbond>
0.9452

> <Gold.Chemscore.Metal>
0.0000

> <Gold.Chemscore.Lipo>
87.4348

> <Gold.Chemscore.Internal_Hbond>
0.0000

> <Gold.Chemscore.DEClash>
0.1082

> <Gold.Chemscore.DEInternal>
3.4107

> <Gold.Chemscore.Rot>
1.5242

> <Gold.Chemscore.Internal.Correction>
   9.000000E+99

> <Gold.Chemscore.Hbonds>
donor molecule, donor type, donor heavy atom, donor atom, acceptor molecule, acceptor atom, score
      P1  H  7997  8008       L1    22  0.94

> <Gold.Chemscore.Hbond.Weighted>
-3.1570

> <Gold.Chemscore.Metal.Weighted>
-0.0000

> <Gold.Chemscore.Lipo.Weighted>
-10.2299

> <Gold.Chemscore.Internal_Hbond.Weighted>
0.0000

> <Gold.Chemscore.DEClash.Weighted>
0.1082

> <Gold.Chemscore.DEInternal.Weighted>
3.4107

> <Gold.Chemscore.Rot.Weighted>
3.9019

> <Gold.Chemscore.Internal.Correction.Weighted>
   9.000000E+99

> <Gold.Protein.RotatedTorsions>
[ 6907 6896 6895 6894 ] final    6.64 input  -60.11 | X-H torsion
[ 7974 7965 7964 7962 ] final   95.75 input  175.53 | X-H torsion
[ 8008 7997 7996 7995 ] final  -88.39 input   59.86 | X-H torsion
[ 10167 10162 10161 10158 ] final  168.16 input  -65.29 | X-H torsion
[ 10718 10713 10712 10709 ] final   74.90 input   66.30 | X-H torsion
[ 10763 10752 10751 10750 ] final  103.59 input  -60.55 | X-H torsion
[ 11005 11000 10999 10996 ] final  -94.66 input  -57.11 | X-H torsion

> <Gold.Protein.ActiveResidues>
 VAL166  LYS551  ARG553  GLY616  TRP617  ASP618  TYR619  PRO620  LYS621  CYS622 
 ASP623  PHE694  ASN695  SER759  ASP760  ASP761  ALA762  ILE779  LEU786  VAL792 
 PHE793  MET794  SER795  GLU796  ALA797  LYS798  CYS799  TRP800  GLU811  SER814 

> <Gold.Protein.RotatedAtoms>
  151.6770  135.0967  160.0208 H   0  0  0  0  0  0  0  0  0  0  0  0  # atno 6907 bound_to 6896
  152.3858  133.6604  159.6206 H   0  0  0  0  0  0  0  0  0  0  0  0  # atno 6908 bound_to 6896
  150.7784  133.8955  159.3367 H   0  0  0  0  0  0  0  0  0  0  0  0  # atno 6909 bound_to 6896
  145.4480  139.2295  143.3055 H   0  0  0  0  0  0  0  0  0  0  0  0  # atno 7974 bound_to 7965
  154.6742  140.0554  157.0198 H   0  0  0  0  0  0  0  0  0  0  0  0  # atno 8008 bound_to 7997
  155.1044  140.3232  155.4519 H   0  0  0  0  0  0  0  0  0  0  0  0  # atno 8009 bound_to 7997
  156.2669  140.2025  156.6170 H   0  0  0  0  0  0  0  0  0  0  0  0  # atno 8010 bound_to 7997
  139.4961  144.3844  151.9587 H   0  0  0  0  0  0  0  0  0  0  0  0  # atno 10167 bound_to 10162
  157.6612  130.9700  150.1277 H   0  0  0  0  0  0  0  0  0  0  0  0  # atno 10718 bound_to 10713
  153.3546  135.3971  155.1672 H   0  0  0  0  0  0  0  0  0  0  0  0  # atno 10763 bound_to 10752
  154.8668  135.3665  154.5177 H   0  0  0  0  0  0  0  0  0  0  0  0  # atno 10764 bound_to 10752
  153.5632  135.7080  153.5598 H   0  0  0  0  0  0  0  0  0  0  0  0  # atno 10765 bound_to 10752
  141.1464  133.7972  157.0329 H   0  0  0  0  0  0  0  0  0  0  0  0  # atno 11005 bound_to 11000
  146.2520  140.5236  142.8889 LP  0  0  0  0  0  0  0  0  0  0  0  0  # atno 17320 bound_to 7965
  144.8079  140.6333  143.6435 LP  0  0  0  0  0  0  0  0  0  0  0  0  # atno 17321 bound_to 7965
  140.3280  144.3349  150.5994 LP  0  0  0  0  0  0  0  0  0  0  0  0  # atno 17342 bound_to 10162
  140.5668  143.2185  151.7669 LP  0  0  0  0  0  0  0  0  0  0  0  0  # atno 17343 bound_to 10162
  156.2132  130.3668  149.8645 LP  0  0  0  0  0  0  0  0  0  0  0  0  # atno 17370 bound_to 10713
  156.6518  130.8746  151.3532 LP  0  0  0  0  0  0  0  0  0  0  0  0  # atno 17371 bound_to 10713
  140.0742  134.9685  157.1518 LP  0  0  0  0  0  0  0  0  0  0  0  0  # atno 17394 bound_to 11000
  140.3667  134.2435  155.7181 LP  0  0  0  0  0  0  0  0  0  0  0  0  # atno 17395 bound_to 11000

$$$$
