AV-unprocessed.smi:434|AV-procd|sdf|2553|dock6
  -GOLD-   2262022523D 1   1.00000     0.00000
 Structure written by MMmdl.
 39 41  0  0  0  0  0  0  0  0  1 V2000
  152.1233  138.7188  155.8312 C   0  0  0  0  0  0  0  0  0  0  0  0
  152.1921  139.8053  156.8571 C   0  0  0  0  0  0  0  0  0  0  0  0
  152.8946  139.6771  157.9826 N   0  0  0  0  0  0  0  0  0  0  0  0
  152.6868  140.8909  158.6091 C   0  0  0  0  0  0  0  0  0  0  0  0
  153.1646  141.3794  159.8463 C   0  0  0  0  0  0  0  0  0  0  0  0
  152.8136  142.6725  160.2865 C   0  0  0  0  0  0  0  0  0  0  0  0
  151.9807  143.4934  159.4989 C   0  0  0  0  0  0  0  0  0  0  0  0
  151.4933  143.0260  158.2631 C   0  0  0  0  0  0  0  0  0  0  0  0
  151.8471  141.7348  157.8276 C   0  0  0  0  0  0  0  0  0  0  0  0
  151.5444  140.9853  156.6945 N   0  0  0  0  0  0  0  0  0  0  0  0
  150.7076  141.3995  155.5758 C   0  0  0  0  0  0  0  0  0  0  0  0
  149.2008  141.2745  155.8794 C   0  0  1  0  0  0  0  0  0  0  0  0
  148.8226  142.3052  156.7708 O   0  0  0  0  0  0  0  0  0  0  0  0
  148.3471  141.3921  154.6070 C   0  0  0  0  0  0  0  0  0  0  0  0
  147.1223  142.0300  154.9294 O   0  0  0  0  0  0  0  0  0  0  0  0
  146.4985  142.6190  153.8019 C   0  0  0  0  0  0  0  0  0  0  0  0
  145.4840  143.5757  154.3300 C   0  0  0  0  0  0  0  0  0  0  0  0
  145.0001  143.8389  155.5819 C   0  0  0  0  0  0  0  0  0  0  0  0
  144.0405  144.8780  155.4305 C   0  0  0  0  0  0  0  0  0  0  0  0
  144.0117  145.1722  154.0970 C   0  0  0  0  0  0  0  0  0  0  0  0
  144.8869  144.3870  153.4117 O   0  0  0  0  0  0  0  0  0  0  0  0
  152.6531  137.8313  156.1786 H   0  0  0  0  0  0  0  0  0  0  0  0
  152.5839  139.0502  154.9003 H   0  0  0  0  0  0  0  0  0  0  0  0
  151.0874  138.4432  155.6360 H   0  0  0  0  0  0  0  0  0  0  0  0
  153.8020  140.7581  160.4577 H   0  0  0  0  0  0  0  0  0  0  0  0
  153.1849  143.0357  161.2337 H   0  0  0  0  0  0  0  0  0  0  0  0
  151.7153  144.4819  159.8444 H   0  0  0  0  0  0  0  0  0  0  0  0
  150.8529  143.6516  157.6592 H   0  0  0  0  0  0  0  0  0  0  0  0
  150.9575  142.4292  155.3162 H   0  0  0  0  0  0  0  0  0  0  0  0
  150.9694  140.7990  154.7043 H   0  0  0  0  0  0  0  0  0  0  0  0
  149.0101  140.3121  156.3553 H   0  0  0  0  0  0  0  0  0  0  0  0
  148.7449  143.1103  156.2819 H   0  0  0  0  0  0  0  0  0  0  0  0
  148.8816  141.9270  153.8196 H   0  0  0  0  0  0  0  0  0  0  0  0
  148.1200  140.3960  154.2234 H   0  0  0  0  0  0  0  0  0  0  0  0
  147.2310  143.1405  153.1838 H   0  0  0  0  0  0  0  0  0  0  0  0
  146.0175  141.8575  153.1863 H   0  0  0  0  0  0  0  0  0  0  0  0
  145.3008  143.3454  156.4942 H   0  0  0  0  0  0  0  0  0  0  0  0
  143.4474  145.3509  156.1993 H   0  0  0  0  0  0  0  0  0  0  0  0
  143.4559  145.8764  153.4958 H   0  0  0  0  0  0  0  0  0  0  0  0
  1  2  1  0  0  0  0
  1 22  1  0  0  0  0
  1 23  1  0  0  0  0
  1 24  1  0  0  0  0
  2 10  1  0  0  0  0
  2  3  2  0  0  0  0
  3  4  1  0  0  0  0
  4  9  2  0  0  0  0
  4  5  1  0  0  0  0
  5  6  2  0  0  0  0
  5 25  1  0  0  0  0
  6  7  1  0  0  0  0
  6 26  1  0  0  0  0
  7  8  2  0  0  0  0
  7 27  1  0  0  0  0
  8  9  1  0  0  0  0
  8 28  1  0  0  0  0
  9 10  1  0  0  0  0
 10 11  1  0  0  0  0
 11 12  1  0  0  0  0
 11 29  1  0  0  0  0
 11 30  1  0  0  0  0
 12 13  1  0  0  0  0
 12 14  1  0  0  0  0
 12 31  1  0  0  0  0
 13 32  1  0  0  0  0
 14 15  1  0  0  0  0
 14 33  1  0  0  0  0
 14 34  1  0  0  0  0
 15 16  1  0  0  0  0
 16 17  1  0  0  0  0
 16 35  1  0  0  0  0
 16 36  1  0  0  0  0
 17 21  1  0  0  0  0
 17 18  2  0  0  0  0
 18 19  1  0  0  0  0
 18 37  1  0  0  0  0
 19 20  2  0  0  0  0
 19 38  1  0  0  0  0
 20 21  1  0  0  0  0
 20 39  1  0  0  0  0
M  END
> <s_m_source_file>
AV-unprocessed.smi

> <i_m_source_file_index>
434

> <i_lp_mmshare_version>
43012

> <i_f3d_flags>
0

> <s_epik_input>
W2NIXTFbY0hdW2NIXVtjSF1jKGMxMiluKGMobjIpW0NIM10pW0NIMl1bQ0BIXShbT0hdKVtDSDJdT1tDSDJdYzNbY0hdW2NIXVtjSF1vMw==

> <s_epik_cmdline>
J2VwaWtfcHl0aG9uJywgJy1waCcsICc3LjAnLCAnLXRuJywgJzgnLCAnLW1hJywgJzIwMCcsICctbWV0YWxfYmluZGluZycsICctaW1hZScsICc8aW5maWxlLm1hZT4nLCAnLW9tYWUnLCAnPG91dGZpbGUubWFlPic=

> <r_epik_Ionization_Penalty>
0.126634

> <r_epik_Ionization_Penalty_Charging>
0

> <r_epik_Ionization_Penalty_Neutral>
0.126634

> <r_epik_State_Penalty>
0.116082

> <r_epik_Charging_Adjusted_Penalty>
0.116082

> <i_epik_Tot_Q>
0

> <i_epik_Tot_abs_Q>
0

> <r_epik_Metal_State_Penalty>
0.00012822

> <b_epik_Metal_Only>
0

> <s_lp_Force_Field>
OPLS_2005

> <r_lp_Energy>
9.69126

> <b_lp_Chiralities_Consistent>
1

> <s_lp_Variant>
AV-unprocessed.smi:434-2

> <Gold.Version>
5.8.1

> <Gold.Id.Protein>
6NUR|6NUR_protein|mol2

> <Gold.PLP.Fitness>
46.4415

> <Gold.PLP.PLP>
-43.0823

> <Gold.PLP.part.hbond>
-2.0000

> <Gold.PLP.part.metal>
0.0000

> <Gold.PLP.part.buried>
-5.8150

> <Gold.PLP.part.nonpolar>
-33.7262

> <Gold.PLP.part.repulsive>
0.3128

> <Gold.PLP.ligand.clash>
0.0000

> <Gold.PLP.ligand.torsion>
1.0510

> <Gold.PLP.Chemscore.Hbond>
1.8000

> <Gold.PLP.Chemscore.CHOScore>
0.0000

> <Gold.PLP.Chemscore.Metal>
0.0000

> <Gold.Chemscore.Hbonds>
donor molecule, donor type, donor heavy atom, donor atom, acceptor molecule, acceptor atom, score
      L1  H    13    32       P1  8028  1.00
      P1  H  7997  8008       L1     3  0.75

> <Gold.PLP.Chemscore.Internal.Correction>
0.0611

> <Gold.Rescore>
     Score         DG    S(hbond)    S(metal)    S(lipo)     H(rot)  DE(clash)    DE(int)     intcor
     15.71     -16.80       0.98        0.00     120.46       2.36       0.09       1.00       ----

> <Gold.Chemscore.Fitness>
15.7096

> <Gold.Chemscore.DG>
-16.8020

> <Gold.Chemscore.ZeroCoef>
-5.4800

> <Gold.Chemscore.Hbond>
0.9783

> <Gold.Chemscore.Metal>
0.0000

> <Gold.Chemscore.Lipo>
120.4609

> <Gold.Chemscore.Internal_Hbond>
0.0000

> <Gold.Chemscore.DEClash>
0.0897

> <Gold.Chemscore.DEInternal>
1.0027

> <Gold.Chemscore.Rot>
2.3591

> <Gold.Chemscore.Internal.Correction>
   9.000000E+99

> <Gold.Chemscore.Hbonds>
donor molecule, donor type, donor heavy atom, donor atom, acceptor molecule, acceptor atom, score
      L1  H    13    32       P1  8028  0.98
      P1  H  7997  8008       L1     3  0.02

> <Gold.Chemscore.Hbond.Weighted>
-3.2674

> <Gold.Chemscore.Metal.Weighted>
-0.0000

> <Gold.Chemscore.Lipo.Weighted>
-14.0939

> <Gold.Chemscore.Internal_Hbond.Weighted>
0.0000

> <Gold.Chemscore.DEClash.Weighted>
0.0897

> <Gold.Chemscore.DEInternal.Weighted>
1.0027

> <Gold.Chemscore.Rot.Weighted>
6.0393

> <Gold.Chemscore.Internal.Correction.Weighted>
   9.000000E+99

> <Gold.Protein.RotatedTorsions>
[ 6907 6896 6895 6894 ] final -121.04 input  -60.11 | X-H torsion
[ 7974 7965 7964 7962 ] final   15.07 input  175.53 | X-H torsion
[ 8008 7997 7996 7995 ] final  -95.13 input   59.86 | X-H torsion
[ 10167 10162 10161 10158 ] final  150.97 input  -65.29 | X-H torsion
[ 10718 10713 10712 10709 ] final   45.23 input   66.30 | X-H torsion
[ 10763 10752 10751 10750 ] final   54.47 input  -60.55 | X-H torsion
[ 11005 11000 10999 10996 ] final  104.56 input  -57.11 | X-H torsion

> <Gold.Protein.ActiveResidues>
 VAL166  LYS551  ARG553  GLY616  TRP617  ASP618  TYR619  PRO620  LYS621  CYS622 
 ASP623  PHE694  ASN695  SER759  ASP760  ASP761  ALA762  ILE779  LEU786  VAL792 
 PHE793  MET794  SER795  GLU796  ALA797  LYS798  CYS799  TRP800  GLU811  SER814 

> <Gold.Protein.RotatedAtoms>
  150.8448  133.7879  159.3047 H   0  0  0  0  0  0  0  0  0  0  0  0  # atno 6907 bound_to 6896
  151.5570  135.1065  159.9973 H   0  0  0  0  0  0  0  0  0  0  0  0  # atno 6908 bound_to 6896
  152.4504  133.7575  159.6784 H   0  0  0  0  0  0  0  0  0  0  0  0  # atno 6909 bound_to 6896
  146.2288  139.8947  142.8549 H   0  0  0  0  0  0  0  0  0  0  0  0  # atno 7974 bound_to 7965
  154.7574  140.0483  157.0944 H   0  0  0  0  0  0  0  0  0  0  0  0  # atno 8008 bound_to 7997
  154.9981  140.3121  155.4859 H   0  0  0  0  0  0  0  0  0  0  0  0  # atno 8009 bound_to 7997
  156.2897  140.2206  156.5089 H   0  0  0  0  0  0  0  0  0  0  0  0  # atno 8010 bound_to 7997
  139.4845  144.5479  151.7451 H   0  0  0  0  0  0  0  0  0  0  0  0  # atno 10167 bound_to 10162
  157.4354  130.8049  149.7642 H   0  0  0  0  0  0  0  0  0  0  0  0  # atno 10718 bound_to 10713
  152.9805  135.5744  154.4909 H   0  0  0  0  0  0  0  0  0  0  0  0  # atno 10763 bound_to 10752
  154.4444  135.2776  155.1827 H   0  0  0  0  0  0  0  0  0  0  0  0  # atno 10764 bound_to 10752
  154.3482  135.6215  153.5683 H   0  0  0  0  0  0  0  0  0  0  0  0  # atno 10765 bound_to 10752
  139.8793  134.9305  156.5381 H   0  0  0  0  0  0  0  0  0  0  0  0  # atno 11005 bound_to 11000
  145.2382  140.9999  143.3951 LP  0  0  0  0  0  0  0  0  0  0  0  0  # atno 17320 bound_to 7965
  144.9473  139.4121  143.6419 LP  0  0  0  0  0  0  0  0  0  0  0  0  # atno 17321 bound_to 7965
  140.5029  144.1142  150.5975 LP  0  0  0  0  0  0  0  0  0  0  0  0  # atno 17342 bound_to 10162
  140.4041  143.2689  151.9912 LP  0  0  0  0  0  0  0  0  0  0  0  0  # atno 17343 bound_to 10162
  155.9928  130.3928  150.2925 LP  0  0  0  0  0  0  0  0  0  0  0  0  # atno 17370 bound_to 10713
  157.1085  131.0215  151.3057 LP  0  0  0  0  0  0  0  0  0  0  0  0  # atno 17371 bound_to 10713
  140.8331  133.8263  155.9003 LP  0  0  0  0  0  0  0  0  0  0  0  0  # atno 17394 bound_to 11000
  140.9310  134.2022  157.4864 LP  0  0  0  0  0  0  0  0  0  0  0  0  # atno 17395 bound_to 11000

$$$$
