AV-unprocessed.smi:72|AV-procd|sdf|733|dock6
  -GOLD-   2262017 63D 1   1.00000     0.00000
 Structure written by MMmdl.
 28 29  0  0  0  0  0  0  0  0  2 V2000
  152.8181  140.9340  159.0523 N   0  0  0  0  0  0  0  0  0  0  0  0
  152.1573  140.8879  157.9794 C   0  0  0  0  0  0  0  0  0  0  0  0
  151.1676  141.9034  157.6951 N   0  0  0  0  0  0  0  0  0  0  0  0
  150.4835  141.7922  156.5980 C   0  0  0  0  0  0  0  0  0  0  0  0
  150.6735  140.6740  155.6797 N   0  0  0  0  0  0  0  0  0  0  0  0
  149.8857  140.5320  154.3849 C   0  0  2  0  0  0  0  0  0  0  0  0
  149.0656  141.6458  154.1857 O   0  0  0  0  0  0  0  0  0  0  0  0
  147.7605  141.3748  154.6820 C   0  0  1  0  0  0  0  0  0  0  0  0
  146.7486  142.3416  154.0491 C   0  0  0  0  0  0  0  0  0  0  0  0
  145.4332  141.9569  154.3879 O   0  0  0  0  0  0  0  0  0  0  0  0
  147.5594  139.9170  154.2662 C   0  0  2  0  0  0  0  0  0  0  0  0
  146.6282  139.2843  155.1211 O   0  0  0  0  0  0  0  0  0  0  0  0
  148.9480  139.3046  154.4330 C   0  0  1  0  0  0  0  0  0  0  0  0
  149.2134  138.4047  153.3764 O   0  0  0  0  0  0  0  0  0  0  0  0
  151.6970  139.7272  155.9581 C   0  0  0  0  0  0  0  0  0  0  0  0
  151.8934  138.8284  155.1395 O   0  0  0  0  0  0  0  0  0  0  0  0
  152.4154  139.8533  157.1083 N   0  5  0  0  0  0  0  0  0  0  0  0
  150.6451  140.4934  153.6017 H   0  0  0  0  0  0  0  0  0  0  0  0
  147.7497  141.4524  155.7711 H   0  0  0  0  0  0  0  0  0  0  0  0
  147.2271  139.8624  153.2279 H   0  0  0  0  0  0  0  0  0  0  0  0
  149.0451  138.7944  155.3930 H   0  0  0  0  0  0  0  0  0  0  0  0
  152.5671  141.7217  159.6317 H   0  0  0  0  0  0  0  0  0  0  0  0
  149.7343  142.5272  156.3047 H   0  0  0  0  0  0  0  0  0  0  0  0
  146.9363  143.3706  154.3571 H   0  0  0  0  0  0  0  0  0  0  0  0
  146.8288  142.3086  152.9623 H   0  0  0  0  0  0  0  0  0  0  0  0
  145.0805  141.4382  153.6813 H   0  0  0  0  0  0  0  0  0  0  0  0
  145.7586  139.4712  154.8019 H   0  0  0  0  0  0  0  0  0  0  0  0
  149.1390  138.8786  152.5613 H   0  0  0  0  0  0  0  0  0  0  0  0
  1  2  2  0  0  0  0
  1 22  1  0  0  0  0
  2 17  1  0  0  0  0
  2  3  1  0  0  0  0
  3  4  2  0  0  0  0
  4  5  1  0  0  0  0
  4 23  1  0  0  0  0
  5  6  1  0  0  0  0
  5 15  1  0  0  0  0
  6 18  1  0  0  0  0
  6 13  1  0  0  0  0
  6  7  1  0  0  0  0
  7  8  1  0  0  0  0
  8 19  1  0  0  0  0
  8  9  1  0  0  0  0
  8 11  1  0  0  0  0
  9 10  1  0  0  0  0
  9 24  1  0  0  0  0
  9 25  1  0  0  0  0
 10 26  1  0  0  0  0
 11 20  1  0  0  0  0
 11 12  1  0  0  0  0
 11 13  1  0  0  0  0
 12 27  1  0  0  0  0
 13 21  1  0  0  0  0
 13 14  1  0  0  0  0
 14 28  1  0  0  0  0
 15 16  2  0  0  0  0
 15 17  1  0  0  0  0
M  CHG  1  17  -1
M  END
> <s_m_source_file>
AV-unprocessed.smi

> <i_m_source_file_index>
72

> <i_lp_mmshare_version>
43012

> <i_f3d_flags>
0

> <s_epik_input>
W05IMl1jMW5bY0hdbihjKD1PKW4xKVtDQEBIXTJPW0NASF0oW0NIMl1bT0hdKVtDQEBIXShbT0hdKVtDQEhdMltPSF0=

> <s_epik_cmdline>
J2VwaWtfcHl0aG9uJywgJy1waCcsICc3LjAnLCAnLXRuJywgJzgnLCAnLW1hJywgJzIwMCcsICctbWV0YWxfYmluZGluZycsICctaW1hZScsICc8aW5maWxlLm1hZT4nLCAnLW9tYWUnLCAnPG91dGZpbGUubWFlPic=

> <r_lp_tautomer_probability>
7.17554e-07

> <r_epik_Ionization_Penalty>
12.8705

> <r_epik_Ionization_Penalty_Charging>
5.64144

> <r_epik_Ionization_Penalty_Neutral>
7.22905

> <r_epik_State_Penalty>
3.30104

> <r_epik_Charging_Adjusted_Penalty>
8.94249

> <i_epik_Tot_Q>
-1

> <i_epik_Tot_abs_Q>
1

> <r_epik_Metal_State_Penalty>
0.529074

> <b_epik_Metal_Only>
1

> <s_epik_Chemistry_Notes>
This compound contains an acetal/aminal-like group ( X-CH(R)-Y where X, Y are N, S, or O) that may be acid/base labile, releasing an aldehyde.

> <s_lp_Force_Field>
OPLS_2005

> <r_lp_Energy>
30.1413

> <b_lp_Chiralities_Consistent>
1

> <s_lp_Variant>
AV-unprocessed.smi:72-71

> <Gold.Version>
5.8.1

> <Gold.Id.Protein>
6NUR|6NUR_protein|mol2

> <Gold.PLP.Fitness>
44.0131

> <Gold.PLP.PLP>
-27.8452

> <Gold.PLP.part.hbond>
-5.3444

> <Gold.PLP.part.metal>
0.0000

> <Gold.PLP.part.buried>
-2.5376

> <Gold.PLP.part.nonpolar>
-20.4369

> <Gold.PLP.part.repulsive>
0.2614

> <Gold.PLP.ligand.clash>
0.0000

> <Gold.PLP.ligand.torsion>
0.1363

> <Gold.PLP.Chemscore.Hbond>
4.4686

> <Gold.PLP.Chemscore.CHOScore>
1.0000

> <Gold.PLP.Chemscore.Metal>
0.0000

> <Gold.Chemscore.Hbonds>
donor molecule, donor type, donor heavy atom, donor atom, acceptor molecule, acceptor atom, score
      L1  H    10    26       P1 10175  0.88
      L1  H    14    28       P1  7957  1.00
      P1  H  7997  8008       L1    17  2.00
      P1  H  8011  8017       L1     7  0.43
      L1  C     4    23       P1  8028  1.00

> <Gold.PLP.Chemscore.Internal.Correction>
0.0347

> <Gold.Rescore>
     Score         DG    S(hbond)    S(metal)    S(lipo)     H(rot)  DE(clash)    DE(int)     intcor
      4.11      -5.61       2.32        0.00      23.31       4.04       1.24       0.26       ----

> <Gold.Chemscore.Fitness>
4.1067

> <Gold.Chemscore.DG>
-5.6052

> <Gold.Chemscore.ZeroCoef>
-5.4800

> <Gold.Chemscore.Hbond>
2.3177

> <Gold.Chemscore.Metal>
0.0000

> <Gold.Chemscore.Lipo>
23.3086

> <Gold.Chemscore.Internal_Hbond>
0.0000

> <Gold.Chemscore.DEClash>
1.2375

> <Gold.Chemscore.DEInternal>
0.2611

> <Gold.Chemscore.Rot>
4.0403

> <Gold.Chemscore.Internal.Correction>
   9.000000E+99

> <Gold.Chemscore.Hbonds>
donor molecule, donor type, donor heavy atom, donor atom, acceptor molecule, acceptor atom, score
      L1  H    10    26       P1 10175  0.19
      L1  H    14    28       P1  7957  0.96
      P1  H  7997  8008       L1    17  0.26
      P1  H  8011  8017       L1     7  0.17

> <Gold.Chemscore.Hbond.Weighted>
-7.7412

> <Gold.Chemscore.Metal.Weighted>
-0.0000

> <Gold.Chemscore.Lipo.Weighted>
-2.7271

> <Gold.Chemscore.Internal_Hbond.Weighted>
0.0000

> <Gold.Chemscore.DEClash.Weighted>
1.2375

> <Gold.Chemscore.DEInternal.Weighted>
0.2611

> <Gold.Chemscore.Rot.Weighted>
10.3431

> <Gold.Chemscore.Internal.Correction.Weighted>
   9.000000E+99

> <Gold.Protein.RotatedTorsions>
[ 6907 6896 6895 6894 ] final  119.03 input  -60.11 | X-H torsion
[ 7974 7965 7964 7962 ] final   15.35 input  175.53 | X-H torsion
[ 8008 7997 7996 7995 ] final  -54.61 input   59.86 | X-H torsion
[ 10167 10162 10161 10158 ] final  178.18 input  -65.29 | X-H torsion
[ 10718 10713 10712 10709 ] final  -13.08 input   66.30 | X-H torsion
[ 10763 10752 10751 10750 ] final   53.53 input  -60.55 | X-H torsion
[ 11005 11000 10999 10996 ] final  178.84 input  -57.11 | X-H torsion

> <Gold.Protein.ActiveResidues>
 VAL166  LYS551  ARG553  GLY616  TRP617  ASP618  TYR619  PRO620  LYS621  CYS622 
 ASP623  PHE694  ASN695  SER759  ASP760  ASP761  ALA762  ILE779  LEU786  VAL792 
 PHE793  MET794  SER795  GLU796  ALA797  LYS798  CYS799  TRP800  GLU811  SER814 

> <Gold.Protein.RotatedAtoms>
  152.4501  133.7612  159.6747 H   0  0  0  0  0  0  0  0  0  0  0  0  # atno 6907 bound_to 6896
  150.8410  133.7926  159.3067 H   0  0  0  0  0  0  0  0  0  0  0  0  # atno 6908 bound_to 6896
  151.5550  135.1069  160.0011 H   0  0  0  0  0  0  0  0  0  0  0  0  # atno 6909 bound_to 6896
  146.2281  139.8908  142.8555 H   0  0  0  0  0  0  0  0  0  0  0  0  # atno 7974 bound_to 7965
  154.4168  140.1172  156.5344 H   0  0  0  0  0  0  0  0  0  0  0  0  # atno 8008 bound_to 7997
  155.6572  140.3496  155.4750 H   0  0  0  0  0  0  0  0  0  0  0  0  # atno 8009 bound_to 7997
  155.9743  140.1147  157.0774 H   0  0  0  0  0  0  0  0  0  0  0  0  # atno 8010 bound_to 7997
  139.5283  144.2710  152.0628 H   0  0  0  0  0  0  0  0  0  0  0  0  # atno 10167 bound_to 10162
  156.6354  130.4913  149.6114 H   0  0  0  0  0  0  0  0  0  0  0  0  # atno 10718 bound_to 10713
  152.9796  135.5775  154.4757 H   0  0  0  0  0  0  0  0  0  0  0  0  # atno 10763 bound_to 10752
  154.4313  135.2773  155.1912 H   0  0  0  0  0  0  0  0  0  0  0  0  # atno 10764 bound_to 10752
  154.3619  135.6187  153.5749 H   0  0  0  0  0  0  0  0  0  0  0  0  # atno 10765 bound_to 10752
  140.3995  134.6790  157.4554 H   0  0  0  0  0  0  0  0  0  0  0  0  # atno 11005 bound_to 11000
  145.2420  141.0012  143.3930 LP  0  0  0  0  0  0  0  0  0  0  0  0  # atno 17320 bound_to 7965
  144.9444  139.4152  143.6433 LP  0  0  0  0  0  0  0  0  0  0  0  0  # atno 17321 bound_to 7965
  140.2170  144.4505  150.6359 LP  0  0  0  0  0  0  0  0  0  0  0  0  # atno 17342 bound_to 10162
  140.6443  143.2210  151.6220 LP  0  0  0  0  0  0  0  0  0  0  0  0  # atno 17343 bound_to 10162
  156.2201  130.6732  151.1359 LP  0  0  0  0  0  0  0  0  0  0  0  0  # atno 17370 bound_to 10713
  157.7187  131.0694  150.6223 LP  0  0  0  0  0  0  0  0  0  0  0  0  # atno 17371 bound_to 10713
  140.0346  134.6355  155.9060 LP  0  0  0  0  0  0  0  0  0  0  0  0  # atno 17394 bound_to 11000
  141.1862  133.6556  156.5228 LP  0  0  0  0  0  0  0  0  0  0  0  0  # atno 17395 bound_to 11000

$$$$
