AV-unprocessed.smi:1810|AV-procd|sdf|7334|dock9
  -GOLD-   22720 8593D 1   1.00000     0.00000
 Structure written by MMmdl.
 39 40  0  0  0  0  0  0  0  0  2 V2000
  151.0423  144.7387  159.3408 C   0  0  0  0  0  0  0  0  0  0  0  0
  151.6504  143.3748  159.1530 C   0  0  0  0  0  0  0  0  0  0  0  0
  151.3766  142.7635  158.0474 N   0  0  0  0  0  0  0  0  0  0  0  0
  151.8854  141.5091  157.7742 N   0  0  0  0  0  0  0  0  0  0  0  0
  151.4622  140.9609  156.4811 C   0  0  0  0  0  0  0  0  0  0  0  0
  149.9526  140.6774  156.4551 C   0  0  0  0  0  0  0  0  0  0  0  0
  149.4082  141.2248  155.2623 O   0  0  0  0  0  0  0  0  0  0  0  0
  148.1513  141.7889  155.3180 C   0  0  0  0  0  0  0  0  0  0  0  0
  147.4330  142.0187  156.5199 C   0  0  0  0  0  0  0  0  0  0  0  0
  146.1504  142.5996  156.4856 C   0  0  0  0  0  0  0  0  0  0  0  0
  145.5748  142.9559  155.2503 C   0  0  0  0  0  0  0  0  0  0  0  0
  143.9437  143.6991  155.2108 S   0  0  0  0  0  0  0  0  0  0  0  0
  144.0494  144.3504  153.7378 N   0  5  0  0  0  0  0  0  0  0  0  0
  142.9746  142.5941  155.2771 O   0  0  0  0  0  0  0  0  0  0  0  0
  143.9178  144.7087  156.2809 O   0  0  0  0  0  0  0  0  0  0  0  0
  146.2774  142.7345  154.0497 C   0  0  0  0  0  0  0  0  0  0  0  0
  147.5592  142.1530  154.0902 C   0  0  0  0  0  0  0  0  0  0  0  0
  152.7000  140.8022  158.6083 C   0  0  0  0  0  0  0  0  0  0  0  0
  153.1286  139.6826  158.3251 O   0  0  0  0  0  0  0  0  0  0  0  0
  153.0054  141.4997  159.8596 C   0  0  0  0  0  0  0  0  0  0  0  0
  153.8564  140.7943  160.7628 C   0  0  0  0  0  0  0  0  0  0  0  0
  154.5523  140.2096  161.4798 N   0  0  0  0  0  0  0  0  0  0  0  0
  152.5118  142.7319  160.1402 C   0  0  0  0  0  0  0  0  0  0  0  0
  152.7991  143.4987  161.4239 C   0  0  0  0  0  0  0  0  0  0  0  0
  151.8160  145.4880  159.5092 H   0  0  0  0  0  0  0  0  0  0  0  0
  150.3701  144.7472  160.1989 H   0  0  0  0  0  0  0  0  0  0  0  0
  150.4673  145.0517  158.4679 H   0  0  0  0  0  0  0  0  0  0  0  0
  151.7117  141.6606  155.6814 H   0  0  0  0  0  0  0  0  0  0  0  0
  152.0187  140.0501  156.2526 H   0  0  0  0  0  0  0  0  0  0  0  0
  149.7731  139.6017  156.4897 H   0  0  0  0  0  0  0  0  0  0  0  0
  149.4783  141.1314  157.3268 H   0  0  0  0  0  0  0  0  0  0  0  0
  147.8431  141.7569  157.4832 H   0  0  0  0  0  0  0  0  0  0  0  0
  145.6116  142.7663  157.4067 H   0  0  0  0  0  0  0  0  0  0  0  0
  143.4287  143.8235  153.1120 H   0  0  0  0  0  0  0  0  0  0  0  0
  145.8393  143.0037  153.1001 H   0  0  0  0  0  0  0  0  0  0  0  0
  148.0942  141.9834  153.1673 H   0  0  0  0  0  0  0  0  0  0  0  0
  153.4166  142.9277  162.1168 H   0  0  0  0  0  0  0  0  0  0  0  0
  151.8707  143.7439  161.9409 H   0  0  0  0  0  0  0  0  0  0  0  0
  153.3264  144.4275  161.2035 H   0  0  0  0  0  0  0  0  0  0  0  0
  1  2  1  0  0  0  0
  1 25  1  0  0  0  0
  1 26  1  0  0  0  0
  1 27  1  0  0  0  0
  2 23  1  0  0  0  0
  2  3  2  0  0  0  0
  3  4  1  0  0  0  0
  4  5  1  0  0  0  0
  4 18  1  0  0  0  0
  5  6  1  0  0  0  0
  5 28  1  0  0  0  0
  5 29  1  0  0  0  0
  6  7  1  0  0  0  0
  6 30  1  0  0  0  0
  6 31  1  0  0  0  0
  7  8  1  0  0  0  0
  8 17  1  0  0  0  0
  8  9  2  0  0  0  0
  9 10  1  0  0  0  0
  9 32  1  0  0  0  0
 10 11  2  0  0  0  0
 10 33  1  0  0  0  0
 11 12  1  0  0  0  0
 11 16  1  0  0  0  0
 12 13  1  0  0  0  0
 12 14  2  0  0  0  0
 12 15  2  0  0  0  0
 13 34  1  0  0  0  0
 16 17  2  0  0  0  0
 16 35  1  0  0  0  0
 17 36  1  0  0  0  0
 18 19  2  0  0  0  0
 18 20  1  0  0  0  0
 20 21  1  0  0  0  0
 20 23  2  0  0  0  0
 21 22  3  0  0  0  0
 23 24  1  0  0  0  0
 24 37  1  0  0  0  0
 24 38  1  0  0  0  0
 24 39  1  0  0  0  0
M  CHG  1  13  -1
M  END
> <s_m_source_file>
AV-unprocessed.smi

> <i_m_source_file_index>
1810

> <i_lp_mmshare_version>
43012

> <i_f3d_flags>
0

> <s_epik_input>
TiNDYyhjMVtDSDNdKWMoPU8pbihuYzFbQ0gzXSlbQ0gyXVtDSDJdT2MyW2NIXVtjSF1jKFMoPU8pKD1PKVtOSDJdKVtjSF1bY0hdMg==

> <s_epik_cmdline>
J2VwaWtfcHl0aG9uJywgJy1waCcsICc3LjAnLCAnLXRuJywgJzgnLCAnLW1hJywgJzIwMCcsICctbWV0YWxfYmluZGluZycsICctaW1hZScsICc8aW5maWxlLm1hZT4nLCAnLW9tYWUnLCAnPG91dGZpbGUubWFlPic=

> <r_lp_tautomer_probability>
1

> <r_epik_Ionization_Penalty>
4.40921

> <r_epik_Ionization_Penalty_Charging>
4.40921

> <r_epik_Ionization_Penalty_Neutral>
1.83918e-13

> <r_epik_State_Penalty>
4.40908

> <r_epik_Charging_Adjusted_Penalty>
8.81829

> <i_epik_Tot_Q>
-1

> <i_epik_Tot_abs_Q>
1

> <r_epik_Metal_State_Penalty>
0.775711

> <b_epik_Metal_Only>
1

> <s_lp_Force_Field>
OPLS_2005

> <r_lp_Energy>
29.6197

> <b_lp_Chiralities_Consistent>
1

> <s_lp_Variant>
AV-unprocessed.smi:1810-2

> <Gold.Version>
5.8.1

> <Gold.Id.Protein>
6NUR|6NUR_protein|mol2

> <Gold.PLP.Fitness>
47.8925

> <Gold.PLP.PLP>
-43.5463

> <Gold.PLP.part.hbond>
-2.0000

> <Gold.PLP.part.metal>
0.0000

> <Gold.PLP.part.buried>
-6.1084

> <Gold.PLP.part.nonpolar>
-34.2116

> <Gold.PLP.part.repulsive>
0.3974

> <Gold.PLP.ligand.clash>
0.0000

> <Gold.PLP.ligand.torsion>
1.8905

> <Gold.PLP.Chemscore.Hbond>
2.0000

> <Gold.PLP.Chemscore.CHOScore>
0.0000

> <Gold.PLP.Chemscore.Metal>
0.0000

> <Gold.Chemscore.Hbonds>
donor molecule, donor type, donor heavy atom, donor atom, acceptor molecule, acceptor atom, score
      L1  H    13    34       P1 10174  1.00
      P1  H  7997  8008       L1    19  1.00

> <Gold.PLP.Chemscore.Internal.Correction>
2.1274

> <Gold.Rescore>
     Score         DG    S(hbond)    S(metal)    S(lipo)     H(rot)  DE(clash)    DE(int)     intcor
     15.60     -17.55       1.91        0.00      91.00       1.94       0.08       1.87       ----

> <Gold.Chemscore.Fitness>
15.5991

> <Gold.Chemscore.DG>
-17.5515

> <Gold.Chemscore.ZeroCoef>
-5.4800

> <Gold.Chemscore.Hbond>
1.9123

> <Gold.Chemscore.Metal>
0.0000

> <Gold.Chemscore.Lipo>
90.9963

> <Gold.Chemscore.Internal_Hbond>
0.0000

> <Gold.Chemscore.DEClash>
0.0781

> <Gold.Chemscore.DEInternal>
1.8744

> <Gold.Chemscore.Rot>
1.9384

> <Gold.Chemscore.Internal.Correction>
   9.000000E+99

> <Gold.Chemscore.Hbonds>
donor molecule, donor type, donor heavy atom, donor atom, acceptor molecule, acceptor atom, score
      L1  H    13    34       P1 10174  0.98
      P1  H  7997  8008       L1    19  0.43

> <Gold.Chemscore.Hbond.Weighted>
-6.3872

> <Gold.Chemscore.Metal.Weighted>
-0.0000

> <Gold.Chemscore.Lipo.Weighted>
-10.6466

> <Gold.Chemscore.Internal_Hbond.Weighted>
0.0000

> <Gold.Chemscore.DEClash.Weighted>
0.0781

> <Gold.Chemscore.DEInternal.Weighted>
1.8744

> <Gold.Chemscore.Rot.Weighted>
4.9622

> <Gold.Chemscore.Internal.Correction.Weighted>
   9.000000E+99

> <Gold.Protein.RotatedTorsions>
[ 6907 6896 6895 6894 ] final   86.38 input  -60.11 | X-H torsion
[ 7974 7965 7964 7962 ] final  -45.80 input  175.53 | X-H torsion
[ 8008 7997 7996 7995 ] final  -89.32 input   59.86 | X-H torsion
[ 10167 10162 10161 10158 ] final  -99.59 input  -65.29 | X-H torsion
[ 10718 10713 10712 10709 ] final   55.18 input   66.30 | X-H torsion
[ 10763 10752 10751 10750 ] final   32.59 input  -60.55 | X-H torsion
[ 11005 11000 10999 10996 ] final   95.19 input  -57.11 | X-H torsion

> <Gold.Protein.ActiveResidues>
 VAL166  LYS551  ARG553  GLY616  TRP617  ASP618  TYR619  PRO620  LYS621  CYS622 
 ASP623  PHE694  ASN695  SER759  ASP760  ASP761  ALA762  ILE779  LEU786  VAL792 
 PHE793  MET794  SER795  GLU796  ALA797  LYS798  CYS799  TRP800  GLU811  SER814 

> <Gold.Protein.RotatedAtoms>
  152.5393  134.2441  159.8872 H   0  0  0  0  0  0  0  0  0  0  0  0  # atno 6907 bound_to 6896
  151.2407  133.4394  159.2615 H   0  0  0  0  0  0  0  0  0  0  0  0  # atno 6908 bound_to 6896
  151.0630  134.9762  159.8326 H   0  0  0  0  0  0  0  0  0  0  0  0  # atno 6909 bound_to 6896
  145.9784  140.7310  142.9376 H   0  0  0  0  0  0  0  0  0  0  0  0  # atno 7974 bound_to 7965
  154.6852  140.0543  157.0307 H   0  0  0  0  0  0  0  0  0  0  0  0  # atno 8008 bound_to 7997
  155.0895  140.3218  155.4559 H   0  0  0  0  0  0  0  0  0  0  0  0  # atno 8009 bound_to 7997
  156.2708  140.2050  156.6022 H   0  0  0  0  0  0  0  0  0  0  0  0  # atno 8010 bound_to 7997
  140.2609  143.3408  152.0627 H   0  0  0  0  0  0  0  0  0  0  0  0  # atno 10167 bound_to 10162
  157.5322  130.8638  149.8704 H   0  0  0  0  0  0  0  0  0  0  0  0  # atno 10718 bound_to 10713
  153.0254  135.6409  154.1379 H   0  0  0  0  0  0  0  0  0  0  0  0  # atno 10763 bound_to 10752
  154.1108  135.2853  155.3232 H   0  0  0  0  0  0  0  0  0  0  0  0  # atno 10764 bound_to 10752
  154.6333  135.5485  153.7767 H   0  0  0  0  0  0  0  0  0  0  0  0  # atno 10765 bound_to 10752
  139.8791  134.8886  156.3975 H   0  0  0  0  0  0  0  0  0  0  0  0  # atno 11005 bound_to 11000
  144.6855  140.2866  143.7284 LP  0  0  0  0  0  0  0  0  0  0  0  0  # atno 17320 bound_to 7965
  145.7806  139.1890  143.2160 LP  0  0  0  0  0  0  0  0  0  0  0  0  # atno 17321 bound_to 7965
  139.5017  144.6719  151.6221 LP  0  0  0  0  0  0  0  0  0  0  0  0  # atno 17342 bound_to 10162
  140.5967  143.9684  150.6359 LP  0  0  0  0  0  0  0  0  0  0  0  0  # atno 17343 bound_to 10162
  156.0431  130.3734  150.1385 LP  0  0  0  0  0  0  0  0  0  0  0  0  # atno 17370 bound_to 10713
  156.9569  130.9792  151.3487 LP  0  0  0  0  0  0  0  0  0  0  0  0  # atno 17371 bound_to 10713
  140.9290  133.7592  156.0000 LP  0  0  0  0  0  0  0  0  0  0  0  0  # atno 17394 bound_to 11000
  140.8353  134.3131  157.5334 LP  0  0  0  0  0  0  0  0  0  0  0  0  # atno 17395 bound_to 11000

$$$$
