AV-unprocessed.smi:112|AV-procd|sdf|1083|dock3
  -GOLD-   2262018173D 1   1.00000     0.00000
 Structure written by MMmdl.
 54 57  0  0  0  0  0  0  0  0  3 V2000
  148.5762  136.7930  158.8957 C   0  0  0  0  0  0  0  0  0  0  0  0
  149.7059  137.4919  158.1553 C   0  0  0  0  0  0  0  0  0  0  0  0
  149.5092  138.1266  156.9766 C   0  0  0  0  0  0  0  0  0  0  0  0
  150.5150  138.7725  156.2799 N   0  0  0  0  0  0  0  0  0  0  0  0
  150.2535  139.4997  154.9784 C   0  0  2  0  0  0  0  0  0  0  0  0
  149.4110  140.7596  155.2264 C   0  0  0  0  0  0  0  0  0  0  0  0
  148.3830  140.7003  154.1133 C   0  0  1  0  0  0  0  0  0  0  0  0
  148.8611  141.3596  152.9558 O   0  0  0  0  0  0  0  0  0  0  0  0
  148.2280  139.1894  153.9001 C   0  0  1  0  0  0  0  0  0  0  0  0
  147.6587  138.7313  152.5465 C   0  0  0  0  0  0  0  0  0  0  0  0
  147.6206  137.3215  152.4826 O   0  0  0  0  0  0  0  0  0  0  0  0
  149.5391  138.6721  154.1058 O   0  0  0  0  0  0  0  0  0  0  0  0
  151.8213  138.7992  156.8073 C   0  0  0  0  0  0  0  0  0  0  0  0
  152.7261  139.3967  156.2193 O   0  0  0  0  0  0  0  0  0  0  0  0
  152.0627  138.1367  158.0317 N   0  0  0  0  0  0  0  0  0  0  0  0
  153.4302  138.1739  158.5974 C   0  0  0  0  0  0  0  0  0  0  0  0
  153.5335  138.9644  159.9205 C   0  0  0  0  0  0  0  0  0  0  0  0
  153.4870  140.1947  159.8837 O   0  0  0  0  0  0  0  0  0  0  0  0
  153.6713  138.2595  161.0710 N   0  0  0  0  0  0  0  0  0  0  0  0
  153.7145  136.7875  161.1223 C   0  0  0  0  0  0  0  0  0  0  0  0
  153.8832  136.4097  162.6101 C   0  0  0  0  0  0  0  0  0  0  0  0
  153.9239  137.7432  163.2961 C   0  0  0  0  0  0  0  0  0  0  0  0
  154.0688  137.9736  164.6748 C   0  0  0  0  0  0  0  0  0  0  0  0
  154.0899  139.3096  165.1473 C   0  0  0  0  0  0  0  0  0  0  0  0
  154.2441  139.5901  166.5887 N   0  3  0  0  0  0  0  0  0  0  0  0
  154.5164  138.6567  167.3369 O   0  0  0  0  0  0  0  0  0  0  0  0
  154.0921  140.7444  166.9755 O   0  5  0  0  0  0  0  0  0  0  0  0
  153.9619  140.3735  164.2150 C   0  0  0  0  0  0  0  0  0  0  0  0
  153.8163  140.1235  162.8329 C   0  0  0  0  0  0  0  0  0  0  0  0
  153.7993  138.7850  162.3843 C   0  0  0  0  0  0  0  0  0  0  0  0
  151.0419  137.4729  158.7556 C   0  0  0  0  0  0  0  0  0  0  0  0
  151.2895  136.9268  159.8326 O   0  0  0  0  0  0  0  0  0  0  0  0
  147.6341  136.8530  158.3500 H   0  0  0  0  0  0  0  0  0  0  0  0
  148.4237  137.2484  159.8748 H   0  0  0  0  0  0  0  0  0  0  0  0
  148.8094  135.7375  159.0408 H   0  0  0  0  0  0  0  0  0  0  0  0
  148.5086  138.1243  156.5726 H   0  0  0  0  0  0  0  0  0  0  0  0
  151.2290  139.7019  154.5329 H   0  0  0  0  0  0  0  0  0  0  0  0
  148.9129  140.6813  156.1943 H   0  0  0  0  0  0  0  0  0  0  0  0
  150.0287  141.6586  155.2239 H   0  0  0  0  0  0  0  0  0  0  0  0
  147.4414  141.1644  154.4080 H   0  0  0  0  0  0  0  0  0  0  0  0
  149.1433  140.7057  152.3344 H   0  0  0  0  0  0  0  0  0  0  0  0
  147.5986  138.7949  154.6994 H   0  0  0  0  0  0  0  0  0  0  0  0
  146.6615  139.1356  152.3723 H   0  0  0  0  0  0  0  0  0  0  0  0
  148.2928  139.0933  151.7370 H   0  0  0  0  0  0  0  0  0  0  0  0
  148.4897  137.0060  152.2859 H   0  0  0  0  0  0  0  0  0  0  0  0
  153.8063  137.1629  158.7587 H   0  0  0  0  0  0  0  0  0  0  0  0
  154.1230  138.6034  157.8723 H   0  0  0  0  0  0  0  0  0  0  0  0
  152.7934  136.3591  160.7249 H   0  0  0  0  0  0  0  0  0  0  0  0
  154.5515  136.4030  160.5381 H   0  0  0  0  0  0  0  0  0  0  0  0
  153.0449  135.8166  162.9769 H   0  0  0  0  0  0  0  0  0  0  0  0
  154.8087  135.8608  162.7872 H   0  0  0  0  0  0  0  0  0  0  0  0
  154.1625  137.1363  165.3505 H   0  0  0  0  0  0  0  0  0  0  0  0
  153.9749  141.3994  164.5526 H   0  0  0  0  0  0  0  0  0  0  0  0
  153.7233  140.9605  162.1592 H   0  0  0  0  0  0  0  0  0  0  0  0
  1  2  1  0  0  0  0
  1 33  1  0  0  0  0
  1 34  1  0  0  0  0
  1 35  1  0  0  0  0
  2 31  1  0  0  0  0
  2  3  2  0  0  0  0
  3  4  1  0  0  0  0
  3 36  1  0  0  0  0
  4  5  1  0  0  0  0
  4 13  1  0  0  0  0
  5 12  1  0  0  0  0
  5  6  1  0  0  0  0
  5 37  1  0  0  0  0
  6  7  1  0  0  0  0
  6 38  1  0  0  0  0
  6 39  1  0  0  0  0
  7  8  1  0  0  0  0
  7  9  1  0  0  0  0
  7 40  1  0  0  0  0
  8 41  1  0  0  0  0
  9 10  1  0  0  0  0
  9 12  1  0  0  0  0
  9 42  1  0  0  0  0
 10 11  1  0  0  0  0
 10 43  1  0  0  0  0
 10 44  1  0  0  0  0
 11 45  1  0  0  0  0
 13 14  2  0  0  0  0
 13 15  1  0  0  0  0
 15 16  1  0  0  0  0
 15 31  1  0  0  0  0
 16 17  1  0  0  0  0
 16 46  1  0  0  0  0
 16 47  1  0  0  0  0
 17 18  2  0  0  0  0
 17 19  1  0  0  0  0
 19 30  1  0  0  0  0
 19 20  1  0  0  0  0
 20 21  1  0  0  0  0
 20 48  1  0  0  0  0
 20 49  1  0  0  0  0
 21 22  1  0  0  0  0
 21 50  1  0  0  0  0
 21 51  1  0  0  0  0
 22 30  2  0  0  0  0
 22 23  1  0  0  0  0
 23 24  2  0  0  0  0
 23 52  1  0  0  0  0
 24 25  1  0  0  0  0
 24 28  1  0  0  0  0
 25 26  2  0  0  0  0
 25 27  1  0  0  0  0
 28 29  2  0  0  0  0
 28 53  1  0  0  0  0
 29 30  1  0  0  0  0
 29 54  1  0  0  0  0
 31 32  2  0  0  0  0
M  CHG  1  25   1
M  CHG  1  27  -1
M  END
> <s_m_source_file>
AV-unprocessed.smi

> <i_m_source_file_index>
112

> <i_lp_mmshare_version>
43012

> <i_f3d_flags>
0

> <s_epik_input>
W09IXVtDSDJdW0NAQEhdKE8xKVtDQEhdKFtPSF0pW0NIMl1bQ0BIXTFuKFtjSF1jMltDSDNdKWMoPU8pbihjMj1PKVtDSDJdQyg9TylOKFtDSDJdW0NIMl0zKWMoYzM0KVtjSF1bY0hdYyhbY0hdNClbTitdKD1PKVtPLV0=

> <s_epik_cmdline>
J2VwaWtfcHl0aG9uJywgJy1waCcsICc3LjAnLCAnLXRuJywgJzgnLCAnLW1hJywgJzIwMCcsICctbWV0YWxfYmluZGluZycsICctaW1hZScsICc8aW5maWxlLm1hZT4nLCAnLW9tYWUnLCAnPG91dGZpbGUubWFlPic=

> <r_lp_tautomer_probability>
1

> <r_epik_Ionization_Penalty>
2.5696e-07

> <r_epik_Ionization_Penalty_Charging>
1.04886e-08

> <r_epik_Ionization_Penalty_Neutral>
2.46472e-07

> <r_epik_State_Penalty>
-0

> <r_epik_Charging_Adjusted_Penalty>
1.04886e-08

> <i_epik_Tot_Q>
0

> <i_epik_Tot_abs_Q>
2

> <r_epik_Metal_State_Penalty>
-0

> <b_epik_Metal_Only>
0

> <s_epik_Chemistry_Notes>
This compound contains an acetal/aminal-like group ( X-CH(R)-Y where X, Y are N, S, or O) that may be acid/base labile, releasing an aldehyde.

> <s_lp_Force_Field>
OPLS_2005

> <r_lp_Energy>
59.5699

> <b_lp_Chiralities_Consistent>
1

> <s_lp_Variant>
AV-unprocessed.smi:112-1

> <Gold.Version>
5.8.1

> <Gold.Id.Protein>
6NUR|6NUR_protein|mol2

> <Gold.PLP.Fitness>
59.2750

> <Gold.PLP.PLP>
-42.7161

> <Gold.PLP.part.hbond>
-6.6072

> <Gold.PLP.part.metal>
0.0000

> <Gold.PLP.part.buried>
-4.3326

> <Gold.PLP.part.nonpolar>
-31.8075

> <Gold.PLP.part.repulsive>
0.2990

> <Gold.PLP.ligand.clash>
0.0000

> <Gold.PLP.ligand.torsion>
0.4566

> <Gold.PLP.Chemscore.Hbond>
5.8145

> <Gold.PLP.Chemscore.CHOScore>
0.0000

> <Gold.PLP.Chemscore.Metal>
0.0000

> <Gold.Chemscore.Hbonds>
donor molecule, donor type, donor heavy atom, donor atom, acceptor molecule, acceptor atom, score
      L1  H     8    41       P1  7957  0.71
      P1  H  6896  6908       L1    32  1.00
      P1  H  7997  8009       L1    14  0.70
      P1  H  8011  8017       L1     8  0.55

> <Gold.PLP.Chemscore.Internal.Correction>
0.0286

> <Gold.Rescore>
     Score         DG    S(hbond)    S(metal)    S(lipo)     H(rot)  DE(clash)    DE(int)     intcor
     16.69     -19.15       3.95        0.00      76.16       3.29       0.25       2.22       ----

> <Gold.Chemscore.Fitness>
16.6876

> <Gold.Chemscore.DG>
-19.1541

> <Gold.Chemscore.ZeroCoef>
-5.4800

> <Gold.Chemscore.Hbond>
3.9491

> <Gold.Chemscore.Metal>
0.0000

> <Gold.Chemscore.Lipo>
76.1595

> <Gold.Chemscore.Internal_Hbond>
0.0000

> <Gold.Chemscore.DEClash>
0.2501

> <Gold.Chemscore.DEInternal>
2.2164

> <Gold.Chemscore.Rot>
3.2916

> <Gold.Chemscore.Internal.Correction>
   9.000000E+99

> <Gold.Chemscore.Hbonds>
donor molecule, donor type, donor heavy atom, donor atom, acceptor molecule, acceptor atom, score
      L1  H     8    41       P1  7957  0.71
      P1  H  6896  6908       L1    32  0.99
      P1  H  7997  8009       L1    14  0.69
      P1  H  8011  8017       L1     8  0.03

> <Gold.Chemscore.Hbond.Weighted>
-13.1900

> <Gold.Chemscore.Metal.Weighted>
-0.0000

> <Gold.Chemscore.Lipo.Weighted>
-8.9107

> <Gold.Chemscore.Internal_Hbond.Weighted>
0.0000

> <Gold.Chemscore.DEClash.Weighted>
0.2501

> <Gold.Chemscore.DEInternal.Weighted>
2.2164

> <Gold.Chemscore.Rot.Weighted>
8.4265

> <Gold.Chemscore.Internal.Correction.Weighted>
   9.000000E+99

> <Gold.Protein.RotatedTorsions>
[ 6907 6896 6895 6894 ] final -125.80 input  -60.11 | X-H torsion
[ 7974 7965 7964 7962 ] final   46.54 input  175.53 | X-H torsion
[ 8008 7997 7996 7995 ] final -130.62 input   59.86 | X-H torsion
[ 10167 10162 10161 10158 ] final -173.53 input  -65.29 | X-H torsion
[ 10718 10713 10712 10709 ] final  145.84 input   66.30 | X-H torsion
[ 10763 10752 10751 10750 ] final  140.67 input  -60.55 | X-H torsion
[ 11005 11000 10999 10996 ] final  166.72 input  -57.11 | X-H torsion

> <Gold.Protein.ActiveResidues>
 VAL166  LYS551  ARG553  GLY616  TRP617  ASP618  TYR619  PRO620  LYS621  CYS622 
 ASP623  PHE694  ASN695  SER759  ASP760  ASP761  ALA762  ILE779  LEU786  VAL792 
 PHE793  MET794  SER795  GLU796  ALA797  LYS798  CYS799  TRP800  GLU811  SER814 

> <Gold.Protein.RotatedAtoms>
  150.8904  133.7250  159.2906 H   0  0  0  0  0  0  0  0  0  0  0  0  # atno 6907 bound_to 6896
  151.4802  135.1050  159.9785 H   0  0  0  0  0  0  0  0  0  0  0  0  # atno 6908 bound_to 6896
  152.4817  133.8223  159.7115 H   0  0  0  0  0  0  0  0  0  0  0  0  # atno 6909 bound_to 6896
  146.0381  139.4845  142.9796 H   0  0  0  0  0  0  0  0  0  0  0  0  # atno 7974 bound_to 7965
  155.2989  140.0452  157.3028 H   0  0  0  0  0  0  0  0  0  0  0  0  # atno 8008 bound_to 7997
  154.5498  140.2314  155.8470 H   0  0  0  0  0  0  0  0  0  0  0  0  # atno 8009 bound_to 7997
  156.1957  140.3039  155.9429 H   0  0  0  0  0  0  0  0  0  0  0  0  # atno 8010 bound_to 7997
  139.5683  144.1701  152.1346 H   0  0  0  0  0  0  0  0  0  0  0  0  # atno 10167 bound_to 10162
  157.3404  131.0935  151.1087 H   0  0  0  0  0  0  0  0  0  0  0  0  # atno 10718 bound_to 10713
  153.9266  135.2995  155.3446 H   0  0  0  0  0  0  0  0  0  0  0  0  # atno 10763 bound_to 10752
  154.7548  135.4963  153.9358 H   0  0  0  0  0  0  0  0  0  0  0  0  # atno 10764 bound_to 10752
  153.1114  135.6760  153.9598 H   0  0  0  0  0  0  0  0  0  0  0  0  # atno 10765 bound_to 10752
  140.2694  134.7839  157.3662 H   0  0  0  0  0  0  0  0  0  0  0  0  # atno 11005 bound_to 11000
  145.6931  141.0158  143.1545 LP  0  0  0  0  0  0  0  0  0  0  0  0  # atno 17320 bound_to 7965
  144.7061  139.8556  143.7429 LP  0  0  0  0  0  0  0  0  0  0  0  0  # atno 17321 bound_to 7965
  140.1229  144.5357  150.6851 LP  0  0  0  0  0  0  0  0  0  0  0  0  # atno 17342 bound_to 10162
  140.6967  143.2408  151.4979 LP  0  0  0  0  0  0  0  0  0  0  0  0  # atno 17343 bound_to 10162
  157.2302  130.6521  149.5846 LP  0  0  0  0  0  0  0  0  0  0  0  0  # atno 17370 bound_to 10713
  155.9707  130.4601  150.6061 LP  0  0  0  0  0  0  0  0  0  0  0  0  # atno 17371 bound_to 10713
  140.1388  134.4999  155.8048 LP  0  0  0  0  0  0  0  0  0  0  0  0  # atno 17394 bound_to 11000
  141.2179  133.6817  156.7172 LP  0  0  0  0  0  0  0  0  0  0  0  0  # atno 17395 bound_to 11000

$$$$
