AV-unprocessed.smi:573|AV-procd|sdf|2974|dock5
  -GOLD-   2262023483D 1   1.00000     0.00000
 Structure written by MMmdl.
 44 46  0  0  0  0  0  0  0  0  1 V2000
  148.9336  137.8580  157.4681 C   0  0  0  0  0  0  0  0  0  0  0  0
  149.6747  137.7878  158.8095 C   0  0  1  0  0  0  0  0  0  0  0  0
  149.6764  136.4358  159.2172 O   0  0  0  0  0  0  0  0  0  0  0  0
  151.1284  138.2773  158.6860 C   0  0  0  0  0  0  0  0  0  0  0  0
  151.2271  139.5440  157.9826 N   0  0  0  0  0  0  0  0  0  0  0  0
  151.4293  140.8481  158.4190 C   0  0  0  0  0  0  0  0  0  0  0  0
  151.5847  141.1911  159.6962 N   0  0  0  0  0  0  0  0  0  0  0  0
  151.7579  142.5600  159.6135 C   0  0  0  0  0  0  0  0  0  0  0  0
  151.9724  143.5203  160.6280 C   0  0  0  0  0  0  0  0  0  0  0  0
  152.1281  144.8831  160.2997 C   0  0  0  0  0  0  0  0  0  0  0  0
  152.0730  145.3045  158.9554 C   0  0  0  0  0  0  0  0  0  0  0  0
  151.8581  144.3650  157.9286 C   0  0  0  0  0  0  0  0  0  0  0  0
  151.7003  143.0063  158.2609 C   0  0  0  0  0  0  0  0  0  0  0  0
  151.4776  141.8534  157.5134 N   0  0  0  0  0  0  0  0  0  0  0  0
  151.3370  141.7692  156.0664 C   0  0  0  0  0  0  0  0  0  0  0  0
  150.0540  141.0294  155.6541 C   0  0  1  0  0  0  0  0  0  0  0  0
  149.0298  141.9757  154.9998 C   0  0  0  0  0  0  0  0  0  0  0  0
  147.7961  141.1953  154.5328 C   0  0  0  0  0  0  0  0  0  0  0  0
  148.2316  140.0260  153.6434 C   0  0  0  0  0  0  0  0  0  0  0  0
  149.2932  139.1766  154.3598 C   0  0  0  0  0  0  0  0  0  0  0  0
  150.3973  139.9943  154.7339 O   0  0  0  0  0  0  0  0  0  0  0  0
  148.8837  138.8836  157.1014 H   0  0  0  0  0  0  0  0  0  0  0  0
  147.9101  137.4937  157.5641 H   0  0  0  0  0  0  0  0  0  0  0  0
  149.4315  137.2571  156.7060 H   0  0  0  0  0  0  0  0  0  0  0  0
  149.1326  138.3849  159.5443 H   0  0  0  0  0  0  0  0  0  0  0  0
  149.0500  135.9648  158.6880 H   0  0  0  0  0  0  0  0  0  0  0  0
  151.6061  138.3497  159.6639 H   0  0  0  0  0  0  0  0  0  0  0  0
  151.7080  137.5561  158.1093 H   0  0  0  0  0  0  0  0  0  0  0  0
  151.1164  139.4547  156.9830 H   0  0  0  0  0  0  0  0  0  0  0  0
  152.0185  143.2075  161.6606 H   0  0  0  0  0  0  0  0  0  0  0  0
  152.2920  145.6082  161.0833 H   0  0  0  0  0  0  0  0  0  0  0  0
  152.1964  146.3498  158.7124 H   0  0  0  0  0  0  0  0  0  0  0  0
  151.8184  144.6844  156.8977 H   0  0  0  0  0  0  0  0  0  0  0  0
  151.3512  142.7763  155.6486 H   0  0  0  0  0  0  0  0  0  0  0  0
  152.2121  141.2597  155.6615 H   0  0  0  0  0  0  0  0  0  0  0  0
  149.6097  140.5774  156.5429 H   0  0  0  0  0  0  0  0  0  0  0  0
  148.7325  142.7558  155.7013 H   0  0  0  0  0  0  0  0  0  0  0  0
  149.4862  142.4791  154.1465 H   0  0  0  0  0  0  0  0  0  0  0  0
  147.2514  140.8160  155.3984 H   0  0  0  0  0  0  0  0  0  0  0  0
  147.1120  141.8510  153.9936 H   0  0  0  0  0  0  0  0  0  0  0  0
  147.3709  139.4114  153.3781 H   0  0  0  0  0  0  0  0  0  0  0  0
  148.6429  140.4097  152.7089 H   0  0  0  0  0  0  0  0  0  0  0  0
  148.8729  138.6892  155.2409 H   0  0  0  0  0  0  0  0  0  0  0  0
  149.6491  138.3865  153.6986 H   0  0  0  0  0  0  0  0  0  0  0  0
  1  2  1  0  0  0  0
  1 22  1  0  0  0  0
  1 23  1  0  0  0  0
  1 24  1  0  0  0  0
  2  3  1  0  0  0  0
  2  4  1  0  0  0  0
  2 25  1  0  0  0  0
  3 26  1  0  0  0  0
  4  5  1  0  0  0  0
  4 27  1  0  0  0  0
  4 28  1  0  0  0  0
  5  6  1  0  0  0  0
  5 29  1  0  0  0  0
  6 14  1  0  0  0  0
  6  7  2  0  0  0  0
  7  8  1  0  0  0  0
  8 13  2  0  0  0  0
  8  9  1  0  0  0  0
  9 10  2  0  0  0  0
  9 30  1  0  0  0  0
 10 11  1  0  0  0  0
 10 31  1  0  0  0  0
 11 12  2  0  0  0  0
 11 32  1  0  0  0  0
 12 13  1  0  0  0  0
 12 33  1  0  0  0  0
 13 14  1  0  0  0  0
 14 15  1  0  0  0  0
 15 16  1  0  0  0  0
 15 34  1  0  0  0  0
 15 35  1  0  0  0  0
 16 21  1  0  0  0  0
 16 17  1  0  0  0  0
 16 36  1  0  0  0  0
 17 18  1  0  0  0  0
 17 37  1  0  0  0  0
 17 38  1  0  0  0  0
 18 19  1  0  0  0  0
 18 39  1  0  0  0  0
 18 40  1  0  0  0  0
 19 20  1  0  0  0  0
 19 41  1  0  0  0  0
 19 42  1  0  0  0  0
 20 21  1  0  0  0  0
 20 43  1  0  0  0  0
 20 44  1  0  0  0  0
M  END
> <s_m_source_file>
AV-unprocessed.smi

> <i_m_source_file_index>
573

> <i_lp_mmshare_version>
43012

> <i_f3d_flags>
0

> <s_epik_input>
W0NIM11bQ0BIXShbT0hdKVtDSDJdW05IXWMobjEpbihjKGMxMilbY0hdW2NIXVtjSF1bY0hdMilbQ0gyXVtDQEBIXTNbQ0gyXVtDSDJdW0NIMl1bQ0gyXU8z

> <s_epik_cmdline>
J2VwaWtfcHl0aG9uJywgJy1waCcsICc3LjAnLCAnLXRuJywgJzgnLCAnLW1hJywgJzIwMCcsICctbWV0YWxfYmluZGluZycsICctaW1hZScsICc8aW5maWxlLm1hZT4nLCAnLW9tYWUnLCAnPG91dGZpbGUubWFlPic=

> <r_epik_Ionization_Penalty>
1.30635

> <r_epik_Ionization_Penalty_Charging>
0

> <r_epik_Ionization_Penalty_Neutral>
1.30635

> <r_epik_State_Penalty>
1.38073

> <r_epik_Charging_Adjusted_Penalty>
1.38073

> <i_epik_Tot_Q>
0

> <i_epik_Tot_abs_Q>
0

> <r_epik_Metal_State_Penalty>
0.00547412

> <b_epik_Metal_Only>
0

> <s_lp_Force_Field>
OPLS_2005

> <r_lp_Energy>
9.01344

> <b_lp_Chiralities_Consistent>
1

> <s_lp_Variant>
AV-unprocessed.smi:573-8

> <Gold.Version>
5.8.1

> <Gold.Id.Protein>
6NUR|6NUR_protein|mol2

> <Gold.PLP.Fitness>
44.7803

> <Gold.PLP.PLP>
-40.6829

> <Gold.PLP.part.hbond>
-2.3074

> <Gold.PLP.part.metal>
0.0000

> <Gold.PLP.part.buried>
-2.9741

> <Gold.PLP.part.nonpolar>
-35.2551

> <Gold.PLP.part.repulsive>
0.1479

> <Gold.PLP.ligand.clash>
0.0000

> <Gold.PLP.ligand.torsion>
0.9564

> <Gold.PLP.Chemscore.Hbond>
2.0000

> <Gold.PLP.Chemscore.CHOScore>
0.0000

> <Gold.PLP.Chemscore.Metal>
0.0000

> <Gold.Chemscore.Hbonds>
donor molecule, donor type, donor heavy atom, donor atom, acceptor molecule, acceptor atom, score
      P1  H  6896  6907       L1     3  0.99
      P1  H  7989  7998       L1    21  1.00

> <Gold.PLP.Chemscore.Internal.Correction>
0.0101

> <Gold.Rescore>
     Score         DG    S(hbond)    S(metal)    S(lipo)     H(rot)  DE(clash)    DE(int)     intcor
     16.37     -19.94       1.68        0.00     119.94       2.02       2.02       1.55       ----

> <Gold.Chemscore.Fitness>
16.3701

> <Gold.Chemscore.DG>
-19.9413

> <Gold.Chemscore.ZeroCoef>
-5.4800

> <Gold.Chemscore.Hbond>
1.6784

> <Gold.Chemscore.Metal>
0.0000

> <Gold.Chemscore.Lipo>
119.9398

> <Gold.Chemscore.Internal_Hbond>
0.0000

> <Gold.Chemscore.DEClash>
2.0214

> <Gold.Chemscore.DEInternal>
1.5498

> <Gold.Chemscore.Rot>
2.0224

> <Gold.Chemscore.Internal.Correction>
   9.000000E+99

> <Gold.Chemscore.Hbonds>
donor molecule, donor type, donor heavy atom, donor atom, acceptor molecule, acceptor atom, score
      P1  H  6896  6907       L1     3  0.46
      P1  H  7989  7998       L1    21  0.44

> <Gold.Chemscore.Hbond.Weighted>
-5.6057

> <Gold.Chemscore.Metal.Weighted>
-0.0000

> <Gold.Chemscore.Lipo.Weighted>
-14.0330

> <Gold.Chemscore.Internal_Hbond.Weighted>
0.0000

> <Gold.Chemscore.DEClash.Weighted>
2.0214

> <Gold.Chemscore.DEInternal.Weighted>
1.5498

> <Gold.Chemscore.Rot.Weighted>
5.1773

> <Gold.Chemscore.Internal.Correction.Weighted>
   9.000000E+99

> <Gold.Protein.RotatedTorsions>
[ 6907 6896 6895 6894 ] final  -33.43 input  -60.11 | X-H torsion
[ 7974 7965 7964 7962 ] final   81.30 input  175.53 | X-H torsion
[ 8008 7997 7996 7995 ] final -113.71 input   59.86 | X-H torsion
[ 10167 10162 10161 10158 ] final -139.94 input  -65.29 | X-H torsion
[ 10718 10713 10712 10709 ] final  -69.16 input   66.30 | X-H torsion
[ 10763 10752 10751 10750 ] final   97.21 input  -60.55 | X-H torsion
[ 11005 11000 10999 10996 ] final   69.81 input  -57.11 | X-H torsion

> <Gold.Protein.ActiveResidues>
 VAL166  LYS551  ARG553  GLY616  TRP617  ASP618  TYR619  PRO620  LYS621  CYS622 
 ASP623  PHE694  ASN695  SER759  ASP760  ASP761  ALA762  ILE779  LEU786  VAL792 
 PHE793  MET794  SER795  GLU796  ALA797  LYS798  CYS799  TRP800  GLU811  SER814 

> <Gold.Protein.RotatedAtoms>
  151.0657  134.9766  159.8282 H   0  0  0  0  0  0  0  0  0  0  0  0  # atno 6907 bound_to 6896
  152.5402  134.2361  159.8854 H   0  0  0  0  0  0  0  0  0  0  0  0  # atno 6908 bound_to 6896
  151.2383  133.4370  159.2640 H   0  0  0  0  0  0  0  0  0  0  0  0  # atno 6909 bound_to 6896
  145.6400  139.2423  143.2036 H   0  0  0  0  0  0  0  0  0  0  0  0  # atno 7974 bound_to 7965
  155.0250  140.0393  157.2452 H   0  0  0  0  0  0  0  0  0  0  0  0  # atno 8008 bound_to 7997
  154.7345  140.2737  155.6403 H   0  0  0  0  0  0  0  0  0  0  0  0  # atno 8009 bound_to 7997
  156.2849  140.2677  156.2055 H   0  0  0  0  0  0  0  0  0  0  0  0  # atno 8010 bound_to 7997
  139.8330  143.7421  152.2665 H   0  0  0  0  0  0  0  0  0  0  0  0  # atno 10167 bound_to 10162
  156.0469  130.4307  150.2107 H   0  0  0  0  0  0  0  0  0  0  0  0  # atno 10718 bound_to 10713
  153.2741  135.4191  155.1016 H   0  0  0  0  0  0  0  0  0  0  0  0  # atno 10763 bound_to 10752
  154.8466  135.3479  154.6203 H   0  0  0  0  0  0  0  0  0  0  0  0  # atno 10764 bound_to 10752
  153.6623  135.7047  153.5231 H   0  0  0  0  0  0  0  0  0  0  0  0  # atno 10765 bound_to 10752
  139.9632  134.7025  156.0600 H   0  0  0  0  0  0  0  0  0  0  0  0  # atno 11005 bound_to 11000
  146.1289  140.7212  142.9422 LP  0  0  0  0  0  0  0  0  0  0  0  0  # atno 17320 bound_to 7965
  144.7161  140.4214  143.7043 LP  0  0  0  0  0  0  0  0  0  0  0  0  # atno 17321 bound_to 7965
  139.7635  144.7499  151.0329 LP  0  0  0  0  0  0  0  0  0  0  0  0  # atno 17342 bound_to 10162
  140.7805  143.4724  151.0128 LP  0  0  0  0  0  0  0  0  0  0  0  0  # atno 17343 bound_to 10162
  157.0196  130.9975  151.3343 LP  0  0  0  0  0  0  0  0  0  0  0  0  # atno 17370 bound_to 10713
  157.5354  130.8085  149.7965 LP  0  0  0  0  0  0  0  0  0  0  0  0  # atno 17371 bound_to 10713
  141.1311  133.6586  156.3466 LP  0  0  0  0  0  0  0  0  0  0  0  0  # atno 17394 bound_to 11000
  140.5453  134.6080  157.5392 LP  0  0  0  0  0  0  0  0  0  0  0  0  # atno 17395 bound_to 11000

$$$$
