#       Name:                AV-unprocessed.smi:1576
#       Creating user name   scv26
#       Creation time:       Fri Mar 27 06:56:39 2020


#       File generated by GOLD software.
#

@<TRIPOS>MOLECULE
AV-unprocessed.smi:1576
    49    51     1
SMALL
NO_CHARGES


@<TRIPOS>ATOM
      1 ****        -2.0276   2.1264  -0.1530 O.2            1 S1                 0.0000
      2 ****        -2.5212   1.0007  -0.2847 C.2            1 S1                 0.0000
      3 ****        -1.7304  -0.0845  -0.3587 N.am           1 S1                 0.0000
      4 ****        -0.3122  -0.1600  -0.3363 C.ar           1 S1                 0.0000
      5 ****         0.2762  -1.3584   0.1205 C.ar           1 S1                 0.0000
      6 ****         1.6804  -1.4822   0.1458 C.ar           1 S1                 0.0000
      7 ****         2.4780  -0.4039  -0.3009 C.ar           1 S1                 0.0000
      8 ****         3.8786  -0.4331  -0.3083 N.3            1 S1                 0.0000
      9 ****         4.4495  -0.5030   1.0345 C.3            1 S1                 0.0000
     10 ****         5.9794  -0.3483   0.9886 C.3            1 S1                 0.0000
     11 ****         6.6068  -1.3742   0.0312 C.3            1 S1                 0.0000
     12 ****         5.9509  -1.2775  -1.3557 C.3            1 S1                 0.0000
     13 ****         4.4211  -1.4074  -1.2519 C.3            1 S1                 0.0000
     14 ****         1.8780   0.7195  -0.7502 N.pl3          1 S1                 1.0000
     15 ****         0.5370   0.8789  -0.7887 C.ar           1 S1                 0.0000
     16 ****        -3.8408   0.6762  -0.3464 N.pl3          1 S1                -1.0000
     17 ****        -4.9477   1.6388  -0.2884 C.3            1 S1                 0.0000
     18 ****        -5.3019   1.9450   1.1860 C.3            1 S1                 0.0000
     19 ****        -6.1756   0.8168   1.7494 C.3            1 S1                 0.0000
     20 ****        -7.2228   0.2752   0.3501 S.o2           1 S1                 0.0000
     21 ****        -7.1743  -1.1915   0.2448 O.2            1 S1                 0.0000
     22 ****        -8.5118   0.9822   0.4104 O.2            1 S1                 0.0000
     23 ****        -6.1925   1.0360  -0.9688 C.3            1 S1                 0.0000
     24 ****        -2.2162  -0.9694  -0.3661 H              1 S1                 0.0000
     25 ****        -0.3431  -2.1766   0.4583 H              1 S1                 0.0000
     26 ****         2.1338  -2.3946   0.5044 H              1 S1                 0.0000
     27 ****         4.0171   0.2802   1.6586 H              1 S1                 0.0000
     28 ****         4.1895  -1.4577   1.4935 H              1 S1                 0.0000
     29 ****         6.2348   0.6605   0.6613 H              1 S1                 0.0000
     30 ****         6.3969  -0.4644   1.9891 H              1 S1                 0.0000
     31 ****         7.6818  -1.2093  -0.0470 H              1 S1                 0.0000
     32 ****         6.4728  -2.3799   0.4317 H              1 S1                 0.0000
     33 ****         6.2057  -0.3209  -1.8138 H              1 S1                 0.0000
     34 ****         6.3480  -2.0513  -2.0132 H              1 S1                 0.0000
     35 ****         4.1575  -2.4154  -0.9286 H              1 S1                 0.0000
     36 ****         3.9699  -1.2583  -2.2339 H              1 S1                 0.0000
     37 ****         0.2003   1.8236  -1.1890 H              1 S1                 0.0000
     38 ****        -4.6861   2.5672  -0.7983 H              1 S1                 0.0000
     39 ****        -4.4191   2.1178   1.8030 H              1 S1                 0.0000
     40 ****        -5.8796   2.8695   1.2127 H              1 S1                 0.0000
     41 ****        -5.5668  -0.0307   2.0686 H              1 S1                 0.0000
     42 ****        -6.7969   1.1335   2.5868 H              1 S1                 0.0000
     43 ****        -6.7864   1.8218  -1.4353 H              1 S1                 0.0000
     44 ****        -5.9572   0.2957  -1.7342 H              1 S1                 0.0000
     45 ****         2.4656   1.4864  -1.0780 H              1 S1                 0.0000
     46 ****        -1.0348   2.2341  -0.1009 LP             1 S1                 0.0000
     47 ****        -2.6211   2.9294  -0.0986 LP             1 S1                 0.0000
     48 ****         4.1814   0.4514  -0.6633 LP             1 S1                 0.0000
     49 ****        -4.0747  -0.2917  -0.4383 LP             1 S1                 0.0000
@<TRIPOS>BOND
    1    1    2 2     
    2    2    3 am    
    3    2   16 1     
    4    3    4 1     
    5    3   24 1     
    6    4   15 ar    
    7    4    5 ar    
    8    5    6 ar    
    9    5   25 1     
   10    6    7 ar    
   11    6   26 1     
   12    7    8 1     
   13    7   14 ar    
   14    8   13 1     
   15    8    9 1     
   16    9   10 1     
   17    9   27 1     
   18    9   28 1     
   19   10   11 1     
   20   10   29 1     
   21   10   30 1     
   22   11   12 1     
   23   11   31 1     
   24   11   32 1     
   25   12   13 1     
   26   12   33 1     
   27   12   34 1     
   28   13   35 1     
   29   13   36 1     
   30   14   15 ar    
   31   14   45 1     
   32   15   37 1     
   33   16   17 1     
   34   17   23 1     
   35   17   18 1     
   36   17   38 1     
   37   18   19 1     
   38   18   39 1     
   39   18   40 1     
   40   19   20 1     
   41   19   41 1     
   42   19   42 1     
   43   20   21 2     
   44   20   22 2     
   45   20   23 1     
   46   23   43 1     
   47   23   44 1     
   48    1   46 1     
   49    1   47 1     
   50    8   48 1     
   51   16   49 1     
@<TRIPOS>SUBSTRUCTURE
      1 S1             1
@<TRIPOS>SET
LONE_PAIRS      STATIC     ATOMS    <user>   **** ""
6 46 47 48 49 21 22
DONOR_HYDROGENS      STATIC     ATOMS    <user>   **** ""
2 24 45
ATOM$BLUE        STATIC     ATOMS    COLORGROUP SYSTEM
6 46 47 48 49 21 22
ATOM$RED        STATIC     ATOMS    COLORGROUP SYSTEM
2 24 45
