AV-unprocessed.smi:1703|AV-procd|sdf|6863|dock2
  -GOLD-   22720 8 53D 1   1.00000     0.00000
 Structure written by MMmdl.
 49 51  0  0  0  0  0  0  0  0  2 V2000
  144.2349  141.5591  157.2154 C   0  0  0  0  0  0  0  0  0  0  0  0
  144.6132  141.9190  155.7744 C   0  0  2  0  0  0  0  0  0  0  0  0
  145.9061  141.2149  155.3212 C   0  0  0  0  0  0  0  0  0  0  0  0
  146.2842  141.6473  153.9551 N   0  3  2  0  0  0  0  0  0  0  0  0
  147.4907  140.9419  153.4530 C   0  0  0  0  0  0  0  0  0  0  0  0
  148.7066  141.0949  154.3933 C   0  0  2  0  0  0  0  0  0  0  0  0
  149.8900  141.0742  153.6210 O   0  0  0  0  0  0  0  0  0  0  0  0
  148.8165  139.9789  155.4518 C   0  0  0  0  0  0  0  0  0  0  0  0
  150.0977  139.9856  156.1459 N   0  0  0  0  0  0  0  0  0  0  0  0
  151.1341  139.1166  156.0236 C   0  0  0  0  0  0  0  0  0  0  0  0
  151.0985  137.9470  155.0880 C   0  0  0  0  0  0  0  0  0  0  0  0
  151.3393  136.7191  155.7406 O   0  0  0  0  0  0  0  0  0  0  0  0
  152.1926  139.3648  156.7953 N   0  0  0  0  0  0  0  0  0  0  0  0
  151.8152  140.5072  157.4729 C   0  0  0  0  0  0  0  0  0  0  0  0
  152.5057  141.2717  158.4403 C   0  0  0  0  0  0  0  0  0  0  0  0
  151.9090  142.4197  159.0014 C   0  0  0  0  0  0  0  0  0  0  0  0
  150.6165  142.8189  158.6040 C   0  0  0  0  0  0  0  0  0  0  0  0
  149.9107  142.0704  157.6424 C   0  0  0  0  0  0  0  0  0  0  0  0
  150.5101  140.9244  157.0867 C   0  0  0  0  0  0  0  0  0  0  0  0
  146.3874  143.1263  153.8941 C   0  0  0  0  0  0  0  0  0  0  0  0
  145.0791  143.7773  154.3813 C   0  0  2  0  0  0  0  0  0  0  0  0
  145.1667  145.3072  154.4034 C   0  0  0  0  0  0  0  0  0  0  0  0
  144.8010  143.3281  155.7031 O   0  0  0  0  0  0  0  0  0  0  0  0
  144.0625  140.4877  157.3204 H   0  0  0  0  0  0  0  0  0  0  0  0
  143.3224  142.0732  157.5183 H   0  0  0  0  0  0  0  0  0  0  0  0
  145.0231  141.8415  157.9139 H   0  0  0  0  0  0  0  0  0  0  0  0
  143.7892  141.6335  155.1181 H   0  0  0  0  0  0  0  0  0  0  0  0
  146.7217  141.4382  156.0115 H   0  0  0  0  0  0  0  0  0  0  0  0
  145.7591  140.1341  155.3371 H   0  0  0  0  0  0  0  0  0  0  0  0
  147.2399  139.8913  153.3008 H   0  0  0  0  0  0  0  0  0  0  0  0
  147.7625  141.3348  152.4721 H   0  0  0  0  0  0  0  0  0  0  0  0
  148.6643  142.0526  154.9102 H   0  0  0  0  0  0  0  0  0  0  0  0
  149.7065  140.6515  152.7956 H   0  0  0  0  0  0  0  0  0  0  0  0
  148.0064  140.0614  156.1759 H   0  0  0  0  0  0  0  0  0  0  0  0
  148.6973  139.0034  154.9785 H   0  0  0  0  0  0  0  0  0  0  0  0
  150.1206  137.8995  154.6072 H   0  0  0  0  0  0  0  0  0  0  0  0
  151.8302  138.0874  154.2929 H   0  0  0  0  0  0  0  0  0  0  0  0
  150.6598  136.5801  156.3824 H   0  0  0  0  0  0  0  0  0  0  0  0
  153.4970  140.9756  158.7499 H   0  0  0  0  0  0  0  0  0  0  0  0
  152.4466  142.9977  159.7390 H   0  0  0  0  0  0  0  0  0  0  0  0
  150.1681  143.7014  159.0366 H   0  0  0  0  0  0  0  0  0  0  0  0
  148.9218  142.3761  157.3349 H   0  0  0  0  0  0  0  0  0  0  0  0
  147.2254  143.4593  154.5089 H   0  0  0  0  0  0  0  0  0  0  0  0
  146.5916  143.4522  152.8750 H   0  0  0  0  0  0  0  0  0  0  0  0
  144.2576  143.4877  153.7232 H   0  0  0  0  0  0  0  0  0  0  0  0
  145.3727  145.7033  153.4086 H   0  0  0  0  0  0  0  0  0  0  0  0
  145.9586  145.6492  155.0705 H   0  0  0  0  0  0  0  0  0  0  0  0
  144.2297  145.7461  154.7467 H   0  0  0  0  0  0  0  0  0  0  0  0
  145.5222  141.3768  153.3491 H   0  0  0  0  0  0  0  0  0  0  0  0
  1  2  1  0  0  0  0
  1 24  1  0  0  0  0
  1 25  1  0  0  0  0
  1 26  1  0  0  0  0
  2 23  1  0  0  0  0
  2  3  1  0  0  0  0
  2 27  1  0  0  0  0
  3  4  1  0  0  0  0
  3 28  1  0  0  0  0
  3 29  1  0  0  0  0
  4  5  1  0  0  0  0
  4 20  1  0  0  0  0
  4 49  1  0  0  0  0
  5  6  1  0  0  0  0
  5 30  1  0  0  0  0
  5 31  1  0  0  0  0
  6  7  1  0  0  0  0
  6  8  1  0  0  0  0
  6 32  1  0  0  0  0
  7 33  1  0  0  0  0
  8  9  1  0  0  0  0
  8 34  1  0  0  0  0
  8 35  1  0  0  0  0
  9 19  1  0  0  0  0
  9 10  1  0  0  0  0
 10 11  1  0  0  0  0
 10 13  2  0  0  0  0
 11 12  1  0  0  0  0
 11 36  1  0  0  0  0
 11 37  1  0  0  0  0
 12 38  1  0  0  0  0
 13 14  1  0  0  0  0
 14 19  2  0  0  0  0
 14 15  1  0  0  0  0
 15 16  2  0  0  0  0
 15 39  1  0  0  0  0
 16 17  1  0  0  0  0
 16 40  1  0  0  0  0
 17 18  2  0  0  0  0
 17 41  1  0  0  0  0
 18 19  1  0  0  0  0
 18 42  1  0  0  0  0
 20 21  1  0  0  0  0
 20 43  1  0  0  0  0
 20 44  1  0  0  0  0
 21 22  1  0  0  0  0
 21 23  1  0  0  0  0
 21 45  1  0  0  0  0
 22 46  1  0  0  0  0
 22 47  1  0  0  0  0
 22 48  1  0  0  0  0
M  CHG  1   4   1
M  END
> <s_m_source_file>
AV-unprocessed.smi

> <i_m_source_file_index>
1703

> <i_lp_mmshare_version>
43012

> <i_f3d_flags>
0

> <s_epik_input>
W0NIM11bQ0BASF0xW0NIMl1OKFtDSDJdW0NASF0oTzEpW0NIM10pW0NIMl1bQ0BIXShbT0hdKVtDSDJdbihjKG4yKVtDSDJdW09IXSljKGMyMylbY0hdW2NIXVtjSF1bY0hdMw==

> <s_epik_cmdline>
J2VwaWtfcHl0aG9uJywgJy1waCcsICc3LjAnLCAnLXRuJywgJzgnLCAnLW1hJywgJzIwMCcsICctbWV0YWxfYmluZGluZycsICctaW1hZScsICc8aW5maWxlLm1hZT4nLCAnLW9tYWUnLCAnPG91dGZpbGUubWFlPic=

> <r_epik_Ionization_Penalty>
0.655661

> <r_epik_Ionization_Penalty_Charging>
0.608065

> <r_epik_Ionization_Penalty_Neutral>
0.0475963

> <r_epik_State_Penalty>
0.695267

> <r_epik_Charging_Adjusted_Penalty>
1.30333

> <i_epik_Tot_Q>
1

> <i_epik_Tot_abs_Q>
1

> <r_epik_Metal_State_Penalty>
0.653591

> <b_epik_Metal_Only>
0

> <s_lp_Force_Field>
OPLS_2005

> <r_lp_Energy>
21.8251

> <b_lp_Chiralities_Consistent>
1

> <s_lp_Variant>
AV-unprocessed.smi:1703-11

> <Gold.Version>
5.8.1

> <Gold.Id.Protein>
6NUR|6NUR_protein|mol2

> <Gold.PLP.Fitness>
49.7135

> <Gold.PLP.PLP>
-35.6665

> <Gold.PLP.part.hbond>
-5.7110

> <Gold.PLP.part.metal>
0.0000

> <Gold.PLP.part.buried>
-4.6471

> <Gold.PLP.part.nonpolar>
-24.6321

> <Gold.PLP.part.repulsive>
0.0835

> <Gold.PLP.ligand.clash>
0.0000

> <Gold.PLP.ligand.torsion>
0.6562

> <Gold.PLP.Chemscore.Hbond>
5.0712

> <Gold.PLP.Chemscore.CHOScore>
0.0000

> <Gold.PLP.Chemscore.Metal>
0.0000

> <Gold.Chemscore.Hbonds>
donor molecule, donor type, donor heavy atom, donor atom, acceptor molecule, acceptor atom, score
      L1  H     4    49       P1 10175  0.99
      L1  H     7    33       P1  7957  1.00
      P1  H  7989  7998       L1     7  0.19
      P1  H  7997  8009       L1    13  0.12
      P1  H 10752 10765       L1    12  0.42

> <Gold.PLP.Chemscore.Internal.Correction>
0.1458

> <Gold.Rescore>
     Score         DG    S(hbond)    S(metal)    S(lipo)     H(rot)  DE(clash)    DE(int)     intcor
     18.63     -19.68       3.49        0.00      86.66       2.96       0.42       0.63       ----

> <Gold.Chemscore.Fitness>
18.6338

> <Gold.Chemscore.DG>
-19.6832

> <Gold.Chemscore.ZeroCoef>
-5.4800

> <Gold.Chemscore.Hbond>
3.4863

> <Gold.Chemscore.Metal>
0.0000

> <Gold.Chemscore.Lipo>
86.6614

> <Gold.Chemscore.Internal_Hbond>
0.0000

> <Gold.Chemscore.DEClash>
0.4233

> <Gold.Chemscore.DEInternal>
0.6261

> <Gold.Chemscore.Rot>
2.9611

> <Gold.Chemscore.Internal.Correction>
   9.000000E+99

> <Gold.Chemscore.Hbonds>
donor molecule, donor type, donor heavy atom, donor atom, acceptor molecule, acceptor atom, score
      L1  H     4    49       P1 10175  0.10
      L1  H     7    33       P1  7957  1.00
      P1  H  7989  7998       L1     7  0.02
      P1  H  7997  8009       L1    13  0.02
      P1  H 10752 10765       L1    12  0.27

> <Gold.Chemscore.Hbond.Weighted>
-11.6442

> <Gold.Chemscore.Metal.Weighted>
-0.0000

> <Gold.Chemscore.Lipo.Weighted>
-10.1394

> <Gold.Chemscore.Internal_Hbond.Weighted>
0.0000

> <Gold.Chemscore.DEClash.Weighted>
0.4233

> <Gold.Chemscore.DEInternal.Weighted>
0.6261

> <Gold.Chemscore.Rot.Weighted>
7.5803

> <Gold.Chemscore.Internal.Correction.Weighted>
   9.000000E+99

> <Gold.Protein.RotatedTorsions>
[ 6907 6896 6895 6894 ] final  -98.16 input  -60.11 | X-H torsion
[ 7974 7965 7964 7962 ] final   51.35 input  175.53 | X-H torsion
[ 8008 7997 7996 7995 ] final -154.03 input   59.86 | X-H torsion
[ 10167 10162 10161 10158 ] final  -14.96 input  -65.29 | X-H torsion
[ 10718 10713 10712 10709 ] final   98.20 input   66.30 | X-H torsion
[ 10763 10752 10751 10750 ] final  179.05 input  -60.55 | X-H torsion
[ 11005 11000 10999 10996 ] final  155.87 input  -57.11 | X-H torsion

> <Gold.Protein.ActiveResidues>
 VAL166  LYS551  ARG553  GLY616  TRP617  ASP618  TYR619  PRO620  LYS621  CYS622 
 ASP623  PHE694  ASN695  SER759  ASP760  ASP761  ALA762  ILE779  LEU786  VAL792 
 PHE793  MET794  SER795  GLU796  ALA797  LYS798  CYS799  TRP800  GLU811  SER814 

> <Gold.Protein.RotatedAtoms>
  150.7038  134.1237  159.4043 H   0  0  0  0  0  0  0  0  0  0  0  0  # atno 6907 bound_to 6896
  151.9223  135.0291  160.0532 H   0  0  0  0  0  0  0  0  0  0  0  0  # atno 6908 bound_to 6896
  152.2246  133.4975  159.5218 H   0  0  0  0  0  0  0  0  0  0  0  0  # atno 6909 bound_to 6896
  145.9922  139.4351  143.0066 H   0  0  0  0  0  0  0  0  0  0  0  0  # atno 7974 bound_to 7965
  155.6801  140.0743  157.2488 H   0  0  0  0  0  0  0  0  0  0  0  0  # atno 8008 bound_to 7997
  154.4107  140.1683  156.2025 H   0  0  0  0  0  0  0  0  0  0  0  0  # atno 8009 bound_to 7997
  155.9542  140.3375  155.6437 H   0  0  0  0  0  0  0  0  0  0  0  0  # atno 8010 bound_to 7997
  140.7210  143.5268  150.9567 H   0  0  0  0  0  0  0  0  0  0  0  0  # atno 10167 bound_to 10162
  157.6899  131.0633  150.4760 H   0  0  0  0  0  0  0  0  0  0  0  0  # atno 10718 bound_to 10713
  154.5156  135.2791  155.1306 H   0  0  0  0  0  0  0  0  0  0  0  0  # atno 10763 bound_to 10752
  154.2883  135.6272  153.5378 H   0  0  0  0  0  0  0  0  0  0  0  0  # atno 10764 bound_to 10752
  152.9927  135.5668  154.5633 H   0  0  0  0  0  0  0  0  0  0  0  0  # atno 10765 bound_to 10752
  140.1622  134.8601  157.2588 H   0  0  0  0  0  0  0  0  0  0  0  0  # atno 11005 bound_to 11000
  145.7613  140.9934  143.1198 LP  0  0  0  0  0  0  0  0  0  0  0  0  # atno 17320 bound_to 7965
  144.6892  139.9333  143.7472 LP  0  0  0  0  0  0  0  0  0  0  0  0  # atno 17321 bound_to 7965
  139.8987  143.6863  152.3134 LP  0  0  0  0  0  0  0  0  0  0  0  0  # atno 17342 bound_to 10162
  139.7204  144.7603  151.0964 LP  0  0  0  0  0  0  0  0  0  0  0  0  # atno 17343 bound_to 10162
  156.5095  130.4136  149.6309 LP  0  0  0  0  0  0  0  0  0  0  0  0  # atno 17370 bound_to 10713
  156.3253  130.7303  151.2222 LP  0  0  0  0  0  0  0  0  0  0  0  0  # atno 17371 bound_to 10713
  140.2476  134.3721  155.7455 LP  0  0  0  0  0  0  0  0  0  0  0  0  # atno 17394 bound_to 11000
  141.2210  133.7299  156.8886 LP  0  0  0  0  0  0  0  0  0  0  0  0  # atno 17395 bound_to 11000

$$$$
