AV-unprocessed.smi:684|AV-procd|sdf|3332|dock5
  -GOLD-   22720 0303D 1   1.00000     0.00000
 Structure written by MMmdl.
 40 41  0  0  0  0  0  0  0  0  1 V2000
  151.6871  145.8467  160.5212 C   0  0  0  0  0  0  0  0  0  0  0  0
  152.3873  144.4975  160.7197 C   0  0  0  0  0  0  0  0  0  0  0  0
  152.1235  143.5892  159.6172 N   0  0  0  0  0  0  0  0  0  0  0  0
  151.1519  143.9023  158.7330 N   0  0  0  0  0  0  0  0  0  0  0  0
  151.1569  142.8925  157.8765 C   0  0  0  0  0  0  0  0  0  0  0  0
  150.3117  142.7499  156.7467 N   0  0  0  0  0  0  0  0  0  0  0  0
  150.1639  141.6670  155.9645 C   0  0  0  0  0  0  0  0  0  0  0  0
  150.7631  140.6007  156.1089 O   0  0  0  0  0  0  0  0  0  0  0  0
  149.2748  141.8935  154.9863 N   0  0  0  0  0  0  0  0  0  0  0  0
  148.8777  140.9331  153.9601 C   0  0  0  0  0  0  0  0  0  0  0  0
  147.3505  140.7135  153.9219 C   0  0  0  0  0  0  0  0  0  0  0  0
  146.9718  139.7353  152.8001 C   0  0  0  0  0  0  0  0  0  0  0  0
  146.5614  142.0265  153.7774 C   0  0  0  0  0  0  0  0  0  0  0  0
  152.1275  141.9019  158.1849 C   0  0  0  0  0  0  0  0  0  0  0  0
  152.7289  142.3796  159.3165 C   0  0  0  0  0  0  0  0  0  0  0  0
  153.8315  141.8015  160.1442 C   0  0  0  0  0  0  0  0  0  0  0  0
  153.7401  140.4065  160.7159 C   0  0  0  0  0  0  0  0  0  0  0  0
  153.6661  141.6077  161.6314 C   0  0  0  0  0  0  0  0  0  0  0  0
  151.8921  146.5163  161.3565 H   0  0  0  0  0  0  0  0  0  0  0  0
  150.6060  145.7241  160.4503 H   0  0  0  0  0  0  0  0  0  0  0  0
  152.0294  146.3373  159.6095 H   0  0  0  0  0  0  0  0  0  0  0  0
  153.4653  144.6422  160.8069 H   0  0  0  0  0  0  0  0  0  0  0  0
  152.0598  144.0344  161.6507 H   0  0  0  0  0  0  0  0  0  0  0  0
  149.7601  143.5603  156.5079 H   0  0  0  0  0  0  0  0  0  0  0  0
  148.8365  142.8020  154.9470 H   0  0  0  0  0  0  0  0  0  0  0  0
  149.2430  141.2334  152.9764 H   0  0  0  0  0  0  0  0  0  0  0  0
  149.3767  139.9914  154.1907 H   0  0  0  0  0  0  0  0  0  0  0  0
  147.0543  140.2535  154.8657 H   0  0  0  0  0  0  0  0  0  0  0  0
  147.2346  140.1356  151.8204 H   0  0  0  0  0  0  0  0  0  0  0  0
  145.9004  139.5325  152.8004 H   0  0  0  0  0  0  0  0  0  0  0  0
  147.4855  138.7809  152.9189 H   0  0  0  0  0  0  0  0  0  0  0  0
  146.8491  142.5627  152.8724 H   0  0  0  0  0  0  0  0  0  0  0  0
  146.7262  142.6910  154.6254 H   0  0  0  0  0  0  0  0  0  0  0  0
  145.4893  141.8356  153.7237 H   0  0  0  0  0  0  0  0  0  0  0  0
  152.3478  140.9832  157.6620 H   0  0  0  0  0  0  0  0  0  0  0  0
  154.8064  142.1237  159.7835 H   0  0  0  0  0  0  0  0  0  0  0  0
  152.8217  139.8449  160.5564 H   0  0  0  0  0  0  0  0  0  0  0  0
  154.6514  139.8125  160.7385 H   0  0  0  0  0  0  0  0  0  0  0  0
  154.5275  141.8166  162.2622 H   0  0  0  0  0  0  0  0  0  0  0  0
  152.6980  141.8467  162.0678 H   0  0  0  0  0  0  0  0  0  0  0  0
  1  2  1  0  0  0  0
  1 19  1  0  0  0  0
  1 20  1  0  0  0  0
  1 21  1  0  0  0  0
  2  3  1  0  0  0  0
  2 22  1  0  0  0  0
  2 23  1  0  0  0  0
  3 15  1  0  0  0  0
  3  4  1  0  0  0  0
  4  5  2  0  0  0  0
  5  6  1  0  0  0  0
  5 14  1  0  0  0  0
  6  7  1  0  0  0  0
  6 24  1  0  0  0  0
  7  8  2  0  0  0  0
  7  9  1  0  0  0  0
  9 10  1  0  0  0  0
  9 25  1  0  0  0  0
 10 11  1  0  0  0  0
 10 26  1  0  0  0  0
 10 27  1  0  0  0  0
 11 12  1  0  0  0  0
 11 13  1  0  0  0  0
 11 28  1  0  0  0  0
 12 29  1  0  0  0  0
 12 30  1  0  0  0  0
 12 31  1  0  0  0  0
 13 32  1  0  0  0  0
 13 33  1  0  0  0  0
 13 34  1  0  0  0  0
 14 15  2  0  0  0  0
 14 35  1  0  0  0  0
 15 16  1  0  0  0  0
 16 18  1  0  0  0  0
 16 17  1  0  0  0  0
 16 36  1  0  0  0  0
 17 18  1  0  0  0  0
 17 37  1  0  0  0  0
 17 38  1  0  0  0  0
 18 39  1  0  0  0  0
 18 40  1  0  0  0  0
M  END
> <s_m_source_file>
AV-unprocessed.smi

> <i_m_source_file_index>
684

> <i_lp_mmshare_version>
43012

> <i_f3d_flags>
0

> <s_epik_input>
W0NIMl0xW0NIMl1bQ0hdMWMyW2NIXWMobm4yW0NIMl1bQ0gzXSlbTkhdQyg9TylbTkhdW0NIMl1bQ0hdKFtDSDNdKVtDSDNd

> <s_epik_cmdline>
J2VwaWtfcHl0aG9uJywgJy1waCcsICc3LjAnLCAnLXRuJywgJzgnLCAnLW1hJywgJzIwMCcsICctbWV0YWxfYmluZGluZycsICctaW1hZScsICc8aW5maWxlLm1hZT4nLCAnLW9tYWUnLCAnPG91dGZpbGUubWFlPic=

> <r_lp_tautomer_probability>
1

> <r_epik_Ionization_Penalty>
4.15598e-05

> <r_epik_Ionization_Penalty_Charging>
0

> <r_epik_Ionization_Penalty_Neutral>
4.15598e-05

> <r_epik_State_Penalty>
-0

> <r_epik_Charging_Adjusted_Penalty>
0

> <i_epik_Tot_Q>
0

> <i_epik_Tot_abs_Q>
0

> <r_epik_Metal_State_Penalty>
-0

> <b_epik_Metal_Only>
0

> <s_lp_Force_Field>
OPLS_2005

> <r_lp_Energy>
10.212

> <b_lp_Chiralities_Consistent>
1

> <s_lp_Variant>
AV-unprocessed.smi:684-1

> <Gold.Version>
5.8.1

> <Gold.Id.Protein>
6NUR|6NUR_protein|mol2

> <Gold.PLP.Fitness>
47.0570

> <Gold.PLP.PLP>
-41.5432

> <Gold.PLP.part.hbond>
-2.0000

> <Gold.PLP.part.metal>
0.0000

> <Gold.PLP.part.buried>
-4.6665

> <Gold.PLP.part.nonpolar>
-35.4986

> <Gold.PLP.part.repulsive>
0.3752

> <Gold.PLP.ligand.clash>
0.0000

> <Gold.PLP.ligand.torsion>
0.2374

> <Gold.PLP.Chemscore.Hbond>
1.9440

> <Gold.PLP.Chemscore.CHOScore>
0.0000

> <Gold.PLP.Chemscore.Metal>
0.0000

> <Gold.Chemscore.Hbonds>
donor molecule, donor type, donor heavy atom, donor atom, acceptor molecule, acceptor atom, score
      L1  H     6    24       P1  8028  1.00
      L1  H     9    25       P1  8028  0.92

> <Gold.PLP.Chemscore.Internal.Correction>
0.1566

> <Gold.Rescore>
     Score         DG    S(hbond)    S(metal)    S(lipo)     H(rot)  DE(clash)    DE(int)     intcor
     17.93     -20.26       1.94        0.00     102.47       1.45       0.83       1.50       ----

> <Gold.Chemscore.Fitness>
17.9342

> <Gold.Chemscore.DG>
-20.2638

> <Gold.Chemscore.ZeroCoef>
-5.4800

> <Gold.Chemscore.Hbond>
1.9446

> <Gold.Chemscore.Metal>
0.0000

> <Gold.Chemscore.Lipo>
102.4674

> <Gold.Chemscore.Internal_Hbond>
0.0000

> <Gold.Chemscore.DEClash>
0.8284

> <Gold.Chemscore.DEInternal>
1.5011

> <Gold.Chemscore.Rot>
1.4452

> <Gold.Chemscore.Internal.Correction>
   9.000000E+99

> <Gold.Chemscore.Hbonds>
donor molecule, donor type, donor heavy atom, donor atom, acceptor molecule, acceptor atom, score
      L1  H     6    24       P1  8028  1.00
      L1  H     9    25       P1  8028  0.83

> <Gold.Chemscore.Hbond.Weighted>
-6.4949

> <Gold.Chemscore.Metal.Weighted>
-0.0000

> <Gold.Chemscore.Lipo.Weighted>
-11.9887

> <Gold.Chemscore.Internal_Hbond.Weighted>
0.0000

> <Gold.Chemscore.DEClash.Weighted>
0.8284

> <Gold.Chemscore.DEInternal.Weighted>
1.5011

> <Gold.Chemscore.Rot.Weighted>
3.6998

> <Gold.Chemscore.Internal.Correction.Weighted>
   9.000000E+99

> <Gold.Protein.RotatedTorsions>
[ 6907 6896 6895 6894 ] final   15.69 input  -60.11 | X-H torsion
[ 7974 7965 7964 7962 ] final  143.86 input  175.53 | X-H torsion
[ 8008 7997 7996 7995 ] final    2.92 input   59.86 | X-H torsion
[ 10167 10162 10161 10158 ] final  -55.52 input  -65.29 | X-H torsion
[ 10718 10713 10712 10709 ] final -120.81 input   66.30 | X-H torsion
[ 10763 10752 10751 10750 ] final   70.55 input  -60.55 | X-H torsion
[ 11005 11000 10999 10996 ] final  165.99 input  -57.11 | X-H torsion

> <Gold.Protein.ActiveResidues>
 VAL166  LYS551  ARG553  GLY616  TRP617  ASP618  TYR619  PRO620  LYS621  CYS622 
 ASP623  PHE694  ASN695  SER759  ASP760  ASP761  ALA762  ILE779  LEU786  VAL792 
 PHE793  MET794  SER795  GLU796  ALA797  LYS798  CYS799  TRP800  GLU811  SER814 

> <Gold.Protein.RotatedAtoms>
  151.8221  135.0648  160.0426 H   0  0  0  0  0  0  0  0  0  0  0  0  # atno 6907 bound_to 6896
  152.2943  133.5588  159.5586 H   0  0  0  0  0  0  0  0  0  0  0  0  # atno 6908 bound_to 6896
  150.7244  134.0299  159.3772 H   0  0  0  0  0  0  0  0  0  0  0  0  # atno 6909 bound_to 6896
  144.8884  139.5594  143.5810 H   0  0  0  0  0  0  0  0  0  0  0  0  # atno 7974 bound_to 7965
  154.6974  140.2666  155.6753 H   0  0  0  0  0  0  0  0  0  0  0  0  # atno 8008 bound_to 7997
  156.2753  140.2779  156.1496 H   0  0  0  0  0  0  0  0  0  0  0  0  # atno 8009 bound_to 7997
  155.0812  140.0372  157.2630 H   0  0  0  0  0  0  0  0  0  0  0  0  # atno 8010 bound_to 7997
  140.6370  143.2487  151.5092 H   0  0  0  0  0  0  0  0  0  0  0  0  # atno 10167 bound_to 10162
  156.1287  130.6379  150.9586 H   0  0  0  0  0  0  0  0  0  0  0  0  # atno 10718 bound_to 10713
  153.0348  135.5169  154.7458 H   0  0  0  0  0  0  0  0  0  0  0  0  # atno 10763 bound_to 10752
  154.6444  135.2916  155.0067 H   0  0  0  0  0  0  0  0  0  0  0  0  # atno 10764 bound_to 10752
  154.0973  135.6641  153.4915 H   0  0  0  0  0  0  0  0  0  0  0  0  # atno 10765 bound_to 10752
  140.2618  134.7896  157.3597 H   0  0  0  0  0  0  0  0  0  0  0  0  # atno 11005 bound_to 11000
  146.3039  139.7515  142.9071 LP  0  0  0  0  0  0  0  0  0  0  0  0  # atno 17320 bound_to 7965
  145.3827  141.0360  143.3168 LP  0  0  0  0  0  0  0  0  0  0  0  0  # atno 17321 bound_to 7965
  139.5580  144.2228  152.1644 LP  0  0  0  0  0  0  0  0  0  0  0  0  # atno 17342 bound_to 10162
  140.1487  144.5135  150.6700 LP  0  0  0  0  0  0  0  0  0  0  0  0  # atno 17343 bound_to 10162
  157.6467  131.0903  150.8138 LP  0  0  0  0  0  0  0  0  0  0  0  0  # atno 17370 bound_to 10713
  156.8225  130.4989  149.5341 LP  0  0  0  0  0  0  0  0  0  0  0  0  # atno 17371 bound_to 10713
  140.1457  134.4914  155.7998 LP  0  0  0  0  0  0  0  0  0  0  0  0  # atno 17394 bound_to 11000
  141.2189  133.6842  156.7290 LP  0  0  0  0  0  0  0  0  0  0  0  0  # atno 17395 bound_to 11000

$$$$
