#       Name:                AV-unprocessed.smi:906
#       Creating user name   scv26
#       Creation time:       Fri Mar 27 01:59:40 2020


#       File generated by GOLD software.
#

@<TRIPOS>MOLECULE
AV-unprocessed.smi:906
    51    52     1
SMALL
NO_CHARGES


@<TRIPOS>ATOM
      1 ****        -8.1923  -1.1695  -0.2636 C.3            1 S1                 0.0000
      2 ****        -6.7963  -0.6229  -0.0527 C.ar           1 S1                 0.0000
      3 ****        -6.3197  -0.2484   1.2219 C.ar           1 S1                 0.0000
      4 ****        -5.0066   0.2513   1.3469 C.ar           1 S1                 0.0000
      5 ****        -4.1970   0.3657   0.1958 C.ar           1 S1                 0.0000
      6 ****        -2.7798   0.8944   0.2954 C.3            1 S1                 0.0000
      7 ****        -1.7605  -0.2272   0.5541 C.3            1 S1                 0.0000
      8 ****        -0.3993   0.2907   0.6245 N.am           1 S1                 0.0000
      9 ****         0.3696   0.5909  -0.4364 C.2            1 S1                 0.0000
     10 ****        -0.0351   0.4618  -1.5928 O.2            1 S1                 0.0000
     11 ****         1.5980   1.0763  -0.1287 N.am           1 S1                 0.0000
     12 ****         2.2414   1.0754   1.1930 C.3            1 S1                 0.0000
     13 ****         3.3959   0.0552   1.1800 C.3            1 S1                 0.0000
     14 ****         4.3671   0.4012   0.1346 N.3            1 S1                 0.0000
     15 ****         5.5665  -0.4513   0.2005 C.3            1 S1                 0.0000
     16 ****         5.3347  -1.8956  -0.2955 C.3            1 S1                 0.0000
     17 ****         6.7871   0.2147  -0.4785 C.3            1 S1                 0.0000
     18 ****         6.9237   1.4715  -0.0540 F              1 S1                 0.0000
     19 ****         7.8897  -0.4551  -0.1437 F              1 S1                 0.0000
     20 ****         6.6886   0.2139  -1.8078 F              1 S1                 0.0000
     21 ****         3.7195   0.4660  -1.1830 C.3            1 S1                 0.0000
     22 ****         2.5636   1.4843  -1.1526 C.3            1 S1                 0.0000
     23 ****        -4.7264  -0.0259  -1.0526 C.ar           1 S1                 0.0000
     24 ****        -5.9891  -0.4997  -1.1304 N.pl3          1 S1                 1.0000
     25 ****        -8.8529  -0.8722   0.5513 H              1 S1                 0.0000
     26 ****        -8.1686  -2.2588  -0.3063 H              1 S1                 0.0000
     27 ****        -8.6173  -0.7969  -1.1961 H              1 S1                 0.0000
     28 ****        -6.9502  -0.3420   2.0943 H              1 S1                 0.0000
     29 ****        -4.6270   0.5407   2.3162 H              1 S1                 0.0000
     30 ****        -2.5385   1.4212  -0.6288 H              1 S1                 0.0000
     31 ****        -2.7302   1.6370   1.0930 H              1 S1                 0.0000
     32 ****        -1.9840  -0.7240   1.4987 H              1 S1                 0.0000
     33 ****        -1.8267  -0.9921  -0.2218 H              1 S1                 0.0000
     34 ****        -0.0089   0.4302   1.5452 H              1 S1                 0.0000
     35 ****         2.6261   2.0742   1.4062 H              1 S1                 0.0000
     36 ****         1.5636   0.8447   2.0143 H              1 S1                 0.0000
     37 ****         3.8867   0.0556   2.1538 H              1 S1                 0.0000
     38 ****         2.9998  -0.9477   1.0189 H              1 S1                 0.0000
     39 ****         5.8270  -0.5161   1.2579 H              1 S1                 0.0000
     40 ****         6.2189  -2.5071  -0.1157 H              1 S1                 0.0000
     41 ****         5.1343  -1.9326  -1.3662 H              1 S1                 0.0000
     42 ****         4.5056  -2.3796   0.2191 H              1 S1                 0.0000
     43 ****         4.4324   0.7716  -1.9461 H              1 S1                 0.0000
     44 ****         3.3364  -0.5138  -1.4701 H              1 S1                 0.0000
     45 ****         2.1166   1.5626  -2.1445 H              1 S1                 0.0000
     46 ****         2.9426   2.4809  -0.9202 H              1 S1                 0.0000
     47 ****        -4.1813   0.0233  -1.9843 H              1 S1                 0.0000
     48 ****        -6.3496  -0.7770  -2.0437 H              1 S1                 0.0000
     49 ****        -0.9609   0.1248  -1.7638 LP             1 S1                 0.0000
     50 ****         0.5623   0.6941  -2.3604 LP             1 S1                 0.0000
     51 ****         4.7122   1.3247   0.3023 LP             1 S1                 0.0000
@<TRIPOS>BOND
    1    1    2 1     
    2    1   25 1     
    3    1   26 1     
    4    1   27 1     
    5    2   24 ar    
    6    2    3 ar    
    7    3    4 ar    
    8    3   28 1     
    9    4    5 ar    
   10    4   29 1     
   11    5    6 1     
   12    5   23 ar    
   13    6    7 1     
   14    6   30 1     
   15    6   31 1     
   16    7    8 1     
   17    7   32 1     
   18    7   33 1     
   19    8    9 am    
   20    8   34 1     
   21    9   10 2     
   22    9   11 am    
   23   11   22 1     
   24   11   12 1     
   25   12   13 1     
   26   12   35 1     
   27   12   36 1     
   28   13   14 1     
   29   13   37 1     
   30   13   38 1     
   31   14   15 1     
   32   14   21 1     
   33   15   16 1     
   34   15   17 1     
   35   15   39 1     
   36   16   40 1     
   37   16   41 1     
   38   16   42 1     
   39   17   18 1     
   40   17   19 1     
   41   17   20 1     
   42   21   22 1     
   43   21   43 1     
   44   21   44 1     
   45   22   45 1     
   46   22   46 1     
   47   23   24 ar    
   48   23   47 1     
   49   24   48 1     
   50   10   49 1     
   51   10   50 1     
   52   14   51 1     
@<TRIPOS>SUBSTRUCTURE
      1 S1             1
@<TRIPOS>SET
LONE_PAIRS      STATIC     ATOMS    <user>   **** ""
3 49 50 51
DONOR_HYDROGENS      STATIC     ATOMS    <user>   **** ""
2 34 48
ATOM$BLUE        STATIC     ATOMS    COLORGROUP SYSTEM
3 49 50 51
ATOM$RED        STATIC     ATOMS    COLORGROUP SYSTEM
2 34 48
