AV-unprocessed.smi:160|AV-procd|sdf|1344|dock6
  -GOLD-   2262019 43D 1   1.00000     0.00000
 Structure written by MMmdl.
 29 30  0  0  0  0  0  0  0  0  1 V2000
  152.8456  143.2359  160.4486 N   0  0  0  0  0  0  0  0  0  0  0  0
  152.5941  142.1459  159.7161 C   0  0  0  0  0  0  0  0  0  0  0  0
  153.3581  141.1825  159.6847 O   0  0  0  0  0  0  0  0  0  0  0  0
  151.3147  142.1577  158.9263 C   0  0  0  0  0  0  0  0  0  0  0  0
  150.5056  143.2584  158.9066 N   0  0  0  0  0  0  0  0  0  0  0  0
  149.5508  142.8007  158.1069 C   0  0  0  0  0  0  0  0  0  0  0  0
  149.7453  141.5480  157.6821 N   0  0  0  0  0  0  0  0  0  0  0  0
  148.9014  140.7000  156.7771 C   0  0  1  0  0  0  0  0  0  0  0  0
  147.7945  141.4527  156.3770 O   0  0  0  0  0  0  0  0  0  0  0  0
  147.9827  141.9126  155.0424 C   0  0  2  0  0  0  0  0  0  0  0  0
  146.6247  142.2615  154.4149 C   0  0  0  0  0  0  0  0  0  0  0  0
  145.7924  141.1214  154.4018 O   0  0  0  0  0  0  0  0  0  0  0  0
  148.6667  140.7032  154.4040 C   0  0  1  0  0  0  0  0  0  0  0  0
  149.2974  141.0104  153.1743 O   0  0  0  0  0  0  0  0  0  0  0  0
  149.6364  140.2443  155.4928 C   0  0  1  0  0  0  0  0  0  0  0  0
  150.9365  140.7937  155.3365 O   0  0  0  0  0  0  0  0  0  0  0  0
  150.9120  141.1043  158.2142 N   0  0  0  0  0  0  0  0  0  0  0  0
  148.5772  139.8707  157.4070 H   0  0  0  0  0  0  0  0  0  0  0  0
  148.6571  142.7711  155.0261 H   0  0  0  0  0  0  0  0  0  0  0  0
  147.9280  139.9185  154.2338 H   0  0  0  0  0  0  0  0  0  0  0  0
  149.7262  139.1576  155.4976 H   0  0  0  0  0  0  0  0  0  0  0  0
  153.6884  143.2889  161.0013 H   0  0  0  0  0  0  0  0  0  0  0  0
  152.1866  144.0015  160.4433 H   0  0  0  0  0  0  0  0  0  0  0  0
  148.6902  143.3902  157.8268 H   0  0  0  0  0  0  0  0  0  0  0  0
  146.1221  143.0261  155.0078 H   0  0  0  0  0  0  0  0  0  0  0  0
  146.7425  142.6585  153.4061 H   0  0  0  0  0  0  0  0  0  0  0  0
  145.2264  141.1706  153.6466 H   0  0  0  0  0  0  0  0  0  0  0  0
  149.0985  140.3243  152.5559 H   0  0  0  0  0  0  0  0  0  0  0  0
  151.4958  140.4446  156.0133 H   0  0  0  0  0  0  0  0  0  0  0  0
  1  2  1  0  0  0  0
  1 22  1  0  0  0  0
  1 23  1  0  0  0  0
  2  3  2  0  0  0  0
  2  4  1  0  0  0  0
  4 17  2  0  0  0  0
  4  5  1  0  0  0  0
  5  6  2  0  0  0  0
  6  7  1  0  0  0  0
  6 24  1  0  0  0  0
  7  8  1  0  0  0  0
  7 17  1  0  0  0  0
  8 18  1  0  0  0  0
  8 15  1  0  0  0  0
  8  9  1  0  0  0  0
  9 10  1  0  0  0  0
 10 19  1  0  0  0  0
 10 11  1  0  0  0  0
 10 13  1  0  0  0  0
 11 12  1  0  0  0  0
 11 25  1  0  0  0  0
 11 26  1  0  0  0  0
 12 27  1  0  0  0  0
 13 20  1  0  0  0  0
 13 14  1  0  0  0  0
 13 15  1  0  0  0  0
 14 28  1  0  0  0  0
 15 21  1  0  0  0  0
 15 16  1  0  0  0  0
 16 29  1  0  0  0  0
M  END
> <s_m_source_file>
AV-unprocessed.smi

> <i_m_source_file_index>
160

> <i_lp_mmshare_version>
43012

> <i_f3d_flags>
0

> <s_epik_input>
W05IMl1DKD1PKWMxbltjSF1uKG4xKVtDQEBIXTJPW0NASF0oW0NIMl1bT0hdKVtDQEBIXShbT0hdKVtDQEhdMltPSF0=

> <s_epik_cmdline>
J2VwaWtfcHl0aG9uJywgJy1waCcsICc3LjAnLCAnLXRuJywgJzgnLCAnLW1hJywgJzIwMCcsICctbWV0YWxfYmluZGluZycsICctaW1hZScsICc8aW5maWxlLm1hZT4nLCAnLW9tYWUnLCAnPG91dGZpbGUubWFlPic=

> <r_lp_tautomer_probability>
1

> <r_epik_Ionization_Penalty>
1.06932e-05

> <r_epik_Ionization_Penalty_Charging>
0

> <r_epik_Ionization_Penalty_Neutral>
1.06932e-05

> <r_epik_State_Penalty>
-0

> <r_epik_Charging_Adjusted_Penalty>
0

> <i_epik_Tot_Q>
0

> <i_epik_Tot_abs_Q>
0

> <r_epik_Metal_State_Penalty>
0.0142097

> <b_epik_Metal_Only>
0

> <s_epik_Chemistry_Notes>
This compound contains an acetal/aminal-like group ( X-CH(R)-Y where X, Y are N, S, or O) that may be acid/base labile, releasing an aldehyde.

> <s_lp_Force_Field>
OPLS_2005

> <r_lp_Energy>
46.1789

> <b_lp_Chiralities_Consistent>
1

> <s_lp_Variant>
AV-unprocessed.smi:160-2

> <Gold.Version>
5.8.1

> <Gold.Id.Protein>
6NUR|6NUR_protein|mol2

> <Gold.PLP.Fitness>
36.7973

> <Gold.PLP.PLP>
-24.5936

> <Gold.PLP.part.hbond>
-4.0662

> <Gold.PLP.part.metal>
0.0000

> <Gold.PLP.part.buried>
-3.8667

> <Gold.PLP.part.nonpolar>
-16.8431

> <Gold.PLP.part.repulsive>
0.2472

> <Gold.PLP.ligand.clash>
0.0000

> <Gold.PLP.ligand.torsion>
0.0207

> <Gold.PLP.Chemscore.Hbond>
3.4046

> <Gold.PLP.Chemscore.CHOScore>
0.6716

> <Gold.PLP.Chemscore.Metal>
0.0000

> <Gold.Chemscore.Hbonds>
donor molecule, donor type, donor heavy atom, donor atom, acceptor molecule, acceptor atom, score
      L1  H    12    27       P1 10175  0.98
      L1  H    14    28       P1  7957  0.61
      P1  H  7989  7998       L1    16  0.82
      P1  H  8011  8017       L1    14  1.00
      L1  C     6    24       P1  8028  0.53
      L1  C     6    24       P1  8029  0.14

> <Gold.PLP.Chemscore.Internal.Correction>
0.0165

> <Gold.Rescore>
     Score         DG    S(hbond)    S(metal)    S(lipo)     H(rot)  DE(clash)    DE(int)     intcor
      6.57      -7.99       3.02        0.00      24.19       4.06       0.16       1.26       ----

> <Gold.Chemscore.Fitness>
6.5709

> <Gold.Chemscore.DG>
-7.9886

> <Gold.Chemscore.ZeroCoef>
-5.4800

> <Gold.Chemscore.Hbond>
3.0157

> <Gold.Chemscore.Metal>
0.0000

> <Gold.Chemscore.Lipo>
24.1876

> <Gold.Chemscore.Internal_Hbond>
0.0000

> <Gold.Chemscore.DEClash>
0.1596

> <Gold.Chemscore.DEInternal>
1.2581

> <Gold.Chemscore.Rot>
4.0600

> <Gold.Chemscore.Internal.Correction>
   9.000000E+99

> <Gold.Chemscore.Hbonds>
donor molecule, donor type, donor heavy atom, donor atom, acceptor molecule, acceptor atom, score
      L1  H    12    27       P1 10175  0.44
      L1  H    14    28       P1  7957  0.58
      P1  H  7989  7998       L1    16  0.73
      P1  H  8011  8017       L1    14  0.70

> <Gold.Chemscore.Hbond.Weighted>
-10.0723

> <Gold.Chemscore.Metal.Weighted>
-0.0000

> <Gold.Chemscore.Lipo.Weighted>
-2.8299

> <Gold.Chemscore.Internal_Hbond.Weighted>
0.0000

> <Gold.Chemscore.DEClash.Weighted>
0.1596

> <Gold.Chemscore.DEInternal.Weighted>
1.2581

> <Gold.Chemscore.Rot.Weighted>
10.3936

> <Gold.Chemscore.Internal.Correction.Weighted>
   9.000000E+99

> <Gold.Protein.RotatedTorsions>
[ 6907 6896 6895 6894 ] final    6.57 input  -60.11 | X-H torsion
[ 7974 7965 7964 7962 ] final -171.68 input  175.53 | X-H torsion
[ 8008 7997 7996 7995 ] final -160.96 input   59.86 | X-H torsion
[ 10167 10162 10161 10158 ] final   10.55 input  -65.29 | X-H torsion
[ 10718 10713 10712 10709 ] final  -10.81 input   66.30 | X-H torsion
[ 10763 10752 10751 10750 ] final  -17.42 input  -60.55 | X-H torsion
[ 11005 11000 10999 10996 ] final -118.05 input  -57.11 | X-H torsion

> <Gold.Protein.ActiveResidues>
 VAL166  LYS551  ARG553  GLY616  TRP617  ASP618  TYR619  PRO620  LYS621  CYS622 
 ASP623  PHE694  ASN695  SER759  ASP760  ASP761  ALA762  ILE779  LEU786  VAL792 
 PHE793  MET794  SER795  GLU796  ALA797  LYS798  CYS799  TRP800  GLU811  SER814 

> <Gold.Protein.RotatedAtoms>
  151.6759  135.0969  160.0206 H   0  0  0  0  0  0  0  0  0  0  0  0  # atno 6907 bound_to 6896
  152.3864  133.6613  159.6211 H   0  0  0  0  0  0  0  0  0  0  0  0  # atno 6908 bound_to 6896
  150.7789  133.8944  159.3364 H   0  0  0  0  0  0  0  0  0  0  0  0  # atno 6909 bound_to 6896
  144.7154  140.1886  143.6351 H   0  0  0  0  0  0  0  0  0  0  0  0  # atno 7974 bound_to 7965
  155.7851  140.0870  157.2038 H   0  0  0  0  0  0  0  0  0  0  0  0  # atno 8008 bound_to 7997
  154.3988  140.1500  156.3156 H   0  0  0  0  0  0  0  0  0  0  0  0  # atno 8009 bound_to 7997
  155.8614  140.3430  155.5762 H   0  0  0  0  0  0  0  0  0  0  0  0  # atno 8010 bound_to 7997
  140.6187  143.8251  150.7149 H   0  0  0  0  0  0  0  0  0  0  0  0  # atno 10167 bound_to 10162
  156.6680  130.5001  149.6009 H   0  0  0  0  0  0  0  0  0  0  0  0  # atno 10718 bound_to 10713
  153.5736  135.7007  153.5494 H   0  0  0  0  0  0  0  0  0  0  0  0  # atno 10763 bound_to 10752
  153.3322  135.4044  155.1505 H   0  0  0  0  0  0  0  0  0  0  0  0  # atno 10764 bound_to 10752
  154.8629  135.3721  154.5260 H   0  0  0  0  0  0  0  0  0  0  0  0  # atno 10765 bound_to 10752
  141.0312  133.9978  157.3139 H   0  0  0  0  0  0  0  0  0  0  0  0  # atno 11005 bound_to 11000
  145.8789  139.2312  143.1617 LP  0  0  0  0  0  0  0  0  0  0  0  0  # atno 17320 bound_to 7965
  146.0014  140.8517  143.0017 LP  0  0  0  0  0  0  0  0  0  0  0  0  # atno 17321 bound_to 7965
  140.1837  143.4094  152.1914 LP  0  0  0  0  0  0  0  0  0  0  0  0  # atno 17342 bound_to 10162
  139.5420  144.7265  151.4703 LP  0  0  0  0  0  0  0  0  0  0  0  0  # atno 17343 bound_to 10162
  156.1960  130.6590  151.1114 LP  0  0  0  0  0  0  0  0  0  0  0  0  # atno 17370 bound_to 10713
  157.7087  131.0744  150.6578 LP  0  0  0  0  0  0  0  0  0  0  0  0  # atno 17371 bound_to 10713
  139.9209  135.0200  156.8061 LP  0  0  0  0  0  0  0  0  0  0  0  0  # atno 17394 bound_to 11000
  140.6403  133.9825  155.7704 LP  0  0  0  0  0  0  0  0  0  0  0  0  # atno 17395 bound_to 11000

$$$$
