#       Name:                AV-unprocessed.smi:3004
#       Creating user name   scv26
#       Creation time:       Fri Mar 27 16:37:11 2020


#       File generated by GOLD software.
#

@<TRIPOS>MOLECULE
AV-unprocessed.smi:3004
    50    51     1
SMALL
NO_CHARGES


@<TRIPOS>ATOM
      1 ****        -5.4418   1.9451  -0.2493 C.3            1 S1                 0.0000
      2 ****        -4.6081   0.9853  -1.0455 C.2            1 S1                 0.0000
      3 ****        -4.1415   1.1221  -2.3826 C.2            1 S1                 0.0000
      4 ****        -3.4352  -0.0246  -2.6133 C.2            1 S1                 0.0000
      5 ****        -2.7000  -0.4739  -3.8330 C.3            1 S1                 0.0000
      6 ****        -3.5032  -0.7776  -1.4543 N.pl3          1 S1                 0.0000
      7 ****        -2.9179  -2.0784  -1.1686 C.3            1 S1                 0.0000
      8 ****        -1.4756  -1.9426  -0.6782 C.2            1 S1                 0.0000
      9 ****        -0.5407  -2.2557  -1.4153 O.2            1 S1                 0.0000
     10 ****        -1.3076  -1.4739   0.5683 N.am           1 S1                 0.0000
     11 ****        -0.0190  -1.2687   1.2168 C.3            1 S1                 0.0000
     12 ****         0.6669   0.0149   0.7077 C.3            1 S1                 0.0000
     13 ****         1.9541   0.3127   1.3928 N.4            1 S1                 1.0000
     14 ****         2.4319   1.6910   1.0982 C.3            1 S1                 0.0000
     15 ****         3.6389   2.0672   1.9720 C.3            1 S1                 0.0000
     16 ****         4.7749   1.0524   1.8079 C.3            1 S1                 0.0000
     17 ****         4.2542  -0.3611   2.1007 C.3            1 S1                 0.0000
     18 ****         3.0257  -0.7223   1.2383 C.3            1 S1                 0.0000
     19 ****         3.4059  -1.0062  -0.2308 C.3            1 S1                 0.0000
     20 ****        -4.2207  -0.1532  -0.4943 N.2            1 S1                 0.0000
     21 ****        -5.7690   2.7849  -0.8626 H              1 S1                 0.0000
     22 ****        -4.8785   2.3490   0.5923 H              1 S1                 0.0000
     23 ****        -6.3330   1.4579   0.1472 H              1 S1                 0.0000
     24 ****        -4.3020   1.9397  -3.0697 H              1 S1                 0.0000
     25 ****        -2.7500   0.2811  -4.6178 H              1 S1                 0.0000
     26 ****        -3.1278  -1.3956  -4.2277 H              1 S1                 0.0000
     27 ****        -1.6486  -0.6544  -3.6095 H              1 S1                 0.0000
     28 ****        -3.5189  -2.5907  -0.4155 H              1 S1                 0.0000
     29 ****        -2.9520  -2.6912  -2.0702 H              1 S1                 0.0000
     30 ****        -2.1338  -1.2387   1.1001 H              1 S1                 0.0000
     31 ****        -0.1849  -1.2033   2.2924 H              1 S1                 0.0000
     32 ****         0.5983  -2.1508   1.0459 H              1 S1                 0.0000
     33 ****         0.8188  -0.0231  -0.3712 H              1 S1                 0.0000
     34 ****        -0.0149   0.8488   0.8814 H              1 S1                 0.0000
     35 ****         2.6841   1.7822   0.0412 H              1 S1                 0.0000
     36 ****         1.6285   2.4042   1.2864 H              1 S1                 0.0000
     37 ****         3.9908   3.0661   1.7127 H              1 S1                 0.0000
     38 ****         3.3337   2.1090   3.0185 H              1 S1                 0.0000
     39 ****         5.1786   1.1040   0.7961 H              1 S1                 0.0000
     40 ****         5.5962   1.2967   2.4821 H              1 S1                 0.0000
     41 ****         5.0506  -1.0914   1.9525 H              1 S1                 0.0000
     42 ****         3.9814  -0.4250   3.1550 H              1 S1                 0.0000
     43 ****         2.6481  -1.6564   1.6519 H              1 S1                 0.0000
     44 ****         4.2038  -1.7472  -0.2844 H              1 S1                 0.0000
     45 ****         3.7578  -0.1148  -0.7491 H              1 S1                 0.0000
     46 ****         2.5668  -1.4117  -0.7955 H              1 S1                 0.0000
     47 ****         1.7334   0.3193   2.3784 H              1 S1                 0.0000
     48 ****        -0.7236  -2.5995  -2.3363 LP             1 S1                 0.0000
     49 ****         0.4017  -2.1663  -1.0930 LP             1 S1                 0.0000
     50 ****        -4.4160  -0.4802   0.4304 LP             1 S1                 0.0000
@<TRIPOS>BOND
    1    1    2 1     
    2    1   21 1     
    3    1   22 1     
    4    1   23 1     
    5    2   20 2     
    6    2    3 1     
    7    3    4 2     
    8    3   24 1     
    9    4    5 1     
   10    4    6 1     
   11    5   25 1     
   12    5   26 1     
   13    5   27 1     
   14    6    7 1     
   15    6   20 1     
   16    7    8 1     
   17    7   28 1     
   18    7   29 1     
   19    8    9 2     
   20    8   10 am    
   21   10   11 1     
   22   10   30 1     
   23   11   12 1     
   24   11   31 1     
   25   11   32 1     
   26   12   13 1     
   27   12   33 1     
   28   12   34 1     
   29   13   18 1     
   30   13   14 1     
   31   13   47 1     
   32   14   15 1     
   33   14   35 1     
   34   14   36 1     
   35   15   16 1     
   36   15   37 1     
   37   15   38 1     
   38   16   17 1     
   39   16   39 1     
   40   16   40 1     
   41   17   18 1     
   42   17   41 1     
   43   17   42 1     
   44   18   19 1     
   45   18   43 1     
   46   19   44 1     
   47   19   45 1     
   48   19   46 1     
   49    9   48 1     
   50    9   49 1     
   51   20   50 1     
@<TRIPOS>SUBSTRUCTURE
      1 S1             1
@<TRIPOS>SET
LONE_PAIRS      STATIC     ATOMS    <user>   **** ""
3 48 49 50
DONOR_HYDROGENS      STATIC     ATOMS    <user>   **** ""
2 30 47
ATOM$BLUE        STATIC     ATOMS    COLORGROUP SYSTEM
3 48 49 50
ATOM$RED        STATIC     ATOMS    COLORGROUP SYSTEM
2 30 47
