AV-unprocessed.smi:2721|AV-procd|sdf|10503|dock7
  -GOLD-   2272014543D 1   1.00000     0.00000
 Structure written by MMmdl.
 29 30  0  0  0  0  0  0  0  0  2 V2000
  148.6710  140.9666  154.2817 C   0  0  0  0  0  0  0  0  0  0  0  0
  149.8238  140.9755  155.1566 N   0  0  0  0  0  0  0  0  0  0  0  0
  150.1033  141.8271  156.2035 C   0  0  0  0  0  0  0  0  0  0  0  0
  151.3036  141.4448  156.7348 C   0  0  0  0  0  0  0  0  0  0  0  0
  152.0692  142.0572  157.8784 C   0  0  2  0  0  0  0  0  0  0  0  0
  152.1276  141.1397  158.9692 O   0  0  0  0  0  0  0  0  0  0  0  0
  152.9160  141.5903  160.0656 C   0  0  0  0  0  0  0  0  0  0  0  0
  152.2979  142.8646  160.6572 C   0  0  0  0  0  0  0  0  0  0  0  0
  152.1658  143.9390  159.5741 C   0  0  0  0  0  0  0  0  0  0  0  0
  151.4109  143.3733  158.3615 C   0  0  1  0  0  0  0  0  0  0  0  0
  151.3525  144.3785  157.2829 N   0  3  0  0  0  0  0  0  0  0  0  0
  151.6813  140.3336  155.9276 C   0  0  0  0  0  0  0  0  0  0  0  0
  150.7959  140.0565  154.9855 N   0  0  0  0  0  0  0  0  0  0  0  0
  153.0927  142.2653  157.5604 H   0  0  0  0  0  0  0  0  0  0  0  0
  150.3832  143.1623  158.6616 H   0  0  0  0  0  0  0  0  0  0  0  0
  148.0922  141.8806  154.4169 H   0  0  0  0  0  0  0  0  0  0  0  0
  148.0399  140.1084  154.5145 H   0  0  0  0  0  0  0  0  0  0  0  0
  148.9932  140.9032  153.2418 H   0  0  0  0  0  0  0  0  0  0  0  0
  149.4334  142.6279  156.4813 H   0  0  0  0  0  0  0  0  0  0  0  0
  152.9496  140.8049  160.8207 H   0  0  0  0  0  0  0  0  0  0  0  0
  153.9435  141.7661  159.7435 H   0  0  0  0  0  0  0  0  0  0  0  0
  151.3150  142.6353  161.0712 H   0  0  0  0  0  0  0  0  0  0  0  0
  152.9075  143.2326  161.4830 H   0  0  0  0  0  0  0  0  0  0  0  0
  151.6496  144.8121  159.9751 H   0  0  0  0  0  0  0  0  0  0  0  0
  153.1600  144.2728  159.2726 H   0  0  0  0  0  0  0  0  0  0  0  0
  150.4852  144.2807  156.7744 H   0  0  0  0  0  0  0  0  0  0  0  0
  152.1295  144.2427  156.6523 H   0  0  0  0  0  0  0  0  0  0  0  0
  152.5717  139.7264  155.9960 H   0  0  0  0  0  0  0  0  0  0  0  0
  151.4043  145.3042  157.6842 H   0  0  0  0  0  0  0  0  0  0  0  0
  1  2  1  0  0  0  0
  1 16  1  0  0  0  0
  1 17  1  0  0  0  0
  1 18  1  0  0  0  0
  2 13  1  0  0  0  0
  2  3  1  0  0  0  0
  3  4  2  0  0  0  0
  3 19  1  0  0  0  0
  4  5  1  0  0  0  0
  4 12  1  0  0  0  0
  5 14  1  0  0  0  0
  5 10  1  0  0  0  0
  5  6  1  0  0  0  0
  6  7  1  0  0  0  0
  7  8  1  0  0  0  0
  7 20  1  0  0  0  0
  7 21  1  0  0  0  0
  8  9  1  0  0  0  0
  8 22  1  0  0  0  0
  8 23  1  0  0  0  0
  9 10  1  0  0  0  0
  9 24  1  0  0  0  0
  9 25  1  0  0  0  0
 10 15  1  0  0  0  0
 10 11  1  0  0  0  0
 11 26  1  0  0  0  0
 11 27  1  0  0  0  0
 11 29  1  0  0  0  0
 12 13  2  0  0  0  0
 12 28  1  0  0  0  0
M  CHG  1  11   1
M  END
> <s_m_source_file>
AV-unprocessed.smi

> <i_m_source_file_index>
2721

> <i_lp_mmshare_version>
43012

> <i_f3d_flags>
0

> <s_epik_input>
W0NIM11uMVtjSF1jKFtjSF1uMSlbQ0BIXTJPW0NIMl1bQ0gyXVtDSDJdW0NAQEhdMltOSDJd

> <s_epik_cmdline>
J2VwaWtfcHl0aG9uJywgJy1waCcsICc3LjAnLCAnLXRuJywgJzgnLCAnLW1hJywgJzIwMCcsICctbWV0YWxfYmluZGluZycsICctaW1hZScsICc8aW5maWxlLm1hZT4nLCAnLW9tYWUnLCAnPG91dGZpbGUubWFlPic=

> <r_lp_tautomer_probability>
1

> <r_epik_Ionization_Penalty>
0.0061467

> <r_epik_Ionization_Penalty_Charging>
0.00611941

> <r_epik_Ionization_Penalty_Neutral>
2.72888e-05

> <r_epik_State_Penalty>
0.00451057

> <r_epik_Charging_Adjusted_Penalty>
0.01063

> <i_epik_Tot_Q>
1

> <i_epik_Tot_abs_Q>
1

> <r_epik_Metal_State_Penalty>
-0

> <b_epik_Metal_Only>
0

> <s_lp_Force_Field>
OPLS_2005

> <r_lp_Energy>
11.0235

> <b_lp_Chiralities_Consistent>
1

> <s_lp_Variant>
AV-unprocessed.smi:2721-4

> <Gold.Version>
5.8.1

> <Gold.Id.Protein>
6NUR|6NUR_protein|mol2

> <Gold.PLP.Fitness>
41.7202

> <Gold.PLP.PLP>
-29.9073

> <Gold.PLP.part.hbond>
-2.0000

> <Gold.PLP.part.metal>
0.0000

> <Gold.PLP.part.buried>
-3.1341

> <Gold.PLP.part.nonpolar>
-23.7768

> <Gold.PLP.part.repulsive>
0.0940

> <Gold.PLP.ligand.clash>
0.0000

> <Gold.PLP.ligand.torsion>
0.0954

> <Gold.PLP.Chemscore.Hbond>
3.0000

> <Gold.PLP.Chemscore.CHOScore>
1.0000

> <Gold.PLP.Chemscore.Metal>
0.0000

> <Gold.Chemscore.Hbonds>
donor molecule, donor type, donor heavy atom, donor atom, acceptor molecule, acceptor atom, score
      L1  H    11    26       P1  8028  2.00
      P1  H  7989  7998       L1    13  0.85
      L1  C     3    19       P1  8028  1.00

> <Gold.PLP.Chemscore.Internal.Correction>
0.0037

> <Gold.Rescore>
     Score         DG    S(hbond)    S(metal)    S(lipo)     H(rot)  DE(clash)    DE(int)     intcor
     15.41     -16.21       1.15        0.00      80.89       1.00       0.35       0.45       ----

> <Gold.Chemscore.Fitness>
15.4109

> <Gold.Chemscore.DG>
-16.2106

> <Gold.Chemscore.ZeroCoef>
-5.4800

> <Gold.Chemscore.Hbond>
1.1457

> <Gold.Chemscore.Metal>
0.0000

> <Gold.Chemscore.Lipo>
80.8887

> <Gold.Chemscore.Internal_Hbond>
0.0000

> <Gold.Chemscore.DEClash>
0.3538

> <Gold.Chemscore.DEInternal>
0.4459

> <Gold.Chemscore.Rot>
1.0000

> <Gold.Chemscore.Internal.Correction>
   9.000000E+99

> <Gold.Chemscore.Hbonds>
donor molecule, donor type, donor heavy atom, donor atom, acceptor molecule, acceptor atom, score
      L1  H    11    26       P1  8028  0.96
      P1  H  7989  7998       L1    13  0.04

> <Gold.Chemscore.Hbond.Weighted>
-3.8266

> <Gold.Chemscore.Metal.Weighted>
-0.0000

> <Gold.Chemscore.Lipo.Weighted>
-9.4640

> <Gold.Chemscore.Internal_Hbond.Weighted>
0.0000

> <Gold.Chemscore.DEClash.Weighted>
0.3538

> <Gold.Chemscore.DEInternal.Weighted>
0.4459

> <Gold.Chemscore.Rot.Weighted>
2.5600

> <Gold.Chemscore.Internal.Correction.Weighted>
   9.000000E+99

> <Gold.Protein.RotatedTorsions>
[ 6907 6896 6895 6894 ] final   28.75 input  -60.11 | X-H torsion
[ 7974 7965 7964 7962 ] final  162.49 input  175.53 | X-H torsion
[ 8008 7997 7996 7995 ] final -135.11 input   59.86 | X-H torsion
[ 10167 10162 10161 10158 ] final   24.22 input  -65.29 | X-H torsion
[ 10718 10713 10712 10709 ] final -110.14 input   66.30 | X-H torsion
[ 10763 10752 10751 10750 ] final -106.84 input  -60.55 | X-H torsion
[ 11005 11000 10999 10996 ] final   27.66 input  -57.11 | X-H torsion

> <Gold.Protein.ActiveResidues>
 VAL166  LYS551  ARG553  GLY616  TRP617  ASP618  TYR619  PRO620  LYS621  CYS622 
 ASP623  PHE694  ASN695  SER759  ASP760  ASP761  ALA762  ILE779  LEU786  VAL792 
 PHE793  MET794  SER795  GLU796  ALA797  LYS798  CYS799  TRP800  GLU811  SER814 

> <Gold.Protein.RotatedAtoms>
  152.0215  134.9820  160.0570 H   0  0  0  0  0  0  0  0  0  0  0  0  # atno 6907 bound_to 6896
  152.1333  133.4415  159.4739 H   0  0  0  0  0  0  0  0  0  0  0  0  # atno 6908 bound_to 6896
  150.6858  134.2313  159.4479 H   0  0  0  0  0  0  0  0  0  0  0  0  # atno 6909 bound_to 6896
  144.7634  139.8048  143.6324 H   0  0  0  0  0  0  0  0  0  0  0  0  # atno 7974 bound_to 7965
  155.3732  140.0489  157.3045 H   0  0  0  0  0  0  0  0  0  0  0  0  # atno 8008 bound_to 7997
  154.5119  140.2194  155.9102 H   0  0  0  0  0  0  0  0  0  0  0  0  # atno 8009 bound_to 7997
  156.1592  140.3120  155.8784 H   0  0  0  0  0  0  0  0  0  0  0  0  # atno 8010 bound_to 7997
  140.5205  144.0010  150.6415 H   0  0  0  0  0  0  0  0  0  0  0  0  # atno 10167 bound_to 10162
  156.0575  130.5800  150.8197 H   0  0  0  0  0  0  0  0  0  0  0  0  # atno 10718 bound_to 10713
  154.8038  135.4697  154.0341 H   0  0  0  0  0  0  0  0  0  0  0  0  # atno 10763 bound_to 10752
  153.1826  135.6843  153.8465 H   0  0  0  0  0  0  0  0  0  0  0  0  # atno 10764 bound_to 10752
  153.8010  135.3230  155.3367 H   0  0  0  0  0  0  0  0  0  0  0  0  # atno 10765 bound_to 10752
  140.3239  134.2513  155.7712 H   0  0  0  0  0  0  0  0  0  0  0  0  # atno 11005 bound_to 11000
  146.1719  139.4873  142.9922 LP  0  0  0  0  0  0  0  0  0  0  0  0  # atno 17320 bound_to 7965
  145.6547  141.0255  143.1741 LP  0  0  0  0  0  0  0  0  0  0  0  0  # atno 17321 bound_to 7965
  140.3357  143.3050  152.0641 LP  0  0  0  0  0  0  0  0  0  0  0  0  # atno 17342 bound_to 10162
  139.4922  144.6478  151.6741 LP  0  0  0  0  0  0  0  0  0  0  0  0  # atno 17343 bound_to 10162
  157.5557  131.0945  150.9632 LP  0  0  0  0  0  0  0  0  0  0  0  0  # atno 17370 bound_to 10713
  156.9882  130.5553  149.5301 LP  0  0  0  0  0  0  0  0  0  0  0  0  # atno 17371 bound_to 10713
  141.2080  133.7790  157.0086 LP  0  0  0  0  0  0  0  0  0  0  0  0  # atno 17394 bound_to 11000
  140.0918  134.9588  157.1788 LP  0  0  0  0  0  0  0  0  0  0  0  0  # atno 17395 bound_to 11000

$$$$
