AV-unprocessed.smi:2692|AV-procd|sdf|10396|dock5
  -GOLD-   2272014433D 1   1.00000     0.00000
 Structure written by MMmdl.
 20 20  0  0  0  0  0  0  0  0  3 V2000
  147.9711  138.7568  152.5280 N   0  3  0  0  0  0  0  0  0  0  0  0
  148.1286  139.2331  153.9116 C   0  0  0  0  0  0  0  0  0  0  0  0
  149.3961  140.0832  154.0663 C   0  0  0  0  0  0  0  0  0  0  0  0
  150.5161  139.3117  154.7335 C   0  0  0  0  0  0  0  0  0  0  0  0
  150.8981  138.0356  154.2674 C   0  0  0  0  0  0  0  0  0  0  0  0
  151.8947  137.3102  154.8179 N   0  0  0  0  0  0  0  0  0  0  0  0
  152.5547  137.8406  155.8705 C   0  0  0  0  0  0  0  0  0  0  0  0
  152.2521  139.1070  156.4126 C   0  0  0  0  0  0  0  0  0  0  0  0
  152.9523  139.5995  157.4747 O   0  5  0  0  0  0  0  0  0  0  0  0
  151.2109  139.8561  155.8326 C   0  0  0  0  0  0  0  0  0  0  0  0
  148.3353  137.8179  152.4525 H   0  0  0  0  0  0  0  0  0  0  0  0
  148.4793  139.3666  151.9037 H   0  0  0  0  0  0  0  0  0  0  0  0
  147.2465  139.8130  154.1854 H   0  0  0  0  0  0  0  0  0  0  0  0
  148.1668  138.3694  154.5766 H   0  0  0  0  0  0  0  0  0  0  0  0
  149.7387  140.4292  153.0900 H   0  0  0  0  0  0  0  0  0  0  0  0
  149.1817  140.9774  154.6532 H   0  0  0  0  0  0  0  0  0  0  0  0
  150.3935  137.5853  153.4252 H   0  0  0  0  0  0  0  0  0  0  0  0
  153.3473  137.2370  156.2886 H   0  0  0  0  0  0  0  0  0  0  0  0
  150.9530  140.8310  156.2204 H   0  0  0  0  0  0  0  0  0  0  0  0
  146.9921  138.7595  152.2797 H   0  0  0  0  0  0  0  0  0  0  0  0
  1  2  1  0  0  0  0
  1 11  1  0  0  0  0
  1 12  1  0  0  0  0
  1 20  1  0  0  0  0
  2  3  1  0  0  0  0
  2 13  1  0  0  0  0
  2 14  1  0  0  0  0
  3  4  1  0  0  0  0
  3 15  1  0  0  0  0
  3 16  1  0  0  0  0
  4 10  1  0  0  0  0
  4  5  2  0  0  0  0
  5  6  1  0  0  0  0
  5 17  1  0  0  0  0
  6  7  2  0  0  0  0
  7  8  1  0  0  0  0
  7 18  1  0  0  0  0
  8  9  1  0  0  0  0
  8 10  2  0  0  0  0
 10 19  1  0  0  0  0
M  CHG  1   1   1
M  CHG  1   9  -1
M  END
> <s_m_source_file>
AV-unprocessed.smi

> <i_m_source_file_index>
2692

> <i_lp_mmshare_version>
43012

> <i_f3d_flags>
0

> <s_epik_input>
W05IMl1bQ0gyXVtDSDJdYzFbY0hdbltjSF1jKFtPSF0pW2NIXTE=

> <s_epik_cmdline>
J2VwaWtfcHl0aG9uJywgJy1waCcsICc3LjAnLCAnLXRuJywgJzgnLCAnLW1hJywgJzIwMCcsICctbWV0YWxfYmluZGluZycsICctaW1hZScsICc8aW5maWxlLm1hZT4nLCAnLW9tYWUnLCAnPG91dGZpbGUubWFlPic=

> <r_epik_Ionization_Penalty>
3.23431

> <r_epik_Ionization_Penalty_Charging>
1.61725

> <r_epik_Ionization_Penalty_Neutral>
1.61706

> <r_epik_State_Penalty>
2.11228

> <r_epik_Charging_Adjusted_Penalty>
3.72953

> <i_epik_Tot_Q>
0

> <i_epik_Tot_abs_Q>
2

> <r_epik_Metal_State_Penalty>
0.426281

> <b_epik_Metal_Only>
0

> <s_lp_Force_Field>
OPLS_2005

> <r_lp_Energy>
-2.16473

> <b_lp_Chiralities_Consistent>
1

> <s_lp_Variant>
AV-unprocessed.smi:2692-3

> <Gold.Version>
5.8.1

> <Gold.Id.Protein>
6NUR|6NUR_protein|mol2

> <Gold.PLP.Fitness>
39.6602

> <Gold.PLP.PLP>
-19.3626

> <Gold.PLP.part.hbond>
-4.0000

> <Gold.PLP.part.metal>
0.0000

> <Gold.PLP.part.buried>
-0.8791

> <Gold.PLP.part.nonpolar>
-15.8063

> <Gold.PLP.part.repulsive>
0.1824

> <Gold.PLP.ligand.clash>
0.0000

> <Gold.PLP.ligand.torsion>
0.3880

> <Gold.PLP.Chemscore.Hbond>
5.9120

> <Gold.PLP.Chemscore.CHOScore>
1.1125

> <Gold.PLP.Chemscore.Metal>
0.0000

> <Gold.Chemscore.Hbonds>
donor molecule, donor type, donor heavy atom, donor atom, acceptor molecule, acceptor atom, score
      L1  H     1    11       P1  7948  2.00
      L1  H     1    12       P1  7957  0.89
      P1  H  7997  8009       L1     9  2.00
      P1  H 10752 10764       L1     6  0.94
      L1  C     5    17       P1  7948  0.79
      L1  C     5    17       P1  7949  0.33

> <Gold.PLP.Chemscore.Internal.Correction>
0.0003

> <Gold.Rescore>
     Score         DG    S(hbond)    S(metal)    S(lipo)     H(rot)  DE(clash)    DE(int)     intcor
     18.57     -19.06       3.55        0.00      43.81       1.33       0.04       0.46       ----

> <Gold.Chemscore.Fitness>
18.5666

> <Gold.Chemscore.DG>
-19.0628

> <Gold.Chemscore.ZeroCoef>
-5.4800

> <Gold.Chemscore.Hbond>
3.5526

> <Gold.Chemscore.Metal>
0.0000

> <Gold.Chemscore.Lipo>
43.8061

> <Gold.Chemscore.Internal_Hbond>
0.0000

> <Gold.Chemscore.DEClash>
0.0361

> <Gold.Chemscore.DEInternal>
0.4602

> <Gold.Chemscore.Rot>
1.3313

> <Gold.Chemscore.Internal.Correction>
   9.000000E+99

> <Gold.Chemscore.Hbonds>
donor molecule, donor type, donor heavy atom, donor atom, acceptor molecule, acceptor atom, score
      L1  H     1    11       P1  7948  1.00
      L1  H     1    12       P1  7957  0.85
      P1  H  7997  8009       L1     9  0.78
      P1  H 10752 10764       L1     6  0.30

> <Gold.Chemscore.Hbond.Weighted>
-11.8656

> <Gold.Chemscore.Metal.Weighted>
-0.0000

> <Gold.Chemscore.Lipo.Weighted>
-5.1253

> <Gold.Chemscore.Internal_Hbond.Weighted>
0.0000

> <Gold.Chemscore.DEClash.Weighted>
0.0361

> <Gold.Chemscore.DEInternal.Weighted>
0.4602

> <Gold.Chemscore.Rot.Weighted>
3.4082

> <Gold.Chemscore.Internal.Correction.Weighted>
   9.000000E+99

> <Gold.Protein.RotatedTorsions>
[ 6907 6896 6895 6894 ] final   42.26 input  -60.11 | X-H torsion
[ 7974 7965 7964 7962 ] final  136.37 input  175.53 | X-H torsion
[ 8008 7997 7996 7995 ] final  151.25 input   59.86 | X-H torsion
[ 10167 10162 10161 10158 ] final   93.57 input  -65.29 | X-H torsion
[ 10718 10713 10712 10709 ] final  -10.77 input   66.30 | X-H torsion
[ 10763 10752 10751 10750 ] final  -66.71 input  -60.55 | X-H torsion
[ 11005 11000 10999 10996 ] final   45.11 input  -57.11 | X-H torsion

> <Gold.Protein.ActiveResidues>
 VAL166  LYS551  ARG553  GLY616  TRP617  ASP618  TYR619  PRO620  LYS621  CYS622 
 ASP623  PHE694  ASN695  SER759  ASP760  ASP761  ALA762  ILE779  LEU786  VAL792 
 PHE793  MET794  SER795  GLU796  ALA797  LYS798  CYS799  TRP800  GLU811  SER814 

> <Gold.Protein.RotatedAtoms>
  152.2056  134.8548  160.0502 H   0  0  0  0  0  0  0  0  0  0  0  0  # atno 6907 bound_to 6896
  151.9386  133.3626  159.3965 H   0  0  0  0  0  0  0  0  0  0  0  0  # atno 6908 bound_to 6896
  150.6964  134.4387  159.5326 H   0  0  0  0  0  0  0  0  0  0  0  0  # atno 6909 bound_to 6896
  144.9572  139.4751  143.5497 H   0  0  0  0  0  0  0  0  0  0  0  0  # atno 7974 bound_to 7965
  156.2682  140.2053  156.6146 H   0  0  0  0  0  0  0  0  0  0  0  0  # atno 8008 bound_to 7997
  154.6805  140.0540  157.0285 H   0  0  0  0  0  0  0  0  0  0  0  0  # atno 8009 bound_to 7997
  155.1007  140.3206  155.4550 H   0  0  0  0  0  0  0  0  0  0  0  0  # atno 8010 bound_to 7997
  139.8167  144.6750  150.9571 H   0  0  0  0  0  0  0  0  0  0  0  0  # atno 10167 bound_to 10162
  156.6686  130.5003  149.6007 H   0  0  0  0  0  0  0  0  0  0  0  0  # atno 10718 bound_to 10713
  154.3638  135.6110  153.5704 H   0  0  0  0  0  0  0  0  0  0  0  0  # atno 10763 bound_to 10752
  152.9792  135.5821  154.4602 H   0  0  0  0  0  0  0  0  0  0  0  0  # atno 10764 bound_to 10752
  154.4344  135.2848  155.1868 H   0  0  0  0  0  0  0  0  0  0  0  0  # atno 10765 bound_to 10752
  140.1490  134.4486  155.8395 H   0  0  0  0  0  0  0  0  0  0  0  0  # atno 11005 bound_to 11000
  146.3341  139.8697  142.8842 LP  0  0  0  0  0  0  0  0  0  0  0  0  # atno 17320 bound_to 7965
  145.2755  141.0122  143.3747 LP  0  0  0  0  0  0  0  0  0  0  0  0  # atno 17321 bound_to 7965
  140.7815  143.4132  151.0959 LP  0  0  0  0  0  0  0  0  0  0  0  0  # atno 17342 bound_to 10162
  139.7795  143.8376  152.3135 LP  0  0  0  0  0  0  0  0  0  0  0  0  # atno 17343 bound_to 10162
  156.1956  130.6587  151.1110 LP  0  0  0  0  0  0  0  0  0  0  0  0  # atno 17370 bound_to 10713
  157.7085  131.0745  150.6584 LP  0  0  0  0  0  0  0  0  0  0  0  0  # atno 17371 bound_to 10713
  141.2196  133.6864  156.7386 LP  0  0  0  0  0  0  0  0  0  0  0  0  # atno 17394 bound_to 11000
  140.2628  134.8453  157.3775 LP  0  0  0  0  0  0  0  0  0  0  0  0  # atno 17395 bound_to 11000

$$$$
