AV-unprocessed.smi:1548|AV-procd|sdf|6221|dock6
  -GOLD-   22720 6393D 1   1.00000     0.00000
 Structure written by MMmdl.
 45 46  0  0  0  0  0  0  0  0  1 V2000
  145.9779  132.6164  150.4522 C   0  0  0  0  0  0  0  0  0  0  0  0
  145.6683  133.1175  151.8649 C   0  0  0  0  0  0  0  0  0  0  0  0
  146.8927  133.4661  152.5039 O   0  0  0  0  0  0  0  0  0  0  0  0
  147.6406  132.4664  153.0967 C   0  0  0  0  0  0  0  0  0  0  0  0
  147.2207  131.1826  152.9683 N   0  0  0  0  0  0  0  0  0  0  0  0
  147.9522  130.2061  153.5434 C   0  0  0  0  0  0  0  0  0  0  0  0
  149.1339  130.4527  154.2661 C   0  0  0  0  0  0  0  0  0  0  0  0
  149.5708  131.7831  154.4021 C   0  0  0  0  0  0  0  0  0  0  0  0
  148.8060  132.8203  153.8158 C   0  0  0  0  0  0  0  0  0  0  0  0
  149.1762  134.1916  153.8747 N   0  0  0  0  0  0  0  0  0  0  0  0
  149.9910  134.7934  154.7573 C   0  0  0  0  0  0  0  0  0  0  0  0
  150.5205  134.2423  155.7222 O   0  0  0  0  0  0  0  0  0  0  0  0
  150.1402  136.0940  154.4681 N   0  0  0  0  0  0  0  0  0  0  0  0
  150.9398  137.0496  155.2302 C   0  0  0  0  0  0  0  0  0  0  0  0
  150.2820  137.3278  156.5903 C   0  0  0  0  0  0  0  0  0  0  0  0
  151.0564  138.3981  157.3798 C   0  0  0  0  0  0  0  0  0  0  0  0
  151.2427  139.6318  156.5895 N   0  0  0  0  0  0  0  0  0  0  0  0
  150.2276  141.0148  156.8825 S   0  0  0  0  0  0  0  0  0  0  0  0
  151.3421  142.2240  157.7068 C   0  0  0  0  0  0  0  0  0  0  0  0
  149.8341  141.5687  155.5778 O   0  0  0  0  0  0  0  0  0  0  0  0
  149.1916  140.6154  157.8472 O   0  0  0  0  0  0  0  0  0  0  0  0
  151.8386  139.4242  155.2544 C   0  0  0  0  0  0  0  0  0  0  0  0
  151.0696  138.3636  154.4471 C   0  0  0  0  0  0  0  0  0  0  0  0
  145.0621  132.3518  149.9235 H   0  0  0  0  0  0  0  0  0  0  0  0
  146.6147  131.7321  150.4816 H   0  0  0  0  0  0  0  0  0  0  0  0
  146.4915  133.3812  149.8693 H   0  0  0  0  0  0  0  0  0  0  0  0
  145.0086  133.9848  151.8080 H   0  0  0  0  0  0  0  0  0  0  0  0
  145.1535  132.3358  152.4256 H   0  0  0  0  0  0  0  0  0  0  0  0
  147.5880  129.1973  153.4178 H   0  0  0  0  0  0  0  0  0  0  0  0
  149.6959  129.6395  154.7011 H   0  0  0  0  0  0  0  0  0  0  0  0
  150.4874  131.9819  154.9361 H   0  0  0  0  0  0  0  0  0  0  0  0
  148.7217  134.7918  153.2021 H   0  0  0  0  0  0  0  0  0  0  0  0
  149.6591  136.4543  153.6570 H   0  0  0  0  0  0  0  0  0  0  0  0
  151.9435  136.6550  155.4001 H   0  0  0  0  0  0  0  0  0  0  0  0
  149.2504  137.6479  156.4458 H   0  0  0  0  0  0  0  0  0  0  0  0
  150.2353  136.4086  157.1753 H   0  0  0  0  0  0  0  0  0  0  0  0
  150.5485  138.6200  158.3179 H   0  0  0  0  0  0  0  0  0  0  0  0
  152.0399  138.0104  157.6478 H   0  0  0  0  0  0  0  0  0  0  0  0
  150.7787  143.1283  157.9348 H   0  0  0  0  0  0  0  0  0  0  0  0
  152.1671  142.4798  157.0443 H   0  0  0  0  0  0  0  0  0  0  0  0
  151.7244  141.8038  158.6354 H   0  0  0  0  0  0  0  0  0  0  0  0
  151.8775  140.3643  154.7048 H   0  0  0  0  0  0  0  0  0  0  0  0
  152.8724  139.1027  155.3859 H   0  0  0  0  0  0  0  0  0  0  0  0
  151.5852  138.1829  153.5031 H   0  0  0  0  0  0  0  0  0  0  0  0
  150.0813  138.7401  154.1854 H   0  0  0  0  0  0  0  0  0  0  0  0
  1  2  1  0  0  0  0
  1 24  1  0  0  0  0
  1 25  1  0  0  0  0
  1 26  1  0  0  0  0
  2  3  1  0  0  0  0
  2 27  1  0  0  0  0
  2 28  1  0  0  0  0
  3  4  1  0  0  0  0
  4  9  1  0  0  0  0
  4  5  2  0  0  0  0
  5  6  1  0  0  0  0
  6  7  2  0  0  0  0
  6 29  1  0  0  0  0
  7  8  1  0  0  0  0
  7 30  1  0  0  0  0
  8  9  2  0  0  0  0
  8 31  1  0  0  0  0
  9 10  1  0  0  0  0
 10 11  1  0  0  0  0
 10 32  1  0  0  0  0
 11 12  2  0  0  0  0
 11 13  1  0  0  0  0
 13 14  1  0  0  0  0
 13 33  1  0  0  0  0
 14 23  1  0  0  0  0
 14 15  1  0  0  0  0
 14 34  1  0  0  0  0
 15 16  1  0  0  0  0
 15 35  1  0  0  0  0
 15 36  1  0  0  0  0
 16 17  1  0  0  0  0
 16 37  1  0  0  0  0
 16 38  1  0  0  0  0
 17 18  1  0  0  0  0
 17 22  1  0  0  0  0
 18 19  1  0  0  0  0
 18 20  2  0  0  0  0
 18 21  2  0  0  0  0
 19 39  1  0  0  0  0
 19 40  1  0  0  0  0
 19 41  1  0  0  0  0
 22 23  1  0  0  0  0
 22 42  1  0  0  0  0
 22 43  1  0  0  0  0
 23 44  1  0  0  0  0
 23 45  1  0  0  0  0
M  END
> <s_m_source_file>
AV-unprocessed.smi

> <i_m_source_file_index>
1548

> <i_lp_mmshare_version>
43012

> <i_f3d_flags>
0

> <s_epik_input>
W0NIM11bQ0gyXU9jMW5bY0hdW2NIXVtjSF1jMVtOSF1DKD1PKVtOSF1bQ0hdMltDSDJdW0NIMl1OKFMoPU8pKD1PKVtDSDNdKVtDSDJdW0NIMl0y

> <s_epik_cmdline>
J2VwaWtfcHl0aG9uJywgJy1waCcsICc3LjAnLCAnLXRuJywgJzgnLCAnLW1hJywgJzIwMCcsICctbWV0YWxfYmluZGluZycsICctaW1hZScsICc8aW5maWxlLm1hZT4nLCAnLW9tYWUnLCAnPG91dGZpbGUubWFlPic=

> <r_lp_tautomer_probability>
1

> <r_epik_Ionization_Penalty>
0.000113093

> <r_epik_Ionization_Penalty_Charging>
0

> <r_epik_Ionization_Penalty_Neutral>
0.000113093

> <r_epik_State_Penalty>
-0

> <r_epik_Charging_Adjusted_Penalty>
0

> <i_epik_Tot_Q>
0

> <i_epik_Tot_abs_Q>
0

> <r_epik_Metal_State_Penalty>
-0

> <b_epik_Metal_Only>
0

> <s_lp_Force_Field>
OPLS_2005

> <r_lp_Energy>
3.39389

> <b_lp_Chiralities_Consistent>
1

> <s_lp_Variant>
AV-unprocessed.smi:1548-1

> <Gold.Version>
5.8.1

> <Gold.Id.Protein>
6NUR|6NUR_protein|mol2

> <Gold.PLP.Fitness>
41.7131

> <Gold.PLP.PLP>
-36.3331

> <Gold.PLP.part.hbond>
-2.8467

> <Gold.PLP.part.metal>
0.0000

> <Gold.PLP.part.buried>
-4.0294

> <Gold.PLP.part.nonpolar>
-30.1477

> <Gold.PLP.part.repulsive>
0.6755

> <Gold.PLP.ligand.clash>
0.0000

> <Gold.PLP.ligand.torsion>
1.3536

> <Gold.PLP.Chemscore.Hbond>
2.0000

> <Gold.PLP.Chemscore.CHOScore>
0.0000

> <Gold.PLP.Chemscore.Metal>
0.0000

> <Gold.Chemscore.Hbonds>
donor molecule, donor type, donor heavy atom, donor atom, acceptor molecule, acceptor atom, score
      L1  H    10    32       P1  7948  0.90
      L1  H    13    33       P1  7948  1.00

> <Gold.PLP.Chemscore.Internal.Correction>
2.0872

> <Gold.Rescore>
     Score         DG    S(hbond)    S(metal)    S(lipo)     H(rot)  DE(clash)    DE(int)     intcor
     11.65     -14.47       1.35        0.00      70.23       1.45       0.13       2.70       ----

> <Gold.Chemscore.Fitness>
11.6470

> <Gold.Chemscore.DG>
-14.4742

> <Gold.Chemscore.ZeroCoef>
-5.4800

> <Gold.Chemscore.Hbond>
1.3480

> <Gold.Chemscore.Metal>
0.0000

> <Gold.Chemscore.Lipo>
70.2253

> <Gold.Chemscore.Internal_Hbond>
0.0000

> <Gold.Chemscore.DEClash>
0.1263

> <Gold.Chemscore.DEInternal>
2.7010

> <Gold.Chemscore.Rot>
1.4549

> <Gold.Chemscore.Internal.Correction>
   9.000000E+99

> <Gold.Chemscore.Hbonds>
donor molecule, donor type, donor heavy atom, donor atom, acceptor molecule, acceptor atom, score
      L1  H    10    32       P1  7948  0.30
      L1  H    13    33       P1  7948  0.52

> <Gold.Chemscore.Hbond.Weighted>
-4.5023

> <Gold.Chemscore.Metal.Weighted>
-0.0000

> <Gold.Chemscore.Lipo.Weighted>
-8.2164

> <Gold.Chemscore.Internal_Hbond.Weighted>
0.0000

> <Gold.Chemscore.DEClash.Weighted>
0.1263

> <Gold.Chemscore.DEInternal.Weighted>
2.7010

> <Gold.Chemscore.Rot.Weighted>
3.7244

> <Gold.Chemscore.Internal.Correction.Weighted>
   9.000000E+99

> <Gold.Protein.RotatedTorsions>
[ 6907 6896 6895 6894 ] final -124.49 input  -60.11 | X-H torsion
[ 7974 7965 7964 7962 ] final  -25.88 input  175.53 | X-H torsion
[ 8008 7997 7996 7995 ] final   63.27 input   59.86 | X-H torsion
[ 10167 10162 10161 10158 ] final  149.09 input  -65.29 | X-H torsion
[ 10718 10713 10712 10709 ] final   80.99 input   66.30 | X-H torsion
[ 10763 10752 10751 10750 ] final  129.44 input  -60.55 | X-H torsion
[ 11005 11000 10999 10996 ] final -145.48 input  -57.11 | X-H torsion

> <Gold.Protein.ActiveResidues>
 VAL166  LYS551  ARG553  GLY616  TRP617  ASP618  TYR619  PRO620  LYS621  CYS622 
 ASP623  PHE694  ASN695  SER759  ASP760  ASP761  ALA762  ILE779  LEU786  VAL792 
 PHE793  MET794  SER795  GLU796  ALA797  LYS798  CYS799  TRP800  GLU811  SER814 

> <Gold.Protein.RotatedAtoms>
  150.8773  133.7420  159.2942 H   0  0  0  0  0  0  0  0  0  0  0  0  # atno 6907 bound_to 6896
  151.5013  135.1060  159.9839 H   0  0  0  0  0  0  0  0  0  0  0  0  # atno 6908 bound_to 6896
  152.4736  133.8041  159.7024 H   0  0  0  0  0  0  0  0  0  0  0  0  # atno 6909 bound_to 6896
  146.1462  140.4945  142.8630 H   0  0  0  0  0  0  0  0  0  0  0  0  # atno 7974 bound_to 7965
  155.6275  140.3496  155.4672 H   0  0  0  0  0  0  0  0  0  0  0  0  # atno 8008 bound_to 7997
  156.0029  140.1217  157.0553 H   0  0  0  0  0  0  0  0  0  0  0  0  # atno 8009 bound_to 7997
  154.4255  140.1097  156.5708 H   0  0  0  0  0  0  0  0  0  0  0  0  # atno 8010 bound_to 7997
  139.4866  144.5629  151.7198 H   0  0  0  0  0  0  0  0  0  0  0  0  # atno 10167 bound_to 10162
  157.6821  130.9984  150.2161 H   0  0  0  0  0  0  0  0  0  0  0  0  # atno 10718 bound_to 10713
  153.7417  135.3223  155.3305 H   0  0  0  0  0  0  0  0  0  0  0  0  # atno 10763 bound_to 10752
  154.8293  135.4546  154.1020 H   0  0  0  0  0  0  0  0  0  0  0  0  # atno 10764 bound_to 10752
  153.2196  135.6946  153.8097 H   0  0  0  0  0  0  0  0  0  0  0  0  # atno 10765 bound_to 10752
  140.7918  134.2959  157.5010 H   0  0  0  0  0  0  0  0  0  0  0  0  # atno 11005 bound_to 11000
  144.7849  140.5917  143.6580 LP  0  0  0  0  0  0  0  0  0  0  0  0  # atno 17320 bound_to 7965
  145.4931  139.1487  143.3698 LP  0  0  0  0  0  0  0  0  0  0  0  0  # atno 17321 bound_to 7965
  140.5202  144.0891  150.6020 LP  0  0  0  0  0  0  0  0  0  0  0  0  # atno 17342 bound_to 10162
  140.3846  143.2784  152.0130 LP  0  0  0  0  0  0  0  0  0  0  0  0  # atno 17343 bound_to 10162
  156.2822  130.3735  149.7924 LP  0  0  0  0  0  0  0  0  0  0  0  0  # atno 17370 bound_to 10713
  156.5609  130.8383  151.3328 LP  0  0  0  0  0  0  0  0  0  0  0  0  # atno 17371 bound_to 10713
  139.8730  134.9379  156.3700 LP  0  0  0  0  0  0  0  0  0  0  0  0  # atno 17394 bound_to 11000
  140.9382  133.7533  156.0112 LP  0  0  0  0  0  0  0  0  0  0  0  0  # atno 17395 bound_to 11000

$$$$
