#       Name:                AV-unprocessed.smi:3237
#       Creating user name   scv26
#       Creation time:       Fri Mar 27 18:23:13 2020


#       File generated by GOLD software.
#

@<TRIPOS>MOLECULE
AV-unprocessed.smi:3237
    42    44     1
SMALL
NO_CHARGES


@<TRIPOS>ATOM
      1 ****        -6.9010  -3.1856   0.0511 C.3            1 S1                 0.0000
      2 ****        -5.6914  -2.3246   0.1785 C.2            1 S1                 0.0000
      3 ****        -4.3661  -2.5401  -0.0748 C.2            1 S1                 0.0000
      4 ****        -3.7678  -1.2976   0.2654 C.2            1 S1                 0.0000
      5 ****        -2.3660  -1.1111   0.1375 N.am           1 S1                 0.0000
      6 ****        -1.6295  -0.0247   0.4336 C.2            1 S1                 0.0000
      7 ****        -2.1678   0.9905   0.8907 O.2            1 S1                 0.0000
      8 ****        -0.3071  -0.2117   0.1683 N.pl3          1 S1                -1.0000
      9 ****         0.7401   0.7829   0.4054 C.3            1 S1                 0.0000
     10 ****         0.7970   1.8391  -0.7011 C.3            1 S1                 0.0000
     11 ****         2.2587   2.3091  -0.7042 C.3            1 S1                 0.0000
     12 ****         3.0337   1.2958   0.0503 N.4            1 S1                 1.0000
     13 ****         4.3149   0.9120  -0.5809 C.3            1 S1                 0.0000
     14 ****         5.3689   0.4754   0.4083 C.3            1 S1                 0.0000
     15 ****         5.4567   1.8397  -0.2416 C.3            1 S1                 0.0000
     16 ****         2.1320   0.1598   0.3251 C.3            1 S1                 0.0000
     17 ****        -4.6505  -0.4034   0.6858 N.2            1 S1                 0.0000
     18 ****        -5.8874  -1.0570   0.6323 O.3            1 S1                 0.0000
     19 ****        -6.6223  -4.2316  -0.0771 H              1 S1                 0.0000
     20 ****        -7.4976  -2.8862  -0.8104 H              1 S1                 0.0000
     21 ****        -7.5267  -3.1095   0.9405 H              1 S1                 0.0000
     22 ****        -3.9010  -3.4423  -0.4433 H              1 S1                 0.0000
     23 ****        -1.8532  -1.9018  -0.2233 H              1 S1                 0.0000
     24 ****         0.6404   1.2825   1.3706 H              1 S1                 0.0000
     25 ****         0.5615   1.3935  -1.6696 H              1 S1                 0.0000
     26 ****         0.0943   2.6566  -0.5344 H              1 S1                 0.0000
     27 ****         2.6217   2.4210  -1.7273 H              1 S1                 0.0000
     28 ****         2.3681   3.2762  -0.2105 H              1 S1                 0.0000
     29 ****         4.2520   0.4477  -1.5636 H              1 S1                 0.0000
     30 ****         5.1012   0.4364   1.4628 H              1 S1                 0.0000
     31 ****         6.0813  -0.2797   0.0819 H              1 S1                 0.0000
     32 ****         6.2278   1.9834  -0.9956 H              1 S1                 0.0000
     33 ****         5.2465   2.7079   0.3806 H              1 S1                 0.0000
     34 ****         2.4122  -0.3606   1.2413 H              1 S1                 0.0000
     35 ****         2.1855  -0.5538  -0.5000 H              1 S1                 0.0000
     36 ****         3.2423   1.7112   0.9467 H              1 S1                 0.0000
     37 ****        -3.1561   1.0073   1.0423 LP             1 S1                 0.0000
     38 ****        -1.6148   1.7947   1.1087 LP             1 S1                 0.0000
     39 ****        -0.0314  -1.0926  -0.2165 LP             1 S1                 0.0000
     40 ****        -4.4718   0.5360   0.9783 LP             1 S1                 0.0000
     41 ****        -6.2928  -1.0855   1.5460 LP             1 S1                 0.0000
     42 ****        -6.4999  -0.5681   0.0111 LP             1 S1                 0.0000
@<TRIPOS>BOND
    1    1    2 1     
    2    1   19 1     
    3    1   20 1     
    4    1   21 1     
    5    2   18 1     
    6    2    3 2     
    7    3    4 1     
    8    3   22 1     
    9    4    5 1     
   10    4   17 2     
   11    5    6 am    
   12    5   23 1     
   13    6    7 2     
   14    6    8 1     
   15    8    9 1     
   16    9   16 1     
   17    9   10 1     
   18    9   24 1     
   19   10   11 1     
   20   10   25 1     
   21   10   26 1     
   22   11   12 1     
   23   11   27 1     
   24   11   28 1     
   25   12   13 1     
   26   12   16 1     
   27   12   36 1     
   28   13   15 1     
   29   13   14 1     
   30   13   29 1     
   31   14   15 1     
   32   14   30 1     
   33   14   31 1     
   34   15   32 1     
   35   15   33 1     
   36   16   34 1     
   37   16   35 1     
   38   17   18 1     
   39    7   37 1     
   40    7   38 1     
   41    8   39 1     
   42   17   40 1     
   43   18   41 1     
   44   18   42 1     
@<TRIPOS>SUBSTRUCTURE
      1 S1             1
@<TRIPOS>SET
LONE_PAIRS      STATIC     ATOMS    <user>   **** ""
6 37 38 39 40 41 42
DONOR_HYDROGENS      STATIC     ATOMS    <user>   **** ""
2 23 36
ATOM$BLUE        STATIC     ATOMS    COLORGROUP SYSTEM
6 37 38 39 40 41 42
ATOM$RED        STATIC     ATOMS    COLORGROUP SYSTEM
2 23 36
