AV-unprocessed.smi:1165|AV-procd|sdf|4931|dock6
  -GOLD-   22720 3513D 1   1.00000     0.00000
 Structure written by MMmdl.
 40 41  0  0  0  0  0  0  0  0  2 V2000
  148.8794  137.1682  159.2448 C   0  0  0  0  0  0  0  0  0  0  0  0
  149.8317  136.7962  158.1028 C   0  0  2  0  0  0  0  0  0  0  0  0
  150.4256  138.0420  157.4215 C   0  0  0  0  0  0  0  0  0  0  0  0
  151.2212  137.6662  156.2436 N   0  0  0  0  0  0  0  0  0  0  0  0
  152.2875  138.8718  155.5754 S   0  0  0  0  0  0  0  0  0  0  0  0
  153.3238  138.1138  154.8578 O   0  0  0  0  0  0  0  0  0  0  0  0
  151.4492  139.7884  154.7833 O   0  0  0  0  0  0  0  0  0  0  0  0
  152.8405  139.5198  156.9640 N   0  5  0  0  0  0  0  0  0  0  0  0
  152.2457  140.7255  157.5321 C   0  0  0  0  0  0  0  0  0  0  0  0
  152.8789  141.0418  158.9041 C   0  0  0  0  0  0  0  0  0  0  0  0
  152.4911  142.3975  159.4858 C   0  0  0  0  0  0  0  0  0  0  0  0
  152.9936  142.8233  160.7349 C   0  0  0  0  0  0  0  0  0  0  0  0
  152.6006  144.0796  161.2346 C   0  0  0  0  0  0  0  0  0  0  0  0
  151.7160  144.8601  160.4647 C   0  0  0  0  0  0  0  0  0  0  0  0
  151.2206  144.4634  159.2730 N   0  0  0  0  0  0  0  0  0  0  0  0
  151.6044  143.2578  158.8001 C   0  0  0  0  0  0  0  0  0  0  0  0
  150.4776  136.8036  155.3067 C   0  0  0  0  0  0  0  0  0  0  0  0
  149.8596  135.5934  156.0302 C   0  0  1  0  0  0  0  0  0  0  0  0
  150.8937  134.5126  156.3945 C   0  0  0  0  0  0  0  0  0  0  0  0
  149.1009  136.0209  157.1591 O   0  0  0  0  0  0  0  0  0  0  0  0
  149.3906  137.7580  160.0060 H   0  0  0  0  0  0  0  0  0  0  0  0
  148.4827  136.2752  159.7281 H   0  0  0  0  0  0  0  0  0  0  0  0
  148.0343  137.7525  158.8797 H   0  0  0  0  0  0  0  0  0  0  0  0
  150.6382  136.1959  158.5240 H   0  0  0  0  0  0  0  0  0  0  0  0
  149.6353  138.7251  157.1080 H   0  0  0  0  0  0  0  0  0  0  0  0
  151.0497  138.5796  158.1347 H   0  0  0  0  0  0  0  0  0  0  0  0
  152.3666  141.5905  156.8793 H   0  0  0  0  0  0  0  0  0  0  0  0
  151.1705  140.6034  157.6659 H   0  0  0  0  0  0  0  0  0  0  0  0
  152.5818  140.2721  159.6169 H   0  0  0  0  0  0  0  0  0  0  0  0
  153.9661  140.9785  158.8371 H   0  0  0  0  0  0  0  0  0  0  0  0
  153.6728  142.1997  161.2978 H   0  0  0  0  0  0  0  0  0  0  0  0
  152.9712  144.4366  162.1840 H   0  0  0  0  0  0  0  0  0  0  0  0
  151.3951  145.8290  160.8173 H   0  0  0  0  0  0  0  0  0  0  0  0
  151.1912  142.9708  157.8444 H   0  0  0  0  0  0  0  0  0  0  0  0
  149.6904  137.3983  154.8419 H   0  0  0  0  0  0  0  0  0  0  0  0
  151.1246  136.4627  154.4989 H   0  0  0  0  0  0  0  0  0  0  0  0
  149.1473  135.1291  155.3478 H   0  0  0  0  0  0  0  0  0  0  0  0
  151.3547  134.1028  155.4955 H   0  0  0  0  0  0  0  0  0  0  0  0
  150.4243  133.6877  156.9305 H   0  0  0  0  0  0  0  0  0  0  0  0
  151.6987  134.9042  157.0159 H   0  0  0  0  0  0  0  0  0  0  0  0
  1  2  1  0  0  0  0
  1 21  1  0  0  0  0
  1 22  1  0  0  0  0
  1 23  1  0  0  0  0
  2 20  1  0  0  0  0
  2  3  1  0  0  0  0
  2 24  1  0  0  0  0
  3  4  1  0  0  0  0
  3 25  1  0  0  0  0
  3 26  1  0  0  0  0
  4  5  1  0  0  0  0
  4 17  1  0  0  0  0
  5  6  2  0  0  0  0
  5  7  2  0  0  0  0
  5  8  1  0  0  0  0
  8  9  1  0  0  0  0
  9 10  1  0  0  0  0
  9 27  1  0  0  0  0
  9 28  1  0  0  0  0
 10 11  1  0  0  0  0
 10 29  1  0  0  0  0
 10 30  1  0  0  0  0
 11 16  1  0  0  0  0
 11 12  2  0  0  0  0
 12 13  1  0  0  0  0
 12 31  1  0  0  0  0
 13 14  2  0  0  0  0
 13 32  1  0  0  0  0
 14 15  1  0  0  0  0
 14 33  1  0  0  0  0
 15 16  2  0  0  0  0
 16 34  1  0  0  0  0
 17 18  1  0  0  0  0
 17 35  1  0  0  0  0
 17 36  1  0  0  0  0
 18 19  1  0  0  0  0
 18 20  1  0  0  0  0
 18 37  1  0  0  0  0
 19 38  1  0  0  0  0
 19 39  1  0  0  0  0
 19 40  1  0  0  0  0
M  CHG  1   8  -1
M  END
> <s_m_source_file>
AV-unprocessed.smi

> <i_m_source_file_index>
1165

> <i_lp_mmshare_version>
43012

> <i_f3d_flags>
0

> <s_epik_input>
W0NIM11bQ0BASF0xW0NIMl1OKFtDSDJdW0NASF0oTzEpW0NIM10pUyg9TykoPU8pW05IXVtDSDJdW0NIMl1jMltjSF1bY0hdW2NIXW5bY0hdMg==

> <s_epik_cmdline>
J2VwaWtfcHl0aG9uJywgJy1waCcsICc3LjAnLCAnLXRuJywgJzgnLCAnLW1hJywgJzIwMCcsICctbWV0YWxfYmluZGluZycsICctaW1hZScsICc8aW5maWxlLm1hZT4nLCAnLW9tYWUnLCAnPG91dGZpbGUubWFlPic=

> <r_epik_Ionization_Penalty>
1.23471

> <r_epik_Ionization_Penalty_Charging>
1.20871

> <r_epik_Ionization_Penalty_Neutral>
0.025996

> <r_epik_State_Penalty>
1.46261

> <r_epik_Charging_Adjusted_Penalty>
2.67132

> <i_epik_Tot_Q>
-1

> <i_epik_Tot_abs_Q>
1

> <r_epik_Metal_State_Penalty>
0.521406

> <b_epik_Metal_Only>
0

> <s_lp_Force_Field>
OPLS_2005

> <r_lp_Energy>
7.90597

> <b_lp_Chiralities_Consistent>
1

> <s_lp_Variant>
AV-unprocessed.smi:1165-4

> <Gold.Version>
5.8.1

> <Gold.Id.Protein>
6NUR|6NUR_protein|mol2

> <Gold.PLP.Fitness>
44.4977

> <Gold.PLP.PLP>
-35.8294

> <Gold.PLP.part.hbond>
-3.0000

> <Gold.PLP.part.metal>
0.0000

> <Gold.PLP.part.buried>
-6.8571

> <Gold.PLP.part.nonpolar>
-25.7815

> <Gold.PLP.part.repulsive>
0.1745

> <Gold.PLP.ligand.clash>
0.0000

> <Gold.PLP.ligand.torsion>
0.9587

> <Gold.PLP.Chemscore.Hbond>
3.0000

> <Gold.PLP.Chemscore.CHOScore>
0.0000

> <Gold.PLP.Chemscore.Metal>
0.0000

> <Gold.Chemscore.Hbonds>
donor molecule, donor type, donor heavy atom, donor atom, acceptor molecule, acceptor atom, score
      P1  H  7989  7998       L1     7  1.00
      P1  H  7997  8009       L1     8  2.00

> <Gold.PLP.Chemscore.Internal.Correction>
1.5856

> <Gold.Rescore>
     Score         DG    S(hbond)    S(metal)    S(lipo)     H(rot)  DE(clash)    DE(int)     intcor
     16.16     -17.12       1.36        0.00      92.89       1.47       0.01       0.96       ----

> <Gold.Chemscore.Fitness>
16.1576

> <Gold.Chemscore.DG>
-17.1195

> <Gold.Chemscore.ZeroCoef>
-5.4800

> <Gold.Chemscore.Hbond>
1.3601

> <Gold.Chemscore.Metal>
0.0000

> <Gold.Chemscore.Lipo>
92.8874

> <Gold.Chemscore.Internal_Hbond>
0.0000

> <Gold.Chemscore.DEClash>
0.0053

> <Gold.Chemscore.DEInternal>
0.9566

> <Gold.Chemscore.Rot>
1.4731

> <Gold.Chemscore.Internal.Correction>
   9.000000E+99

> <Gold.Chemscore.Hbonds>
donor molecule, donor type, donor heavy atom, donor atom, acceptor molecule, acceptor atom, score
      P1  H  7989  7998       L1     7  1.00
      P1  H  7997  8009       L1     8  0.10

> <Gold.Chemscore.Hbond.Weighted>
-4.5429

> <Gold.Chemscore.Metal.Weighted>
-0.0000

> <Gold.Chemscore.Lipo.Weighted>
-10.8678

> <Gold.Chemscore.Internal_Hbond.Weighted>
0.0000

> <Gold.Chemscore.DEClash.Weighted>
0.0053

> <Gold.Chemscore.DEInternal.Weighted>
0.9566

> <Gold.Chemscore.Rot.Weighted>
3.7712

> <Gold.Chemscore.Internal.Correction.Weighted>
   9.000000E+99

> <Gold.Protein.RotatedTorsions>
[ 6907 6896 6895 6894 ] final   83.93 input  -60.11 | X-H torsion
[ 7974 7965 7964 7962 ] final  -34.24 input  175.53 | X-H torsion
[ 8008 7997 7996 7995 ] final -170.99 input   59.86 | X-H torsion
[ 10167 10162 10161 10158 ] final   36.94 input  -65.29 | X-H torsion
[ 10718 10713 10712 10709 ] final  134.13 input   66.30 | X-H torsion
[ 10763 10752 10751 10750 ] final   20.61 input  -60.55 | X-H torsion
[ 11005 11000 10999 10996 ] final  -16.08 input  -57.11 | X-H torsion

> <Gold.Protein.ActiveResidues>
 VAL166  LYS551  ARG553  GLY616  TRP617  ASP618  TYR619  PRO620  LYS621  CYS622 
 ASP623  PHE694  ASN695  SER759  ASP760  ASP761  ALA762  ILE779  LEU786  VAL792 
 PHE793  MET794  SER795  GLU796  ALA797  LYS798  CYS799  TRP800  GLU811  SER814 

> <Gold.Protein.RotatedAtoms>
  152.5340  134.2819  159.9010 H   0  0  0  0  0  0  0  0  0  0  0  0  # atno 6907 bound_to 6896
  151.2773  133.4220  159.2632 H   0  0  0  0  0  0  0  0  0  0  0  0  # atno 6908 bound_to 6896
  151.0314  134.9557  159.8170 H   0  0  0  0  0  0  0  0  0  0  0  0  # atno 6909 bound_to 6896
  146.0846  140.6014  142.8892 H   0  0  0  0  0  0  0  0  0  0  0  0  # atno 7974 bound_to 7965
  155.9257  140.1082  157.1172 H   0  0  0  0  0  0  0  0  0  0  0  0  # atno 8008 bound_to 7997
  154.4062  140.1247  156.4802 H   0  0  0  0  0  0  0  0  0  0  0  0  # atno 8009 bound_to 7997
  155.7142  140.3470  155.4989 H   0  0  0  0  0  0  0  0  0  0  0  0  # atno 8010 bound_to 7997
  140.4080  144.1632  150.6137 H   0  0  0  0  0  0  0  0  0  0  0  0  # atno 10167 bound_to 10162
  157.4703  131.1079  150.9810 H   0  0  0  0  0  0  0  0  0  0  0  0  # atno 10718 bound_to 10713
  153.1063  135.6685  153.9581 H   0  0  0  0  0  0  0  0  0  0  0  0  # atno 10763 bound_to 10752
  153.9137  135.3022  155.3450 H   0  0  0  0  0  0  0  0  0  0  0  0  # atno 10764 bound_to 10752
  154.7484  135.5046  153.9321 H   0  0  0  0  0  0  0  0  0  0  0  0  # atno 10765 bound_to 10752
  140.8032  133.8198  155.9490 H   0  0  0  0  0  0  0  0  0  0  0  0  # atno 11005 bound_to 11000
  144.7317  140.4690  143.6933 LP  0  0  0  0  0  0  0  0  0  0  0  0  # atno 17320 bound_to 7965
  145.6154  139.1518  143.3052 LP  0  0  0  0  0  0  0  0  0  0  0  0  # atno 17321 bound_to 7965
  140.4669  143.2427  151.9143 LP  0  0  0  0  0  0  0  0  0  0  0  0  # atno 17342 bound_to 10162
  139.4783  144.5410  151.8528 LP  0  0  0  0  0  0  0  0  0  0  0  0  # atno 17343 bound_to 10162
  157.0577  130.5813  149.5380 LP  0  0  0  0  0  0  0  0  0  0  0  0  # atno 17370 bound_to 10713
  156.0070  130.5158  150.7864 LP  0  0  0  0  0  0  0  0  0  0  0  0  # atno 17371 bound_to 10713
  140.9274  134.2065  157.4887 LP  0  0  0  0  0  0  0  0  0  0  0  0  # atno 17394 bound_to 11000
  139.8720  134.9818  156.5131 LP  0  0  0  0  0  0  0  0  0  0  0  0  # atno 17395 bound_to 11000

$$$$
