#       Name:                AV-unprocessed.smi:1605
#       Creating user name   scv26
#       Creation time:       Fri Mar 27 07:11:21 2020


#       File generated by GOLD software.
#

@<TRIPOS>MOLECULE
AV-unprocessed.smi:1605
    56    58     1
SMALL
NO_CHARGES


@<TRIPOS>ATOM
      1 ****        -2.6343   4.2446  -2.3128 C.3            1 S1                 0.0000
      2 ****        -3.1314   3.2415  -1.4403 O.3            1 S1                 0.0000
      3 ****        -2.8743   3.4786  -0.0607 C.3            1 S1                 0.0000
      4 ****        -1.4271   3.1124   0.3193 C.3            1 S1                 0.0000
      5 ****        -1.1700   1.6042   0.1619 C.3            1 S1                 0.0000
      6 ****        -2.1333   0.8071   0.9680 N.4            1 S1                 1.0000
      7 ****        -1.8479  -0.6504   0.9421 C.3            1 S1                 0.0000
      8 ****        -0.7028  -1.0481   1.8999 C.3            1 S1                 0.0000
      9 ****        -1.1403  -0.8883   3.2338 O.3            1 S1                 0.0000
     10 ****        -0.2502  -2.5141   1.7380 C.3            1 S1                 0.0000
     11 ****         0.2614  -2.8186   0.3954 N.pl3          1 S1                 0.0000
     12 ****        -0.3126  -3.5102  -0.6269 C.2            1 S1                 0.0000
     13 ****         0.5706  -3.5177  -1.6635 N.pl3          1 S1                 1.0000
     14 ****         1.7300  -2.8324  -1.2937 C.ar           1 S1                 0.0000
     15 ****         2.9013  -2.5763  -1.9966 C.ar           1 S1                 0.0000
     16 ****         3.9100  -1.8479  -1.3261 C.ar           1 S1                 0.0000
     17 ****         5.2045  -1.5533  -2.0647 C.3            1 S1                 0.0000
     18 ****         3.7239  -1.4012   0.0080 C.ar           1 S1                 0.0000
     19 ****         4.8154  -0.6204   0.7202 C.3            1 S1                 0.0000
     20 ****         2.5253  -1.6721   0.7059 C.ar           1 S1                 0.0000
     21 ****         1.5410  -2.3880   0.0292 C.ar           1 S1                 0.0000
     22 ****        -3.5392   1.1125   0.5974 C.3            1 S1                 0.0000
     23 ****        -3.8463   2.6124   0.7545 C.3            1 S1                 0.0000
     24 ****        -2.9239   4.0075  -3.3364 H              1 S1                 0.0000
     25 ****        -1.5469   4.3071  -2.2843 H              1 S1                 0.0000
     26 ****        -3.0488   5.2232  -2.0681 H              1 S1                 0.0000
     27 ****        -3.0675   4.5273   0.1714 H              1 S1                 0.0000
     28 ****        -0.7105   3.6788  -0.2747 H              1 S1                 0.0000
     29 ****        -1.2458   3.3993   1.3559 H              1 S1                 0.0000
     30 ****        -1.2486   1.3204  -0.8889 H              1 S1                 0.0000
     31 ****        -0.1471   1.3869   0.4669 H              1 S1                 0.0000
     32 ****        -2.7402  -1.2140   1.2200 H              1 S1                 0.0000
     33 ****        -1.6213  -0.9385  -0.0849 H              1 S1                 0.0000
     34 ****         0.1596  -0.3992   1.7558 H              1 S1                 0.0000
     35 ****        -1.2699   0.0309   3.4095 H              1 S1                 0.0000
     36 ****         0.5280  -2.7653   2.4605 H              1 S1                 0.0000
     37 ****        -1.0833  -3.1918   1.9309 H              1 S1                 0.0000
     38 ****        -1.2915  -3.9679  -0.6194 H              1 S1                 0.0000
     39 ****         3.0372  -2.9214  -3.0113 H              1 S1                 0.0000
     40 ****         6.0595  -1.9447  -1.5134 H              1 S1                 0.0000
     41 ****         5.3365  -0.4786  -2.1910 H              1 S1                 0.0000
     42 ****         5.2116  -2.0091  -3.0552 H              1 S1                 0.0000
     43 ****         4.4969  -0.3052   1.7142 H              1 S1                 0.0000
     44 ****         5.0783   0.2751   0.1568 H              1 S1                 0.0000
     45 ****         5.7097  -1.2332   0.8355 H              1 S1                 0.0000
     46 ****         2.3861  -1.3375   1.7235 H              1 S1                 0.0000
     47 ****        -3.7243   0.7925  -0.4294 H              1 S1                 0.0000
     48 ****        -4.2187   0.5432   1.2330 H              1 S1                 0.0000
     49 ****        -3.7786   2.8857   1.8085 H              1 S1                 0.0000
     50 ****        -4.8736   2.8176   0.4511 H              1 S1                 0.0000
     51 ****        -2.0314   1.1007   1.9289 H              1 S1                 0.0000
     52 ****         0.3957  -3.9649  -2.5546 H              1 S1                 0.0000
     53 ****        -2.7081   2.3711  -1.6918 LP             1 S1                 0.0000
     54 ****        -4.1214   3.1797  -1.5673 LP             1 S1                 0.0000
     55 ****        -0.4505  -1.2544   3.8584 LP             1 S1                 0.0000
     56 ****        -2.0020  -1.3787   3.3644 LP             1 S1                 0.0000
@<TRIPOS>BOND
    1    1    2 1     
    2    1   24 1     
    3    1   25 1     
    4    1   26 1     
    5    2    3 1     
    6    3   23 1     
    7    3    4 1     
    8    3   27 1     
    9    4    5 1     
   10    4   28 1     
   11    4   29 1     
   12    5    6 1     
   13    5   30 1     
   14    5   31 1     
   15    6    7 1     
   16    6   22 1     
   17    6   51 1     
   18    7    8 1     
   19    7   32 1     
   20    7   33 1     
   21    8    9 1     
   22    8   10 1     
   23    8   34 1     
   24    9   35 1     
   25   10   11 1     
   26   10   36 1     
   27   10   37 1     
   28   11   21 1     
   29   11   12 1     
   30   12   13 2     
   31   12   38 1     
   32   13   14 1     
   33   13   52 1     
   34   14   21 ar    
   35   14   15 ar    
   36   15   16 ar    
   37   15   39 1     
   38   16   17 1     
   39   16   18 ar    
   40   17   40 1     
   41   17   41 1     
   42   17   42 1     
   43   18   19 1     
   44   18   20 ar    
   45   19   43 1     
   46   19   44 1     
   47   19   45 1     
   48   20   21 ar    
   49   20   46 1     
   50   22   23 1     
   51   22   47 1     
   52   22   48 1     
   53   23   49 1     
   54   23   50 1     
   55    2   53 1     
   56    2   54 1     
   57    9   55 1     
   58    9   56 1     
@<TRIPOS>SUBSTRUCTURE
      1 S1             1
@<TRIPOS>SET
LONE_PAIRS      STATIC     ATOMS    <user>   **** ""
4 53 54 55 56
DONOR_HYDROGENS      STATIC     ATOMS    <user>   **** ""
3 51 35 52
ATOM$BLUE        STATIC     ATOMS    COLORGROUP SYSTEM
4 53 54 55 56
ATOM$RED        STATIC     ATOMS    COLORGROUP SYSTEM
3 51 35 52
