#       Name:                AV-unprocessed.smi:101
#       Creating user name   scv26
#       Creation time:       Thu Mar 26 17:46:11 2020


#       File generated by GOLD software.
#

@<TRIPOS>MOLECULE
AV-unprocessed.smi:101
    56    58     1
SMALL
NO_CHARGES


@<TRIPOS>ATOM
      1 ****        -3.4235   2.3744  -3.2453 C.3            1 S1                 0.0000
      2 ****        -3.5557   2.5301  -1.7402 C.2            1 S1                 0.0000
      3 ****        -2.5485   2.2244  -0.8922 C.2            1 S1                 0.0000
      4 ****        -2.6752   2.3678   0.4793 N.am           1 S1                 0.0000
      5 ****        -1.5384   2.0236   1.4241 C.3            1 S1                 0.0000
      6 ****        -0.3290   2.0141   0.7195 O.3            1 S1                 0.0000
      7 ****         0.1557   0.6815   0.5990 C.3            1 S1                 0.0000
      8 ****         1.6754   0.7140   0.3958 C.3            1 S1                 0.0000
      9 ****         2.1507  -0.5950   0.1277 O.3            1 S1                 0.0000
     10 ****         3.4710  -0.8184  -0.0131 C.2            1 S1                 0.0000
     11 ****         4.3249   0.0673   0.0647 O.2            1 S1                 0.0000
     12 ****         3.7921  -2.2512  -0.2746 C.ar           1 S1                 0.0000
     13 ****         5.1376  -2.6326  -0.4865 C.ar           1 S1                 0.0000
     14 ****         5.4709  -3.9781  -0.7360 C.ar           1 S1                 0.0000
     15 ****         4.4627  -4.9587  -0.7769 C.ar           1 S1                 0.0000
     16 ****         3.1207  -4.5923  -0.5663 C.ar           1 S1                 0.0000
     17 ****         2.7852  -3.2473  -0.3161 C.ar           1 S1                 0.0000
     18 ****        -0.3014   0.0450   1.9106 C.3            1 S1                 0.0000
     19 ****        -0.2855  -1.3708   1.8860 O.3            1 S1                 0.0000
     20 ****        -1.6974   0.6340   2.0894 C.3            1 S1                 0.0000
     21 ****        -2.6979  -0.1745   1.4874 O.3            1 S1                 0.0000
     22 ****        -3.8972   2.8406   1.0245 C.2            1 S1                 0.0000
     23 ****        -3.9829   2.9346   2.2492 O.2            1 S1                 0.0000
     24 ****        -4.9170   3.1558   0.1769 N.pl3          1 S1                -1.0000
     25 ****        -4.8163   3.0292  -1.1775 C.2            1 S1                 0.0000
     26 ****        -5.7447   3.3185  -1.9316 O.2            1 S1                 0.0000
     27 ****        -2.4400   1.9922  -3.5201 H              1 S1                 0.0000
     28 ****        -3.5630   3.3359  -3.7407 H              1 S1                 0.0000
     29 ****        -4.1740   1.6796  -3.6235 H              1 S1                 0.0000
     30 ****        -1.6237   1.8567  -1.3088 H              1 S1                 0.0000
     31 ****        -1.4916   2.8450   2.1411 H              1 S1                 0.0000
     32 ****        -0.3363   0.2050  -0.2508 H              1 S1                 0.0000
     33 ****         1.9205   1.3603  -0.4479 H              1 S1                 0.0000
     34 ****         2.1678   1.1259   1.2780 H              1 S1                 0.0000
     35 ****         5.9290  -1.8974  -0.4608 H              1 S1                 0.0000
     36 ****         6.5020  -4.2574  -0.8960 H              1 S1                 0.0000
     37 ****         4.7184  -5.9903  -0.9686 H              1 S1                 0.0000
     38 ****         2.3460  -5.3443  -0.5957 H              1 S1                 0.0000
     39 ****         1.7456  -3.0006  -0.1566 H              1 S1                 0.0000
     40 ****         0.3376   0.3910   2.7245 H              1 S1                 0.0000
     41 ****        -0.7059  -1.6870   2.6708 H              1 S1                 0.0000
     42 ****        -1.9466   0.7612   3.1434 H              1 S1                 0.0000
     43 ****        -3.5208   0.2888   1.5356 H              1 S1                 0.0000
     44 ****         0.3439   2.5678   1.2098 LP             1 S1                 0.0000
     45 ****        -0.4746   2.3970  -0.1928 LP             1 S1                 0.0000
     46 ****         4.0502   1.0125   0.2413 LP             1 S1                 0.0000
     47 ****         5.2922  -0.1594  -0.0488 LP             1 S1                 0.0000
     48 ****         0.6590  -1.6976   1.8536 LP             1 S1                 0.0000
     49 ****        -0.7800  -1.7003   1.0816 LP             1 S1                 0.0000
     50 ****        -2.7699  -1.0440   1.9761 LP             1 S1                 0.0000
     51 ****        -2.4627  -0.3481   0.5310 LP             1 S1                 0.0000
     52 ****        -3.2061   2.6813   2.8256 LP             1 S1                 0.0000
     53 ****        -4.8294   3.2642   2.6673 LP             1 S1                 0.0000
     54 ****        -5.7748   3.4939   0.5641 LP             1 S1                 0.0000
     55 ****        -5.6373   3.2130  -2.9202 LP             1 S1                 0.0000
     56 ****        -6.6066   3.6591  -1.5558 LP             1 S1                 0.0000
@<TRIPOS>BOND
    1    1    2 1     
    2    1   27 1     
    3    1   28 1     
    4    1   29 1     
    5    2   25 1     
    6    2    3 2     
    7    3    4 1     
    8    3   30 1     
    9    4    5 1     
   10    4   22 am    
   11    5   20 1     
   12    5    6 1     
   13    5   31 1     
   14    6    7 1     
   15    7    8 1     
   16    7   18 1     
   17    7   32 1     
   18    8    9 1     
   19    8   33 1     
   20    8   34 1     
   21    9   10 1     
   22   10   11 2     
   23   10   12 1     
   24   12   17 ar    
   25   12   13 ar    
   26   13   14 ar    
   27   13   35 1     
   28   14   15 ar    
   29   14   36 1     
   30   15   16 ar    
   31   15   37 1     
   32   16   17 ar    
   33   16   38 1     
   34   17   39 1     
   35   18   19 1     
   36   18   20 1     
   37   18   40 1     
   38   19   41 1     
   39   20   21 1     
   40   20   42 1     
   41   21   43 1     
   42   22   23 2     
   43   22   24 1     
   44   24   25 1     
   45   25   26 2     
   46    6   44 1     
   47    6   45 1     
   48   11   46 1     
   49   11   47 1     
   50   19   48 1     
   51   19   49 1     
   52   21   50 1     
   53   21   51 1     
   54   23   52 1     
   55   23   53 1     
   56   24   54 1     
   57   26   55 1     
   58   26   56 1     
@<TRIPOS>SUBSTRUCTURE
      1 S1             1
@<TRIPOS>SET
LONE_PAIRS      STATIC     ATOMS    <user>   **** ""
13 44 45 46 47 48 49 50 51 52 53 54 55 56
DONOR_HYDROGENS      STATIC     ATOMS    <user>   **** ""
2 41 43
ATOM$BLUE        STATIC     ATOMS    COLORGROUP SYSTEM
13 44 45 46 47 48 49 50 51 52 53 54 55 56
ATOM$RED        STATIC     ATOMS    COLORGROUP SYSTEM
2 41 43
