#       Name:                AV-unprocessed.smi:140
#       Creating user name   scv26
#       Creation time:       Thu Mar 26 18:34:02 2020


#       File generated by GOLD software.
#

@<TRIPOS>MOLECULE
AV-unprocessed.smi:140
    60    63     1
SMALL
NO_CHARGES


@<TRIPOS>ATOM
      1 ****        -4.8997   2.2577  -0.7339 C.3            1 S1                 0.0000
      2 ****        -3.6972   1.3781  -0.8609 C.2            1 S1                 0.0000
      3 ****        -2.3758   1.7137  -0.8693 C.2            1 S1                 0.0000
      4 ****        -1.6069   0.5257  -1.0134 C.2            1 S1                 0.0000
      5 ****        -0.1306   0.3873  -1.0917 C.2            1 S1                 0.0000
      6 ****         0.4370  -0.6880  -1.2905 O.2            1 S1                 0.0000
      7 ****         0.6727   1.6894  -0.9132 C.3            1 S1                 0.0000
      8 ****         2.1143   1.4827  -0.9671 N.am           1 S1                 0.0000
      9 ****         2.7504   1.5705  -2.2307 C.2            1 S1                 0.0000
     10 ****         2.1247   1.8140  -3.2640 O.2            1 S1                 0.0000
     11 ****         4.1902   1.3384  -2.2008 C.2            1 S1                 0.0000
     12 ****         4.8980   1.4099  -3.3409 F              1 S1                 0.0000
     13 ****         4.8279   1.0524  -1.0450 C.2            1 S1                 0.0000
     14 ****         4.1767   0.9565   0.1742 N.am           1 S1                 0.0000
     15 ****         4.9116   0.6243   1.4548 C.3            1 S1                 0.0000
     16 ****         4.6492  -0.8361   1.8663 C.3            1 S1                 0.0000
     17 ****         6.0465  -1.3677   2.1143 C.3            1 S1                 0.0000
     18 ****         6.8738  -0.5365   1.1453 C.3            1 S1                 0.0000
     19 ****         6.2912   0.7556   1.2592 O.3            1 S1                 0.0000
     20 ****         2.7833   1.1725   0.2412 C.2            1 S1                 0.0000
     21 ****         2.1819   1.0797   1.3142 O.2            1 S1                 0.0000
     22 ****        -2.4889  -0.5284  -1.0787 C.2            1 S1                 0.0000
     23 ****        -2.2415  -2.0055  -1.2147 C.3            1 S1                 0.0000
     24 ****        -3.7802  -0.0024  -1.0013 N.pl3          1 S1                 0.0000
     25 ****        -5.0223  -0.7685  -1.0508 C.3            1 S1                 0.0000
     26 ****        -5.3629  -1.4170   0.2545 C.2            1 S1                 0.0000
     27 ****        -5.3053  -0.8722   1.5131 C.2            1 S1                 0.0000
     28 ****        -5.7034  -1.7800   2.5375 C.2            1 S1                 0.0000
     29 ****        -6.0627  -3.0073   2.0483 C.2            1 S1                 0.0000
     30 ****        -5.9200  -3.0706   0.3134 S.3            1 S1                 0.0000
     31 ****        -4.6074   3.2833  -0.5077 H              1 S1                 0.0000
     32 ****        -5.5551   1.9162   0.0674 H              1 S1                 0.0000
     33 ****        -5.4712   2.2719  -1.6621 H              1 S1                 0.0000
     34 ****        -1.9996   2.7226  -0.7840 H              1 S1                 0.0000
     35 ****         0.4061   2.4208  -1.6775 H              1 S1                 0.0000
     36 ****         0.4362   2.1677   0.0384 H              1 S1                 0.0000
     37 ****         5.8942   0.8947  -1.0968 H              1 S1                 0.0000
     38 ****         4.5816   1.3620   2.1884 H              1 S1                 0.0000
     39 ****         4.0051  -0.8869   2.7446 H              1 S1                 0.0000
     40 ****         4.1757  -1.3797   1.0470 H              1 S1                 0.0000
     41 ****         6.3518  -1.1595   3.1405 H              1 S1                 0.0000
     42 ****         6.1343  -2.4404   1.9401 H              1 S1                 0.0000
     43 ****         7.9340  -0.5221   1.3980 H              1 S1                 0.0000
     44 ****         6.7666  -0.9102   0.1261 H              1 S1                 0.0000
     45 ****        -1.4531  -2.3304  -0.5360 H              1 S1                 0.0000
     46 ****        -1.9327  -2.2501  -2.2310 H              1 S1                 0.0000
     47 ****        -3.1159  -2.6084  -0.9780 H              1 S1                 0.0000
     48 ****        -5.8415  -0.1205  -1.3602 H              1 S1                 0.0000
     49 ****        -4.9376  -1.5165  -1.8395 H              1 S1                 0.0000
     50 ****        -4.9903   0.1371   1.7331 H              1 S1                 0.0000
     51 ****        -5.7111  -1.5046   3.5819 H              1 S1                 0.0000
     52 ****        -6.4009  -3.8736   2.5976 H              1 S1                 0.0000
     53 ****        -0.1007  -1.5230  -1.4081 LP             1 S1                 0.0000
     54 ****         1.4353  -0.7259  -1.3342 LP             1 S1                 0.0000
     55 ****         1.1356   1.9569  -3.2277 LP             1 S1                 0.0000
     56 ****         2.6060   1.8686  -4.1388 LP             1 S1                 0.0000
     57 ****         6.6949   1.2367   2.0374 LP             1 S1                 0.0000
     58 ****         6.4622   1.2743   0.4215 LP             1 S1                 0.0000
     59 ****         1.1930   1.2250   1.3474 LP             1 S1                 0.0000
     60 ****         2.6831   0.8591   2.1509 LP             1 S1                 0.0000
@<TRIPOS>BOND
    1    1    2 1     
    2    1   31 1     
    3    1   32 1     
    4    1   33 1     
    5    2   24 1     
    6    2    3 2     
    7    3    4 1     
    8    3   34 1     
    9    4    5 1     
   10    4   22 2     
   11    5    6 2     
   12    5    7 1     
   13    7    8 1     
   14    7   35 1     
   15    7   36 1     
   16    8   20 am    
   17    8    9 am    
   18    9   10 2     
   19    9   11 1     
   20   11   12 1     
   21   11   13 2     
   22   13   14 1     
   23   13   37 1     
   24   14   15 1     
   25   14   20 am    
   26   15   19 1     
   27   15   16 1     
   28   15   38 1     
   29   16   17 1     
   30   16   39 1     
   31   16   40 1     
   32   17   18 1     
   33   17   41 1     
   34   17   42 1     
   35   18   19 1     
   36   18   43 1     
   37   18   44 1     
   38   20   21 2     
   39   22   23 1     
   40   22   24 1     
   41   23   45 1     
   42   23   46 1     
   43   23   47 1     
   44   24   25 1     
   45   25   26 1     
   46   25   48 1     
   47   25   49 1     
   48   26   30 1     
   49   26   27 2     
   50   27   28 1     
   51   27   50 1     
   52   28   29 2     
   53   28   51 1     
   54   29   30 1     
   55   29   52 1     
   56    6   53 1     
   57    6   54 1     
   58   10   55 1     
   59   10   56 1     
   60   19   57 1     
   61   19   58 1     
   62   21   59 1     
   63   21   60 1     
@<TRIPOS>SUBSTRUCTURE
      1 S1             1
@<TRIPOS>SET
LONE_PAIRS      STATIC     ATOMS    <user>   **** ""
8 53 54 55 56 57 58 59 60
ATOM$BLUE        STATIC     ATOMS    COLORGROUP SYSTEM
8 53 54 55 56 57 58 59 60
