AV-unprocessed.smi:3335|AV-procd|sdf|12849|dock7
  -GOLD-   2272019243D 1   1.00000     0.00000
 Structure written by MMmdl.
 46 47  0  0  0  0  0  0  0  0  1 V2000
  151.8238  144.9519  159.4735 C   0  0  0  0  0  0  0  0  0  0  0  0
  151.7696  143.6221  158.7783 C   0  0  0  0  0  0  0  0  0  0  0  0
  152.2468  142.3687  159.2553 C   0  0  0  0  0  0  0  0  0  0  0  0
  152.0467  141.3820  158.3975 N   0  0  0  0  0  0  0  0  0  0  0  0
  151.4372  141.9672  157.3420 N   0  0  0  0  0  0  0  0  0  0  0  0
  151.0614  141.1759  156.1767 C   0  0  2  0  0  0  0  0  0  0  0  0
  149.5469  141.3017  155.9218 C   0  0  0  0  0  0  0  0  0  0  0  0
  151.5336  139.7010  156.2992 C   0  0  2  0  0  0  0  0  0  0  0  0
  151.6620  138.9836  154.9416 C   0  0  0  0  0  0  0  0  0  0  0  0
  150.5602  138.9493  157.0922 N   0  0  0  0  0  0  0  0  0  0  0  0
  151.0992  137.7427  157.7470 C   0  0  1  0  0  0  0  0  0  0  0  0
  150.1091  137.2480  158.8119 C   0  0  0  0  0  0  0  0  0  0  0  0
  151.4118  136.6033  156.7507 C   0  0  0  0  0  0  0  0  0  0  0  0
  152.5752  136.2106  156.6474 O   0  0  0  0  0  0  0  0  0  0  0  0
  150.4124  136.0637  156.0194 N   0  0  0  0  0  0  0  0  0  0  0  0
  150.6169  134.9652  155.0761 C   0  0  0  0  0  0  0  0  0  0  0  0
  149.2195  134.5119  154.6538 C   0  0  0  0  0  0  0  0  0  0  0  0
  148.3540  135.7473  154.8532 C   0  0  0  0  0  0  0  0  0  0  0  0
  149.0088  136.4759  156.0266 C   0  0  0  0  0  0  0  0  0  0  0  0
  151.2567  143.3190  157.5488 C   0  0  0  0  0  0  0  0  0  0  0  0
  151.2727  144.9356  160.4139 H   0  0  0  0  0  0  0  0  0  0  0  0
  151.3947  145.7475  158.8639 H   0  0  0  0  0  0  0  0  0  0  0  0
  152.8486  145.2423  159.7055 H   0  0  0  0  0  0  0  0  0  0  0  0
  152.7304  142.1480  160.1956 H   0  0  0  0  0  0  0  0  0  0  0  0
  151.5744  141.6244  155.3240 H   0  0  0  0  0  0  0  0  0  0  0  0
  149.2659  140.8573  154.9672 H   0  0  0  0  0  0  0  0  0  0  0  0
  149.2403  142.3476  155.8907 H   0  0  0  0  0  0  0  0  0  0  0  0
  148.9666  140.8079  156.7022 H   0  0  0  0  0  0  0  0  0  0  0  0
  152.5179  139.6928  156.7704 H   0  0  0  0  0  0  0  0  0  0  0  0
  152.4335  139.4363  154.3188 H   0  0  0  0  0  0  0  0  0  0  0  0
  150.7249  139.0144  154.3845 H   0  0  0  0  0  0  0  0  0  0  0  0
  151.9373  137.9367  155.0716 H   0  0  0  0  0  0  0  0  0  0  0  0
  149.7517  138.7313  156.5271 H   0  0  0  0  0  0  0  0  0  0  0  0
  152.0074  138.0456  158.2651 H   0  0  0  0  0  0  0  0  0  0  0  0
  150.4982  136.3772  159.3411 H   0  0  0  0  0  0  0  0  0  0  0  0
  149.1510  136.9689  158.3709 H   0  0  0  0  0  0  0  0  0  0  0  0
  149.9179  138.0220  159.5560 H   0  0  0  0  0  0  0  0  0  0  0  0
  151.1757  135.3357  154.2155 H   0  0  0  0  0  0  0  0  0  0  0  0
  151.1819  134.1434  155.5192 H   0  0  0  0  0  0  0  0  0  0  0  0
  149.1882  134.1325  153.6320 H   0  0  0  0  0  0  0  0  0  0  0  0
  148.8768  133.7165  155.3168 H   0  0  0  0  0  0  0  0  0  0  0  0
  148.4018  136.3735  153.9613 H   0  0  0  0  0  0  0  0  0  0  0  0
  147.3065  135.5060  155.0365 H   0  0  0  0  0  0  0  0  0  0  0  0
  148.5519  136.1666  156.9680 H   0  0  0  0  0  0  0  0  0  0  0  0
  148.8941  137.5561  155.9266 H   0  0  0  0  0  0  0  0  0  0  0  0
  150.7842  143.9489  156.8094 H   0  0  0  0  0  0  0  0  0  0  0  0
  1  2  1  0  0  0  0
  1 21  1  0  0  0  0
  1 22  1  0  0  0  0
  1 23  1  0  0  0  0
  2 20  2  0  0  0  0
  2  3  1  0  0  0  0
  3  4  2  0  0  0  0
  3 24  1  0  0  0  0
  4  5  1  0  0  0  0
  5  6  1  0  0  0  0
  5 20  1  0  0  0  0
  6  7  1  0  0  0  0
  6  8  1  0  0  0  0
  6 25  1  0  0  0  0
  7 26  1  0  0  0  0
  7 27  1  0  0  0  0
  7 28  1  0  0  0  0
  8  9  1  0  0  0  0
  8 10  1  0  0  0  0
  8 29  1  0  0  0  0
  9 30  1  0  0  0  0
  9 31  1  0  0  0  0
  9 32  1  0  0  0  0
 10 11  1  0  0  0  0
 10 33  1  0  0  0  0
 11 12  1  0  0  0  0
 11 13  1  0  0  0  0
 11 34  1  0  0  0  0
 12 35  1  0  0  0  0
 12 36  1  0  0  0  0
 12 37  1  0  0  0  0
 13 14  2  0  0  0  0
 13 15  1  0  0  0  0
 15 19  1  0  0  0  0
 15 16  1  0  0  0  0
 16 17  1  0  0  0  0
 16 38  1  0  0  0  0
 16 39  1  0  0  0  0
 17 18  1  0  0  0  0
 17 40  1  0  0  0  0
 17 41  1  0  0  0  0
 18 19  1  0  0  0  0
 18 42  1  0  0  0  0
 18 43  1  0  0  0  0
 19 44  1  0  0  0  0
 19 45  1  0  0  0  0
 20 46  1  0  0  0  0
M  END
> <s_m_source_file>
AV-unprocessed.smi

> <i_m_source_file_index>
3335

> <i_lp_mmshare_version>
43012

> <i_f3d_flags>
0

> <s_epik_input>
W0NIM11jMVtjSF1ubihbY0hdMSlbQ0BIXShbQ0gzXSlbQ0BIXShbQ0gzXSlbTkhdW0NASF0oW0NIM10pQyg9TylOMltDSDJdW0NIMl1bQ0gyXVtDSDJdMg==

> <s_epik_cmdline>
J2VwaWtfcHl0aG9uJywgJy1waCcsICc3LjAnLCAnLXRuJywgJzgnLCAnLW1hJywgJzIwMCcsICctbWV0YWxfYmluZGluZycsICctaW1hZScsICc8aW5maWxlLm1hZT4nLCAnLW9tYWUnLCAnPG91dGZpbGUubWFlPic=

> <r_lp_tautomer_probability>
1

> <r_epik_Ionization_Penalty>
0.918803

> <r_epik_Ionization_Penalty_Charging>
0

> <r_epik_Ionization_Penalty_Neutral>
0.918803

> <r_epik_State_Penalty>
0.958258

> <r_epik_Charging_Adjusted_Penalty>
0.958258

> <i_epik_Tot_Q>
0

> <i_epik_Tot_abs_Q>
0

> <r_epik_Metal_State_Penalty>
0.956786

> <b_epik_Metal_Only>
0

> <s_lp_Force_Field>
OPLS_2005

> <r_lp_Energy>
37.1763

> <b_lp_Chiralities_Consistent>
1

> <s_lp_Variant>
AV-unprocessed.smi:3335-13

> <Gold.Version>
5.8.1

> <Gold.Id.Protein>
6NUR|6NUR_protein|mol2

> <Gold.PLP.Fitness>
40.4927

> <Gold.PLP.PLP>
-35.8698

> <Gold.PLP.part.hbond>
-1.0000

> <Gold.PLP.part.metal>
0.0000

> <Gold.PLP.part.buried>
-5.1486

> <Gold.PLP.part.nonpolar>
-30.7023

> <Gold.PLP.part.repulsive>
0.0000

> <Gold.PLP.ligand.clash>
0.0000

> <Gold.PLP.ligand.torsion>
0.7264

> <Gold.PLP.Chemscore.Hbond>
1.0000

> <Gold.PLP.Chemscore.CHOScore>
1.0000

> <Gold.PLP.Chemscore.Metal>
0.0000

> <Gold.Chemscore.Hbonds>
donor molecule, donor type, donor heavy atom, donor atom, acceptor molecule, acceptor atom, score
      P1  H 10752 10765       L1    14  1.00
      L1  C    20    46       P1  8028  1.00

> <Gold.PLP.Chemscore.Internal.Correction>
0.0756

> <Gold.Rescore>
     Score         DG    S(hbond)    S(metal)    S(lipo)     H(rot)  DE(clash)    DE(int)     intcor
     14.11     -15.80       0.99        0.00      95.38       1.62       0.05       1.64       ----

> <Gold.Chemscore.Fitness>
14.1064

> <Gold.Chemscore.DG>
-15.8034

> <Gold.Chemscore.ZeroCoef>
-5.4800

> <Gold.Chemscore.Hbond>
0.9916

> <Gold.Chemscore.Metal>
0.0000

> <Gold.Chemscore.Lipo>
95.3813

> <Gold.Chemscore.Internal_Hbond>
0.0000

> <Gold.Chemscore.DEClash>
0.0524

> <Gold.Chemscore.DEInternal>
1.6446

> <Gold.Chemscore.Rot>
1.6204

> <Gold.Chemscore.Internal.Correction>
   9.000000E+99

> <Gold.Chemscore.Hbonds>
donor molecule, donor type, donor heavy atom, donor atom, acceptor molecule, acceptor atom, score
      P1  H 10752 10765       L1    14  1.00

> <Gold.Chemscore.Hbond.Weighted>
-3.3120

> <Gold.Chemscore.Metal.Weighted>
-0.0000

> <Gold.Chemscore.Lipo.Weighted>
-11.1596

> <Gold.Chemscore.Internal_Hbond.Weighted>
0.0000

> <Gold.Chemscore.DEClash.Weighted>
0.0524

> <Gold.Chemscore.DEInternal.Weighted>
1.6446

> <Gold.Chemscore.Rot.Weighted>
4.1482

> <Gold.Chemscore.Internal.Correction.Weighted>
   9.000000E+99

> <Gold.Protein.RotatedTorsions>
[ 6907 6896 6895 6894 ] final   85.36 input  -60.11 | X-H torsion
[ 7974 7965 7964 7962 ] final  157.14 input  175.53 | X-H torsion
[ 8008 7997 7996 7995 ] final  -62.40 input   59.86 | X-H torsion
[ 10167 10162 10161 10158 ] final   89.37 input  -65.29 | X-H torsion
[ 10718 10713 10712 10709 ] final  128.18 input   66.30 | X-H torsion
[ 10763 10752 10751 10750 ] final -130.87 input  -60.55 | X-H torsion
[ 11005 11000 10999 10996 ] final  -40.77 input  -57.11 | X-H torsion

> <Gold.Protein.ActiveResidues>
 VAL166  LYS551  ARG553  GLY616  TRP617  ASP618  TYR619  PRO620  LYS621  CYS622 
 ASP623  PHE694  ASN695  SER759  ASP760  ASP761  ALA762  ILE779  LEU786  VAL792 
 PHE793  MET794  SER795  GLU796  ALA797  LYS798  CYS799  TRP800  GLU811  SER814 

> <Gold.Protein.RotatedAtoms>
  152.5373  134.2598  159.8930 H   0  0  0  0  0  0  0  0  0  0  0  0  # atno 6907 bound_to 6896
  151.2558  133.4320  159.2621 H   0  0  0  0  0  0  0  0  0  0  0  0  # atno 6908 bound_to 6896
  151.0497  134.9679  159.8261 H   0  0  0  0  0  0  0  0  0  0  0  0  # atno 6909 bound_to 6896
  144.7921  139.7299  143.6217 H   0  0  0  0  0  0  0  0  0  0  0  0  # atno 7974 bound_to 7965
  154.4498  140.0997  156.6581 H   0  0  0  0  0  0  0  0  0  0  0  0  # atno 8008 bound_to 7997
  155.5323  140.3481  155.4410 H   0  0  0  0  0  0  0  0  0  0  0  0  # atno 8009 bound_to 7997
  156.0655  140.1337  156.9879 H   0  0  0  0  0  0  0  0  0  0  0  0  # atno 8010 bound_to 7997
  139.8579  144.6559  150.9092 H   0  0  0  0  0  0  0  0  0  0  0  0  # atno 10167 bound_to 10162
  157.5267  131.1098  150.9071 H   0  0  0  0  0  0  0  0  0  0  0  0  # atno 10718 bound_to 10713
  154.8753  135.3848  154.4154 H   0  0  0  0  0  0  0  0  0  0  0  0  # atno 10763 bound_to 10752
  153.4863  135.7030  153.5914 H   0  0  0  0  0  0  0  0  0  0  0  0  # atno 10764 bound_to 10752
  153.4307  135.3879  155.2136 H   0  0  0  0  0  0  0  0  0  0  0  0  # atno 10765 bound_to 10752
  141.0199  133.6868  156.2367 H   0  0  0  0  0  0  0  0  0  0  0  0  # atno 11005 bound_to 11000
  146.2177  139.5578  142.9639 LP  0  0  0  0  0  0  0  0  0  0  0  0  # atno 17320 bound_to 7965
  145.5767  141.0387  143.2144 LP  0  0  0  0  0  0  0  0  0  0  0  0  # atno 17321 bound_to 7965
  140.7779  143.3769  151.1546 LP  0  0  0  0  0  0  0  0  0  0  0  0  # atno 17342 bound_to 10162
  139.7402  143.8937  152.3047 LP  0  0  0  0  0  0  0  0  0  0  0  0  # atno 17343 bound_to 10162
  156.9665  130.5475  149.5288 LP  0  0  0  0  0  0  0  0  0  0  0  0  # atno 17370 bound_to 10713
  156.0392  130.5477  150.8730 LP  0  0  0  0  0  0  0  0  0  0  0  0  # atno 17371 bound_to 10713
  140.6591  134.4986  157.5582 LP  0  0  0  0  0  0  0  0  0  0  0  0  # atno 17394 bound_to 11000
  139.9139  134.8286  156.1431 LP  0  0  0  0  0  0  0  0  0  0  0  0  # atno 17395 bound_to 11000

$$$$
