AV-unprocessed.smi:275|AV-procd|sdf|2069|dock10
  -GOLD-   2262021323D 1   1.00000     0.00000
 Structure written by MMmdl.
 65 69  0  0  0  0  0  0  0  0  1 V2000
  144.0007  134.2524  163.1311 C   0  0  0  0  0  0  0  0  0  0  0  0
  143.9869  135.7178  162.6652 C   0  0  0  0  0  0  0  0  0  0  0  0
  142.5211  136.1262  162.4213 C   0  0  0  0  0  0  0  0  0  0  0  0
  144.8697  135.9800  161.4165 C   0  0  1  0  0  0  0  0  0  0  0  0
  144.8773  137.4269  161.1830 N   0  0  0  0  0  0  0  0  0  0  0  0
  144.6359  137.8776  159.8436 C   0  0  0  0  0  0  0  0  0  0  0  0
  143.3625  137.8638  159.3631 N   0  0  0  0  0  0  0  0  0  0  0  0
  143.0784  138.2612  158.1204 C   0  0  0  0  0  0  0  0  0  0  0  0
  143.9104  138.6980  157.1766 N   0  0  0  0  0  0  0  0  0  0  0  0
  145.1963  138.6935  157.6248 C   0  0  0  0  0  0  0  0  0  0  0  0
  145.6413  138.2993  158.9209 C   0  0  0  0  0  0  0  0  0  0  0  0
  147.0253  138.4195  158.9875 N   0  0  0  0  0  0  0  0  0  0  0  0
  147.3741  138.8678  157.8136 C   0  0  0  0  0  0  0  0  0  0  0  0
  146.3356  139.0676  156.9353 N   0  0  0  0  0  0  0  0  0  0  0  0
  146.4319  139.5571  155.5713 C   0  0  0  0  0  0  0  0  0  0  0  0
  147.4695  138.7893  154.7143 C   0  0  1  0  0  0  0  0  0  0  0  0
  147.2576  138.9857  153.1932 C   0  0  0  0  0  0  0  0  0  0  0  0
  145.9429  138.6420  152.8058 O   0  0  0  0  0  0  0  0  0  0  0  0
  148.9198  139.1147  155.1523 C   0  0  1  0  0  0  0  0  0  0  0  0
  149.9902  138.2578  154.4996 C   0  0  0  0  0  0  0  0  0  0  0  0
  151.2505  139.0825  154.7370 C   0  0  0  0  0  0  0  0  0  0  0  0
  150.8306  140.4415  154.7030 O   0  0  0  0  0  0  0  0  0  0  0  0
  149.4095  140.5142  154.7650 C   0  0  0  0  0  0  0  0  0  0  0  0
  146.2368  137.5573  161.6930 C   0  0  0  0  0  0  0  0  0  0  0  0
  146.4293  136.0564  161.4318 C   0  0  0  0  0  0  0  0  0  0  0  0
  147.1432  135.7431  160.0939 C   0  0  0  0  0  0  0  0  0  0  0  0
  147.2794  134.2428  159.7981 C   0  0  0  0  0  0  0  0  0  0  0  0
  148.0677  133.5451  160.9083 C   0  0  0  0  0  0  0  0  0  0  0  0
  147.4109  133.8046  162.2654 C   0  0  0  0  0  0  0  0  0  0  0  0
  147.2201  135.3133  162.5283 C   0  0  0  0  0  0  0  0  0  0  0  0
  143.8660  133.5662  162.2945 H   0  0  0  0  0  0  0  0  0  0  0  0
  143.2000  134.0583  163.8454 H   0  0  0  0  0  0  0  0  0  0  0  0
  144.9223  133.9964  163.6470 H   0  0  0  0  0  0  0  0  0  0  0  0
  144.3505  136.3176  163.5011 H   0  0  0  0  0  0  0  0  0  0  0  0
  142.0695  135.5231  161.6335 H   0  0  0  0  0  0  0  0  0  0  0  0
  142.4313  137.1736  162.1331 H   0  0  0  0  0  0  0  0  0  0  0  0
  141.9202  135.9931  163.3213 H   0  0  0  0  0  0  0  0  0  0  0  0
  144.5420  135.4002  160.5549 H   0  0  0  0  0  0  0  0  0  0  0  0
  142.0352  138.2212  157.8437 H   0  0  0  0  0  0  0  0  0  0  0  0
  148.4037  139.0711  157.5570 H   0  0  0  0  0  0  0  0  0  0  0  0
  145.4443  139.4925  155.1125 H   0  0  0  0  0  0  0  0  0  0  0  0
  146.6812  140.6176  155.6179 H   0  0  0  0  0  0  0  0  0  0  0  0
  147.3097  137.7271  154.9054 H   0  0  0  0  0  0  0  0  0  0  0  0
  147.4473  140.0193  152.9045 H   0  0  0  0  0  0  0  0  0  0  0  0
  147.9611  138.3836  152.6180 H   0  0  0  0  0  0  0  0  0  0  0  0
  145.4233  139.4309  152.7746 H   0  0  0  0  0  0  0  0  0  0  0  0
  149.0085  139.0033  156.2343 H   0  0  0  0  0  0  0  0  0  0  0  0
  150.0619  137.2571  154.9267 H   0  0  0  0  0  0  0  0  0  0  0  0
  149.8023  138.1604  153.4291 H   0  0  0  0  0  0  0  0  0  0  0  0
  151.6630  138.8717  155.7246 H   0  0  0  0  0  0  0  0  0  0  0  0
  152.0254  138.8851  153.9956 H   0  0  0  0  0  0  0  0  0  0  0  0
  149.0399  140.7955  153.7778 H   0  0  0  0  0  0  0  0  0  0  0  0
  149.0892  141.2776  155.4743 H   0  0  0  0  0  0  0  0  0  0  0  0
  146.9214  138.2007  161.1404 H   0  0  0  0  0  0  0  0  0  0  0  0
  146.2340  137.8094  162.7544 H   0  0  0  0  0  0  0  0  0  0  0  0
  146.6225  136.2032  159.2553 H   0  0  0  0  0  0  0  0  0  0  0  0
  148.1365  136.1943  160.0927 H   0  0  0  0  0  0  0  0  0  0  0  0
  146.2903  133.7929  159.7047 H   0  0  0  0  0  0  0  0  0  0  0  0
  147.7799  134.0961  158.8407 H   0  0  0  0  0  0  0  0  0  0  0  0
  148.1234  132.4733  160.7152 H   0  0  0  0  0  0  0  0  0  0  0  0
  149.0939  133.9147  160.9192 H   0  0  0  0  0  0  0  0  0  0  0  0
  146.4549  133.2860  162.2815 H   0  0  0  0  0  0  0  0  0  0  0  0
  148.0127  133.3627  163.0599 H   0  0  0  0  0  0  0  0  0  0  0  0
  148.2072  135.7674  162.6252 H   0  0  0  0  0  0  0  0  0  0  0  0
  146.7547  135.4604  163.5022 H   0  0  0  0  0  0  0  0  0  0  0  0
  1  2  1  0  0  0  0
  1 31  1  0  0  0  0
  1 32  1  0  0  0  0
  1 33  1  0  0  0  0
  2  3  1  0  0  0  0
  2  4  1  0  0  0  0
  2 34  1  0  0  0  0
  3 35  1  0  0  0  0
  3 36  1  0  0  0  0
  3 37  1  0  0  0  0
  4 25  1  0  0  0  0
  4  5  1  0  0  0  0
  4 38  1  0  0  0  0
  5  6  1  0  0  0  0
  5 24  1  0  0  0  0
  6 11  1  0  0  0  0
  6  7  2  0  0  0  0
  7  8  1  0  0  0  0
  8  9  2  0  0  0  0
  8 39  1  0  0  0  0
  9 10  1  0  0  0  0
 10 14  1  0  0  0  0
 10 11  2  0  0  0  0
 11 12  1  0  0  0  0
 12 13  2  0  0  0  0
 13 14  1  0  0  0  0
 13 40  1  0  0  0  0
 14 15  1  0  0  0  0
 15 16  1  0  0  0  0
 15 41  1  0  0  0  0
 15 42  1  0  0  0  0
 16 17  1  0  0  0  0
 16 19  1  0  0  0  0
 16 43  1  0  0  0  0
 17 18  1  0  0  0  0
 17 44  1  0  0  0  0
 17 45  1  0  0  0  0
 18 46  1  0  0  0  0
 19 23  1  0  0  0  0
 19 20  1  0  0  0  0
 19 47  1  0  0  0  0
 20 21  1  0  0  0  0
 20 48  1  0  0  0  0
 20 49  1  0  0  0  0
 21 22  1  0  0  0  0
 21 50  1  0  0  0  0
 21 51  1  0  0  0  0
 22 23  1  0  0  0  0
 23 52  1  0  0  0  0
 23 53  1  0  0  0  0
 24 25  1  0  0  0  0
 24 54  1  0  0  0  0
 24 55  1  0  0  0  0
 25 30  1  0  0  0  0
 25 26  1  0  0  0  0
 26 27  1  0  0  0  0
 26 56  1  0  0  0  0
 26 57  1  0  0  0  0
 27 28  1  0  0  0  0
 27 58  1  0  0  0  0
 27 59  1  0  0  0  0
 28 29  1  0  0  0  0
 28 60  1  0  0  0  0
 28 61  1  0  0  0  0
 29 30  1  0  0  0  0
 29 62  1  0  0  0  0
 29 63  1  0  0  0  0
 30 64  1  0  0  0  0
 30 65  1  0  0  0  0
M  END
> <s_m_source_file>
AV-unprocessed.smi

> <i_m_source_file_index>
275

> <i_lp_mmshare_version>
43012

> <i_f3d_flags>
0

> <s_epik_input>
W0NIMl0xW0NIMl1bQ0gyXVtDSDJdW0NIMl1DMTJbQ0BIXShbQ0hdKFtDSDNdKVtDSDNdKU4oW0NIMl0yKWMobltjSF1uMyljKGMzNCluW2NIXW40W0NIMl1bQ0BIXShbQ0gyXVtPSF0pW0NAQEhdNVtDSDJdW0NIMl1PW0NIMl01

> <s_epik_cmdline>
J2VwaWtfcHl0aG9uJywgJy1waCcsICc3LjAnLCAnLXRuJywgJzgnLCAnLW1hJywgJzIwMCcsICctbWV0YWxfYmluZGluZycsICctaW1hZScsICc8aW5maWxlLm1hZT4nLCAnLW9tYWUnLCAnPG91dGZpbGUubWFlPic=

> <r_lp_tautomer_probability>
1

> <r_epik_Ionization_Penalty>
0.00375122

> <r_epik_Ionization_Penalty_Charging>
0

> <r_epik_Ionization_Penalty_Neutral>
0.00375122

> <r_epik_State_Penalty>
0.00260593

> <r_epik_Charging_Adjusted_Penalty>
0.00260593

> <i_epik_Tot_Q>
0

> <i_epik_Tot_abs_Q>
0

> <r_epik_Metal_State_Penalty>
-0

> <b_epik_Metal_Only>
0

> <s_lp_Force_Field>
OPLS_2005

> <r_lp_Energy>
68.7999

> <b_lp_Chiralities_Consistent>
1

> <s_lp_Variant>
AV-unprocessed.smi:275-8

> <Gold.Version>
5.8.1

> <Gold.Id.Protein>
6NUR|6NUR_protein|mol2

> <Gold.PLP.Fitness>
43.6776

> <Gold.PLP.PLP>
-37.4141

> <Gold.PLP.part.hbond>
-2.9538

> <Gold.PLP.part.metal>
0.0000

> <Gold.PLP.part.buried>
-3.7233

> <Gold.PLP.part.nonpolar>
-30.2636

> <Gold.PLP.part.repulsive>
0.0854

> <Gold.PLP.ligand.clash>
0.0000

> <Gold.PLP.ligand.torsion>
0.6840

> <Gold.PLP.Chemscore.Hbond>
2.3840

> <Gold.PLP.Chemscore.CHOScore>
0.0000

> <Gold.PLP.Chemscore.Metal>
0.0000

> <Gold.Chemscore.Hbonds>
donor molecule, donor type, donor heavy atom, donor atom, acceptor molecule, acceptor atom, score
      L1  H    18    46       P1 10175  0.96
      P1  H  6934  6947       L1    12  0.32
      P1  H  7989  7998       L1    22  0.85

> <Gold.PLP.Chemscore.Internal.Correction>
0.4795

> <Gold.Rescore>
     Score         DG    S(hbond)    S(metal)    S(lipo)     H(rot)  DE(clash)    DE(int)     intcor
     15.23     -17.21       2.10        0.00      95.73       2.54       0.07       1.91       ----

> <Gold.Chemscore.Fitness>
15.2329

> <Gold.Chemscore.DG>
-17.2107

> <Gold.Chemscore.ZeroCoef>
-5.4800

> <Gold.Chemscore.Hbond>
2.1039

> <Gold.Chemscore.Metal>
0.0000

> <Gold.Chemscore.Lipo>
95.7278

> <Gold.Chemscore.Internal_Hbond>
0.0000

> <Gold.Chemscore.DEClash>
0.0653

> <Gold.Chemscore.DEInternal>
1.9124

> <Gold.Chemscore.Rot>
2.5377

> <Gold.Chemscore.Internal.Correction>
   9.000000E+99

> <Gold.Chemscore.Hbonds>
donor molecule, donor type, donor heavy atom, donor atom, acceptor molecule, acceptor atom, score
      L1  H    18    46       P1 10175  0.87
      P1  H  6934  6947       L1    12  0.07
      P1  H  7989  7998       L1    22  0.16

> <Gold.Chemscore.Hbond.Weighted>
-7.0271

> <Gold.Chemscore.Metal.Weighted>
-0.0000

> <Gold.Chemscore.Lipo.Weighted>
-11.2002

> <Gold.Chemscore.Internal_Hbond.Weighted>
0.0000

> <Gold.Chemscore.DEClash.Weighted>
0.0653

> <Gold.Chemscore.DEInternal.Weighted>
1.9124

> <Gold.Chemscore.Rot.Weighted>
6.4966

> <Gold.Chemscore.Internal.Correction.Weighted>
   9.000000E+99

> <Gold.Protein.RotatedTorsions>
[ 6907 6896 6895 6894 ] final  -50.78 input  -60.11 | X-H torsion
[ 7974 7965 7964 7962 ] final  153.33 input  175.53 | X-H torsion
[ 8008 7997 7996 7995 ] final -105.35 input   59.86 | X-H torsion
[ 10167 10162 10161 10158 ] final -136.86 input  -65.29 | X-H torsion
[ 10718 10713 10712 10709 ] final   94.55 input   66.30 | X-H torsion
[ 10763 10752 10751 10750 ] final   68.81 input  -60.55 | X-H torsion
[ 11005 11000 10999 10996 ] final -134.01 input  -57.11 | X-H torsion

> <Gold.Protein.ActiveResidues>
 VAL166  LYS551  ARG553  GLY616  TRP617  ASP618  TYR619  PRO620  LYS621  CYS622 
 ASP623  PHE694  ASN695  SER759  ASP760  ASP761  ALA762  ILE779  LEU786  VAL792 
 PHE793  MET794  SER795  GLU796  ALA797  LYS798  CYS799  TRP800  GLU811  SER814 

> <Gold.Protein.RotatedAtoms>
  150.8674  134.8041  159.7129 H   0  0  0  0  0  0  0  0  0  0  0  0  # atno 6907 bound_to 6896
  152.4691  134.5001  159.9732 H   0  0  0  0  0  0  0  0  0  0  0  0  # atno 6908 bound_to 6896
  151.5095  133.3449  159.2918 H   0  0  0  0  0  0  0  0  0  0  0  0  # atno 6909 bound_to 6896
  144.8162  139.6786  143.6120 H   0  0  0  0  0  0  0  0  0  0  0  0  # atno 7974 bound_to 7965
  154.8986  140.0413  157.1880 H   0  0  0  0  0  0  0  0  0  0  0  0  # atno 8008 bound_to 7997
  154.8467  140.2923  155.5603 H   0  0  0  0  0  0  0  0  0  0  0  0  # atno 8009 bound_to 7997
  156.2994  140.2472  156.3419 H   0  0  0  0  0  0  0  0  0  0  0  0  # atno 8010 bound_to 7997
  139.8635  143.7047  152.2647 H   0  0  0  0  0  0  0  0  0  0  0  0  # atno 10167 bound_to 10162
  157.6947  131.0516  150.4203 H   0  0  0  0  0  0  0  0  0  0  0  0  # atno 10718 bound_to 10713
  153.0254  135.5234  154.7191 H   0  0  0  0  0  0  0  0  0  0  0  0  # atno 10763 bound_to 10752
  154.6252  135.2893  155.0283 H   0  0  0  0  0  0  0  0  0  0  0  0  # atno 10764 bound_to 10752
  154.1255  135.6601  153.4964 H   0  0  0  0  0  0  0  0  0  0  0  0  # atno 10765 bound_to 10752
  140.9029  134.1667  157.4447 H   0  0  0  0  0  0  0  0  0  0  0  0  # atno 11005 bound_to 11000
  146.2465  139.6109  142.9456 LP  0  0  0  0  0  0  0  0  0  0  0  0  # atno 17320 bound_to 7965
  145.5210  141.0432  143.2435 LP  0  0  0  0  0  0  0  0  0  0  0  0  # atno 17321 bound_to 7965
  139.7351  144.7573  151.0740 LP  0  0  0  0  0  0  0  0  0  0  0  0  # atno 17342 bound_to 10162
  140.7771  143.5040  150.9735 LP  0  0  0  0  0  0  0  0  0  0  0  0  # atno 17343 bound_to 10162
  156.4579  130.4025  149.6595 LP  0  0  0  0  0  0  0  0  0  0  0  0  # atno 17370 bound_to 10713
  156.3721  130.7535  151.2520 LP  0  0  0  0  0  0  0  0  0  0  0  0  # atno 17371 bound_to 10713
  139.8745  134.9905  156.5507 LP  0  0  0  0  0  0  0  0  0  0  0  0  # atno 17394 bound_to 11000
  140.8207  133.8356  155.8893 LP  0  0  0  0  0  0  0  0  0  0  0  0  # atno 17395 bound_to 11000

$$$$
