AV-unprocessed.smi:1400|AV-procd|sdf|5686|dock9
  -GOLD-   22720 5313D 1   1.00000     0.00000
 Structure written by MMmdl.
 34 35  0  0  0  0  0  0  0  0  1 V2000
  153.9740  130.4250  155.1233 C   0  0  0  0  0  0  0  0  0  0  0  0
  153.0049  129.2554  154.9349 C   0  0  0  0  0  0  0  0  0  0  0  0
  153.4580  128.1908  154.5144 O   0  0  0  0  0  0  0  0  0  0  0  0
  151.6957  129.4242  155.2405 N   0  0  0  0  0  0  0  0  0  0  0  0
  151.1374  130.7158  155.6573 C   0  0  0  0  0  0  0  0  0  0  0  0
  150.2495  131.2628  154.5243 C   0  0  0  0  0  0  0  0  0  0  0  0
  149.1523  130.2499  154.1306 C   0  0  0  0  0  0  0  0  0  0  0  0
  148.4658  130.7052  152.9244 N   0  0  0  0  0  0  0  0  0  0  0  0
  147.2201  131.1992  152.8676 C   0  0  0  0  0  0  0  0  0  0  0  0
  146.4917  131.3317  153.8516 O   0  0  0  0  0  0  0  0  0  0  0  0
  146.8854  131.5220  151.6058 N   0  0  0  0  0  0  0  0  0  0  0  0
  145.6608  132.0622  151.1320 C   0  0  0  0  0  0  0  0  0  0  0  0
  144.6926  132.5439  151.9205 N   0  0  0  0  0  0  0  0  0  0  0  0
  143.6001  133.0096  151.1845 C   0  0  0  0  0  0  0  0  0  0  0  0
  143.7543  132.8738  149.8273 C   0  0  0  0  0  0  0  0  0  0  0  0
  145.2873  132.1516  149.4169 S   0  0  0  0  0  0  0  0  0  0  0  0
  149.7386  128.8412  153.8961 C   0  0  0  0  0  0  0  0  0  0  0  0
  150.6451  128.4138  155.0641 C   0  0  0  0  0  0  0  0  0  0  0  0
  153.9695  130.7693  156.1579 H   0  0  0  0  0  0  0  0  0  0  0  0
  153.7080  131.2567  154.4704 H   0  0  0  0  0  0  0  0  0  0  0  0
  154.9927  130.1221  154.8792 H   0  0  0  0  0  0  0  0  0  0  0  0
  150.5469  130.5792  156.5643 H   0  0  0  0  0  0  0  0  0  0  0  0
  151.9061  131.4466  155.9116 H   0  0  0  0  0  0  0  0  0  0  0  0
  149.7960  132.2067  154.8290 H   0  0  0  0  0  0  0  0  0  0  0  0
  150.8754  131.4855  153.6586 H   0  0  0  0  0  0  0  0  0  0  0  0
  148.4529  130.1783  154.9656 H   0  0  0  0  0  0  0  0  0  0  0  0
  148.9849  130.6384  152.0611 H   0  0  0  0  0  0  0  0  0  0  0  0
  147.5881  131.3589  150.8998 H   0  0  0  0  0  0  0  0  0  0  0  0
  142.7519  133.4234  151.7095 H   0  0  0  0  0  0  0  0  0  0  0  0
  143.0615  133.1536  149.0476 H   0  0  0  0  0  0  0  0  0  0  0  0
  148.9328  128.1179  153.7657 H   0  0  0  0  0  0  0  0  0  0  0  0
  150.3184  128.8286  152.9717 H   0  0  0  0  0  0  0  0  0  0  0  0
  151.0288  127.4098  154.8893 H   0  0  0  0  0  0  0  0  0  0  0  0
  150.0592  128.3435  155.9817 H   0  0  0  0  0  0  0  0  0  0  0  0
  1  2  1  0  0  0  0
  1 19  1  0  0  0  0
  1 20  1  0  0  0  0
  1 21  1  0  0  0  0
  2  3  2  0  0  0  0
  2  4  1  0  0  0  0
  4 18  1  0  0  0  0
  4  5  1  0  0  0  0
  5  6  1  0  0  0  0
  5 22  1  0  0  0  0
  5 23  1  0  0  0  0
  6  7  1  0  0  0  0
  6 24  1  0  0  0  0
  6 25  1  0  0  0  0
  7  8  1  0  0  0  0
  7 17  1  0  0  0  0
  7 26  1  0  0  0  0
  8  9  1  0  0  0  0
  8 27  1  0  0  0  0
  9 10  2  0  0  0  0
  9 11  1  0  0  0  0
 11 12  1  0  0  0  0
 11 28  1  0  0  0  0
 12 16  1  0  0  0  0
 12 13  2  0  0  0  0
 13 14  1  0  0  0  0
 14 15  2  0  0  0  0
 14 29  1  0  0  0  0
 15 16  1  0  0  0  0
 15 30  1  0  0  0  0
 17 18  1  0  0  0  0
 17 31  1  0  0  0  0
 17 32  1  0  0  0  0
 18 33  1  0  0  0  0
 18 34  1  0  0  0  0
M  END
> <s_m_source_file>
AV-unprocessed.smi

> <i_m_source_file_index>
1400

> <i_lp_mmshare_version>
43012

> <i_f3d_flags>
0

> <s_epik_input>
W0NIM11DKD1PKU4xW0NIMl1bQ0gyXVtDSF0oW0NIMl1bQ0gyXTEpW05IXUMoPU8pW05IXWMybltjSF1bY0hdczI=

> <s_epik_cmdline>
J2VwaWtfcHl0aG9uJywgJy1waCcsICc3LjAnLCAnLXRuJywgJzgnLCAnLW1hJywgJzIwMCcsICctbWV0YWxfYmluZGluZycsICctaW1hZScsICc8aW5maWxlLm1hZT4nLCAnLW9tYWUnLCAnPG91dGZpbGUubWFlPic=

> <r_lp_tautomer_probability>
1

> <r_epik_Ionization_Penalty>
0.000151384

> <r_epik_Ionization_Penalty_Charging>
0

> <r_epik_Ionization_Penalty_Neutral>
0.000151384

> <r_epik_State_Penalty>
-0

> <r_epik_Charging_Adjusted_Penalty>
0

> <i_epik_Tot_Q>
0

> <i_epik_Tot_abs_Q>
0

> <r_epik_Metal_State_Penalty>
0.0312905

> <b_epik_Metal_Only>
0

> <s_lp_Force_Field>
OPLS_2005

> <r_lp_Energy>
21.754

> <b_lp_Chiralities_Consistent>
1

> <s_lp_Variant>
AV-unprocessed.smi:1400-1

> <Gold.Version>
5.8.1

> <Gold.Id.Protein>
6NUR|6NUR_protein|mol2

> <Gold.PLP.Fitness>
40.6604

> <Gold.PLP.PLP>
-32.6506

> <Gold.PLP.part.hbond>
-2.0000

> <Gold.PLP.part.metal>
0.0000

> <Gold.PLP.part.buried>
-3.1184

> <Gold.PLP.part.nonpolar>
-27.2887

> <Gold.PLP.part.repulsive>
0.4465

> <Gold.PLP.ligand.clash>
0.0000

> <Gold.PLP.ligand.torsion>
0.1455

> <Gold.PLP.Chemscore.Hbond>
1.9600

> <Gold.PLP.Chemscore.CHOScore>
0.8014

> <Gold.PLP.Chemscore.Metal>
0.0000

> <Gold.Chemscore.Hbonds>
donor molecule, donor type, donor heavy atom, donor atom, acceptor molecule, acceptor atom, score
      L1  H     8    27       P1 10747  0.98
      L1  H    11    28       P1 10747  1.00
      L1  C    15    30       P1 10186  0.84

> <Gold.PLP.Chemscore.Internal.Correction>
0.0165

> <Gold.Rescore>
     Score         DG    S(hbond)    S(metal)    S(lipo)     H(rot)  DE(clash)    DE(int)     intcor
     14.27     -15.80       1.66        0.00      62.55       1.00       0.07       1.46       ----

> <Gold.Chemscore.Fitness>
14.2685

> <Gold.Chemscore.DG>
-15.7950

> <Gold.Chemscore.ZeroCoef>
-5.4800

> <Gold.Chemscore.Hbond>
1.6636

> <Gold.Chemscore.Metal>
0.0000

> <Gold.Chemscore.Lipo>
62.5535

> <Gold.Chemscore.Internal_Hbond>
0.0000

> <Gold.Chemscore.DEClash>
0.0659

> <Gold.Chemscore.DEInternal>
1.4607

> <Gold.Chemscore.Rot>
1.0000

> <Gold.Chemscore.Internal.Correction>
   9.000000E+99

> <Gold.Chemscore.Hbonds>
donor molecule, donor type, donor heavy atom, donor atom, acceptor molecule, acceptor atom, score
      L1  H     8    27       P1 10747  0.28
      L1  H    11    28       P1 10747  0.98

> <Gold.Chemscore.Hbond.Weighted>
-5.5563

> <Gold.Chemscore.Metal.Weighted>
-0.0000

> <Gold.Chemscore.Lipo.Weighted>
-7.3188

> <Gold.Chemscore.Internal_Hbond.Weighted>
0.0000

> <Gold.Chemscore.DEClash.Weighted>
0.0659

> <Gold.Chemscore.DEInternal.Weighted>
1.4607

> <Gold.Chemscore.Rot.Weighted>
2.5600

> <Gold.Chemscore.Internal.Correction.Weighted>
   9.000000E+99

> <Gold.Protein.RotatedTorsions>
[ 6907 6896 6895 6894 ] final  155.33 input  -60.11 | X-H torsion
[ 7974 7965 7964 7962 ] final  -95.84 input  175.53 | X-H torsion
[ 8008 7997 7996 7995 ] final  130.79 input   59.86 | X-H torsion
[ 10167 10162 10161 10158 ] final  134.59 input  -65.29 | X-H torsion
[ 10718 10713 10712 10709 ] final   40.00 input   66.30 | X-H torsion
[ 10763 10752 10751 10750 ] final -167.91 input  -60.55 | X-H torsion
[ 11005 11000 10999 10996 ] final  -68.67 input  -57.11 | X-H torsion

> <Gold.Protein.ActiveResidues>
 VAL166  LYS551  ARG553  GLY616  TRP617  ASP618  TYR619  PRO620  LYS621  CYS622 
 ASP623  PHE694  ASN695  SER759  ASP760  ASP761  ALA762  ILE779  LEU786  VAL792 
 PHE793  MET794  SER795  GLU796  ALA797  LYS798  CYS799  TRP800  GLU811  SER814 

> <Gold.Protein.RotatedAtoms>
  152.0456  133.3996  159.4355 H   0  0  0  0  0  0  0  0  0  0  0  0  # atno 6907 bound_to 6896
  150.6873  134.3365  159.4859 H   0  0  0  0  0  0  0  0  0  0  0  0  # atno 6908 bound_to 6896
  152.1169  134.9233  160.0615 H   0  0  0  0  0  0  0  0  0  0  0  0  # atno 6909 bound_to 6896
  145.3547  140.9482  143.2534 H   0  0  0  0  0  0  0  0  0  0  0  0  # atno 7974 bound_to 7965
  156.2960  140.2587  156.2819 H   0  0  0  0  0  0  0  0  0  0  0  0  # atno 8008 bound_to 7997
  154.9594  140.0393  157.2201 H   0  0  0  0  0  0  0  0  0  0  0  0  # atno 8009 bound_to 7997
  154.7961  140.2820  155.5960 H   0  0  0  0  0  0  0  0  0  0  0  0  # atno 8010 bound_to 7997
  139.5250  144.6560  151.5161 H   0  0  0  0  0  0  0  0  0  0  0  0  # atno 10167 bound_to 10162
  157.3771  130.7733  149.7163 H   0  0  0  0  0  0  0  0  0  0  0  0  # atno 10718 bound_to 10713
  154.6683  135.2935  154.9776 H   0  0  0  0  0  0  0  0  0  0  0  0  # atno 10763 bound_to 10752
  154.0812  135.6604  153.4842 H   0  0  0  0  0  0  0  0  0  0  0  0  # atno 10764 bound_to 10752
  153.0471  135.5198  154.7666 H   0  0  0  0  0  0  0  0  0  0  0  0  # atno 10765 bound_to 10752
  141.1537  133.6746  156.6481 H   0  0  0  0  0  0  0  0  0  0  0  0  # atno 11005 bound_to 11000
  144.8691  139.5064  143.6776 LP  0  0  0  0  0  0  0  0  0  0  0  0  # atno 17320 bound_to 7965
  146.2953  139.7259  142.9131 LP  0  0  0  0  0  0  0  0  0  0  0  0  # atno 17321 bound_to 7965
  140.6386  143.8935  150.6670 LP  0  0  0  0  0  0  0  0  0  0  0  0  # atno 17342 bound_to 10162
  140.2262  143.3770  152.1603 LP  0  0  0  0  0  0  0  0  0  0  0  0  # atno 17343 bound_to 10162
  155.9767  130.4071  150.3758 LP  0  0  0  0  0  0  0  0  0  0  0  0  # atno 17370 bound_to 10713
  157.1857  131.0403  151.2726 LP  0  0  0  0  0  0  0  0  0  0  0  0  # atno 17371 bound_to 10713
  140.3341  134.7904  157.4348 LP  0  0  0  0  0  0  0  0  0  0  0  0  # atno 17394 bound_to 11000
  140.0992  134.5496  155.8369 LP  0  0  0  0  0  0  0  0  0  0  0  0  # atno 17395 bound_to 11000

$$$$
