AV-unprocessed.smi:2655|AV-procd|sdf|10300|dock4
  -GOLD-   2272014313D 1   1.00000     0.00000
 Structure written by MMmdl.
 34 35  0  0  0  0  0  0  0  0  1 V2000
  146.5351  135.7385  153.9588 C   0  0  0  0  0  0  0  0  0  0  0  0
  145.7900  135.4267  152.6925 C   0  0  0  0  0  0  0  0  0  0  0  0
  145.1063  134.2894  152.6144 N   0  0  0  0  0  0  0  0  0  0  0  0
  144.5561  134.3133  151.3860 N   0  0  0  0  0  0  0  0  0  0  0  0
  144.8912  135.4540  150.7039 C   0  0  0  0  0  0  0  0  0  0  0  0
  144.4298  135.6763  149.4441 O   0  0  0  0  0  0  0  0  0  0  0  0
  145.6947  136.2147  151.5025 C   0  0  0  0  0  0  0  0  0  0  0  0
  146.3183  137.5526  151.2104 C   0  0  0  0  0  0  0  0  0  0  0  0
  146.4196  138.4134  152.4800 C   0  0  0  0  0  0  0  0  0  0  0  0
  147.7834  138.8754  152.7113 N   0  0  0  0  0  0  0  0  0  0  0  0
  148.4767  138.6840  153.8433 C   0  0  0  0  0  0  0  0  0  0  0  0
  148.0246  138.0922  154.8240 O   0  0  0  0  0  0  0  0  0  0  0  0
  149.7070  139.2193  153.7606 N   0  0  0  0  0  0  0  0  0  0  0  0
  150.7165  139.2224  154.7570 C   0  0  0  0  0  0  0  0  0  0  0  0
  150.5395  138.5175  155.9774 C   0  0  0  0  0  0  0  0  0  0  0  0
  151.7070  138.7601  156.6450 C   0  0  0  0  0  0  0  0  0  0  0  0
  152.2205  138.3375  157.9787 C   0  0  0  0  0  0  0  0  0  0  0  0
  152.5257  139.5484  155.8970 O   0  0  0  0  0  0  0  0  0  0  0  0
  151.8851  139.8412  154.6873 N   0  0  0  0  0  0  0  0  0  0  0  0
  147.2578  136.5405  153.8097 H   0  0  0  0  0  0  0  0  0  0  0  0
  147.0817  134.8674  154.3211 H   0  0  0  0  0  0  0  0  0  0  0  0
  145.8497  136.0533  154.7461 H   0  0  0  0  0  0  0  0  0  0  0  0
  143.9710  133.5653  151.0420 H   0  0  0  0  0  0  0  0  0  0  0  0
  145.7378  138.0837  150.4551 H   0  0  0  0  0  0  0  0  0  0  0  0
  147.3115  137.4259  150.7785 H   0  0  0  0  0  0  0  0  0  0  0  0
  145.7419  139.2667  152.4181 H   0  0  0  0  0  0  0  0  0  0  0  0
  146.1084  137.8329  153.3489 H   0  0  0  0  0  0  0  0  0  0  0  0
  148.2298  139.3733  151.9548 H   0  0  0  0  0  0  0  0  0  0  0  0
  149.9456  139.6778  152.8938 H   0  0  0  0  0  0  0  0  0  0  0  0
  149.6979  137.9287  156.3105 H   0  0  0  0  0  0  0  0  0  0  0  0
  151.5665  137.5914  158.4305 H   0  0  0  0  0  0  0  0  0  0  0  0
  152.2814  139.1896  158.6558 H   0  0  0  0  0  0  0  0  0  0  0  0
  153.2166  137.9034  157.8898 H   0  0  0  0  0  0  0  0  0  0  0  0
  144.1459  136.5764  149.3947 H   0  0  0  0  0  0  0  0  0  0  0  0
  1 20  1  0  0  0  0
  1 21  1  0  0  0  0
  1 22  1  0  0  0  0
  1  2  1  0  0  0  0
  2  7  1  0  0  0  0
  2  3  2  0  0  0  0
  3  4  1  0  0  0  0
  4 23  1  0  0  0  0
  4  5  1  0  0  0  0
  5  7  2  0  0  0  0
  5  6  1  0  0  0  0
  6 34  1  0  0  0  0
  7  8  1  0  0  0  0
  8  9  1  0  0  0  0
  8 24  1  0  0  0  0
  8 25  1  0  0  0  0
  9 10  1  0  0  0  0
  9 26  1  0  0  0  0
  9 27  1  0  0  0  0
 10 11  1  0  0  0  0
 10 28  1  0  0  0  0
 11 12  2  0  0  0  0
 11 13  1  0  0  0  0
 13 14  1  0  0  0  0
 13 29  1  0  0  0  0
 14 19  2  0  0  0  0
 14 15  1  0  0  0  0
 15 16  2  0  0  0  0
 15 30  1  0  0  0  0
 16 17  1  0  0  0  0
 16 18  1  0  0  0  0
 17 31  1  0  0  0  0
 17 32  1  0  0  0  0
 17 33  1  0  0  0  0
 18 19  1  0  0  0  0
M  END
> <s_m_source_file>
AV-unprocessed.smi

> <i_m_source_file_index>
2655

> <i_lp_mmshare_version>
43012

> <i_f3d_flags>
0

> <s_epik_input>
W0NIM11DMT1OW05IXUMoPU8pW0NASF0xW0NIMl1bQ0gyXVtOSF1DKD1PKVtOSF1jMltjSF1jKFtDSDNdKW9uMg==

> <s_epik_cmdline>
J2VwaWtfcHl0aG9uJywgJy1waCcsICc3LjAnLCAnLXRuJywgJzgnLCAnLW1hJywgJzIwMCcsICctbWV0YWxfYmluZGluZycsICctaW1hZScsICc8aW5maWxlLm1hZT4nLCAnLW9tYWUnLCAnPG91dGZpbGUubWFlPic=

> <r_lp_tautomer_probability>
0.0227396

> <r_epik_Ionization_Penalty>
3.51829

> <r_epik_Ionization_Penalty_Charging>
0

> <r_epik_Ionization_Penalty_Neutral>
3.51829

> <r_epik_State_Penalty>
1.61027

> <r_epik_Charging_Adjusted_Penalty>
1.61027

> <i_epik_Tot_Q>
0

> <i_epik_Tot_abs_Q>
0

> <r_epik_Metal_State_Penalty>
3.01397

> <b_epik_Metal_Only>
0

> <s_lp_Force_Field>
OPLS_2005

> <r_lp_Energy>
-1.25166

> <b_lp_Chiralities_Consistent>
1

> <s_lp_Variant>
AV-unprocessed.smi:2655-3

> <Gold.Version>
5.8.1

> <Gold.Id.Protein>
6NUR|6NUR_protein|mol2

> <Gold.PLP.Fitness>
39.8593

> <Gold.PLP.PLP>
-26.5206

> <Gold.PLP.part.hbond>
-6.8005

> <Gold.PLP.part.metal>
0.0000

> <Gold.PLP.part.buried>
-0.2097

> <Gold.PLP.part.nonpolar>
-20.6257

> <Gold.PLP.part.repulsive>
0.4139

> <Gold.PLP.ligand.clash>
0.0000

> <Gold.PLP.ligand.torsion>
0.7527

> <Gold.PLP.Chemscore.Hbond>
4.9440

> <Gold.PLP.Chemscore.CHOScore>
0.0000

> <Gold.PLP.Chemscore.Metal>
0.0000

> <Gold.Chemscore.Hbonds>
donor molecule, donor type, donor heavy atom, donor atom, acceptor molecule, acceptor atom, score
      L1  H     6    34       P1 10171  0.99
      L1  H    10    28       P1  7957  1.00
      L1  H    13    29       P1  7957  1.00
      P1  H  7989  7998       L1    19  0.96
      P1  H  7997  8010       L1    18  1.00

> <Gold.PLP.Chemscore.Internal.Correction>
0.0122

> <Gold.Rescore>
     Score         DG    S(hbond)    S(metal)    S(lipo)     H(rot)  DE(clash)    DE(int)     intcor
     13.92     -18.18       4.32        0.00      40.54       2.53       1.15       3.11       ----

> <Gold.Chemscore.Fitness>
13.9202

> <Gold.Chemscore.DG>
-18.1791

> <Gold.Chemscore.ZeroCoef>
-5.4800

> <Gold.Chemscore.Hbond>
4.3227

> <Gold.Chemscore.Metal>
0.0000

> <Gold.Chemscore.Lipo>
40.5367

> <Gold.Chemscore.Internal_Hbond>
0.0000

> <Gold.Chemscore.DEClash>
1.1491

> <Gold.Chemscore.DEInternal>
3.1098

> <Gold.Chemscore.Rot>
2.5318

> <Gold.Chemscore.Internal.Correction>
   9.000000E+99

> <Gold.Chemscore.Hbonds>
donor molecule, donor type, donor heavy atom, donor atom, acceptor molecule, acceptor atom, score
      L1  H     6    34       P1 10171  0.91
      L1  H    10    28       P1  7957  0.98
      L1  H    13    29       P1  7957  0.95
      P1  H  7989  7998       L1    19  0.36
      P1  H  7997  8010       L1    18  0.94

> <Gold.Chemscore.Hbond.Weighted>
-14.4378

> <Gold.Chemscore.Metal.Weighted>
-0.0000

> <Gold.Chemscore.Lipo.Weighted>
-4.7428

> <Gold.Chemscore.Internal_Hbond.Weighted>
0.0000

> <Gold.Chemscore.DEClash.Weighted>
1.1491

> <Gold.Chemscore.DEInternal.Weighted>
3.1098

> <Gold.Chemscore.Rot.Weighted>
6.4815

> <Gold.Chemscore.Internal.Correction.Weighted>
   9.000000E+99

> <Gold.Protein.RotatedTorsions>
[ 6907 6896 6895 6894 ] final   55.64 input  -60.11 | X-H torsion
[ 7974 7965 7964 7962 ] final   97.87 input  175.53 | X-H torsion
[ 8008 7997 7996 7995 ] final   66.03 input   59.86 | X-H torsion
[ 10167 10162 10161 10158 ] final  -11.52 input  -65.29 | X-H torsion
[ 10718 10713 10712 10709 ] final -159.52 input   66.30 | X-H torsion
[ 10763 10752 10751 10750 ] final   76.82 input  -60.55 | X-H torsion
[ 11005 11000 10999 10996 ] final   65.63 input  -57.11 | X-H torsion

> <Gold.Protein.ActiveResidues>
 VAL166  LYS551  ARG553  GLY616  TRP617  ASP618  TYR619  PRO620  LYS621  CYS622 
 ASP623  PHE694  ASN695  SER759  ASP760  ASP761  ALA762  ILE779  LEU786  VAL792 
 PHE793  MET794  SER795  GLU796  ALA797  LYS798  CYS799  TRP800  GLU811  SER814 

> <Gold.Protein.RotatedAtoms>
  152.3559  134.6941  160.0222 H   0  0  0  0  0  0  0  0  0  0  0  0  # atno 6907 bound_to 6896
  151.7280  133.3311  159.3341 H   0  0  0  0  0  0  0  0  0  0  0  0  # atno 6908 bound_to 6896
  150.7571  134.6323  159.6237 H   0  0  0  0  0  0  0  0  0  0  0  0  # atno 6909 bound_to 6896
  145.4198  139.2323  143.3203 H   0  0  0  0  0  0  0  0  0  0  0  0  # atno 7974 bound_to 7965
  155.6709  140.3497  155.4818 H   0  0  0  0  0  0  0  0  0  0  0  0  # atno 8008 bound_to 7997
  155.9689  140.1152  157.0853 H   0  0  0  0  0  0  0  0  0  0  0  0  # atno 8009 bound_to 7997
  154.4161  140.1161  156.5265 H   0  0  0  0  0  0  0  0  0  0  0  0  # atno 8010 bound_to 7997
  140.7140  143.5631  150.9174 H   0  0  0  0  0  0  0  0  0  0  0  0  # atno 10167 bound_to 10162
  156.5692  130.8681  151.2833 H   0  0  0  0  0  0  0  0  0  0  0  0  # atno 10718 bound_to 10713
  153.0753  135.4937  154.8391 H   0  0  0  0  0  0  0  0  0  0  0  0  # atno 10763 bound_to 10752
  154.7079  135.3014  154.9245 H   0  0  0  0  0  0  0  0  0  0  0  0  # atno 10764 bound_to 10752
  153.9948  135.6773  153.4809 H   0  0  0  0  0  0  0  0  0  0  0  0  # atno 10765 bound_to 10752
  139.9882  134.6634  156.0138 H   0  0  0  0  0  0  0  0  0  0  0  0  # atno 11005 bound_to 11000
  146.2662  140.4920  142.8833 LP  0  0  0  0  0  0  0  0  0  0  0  0  # atno 17320 bound_to 7965
  144.8253  140.6618  143.6326 LP  0  0  0  0  0  0  0  0  0  0  0  0  # atno 17321 bound_to 7965
  139.9356  143.6441  152.3066 LP  0  0  0  0  0  0  0  0  0  0  0  0  # atno 17342 bound_to 10162
  139.6908  144.7647  151.1442 LP  0  0  0  0  0  0  0  0  0  0  0  0  # atno 17343 bound_to 10162
  157.7352  130.9758  150.2068 LP  0  0  0  0  0  0  0  0  0  0  0  0  # atno 17370 bound_to 10713
  156.2730  130.3724  149.8012 LP  0  0  0  0  0  0  0  0  0  0  0  0  # atno 17371 bound_to 10713
  141.1543  133.6544  156.4112 LP  0  0  0  0  0  0  0  0  0  0  0  0  # atno 17394 bound_to 11000
  140.4960  134.6530  157.5230 LP  0  0  0  0  0  0  0  0  0  0  0  0  # atno 17395 bound_to 11000

$$$$
