AV-unprocessed.smi:2124|AV-procd|sdf|8662|dock5
  -GOLD-   2272011413D 1   1.00000     0.00000
 Structure written by MMmdl.
 47 49  0  0  0  0  0  0  0  0  1 V2000
  144.8536  137.2957  154.1967 C   0  0  0  0  0  0  0  0  0  0  0  0
  145.5191  138.4024  154.9854 C   0  0  0  0  0  0  0  0  0  0  0  0
  145.6761  139.5785  154.2704 N   0  0  0  0  0  0  0  0  0  0  0  0
  146.2892  140.6449  154.9041 C   0  0  0  0  0  0  0  0  0  0  0  0
  146.4310  141.8906  154.0467 C   0  0  0  0  0  0  0  0  0  0  0  0
  146.7154  140.5468  156.1890 C   0  0  0  0  0  0  0  0  0  0  0  0
  147.3933  141.6954  156.9339 C   0  0  0  0  0  0  0  0  0  0  0  0
  148.8694  141.4880  157.2827 C   0  0  0  0  0  0  0  0  0  0  0  0
  149.2300  140.4910  157.9084 O   0  0  0  0  0  0  0  0  0  0  0  0
  149.7134  142.4434  156.8649 N   0  0  0  0  0  0  0  0  0  0  0  0
  151.1626  142.4442  157.0566 C   0  0  2  0  0  0  0  0  0  0  0  0
  151.7479  141.1633  156.4346 C   0  0  0  0  0  0  0  0  0  0  0  0
  151.4814  142.5800  158.5664 C   0  0  2  0  0  0  0  0  0  0  0  0
  150.8151  143.8094  159.2355 C   0  0  0  0  0  0  0  0  0  0  0  0
  151.9938  144.5279  159.9147 C   0  0  1  0  0  0  0  0  0  0  0  0
  152.5028  143.6826  161.0964 C   0  0  0  0  0  0  0  0  0  0  0  0
  153.2111  142.5106  160.3921 C   0  0  0  0  0  0  0  0  0  0  0  0
  152.9765  142.8174  158.9003 C   0  0  2  0  0  0  0  0  0  0  0  0
  153.0984  144.3381  158.8843 C   0  0  0  0  0  0  0  0  0  0  0  0
  146.5022  139.2692  156.9085 C   0  0  0  0  0  0  0  0  0  0  0  0
  146.8440  139.1281  158.0822 O   0  0  0  0  0  0  0  0  0  0  0  0
  145.8892  138.2129  156.2153 N   0  0  0  0  0  0  0  0  0  0  0  0
  145.3733  139.6943  153.3140 H   0  0  0  0  0  0  0  0  0  0  0  0
  144.7658  136.3881  154.7954 H   0  0  0  0  0  0  0  0  0  0  0  0
  145.4362  137.0605  153.3053 H   0  0  0  0  0  0  0  0  0  0  0  0
  143.8523  137.5981  153.8882 H   0  0  0  0  0  0  0  0  0  0  0  0
  147.4836  142.1291  153.8936 H   0  0  0  0  0  0  0  0  0  0  0  0
  145.9501  142.7427  154.5273 H   0  0  0  0  0  0  0  0  0  0  0  0
  145.9725  141.7585  153.0658 H   0  0  0  0  0  0  0  0  0  0  0  0
  146.8631  141.8792  157.8681 H   0  0  0  0  0  0  0  0  0  0  0  0
  147.2786  142.6196  156.3652 H   0  0  0  0  0  0  0  0  0  0  0  0
  149.3249  143.2246  156.3568 H   0  0  0  0  0  0  0  0  0  0  0  0
  151.5881  143.3042  156.5369 H   0  0  0  0  0  0  0  0  0  0  0  0
  152.8358  141.1487  156.4815 H   0  0  0  0  0  0  0  0  0  0  0  0
  151.4754  141.0787  155.3822 H   0  0  0  0  0  0  0  0  0  0  0  0
  151.3804  140.2717  156.9437 H   0  0  0  0  0  0  0  0  0  0  0  0
  151.1396  141.6700  159.0626 H   0  0  0  0  0  0  0  0  0  0  0  0
  150.3601  144.4718  158.4977 H   0  0  0  0  0  0  0  0  0  0  0  0
  150.0373  143.5244  159.9451 H   0  0  0  0  0  0  0  0  0  0  0  0
  151.7807  145.5646  160.1767 H   0  0  0  0  0  0  0  0  0  0  0  0
  153.2091  144.2479  161.7058 H   0  0  0  0  0  0  0  0  0  0  0  0
  151.6911  143.3498  161.7444 H   0  0  0  0  0  0  0  0  0  0  0  0
  154.2771  142.5153  160.6232 H   0  0  0  0  0  0  0  0  0  0  0  0
  152.8115  141.5404  160.6893 H   0  0  0  0  0  0  0  0  0  0  0  0
  153.6796  142.2994  158.2497 H   0  0  0  0  0  0  0  0  0  0  0  0
  152.8699  144.7858  157.9158 H   0  0  0  0  0  0  0  0  0  0  0  0
  154.0719  144.6980  159.2228 H   0  0  0  0  0  0  0  0  0  0  0  0
  1 24  1  0  0  0  0
  1 25  1  0  0  0  0
  1 26  1  0  0  0  0
  1  2  1  0  0  0  0
  2  3  1  0  0  0  0
  2 22  2  0  0  0  0
  3  4  1  0  0  0  0
  3 23  1  0  0  0  0
  4  6  2  0  0  0  0
  4  5  1  0  0  0  0
  5 27  1  0  0  0  0
  5 28  1  0  0  0  0
  5 29  1  0  0  0  0
  6 20  1  0  0  0  0
  6  7  1  0  0  0  0
  7  8  1  0  0  0  0
  7 30  1  0  0  0  0
  7 31  1  0  0  0  0
  8  9  2  0  0  0  0
  8 10  1  0  0  0  0
 10 11  1  0  0  0  0
 10 32  1  0  0  0  0
 11 12  1  0  0  0  0
 11 13  1  0  0  0  0
 11 33  1  0  0  0  0
 12 34  1  0  0  0  0
 12 35  1  0  0  0  0
 12 36  1  0  0  0  0
 13 18  1  0  0  0  0
 13 14  1  0  0  0  0
 13 37  1  0  0  0  0
 14 15  1  0  0  0  0
 14 38  1  0  0  0  0
 14 39  1  0  0  0  0
 15 19  1  0  0  0  0
 15 16  1  0  0  0  0
 15 40  1  0  0  0  0
 16 17  1  0  0  0  0
 16 41  1  0  0  0  0
 16 42  1  0  0  0  0
 17 18  1  0  0  0  0
 17 43  1  0  0  0  0
 17 44  1  0  0  0  0
 18 19  1  0  0  0  0
 18 45  1  0  0  0  0
 19 46  1  0  0  0  0
 19 47  1  0  0  0  0
 20 21  2  0  0  0  0
 20 22  1  0  0  0  0
M  END
> <s_m_source_file>
AV-unprocessed.smi

> <i_m_source_file_index>
2124

> <i_lp_mmshare_version>
43012

> <i_f3d_flags>
0

> <s_epik_input>
W0NIM11jMW5jKFtDSDNdKWMoYyg9TylbbkhdMSlbQ0gyXUMoPU8pW05IXVtDQEhdKFtDSDNdKVtDQEhdKFtDSDJdW0NASF0yMylbQ0BIXShbQ0gyXTMpW0NIMl1bQ0gyXTI=

> <s_epik_cmdline>
J2VwaWtfcHl0aG9uJywgJy1waCcsICc3LjAnLCAnLXRuJywgJzgnLCAnLW1hJywgJzIwMCcsICctbWV0YWxfYmluZGluZycsICctaW1hZScsICc8aW5maWxlLm1hZT4nLCAnLW9tYWUnLCAnPG91dGZpbGUubWFlPic=

> <r_lp_tautomer_probability>
0.156392

> <r_epik_Ionization_Penalty>
0.0139374

> <r_epik_Ionization_Penalty_Charging>
0.0138122

> <r_epik_Ionization_Penalty_Neutral>
0.000125146

> <r_epik_State_Penalty>
1.15342

> <r_epik_Charging_Adjusted_Penalty>
1.16723

> <i_epik_Tot_Q>
0

> <i_epik_Tot_abs_Q>
0

> <r_epik_Metal_State_Penalty>
1.3173

> <b_epik_Metal_Only>
0

> <s_lp_Force_Field>
OPLS_2005

> <r_lp_Energy>
56.0301

> <b_lp_Chiralities_Consistent>
1

> <s_lp_Variant>
AV-unprocessed.smi:2124-13

> <Gold.Version>
5.8.1

> <Gold.Id.Protein>
6NUR|6NUR_protein|mol2

> <Gold.PLP.Fitness>
45.0625

> <Gold.PLP.PLP>
-39.3108

> <Gold.PLP.part.hbond>
-4.0000

> <Gold.PLP.part.metal>
0.0000

> <Gold.PLP.part.buried>
-5.3176

> <Gold.PLP.part.nonpolar>
-31.4073

> <Gold.PLP.part.repulsive>
0.0384

> <Gold.PLP.ligand.clash>
0.0000

> <Gold.PLP.ligand.torsion>
0.1656

> <Gold.PLP.Chemscore.Hbond>
2.0208

> <Gold.PLP.Chemscore.CHOScore>
0.0000

> <Gold.PLP.Chemscore.Metal>
0.0000

> <Gold.Chemscore.Hbonds>
donor molecule, donor type, donor heavy atom, donor atom, acceptor molecule, acceptor atom, score
      L1  H     3    23       P1 10175  0.63
      L1  H    10    32       P1  8028  1.00

> <Gold.PLP.Chemscore.Internal.Correction>
0.0205

> <Gold.Rescore>
     Score         DG    S(hbond)    S(metal)    S(lipo)     H(rot)  DE(clash)    DE(int)     intcor
     20.23     -21.64       2.45        0.00     104.22       1.65       0.03       1.37       ----

> <Gold.Chemscore.Fitness>
20.2310

> <Gold.Chemscore.DG>
-21.6365

> <Gold.Chemscore.ZeroCoef>
-5.4800

> <Gold.Chemscore.Hbond>
2.4538

> <Gold.Chemscore.Metal>
0.0000

> <Gold.Chemscore.Lipo>
104.2167

> <Gold.Chemscore.Internal_Hbond>
0.0000

> <Gold.Chemscore.DEClash>
0.0308

> <Gold.Chemscore.DEInternal>
1.3747

> <Gold.Chemscore.Rot>
1.6534

> <Gold.Chemscore.Internal.Correction>
   9.000000E+99

> <Gold.Chemscore.Hbonds>
donor molecule, donor type, donor heavy atom, donor atom, acceptor molecule, acceptor atom, score
      L1  H     3    23       P1 10175  0.60
      L1  H    10    32       P1  8028  1.00

> <Gold.Chemscore.Hbond.Weighted>
-8.1957

> <Gold.Chemscore.Metal.Weighted>
-0.0000

> <Gold.Chemscore.Lipo.Weighted>
-12.1934

> <Gold.Chemscore.Internal_Hbond.Weighted>
0.0000

> <Gold.Chemscore.DEClash.Weighted>
0.0308

> <Gold.Chemscore.DEInternal.Weighted>
1.3747

> <Gold.Chemscore.Rot.Weighted>
4.2326

> <Gold.Chemscore.Internal.Correction.Weighted>
   9.000000E+99

> <Gold.Protein.RotatedTorsions>
[ 6907 6896 6895 6894 ] final   60.14 input  -60.11 | X-H torsion
[ 7974 7965 7964 7962 ] final   90.78 input  175.53 | X-H torsion
[ 8008 7997 7996 7995 ] final   93.86 input   59.86 | X-H torsion
[ 10167 10162 10161 10158 ] final  169.16 input  -65.29 | X-H torsion
[ 10718 10713 10712 10709 ] final  -28.23 input   66.30 | X-H torsion
[ 10763 10752 10751 10750 ] final   -2.82 input  -60.55 | X-H torsion
[ 11005 11000 10999 10996 ] final  -65.11 input  -57.11 | X-H torsion

> <Gold.Protein.ActiveResidues>
 VAL166  LYS551  ARG553  GLY616  TRP617  ASP618  TYR619  PRO620  LYS621  CYS622 
 ASP623  PHE694  ASN695  SER759  ASP760  ASP761  ALA762  ILE779  LEU786  VAL792 
 PHE793  MET794  SER795  GLU796  ALA797  LYS798  CYS799  TRP800  GLU811  SER814 

> <Gold.Protein.RotatedAtoms>
  152.3976  134.6339  160.0082 H   0  0  0  0  0  0  0  0  0  0  0  0  # atno 6907 bound_to 6896
  151.6554  133.3313  159.3169 H   0  0  0  0  0  0  0  0  0  0  0  0  # atno 6908 bound_to 6896
  150.7881  134.6926  159.6550 H   0  0  0  0  0  0  0  0  0  0  0  0  # atno 6909 bound_to 6896
  145.5144  139.2277  143.2706 H   0  0  0  0  0  0  0  0  0  0  0  0  # atno 7974 bound_to 7965
  156.0514  140.3307  155.7356 H   0  0  0  0  0  0  0  0  0  0  0  0  # atno 8008 bound_to 7997
  155.5595  140.0617  157.2849 H   0  0  0  0  0  0  0  0  0  0  0  0  # atno 8009 bound_to 7997
  154.4437  140.1880  156.0756 H   0  0  0  0  0  0  0  0  0  0  0  0  # atno 8010 bound_to 7997
  139.4985  144.3736  151.9698 H   0  0  0  0  0  0  0  0  0  0  0  0  # atno 10167 bound_to 10162
  156.4279  130.4439  149.7137 H   0  0  0  0  0  0  0  0  0  0  0  0  # atno 10718 bound_to 10713
  153.3632  135.6991  153.6696 H   0  0  0  0  0  0  0  0  0  0  0  0  # atno 10763 bound_to 10752
  153.5376  135.3579  155.2704 H   0  0  0  0  0  0  0  0  0  0  0  0  # atno 10764 bound_to 10752
  154.8671  135.4196  154.2893 H   0  0  0  0  0  0  0  0  0  0  0  0  # atno 10765 bound_to 10752
  141.1445  133.6676  156.5936 H   0  0  0  0  0  0  0  0  0  0  0  0  # atno 11005 bound_to 11000
  146.2146  140.5953  142.9044 LP  0  0  0  0  0  0  0  0  0  0  0  0  # atno 17320 bound_to 7965
  144.7710  140.5636  143.6670 LP  0  0  0  0  0  0  0  0  0  0  0  0  # atno 17321 bound_to 7965
  140.3173  144.3469  150.6018 LP  0  0  0  0  0  0  0  0  0  0  0  0  # atno 17342 bound_to 10162
  140.5751  143.2177  151.7529 LP  0  0  0  0  0  0  0  0  0  0  0  0  # atno 17343 bound_to 10162
  156.4052  130.7694  151.2705 LP  0  0  0  0  0  0  0  0  0  0  0  0  # atno 17370 bound_to 10713
  157.7508  131.0228  150.3806 LP  0  0  0  0  0  0  0  0  0  0  0  0  # atno 17371 bound_to 10713
  140.3744  134.7578  157.4620 LP  0  0  0  0  0  0  0  0  0  0  0  0  # atno 17394 bound_to 11000
  140.0686  134.5895  155.8667 LP  0  0  0  0  0  0  0  0  0  0  0  0  # atno 17395 bound_to 11000

$$$$
