AV-unprocessed.smi:1221|AV-procd|sdf|5118|dock1
  -GOLD-   22720 4173D 1   1.00000     0.00000
 Structure written by MMmdl.
 40 41  0  0  0  0  0  0  0  0  1 V2000
  148.1601  129.7157  153.2377 C   0  0  0  0  0  0  0  0  0  0  0  0
  148.4929  131.0597  153.7890 C   0  0  0  0  0  0  0  0  0  0  0  0
  148.6139  132.2954  153.2178 C   0  0  0  0  0  0  0  0  0  0  0  0
  148.9494  133.1255  154.3203 C   0  0  0  0  0  0  0  0  0  0  0  0
  149.1650  134.5162  154.1450 N   0  0  0  0  0  0  0  0  0  0  0  0
  149.5819  135.4015  155.0661 C   0  0  0  0  0  0  0  0  0  0  0  0
  149.8486  135.1332  156.2380 O   0  0  0  0  0  0  0  0  0  0  0  0
  149.6786  136.6349  154.5492 N   0  0  0  0  0  0  0  0  0  0  0  0
  150.1086  137.8147  155.2893 C   0  0  0  0  0  0  0  0  0  0  0  0
  150.4638  138.9764  154.3426 C   0  0  0  0  0  0  0  0  0  0  0  0
  150.4411  140.2625  155.0501 N   0  0  0  0  0  0  0  0  0  0  0  0
  149.3395  141.1776  154.7084 C   0  0  0  0  0  0  0  0  0  0  0  0
  148.2961  141.3438  155.8382 C   0  0  0  0  0  0  0  0  0  0  0  0
  148.8186  141.1869  157.2800 C   0  0  0  0  0  0  0  0  0  0  0  0
  150.0431  142.0584  157.6286 C   0  0  0  0  0  0  0  0  0  0  0  0
  151.2689  141.9324  156.6927 C   0  0  0  0  0  0  0  0  0  0  0  0
  151.3812  140.5775  155.9753 C   0  0  0  0  0  0  0  0  0  0  0  0
  152.3125  139.8276  156.2692 O   0  0  0  0  0  0  0  0  0  0  0  0
  149.0264  132.4571  155.4609 N   0  0  0  0  0  0  0  0  0  0  0  0
  148.7326  131.1299  155.1266 O   0  0  0  0  0  0  0  0  0  0  0  0
  148.3153  129.6882  152.1591 H   0  0  0  0  0  0  0  0  0  0  0  0
  147.1181  129.4655  153.4367 H   0  0  0  0  0  0  0  0  0  0  0  0
  148.7859  128.9452  153.6884 H   0  0  0  0  0  0  0  0  0  0  0  0
  148.4829  132.5595  152.1790 H   0  0  0  0  0  0  0  0  0  0  0  0
  148.9849  134.8742  153.2189 H   0  0  0  0  0  0  0  0  0  0  0  0
  149.4406  136.7674  153.5772 H   0  0  0  0  0  0  0  0  0  0  0  0
  149.2977  138.1140  155.9541 H   0  0  0  0  0  0  0  0  0  0  0  0
  150.9545  137.5602  155.9304 H   0  0  0  0  0  0  0  0  0  0  0  0
  151.4498  138.8167  153.9023 H   0  0  0  0  0  0  0  0  0  0  0  0
  149.7759  138.9852  153.4966 H   0  0  0  0  0  0  0  0  0  0  0  0
  149.7530  142.1506  154.4417 H   0  0  0  0  0  0  0  0  0  0  0  0
  148.8223  140.8552  153.8043 H   0  0  0  0  0  0  0  0  0  0  0  0
  147.8101  142.3139  155.7289 H   0  0  0  0  0  0  0  0  0  0  0  0
  147.5084  140.6042  155.6913 H   0  0  0  0  0  0  0  0  0  0  0  0
  148.0107  141.4219  157.9733 H   0  0  0  0  0  0  0  0  0  0  0  0
  149.0531  140.1382  157.4673 H   0  0  0  0  0  0  0  0  0  0  0  0
  149.7358  143.1043  157.6571 H   0  0  0  0  0  0  0  0  0  0  0  0
  150.3533  141.8180  158.6462 H   0  0  0  0  0  0  0  0  0  0  0  0
  151.2555  142.7275  155.9476 H   0  0  0  0  0  0  0  0  0  0  0  0
  152.1782  142.1076  157.2693 H   0  0  0  0  0  0  0  0  0  0  0  0
  1  2  1  0  0  0  0
  1 21  1  0  0  0  0
  1 22  1  0  0  0  0
  1 23  1  0  0  0  0
  2 20  1  0  0  0  0
  2  3  2  0  0  0  0
  3  4  1  0  0  0  0
  3 24  1  0  0  0  0
  4  5  1  0  0  0  0
  4 19  2  0  0  0  0
  5  6  1  0  0  0  0
  5 25  1  0  0  0  0
  6  7  2  0  0  0  0
  6  8  1  0  0  0  0
  8  9  1  0  0  0  0
  8 26  1  0  0  0  0
  9 10  1  0  0  0  0
  9 27  1  0  0  0  0
  9 28  1  0  0  0  0
 10 11  1  0  0  0  0
 10 29  1  0  0  0  0
 10 30  1  0  0  0  0
 11 17  1  0  0  0  0
 11 12  1  0  0  0  0
 12 13  1  0  0  0  0
 12 31  1  0  0  0  0
 12 32  1  0  0  0  0
 13 14  1  0  0  0  0
 13 33  1  0  0  0  0
 13 34  1  0  0  0  0
 14 15  1  0  0  0  0
 14 35  1  0  0  0  0
 14 36  1  0  0  0  0
 15 16  1  0  0  0  0
 15 37  1  0  0  0  0
 15 38  1  0  0  0  0
 16 17  1  0  0  0  0
 16 39  1  0  0  0  0
 16 40  1  0  0  0  0
 17 18  2  0  0  0  0
 19 20  1  0  0  0  0
M  END
> <s_m_source_file>
AV-unprocessed.smi

> <i_m_source_file_index>
1221

> <i_lp_mmshare_version>
43012

> <i_f3d_flags>
0

> <s_epik_input>
W0NIM11jMVtjSF1jKG5vMSlbTkhdQyg9TylbTkhdW0NIMl1bQ0gyXU4yW0NIMl1bQ0gyXVtDSDJdW0NIMl1bQ0gyXUMyPU8=

> <s_epik_cmdline>
J2VwaWtfcHl0aG9uJywgJy1waCcsICc3LjAnLCAnLXRuJywgJzgnLCAnLW1hJywgJzIwMCcsICctbWV0YWxfYmluZGluZycsICctaW1hZScsICc8aW5maWxlLm1hZT4nLCAnLW9tYWUnLCAnPG91dGZpbGUubWFlPic=

> <r_lp_tautomer_probability>
1

> <r_epik_Ionization_Penalty>
2.943e-05

> <r_epik_Ionization_Penalty_Charging>
0

> <r_epik_Ionization_Penalty_Neutral>
2.943e-05

> <r_epik_State_Penalty>
-0

> <r_epik_Charging_Adjusted_Penalty>
0

> <i_epik_Tot_Q>
0

> <i_epik_Tot_abs_Q>
0

> <r_epik_Metal_State_Penalty>
0.0104721

> <b_epik_Metal_Only>
0

> <s_lp_Force_Field>
OPLS_2005

> <r_lp_Energy>
18.1231

> <b_lp_Chiralities_Consistent>
1

> <s_lp_Variant>
AV-unprocessed.smi:1221-1

> <Gold.Version>
5.8.1

> <Gold.Id.Protein>
6NUR|6NUR_protein|mol2

> <Gold.PLP.Fitness>
40.9057

> <Gold.PLP.PLP>
-32.7982

> <Gold.PLP.part.hbond>
-3.0000

> <Gold.PLP.part.metal>
0.0000

> <Gold.PLP.part.buried>
-2.2337

> <Gold.PLP.part.nonpolar>
-26.3139

> <Gold.PLP.part.repulsive>
0.0780

> <Gold.PLP.ligand.clash>
0.0000

> <Gold.PLP.ligand.torsion>
0.2875

> <Gold.PLP.Chemscore.Hbond>
2.8913

> <Gold.PLP.Chemscore.CHOScore>
0.0000

> <Gold.PLP.Chemscore.Metal>
0.0000

> <Gold.Chemscore.Hbonds>
donor molecule, donor type, donor heavy atom, donor atom, acceptor molecule, acceptor atom, score
      L1  H     5    25       P1  7948  0.85
      L1  H     8    26       P1  7948  1.00
      P1  H  7997  8009       L1    18  0.96

> <Gold.PLP.Chemscore.Internal.Correction>
0.0089

> <Gold.Rescore>
     Score         DG    S(hbond)    S(metal)    S(lipo)     H(rot)  DE(clash)    DE(int)     intcor
     14.22     -15.81       2.48        0.00      53.12       1.63       0.03       1.56       ----

> <Gold.Chemscore.Fitness>
14.2184

> <Gold.Chemscore.DG>
-15.8125

> <Gold.Chemscore.ZeroCoef>
-5.4800

> <Gold.Chemscore.Hbond>
2.4796

> <Gold.Chemscore.Metal>
0.0000

> <Gold.Chemscore.Lipo>
53.1162

> <Gold.Chemscore.Internal_Hbond>
0.0000

> <Gold.Chemscore.DEClash>
0.0329

> <Gold.Chemscore.DEInternal>
1.5612

> <Gold.Chemscore.Rot>
1.6266

> <Gold.Chemscore.Internal.Correction>
   9.000000E+99

> <Gold.Chemscore.Hbonds>
donor molecule, donor type, donor heavy atom, donor atom, acceptor molecule, acceptor atom, score
      L1  H     5    25       P1  7948  0.14
      L1  H     8    26       P1  7948  0.87
      P1  H  7997  8009       L1    18  0.91

> <Gold.Chemscore.Hbond.Weighted>
-8.2820

> <Gold.Chemscore.Metal.Weighted>
-0.0000

> <Gold.Chemscore.Lipo.Weighted>
-6.2146

> <Gold.Chemscore.Internal_Hbond.Weighted>
0.0000

> <Gold.Chemscore.DEClash.Weighted>
0.0329

> <Gold.Chemscore.DEInternal.Weighted>
1.5612

> <Gold.Chemscore.Rot.Weighted>
4.1641

> <Gold.Chemscore.Internal.Correction.Weighted>
   9.000000E+99

> <Gold.Protein.RotatedTorsions>
[ 6907 6896 6895 6894 ] final   -5.20 input  -60.11 | X-H torsion
[ 7974 7965 7964 7962 ] final -172.66 input  175.53 | X-H torsion
[ 8008 7997 7996 7995 ] final -157.44 input   59.86 | X-H torsion
[ 10167 10162 10161 10158 ] final -176.25 input  -65.29 | X-H torsion
[ 10718 10713 10712 10709 ] final -156.28 input   66.30 | X-H torsion
[ 10763 10752 10751 10750 ] final -157.66 input  -60.55 | X-H torsion
[ 11005 11000 10999 10996 ] final  -83.04 input  -57.11 | X-H torsion

> <Gold.Protein.ActiveResidues>
 VAL166  LYS551  ARG553  GLY616  TRP617  ASP618  TYR619  PRO620  LYS621  CYS622 
 ASP623  PHE694  ASN695  SER759  ASP760  ASP761  ALA762  ILE779  LEU786  VAL792 
 PHE793  MET794  SER795  GLU796  ALA797  LYS798  CYS799  TRP800  GLU811  SER814 

> <Gold.Protein.RotatedAtoms>
  151.4853  135.1054  159.9788 H   0  0  0  0  0  0  0  0  0  0  0  0  # atno 6907 bound_to 6896
  152.4763  133.8141  159.7029 H   0  0  0  0  0  0  0  0  0  0  0  0  # atno 6908 bound_to 6896
  150.8803  133.7320  159.2960 H   0  0  0  0  0  0  0  0  0  0  0  0  # atno 6909 bound_to 6896
  144.7144  140.1738  143.6365 H   0  0  0  0  0  0  0  0  0  0  0  0  # atno 7974 bound_to 7965
  155.7324  140.0804  157.2282 H   0  0  0  0  0  0  0  0  0  0  0  0  # atno 8008 bound_to 7997
  154.4031  140.1593  156.2579 H   0  0  0  0  0  0  0  0  0  0  0  0  # atno 8009 bound_to 7997
  155.9096  140.3404  155.6091 H   0  0  0  0  0  0  0  0  0  0  0  0  # atno 8010 bound_to 7997
  139.5539  144.2039  152.1125 H   0  0  0  0  0  0  0  0  0  0  0  0  # atno 10167 bound_to 10162
  156.5243  130.8492  151.2693 H   0  0  0  0  0  0  0  0  0  0  0  0  # atno 10718 bound_to 10713
  154.7619  135.3120  154.8362 H   0  0  0  0  0  0  0  0  0  0  0  0  # atno 10763 bound_to 10752
  153.9121  135.6804  153.4755 H   0  0  0  0  0  0  0  0  0  0  0  0  # atno 10764 bound_to 10752
  153.1220  135.4818  154.9143 H   0  0  0  0  0  0  0  0  0  0  0  0  # atno 10765 bound_to 10752
  141.1660  133.7274  156.8661 H   0  0  0  0  0  0  0  0  0  0  0  0  # atno 11005 bound_to 11000
  145.8919  139.2380  143.1544 LP  0  0  0  0  0  0  0  0  0  0  0  0  # atno 17320 bound_to 7965
  145.9895  140.8614  143.0073 LP  0  0  0  0  0  0  0  0  0  0  0  0  # atno 17321 bound_to 7965
  140.1539  144.5089  150.6671 LP  0  0  0  0  0  0  0  0  0  0  0  0  # atno 17342 bound_to 10162
  140.6808  143.2326  151.5389 LP  0  0  0  0  0  0  0  0  0  0  0  0  # atno 17343 bound_to 10162
  157.7432  130.9906  150.2573 LP  0  0  0  0  0  0  0  0  0  0  0  0  # atno 17370 bound_to 10713
  156.3119  130.3773  149.7653 LP  0  0  0  0  0  0  0  0  0  0  0  0  # atno 17371 bound_to 10713
  140.1814  134.9030  157.2953 LP  0  0  0  0  0  0  0  0  0  0  0  0  # atno 17394 bound_to 11000
  140.2391  134.3818  155.7488 LP  0  0  0  0  0  0  0  0  0  0  0  0  # atno 17395 bound_to 11000

$$$$
