AV-unprocessed.smi:2027|AV-procd|sdf|8212|dock1
  -GOLD-   2272010473D 1   1.00000     0.00000
 Structure written by MMmdl.
 50 52  0  0  0  0  0  0  0  0  2 V2000
  147.1591  128.7087  152.8087 C   0  0  0  0  0  0  0  0  0  0  0  0
  146.4199  130.0041  152.5216 C   0  0  0  0  0  0  0  0  0  0  0  0
  145.4722  130.0364  151.4739 C   0  0  0  0  0  0  0  0  0  0  0  0
  144.7610  131.2193  151.1772 C   0  0  0  0  0  0  0  0  0  0  0  0
  143.8016  131.4739  150.2124 N   0  0  0  0  0  0  0  0  0  0  0  0
  143.5208  132.7528  150.4434 C   0  0  0  0  0  0  0  0  0  0  0  0
  144.1917  133.3607  151.4409 N   0  0  0  0  0  0  0  0  0  0  0  0
  144.0575  134.7394  151.8761 C   0  0  0  0  0  0  0  0  0  0  0  0
  145.4161  135.3934  152.1918 C   0  0  1  0  0  0  0  0  0  0  0  0
  146.3686  134.9830  151.2295 O   0  0  0  0  0  0  0  0  0  0  0  0
  145.3267  136.9322  152.1712 C   0  0  0  0  0  0  0  0  0  0  0  0
  146.5832  137.5748  152.6351 N   0  3  1  0  0  0  0  0  0  0  0  0
  146.7942  138.9006  152.0064 C   0  0  0  0  0  0  0  0  0  0  0  0
  146.7034  137.6163  154.1157 C   0  0  0  0  0  0  0  0  0  0  0  0
  148.1332  137.8031  154.5447 C   0  0  0  0  0  0  0  0  0  0  0  0
  148.8603  137.0405  155.5030 C   0  0  0  0  0  0  0  0  0  0  0  0
  150.1077  137.4548  155.6499 N   0  0  0  0  0  0  0  0  0  0  0  0
  150.2186  138.4975  154.8016 N   0  0  0  0  0  0  0  0  0  0  0  0
  151.4773  139.2045  154.6993 C   0  0  0  0  0  0  0  0  0  0  0  0
  149.0423  138.7328  154.1234 C   0  0  0  0  0  0  0  0  0  0  0  0
  145.0265  132.3787  151.9632 C   0  0  0  0  0  0  0  0  0  0  0  0
  145.9675  132.3598  153.0076 C   0  0  0  0  0  0  0  0  0  0  0  0
  146.6691  131.1691  153.2908 C   0  0  0  0  0  0  0  0  0  0  0  0
  147.6830  131.1575  154.4212 C   0  0  0  0  0  0  0  0  0  0  0  0
  146.8477  127.9135  152.1308 H   0  0  0  0  0  0  0  0  0  0  0  0
  146.9625  128.3744  153.8276 H   0  0  0  0  0  0  0  0  0  0  0  0
  148.2340  128.8470  152.6903 H   0  0  0  0  0  0  0  0  0  0  0  0
  145.2815  129.1489  150.8883 H   0  0  0  0  0  0  0  0  0  0  0  0
  142.7873  133.2797  149.8502 H   0  0  0  0  0  0  0  0  0  0  0  0
  143.5331  135.3011  151.1015 H   0  0  0  0  0  0  0  0  0  0  0  0
  143.4179  134.7541  152.7594 H   0  0  0  0  0  0  0  0  0  0  0  0
  145.7527  135.0444  153.1677 H   0  0  0  0  0  0  0  0  0  0  0  0
  147.1703  135.4631  151.3762 H   0  0  0  0  0  0  0  0  0  0  0  0
  145.0969  137.2492  151.1522 H   0  0  0  0  0  0  0  0  0  0  0  0
  144.4967  137.2799  152.7885 H   0  0  0  0  0  0  0  0  0  0  0  0
  146.0223  139.6065  152.3154 H   0  0  0  0  0  0  0  0  0  0  0  0
  146.7692  138.8213  150.9190 H   0  0  0  0  0  0  0  0  0  0  0  0
  147.7653  139.3173  152.2736 H   0  0  0  0  0  0  0  0  0  0  0  0
  146.0631  138.4090  154.5059 H   0  0  0  0  0  0  0  0  0  0  0  0
  146.3164  136.6930  154.5456 H   0  0  0  0  0  0  0  0  0  0  0  0
  148.5207  136.1987  156.0883 H   0  0  0  0  0  0  0  0  0  0  0  0
  151.3470  140.1177  154.1178 H   0  0  0  0  0  0  0  0  0  0  0  0
  152.2151  138.5712  154.2056 H   0  0  0  0  0  0  0  0  0  0  0  0
  151.8385  139.4679  155.6941 H   0  0  0  0  0  0  0  0  0  0  0  0
  148.9515  139.5309  153.4011 H   0  0  0  0  0  0  0  0  0  0  0  0
  146.1467  133.2535  153.5868 H   0  0  0  0  0  0  0  0  0  0  0  0
  147.7475  132.1309  154.9083 H   0  0  0  0  0  0  0  0  0  0  0  0
  148.6743  130.9065  154.0429 H   0  0  0  0  0  0  0  0  0  0  0  0
  147.4043  130.4233  155.1773 H   0  0  0  0  0  0  0  0  0  0  0  0
  147.3290  136.9828  152.2971 H   0  0  0  0  0  0  0  0  0  0  0  0
  1  2  1  0  0  0  0
  1 25  1  0  0  0  0
  1 26  1  0  0  0  0
  1 27  1  0  0  0  0
  2 23  1  0  0  0  0
  2  3  2  0  0  0  0
  3  4  1  0  0  0  0
  3 28  1  0  0  0  0
  4 21  2  0  0  0  0
  4  5  1  0  0  0  0
  5  6  2  0  0  0  0
  6  7  1  0  0  0  0
  6 29  1  0  0  0  0
  7  8  1  0  0  0  0
  7 21  1  0  0  0  0
  8  9  1  0  0  0  0
  8 30  1  0  0  0  0
  8 31  1  0  0  0  0
  9 10  1  0  0  0  0
  9 11  1  0  0  0  0
  9 32  1  0  0  0  0
 10 33  1  0  0  0  0
 11 12  1  0  0  0  0
 11 34  1  0  0  0  0
 11 35  1  0  0  0  0
 12 13  1  0  0  0  0
 12 14  1  0  0  0  0
 12 50  1  0  0  0  0
 13 36  1  0  0  0  0
 13 37  1  0  0  0  0
 13 38  1  0  0  0  0
 14 15  1  0  0  0  0
 14 39  1  0  0  0  0
 14 40  1  0  0  0  0
 15 20  2  0  0  0  0
 15 16  1  0  0  0  0
 16 17  2  0  0  0  0
 16 41  1  0  0  0  0
 17 18  1  0  0  0  0
 18 19  1  0  0  0  0
 18 20  1  0  0  0  0
 19 42  1  0  0  0  0
 19 43  1  0  0  0  0
 19 44  1  0  0  0  0
 20 45  1  0  0  0  0
 21 22  1  0  0  0  0
 22 23  2  0  0  0  0
 22 46  1  0  0  0  0
 23 24  1  0  0  0  0
 24 47  1  0  0  0  0
 24 48  1  0  0  0  0
 24 49  1  0  0  0  0
M  CHG  1  12   1
M  END
> <s_m_source_file>
AV-unprocessed.smi

> <i_m_source_file_index>
2027

> <i_lp_mmshare_version>
43012

> <i_f3d_flags>
0

> <s_epik_input>
W0NIM11jKFtjSF0xKWMoW0NIM10pW2NIXWMoYzEyKW4oW2NIXW4yKVtDSDJdW0NASF0oW09IXSlbQ0gyXU4oW0NIM10pW0NIMl1jM1tjSF1ubihbQ0gzXSlbY0hdMw==

> <s_epik_cmdline>
J2VwaWtfcHl0aG9uJywgJy1waCcsICc3LjAnLCAnLXRuJywgJzgnLCAnLW1hJywgJzIwMCcsICctbWV0YWxfYmluZGluZycsICctaW1hZScsICc8aW5maWxlLm1hZT4nLCAnLW9tYWUnLCAnPG91dGZpbGUubWFlPic=

> <r_lp_tautomer_probability>
1

> <r_epik_Ionization_Penalty>
0.646578

> <r_epik_Ionization_Penalty_Charging>
0.559419

> <r_epik_Ionization_Penalty_Neutral>
0.087159

> <r_epik_State_Penalty>
0.661677

> <r_epik_Charging_Adjusted_Penalty>
1.2211

> <i_epik_Tot_Q>
1

> <i_epik_Tot_abs_Q>
1

> <r_epik_Metal_State_Penalty>
0.649174

> <b_epik_Metal_Only>
0

> <s_lp_Force_Field>
OPLS_2005

> <r_lp_Energy>
9.42611

> <b_lp_Chiralities_Consistent>
1

> <s_lp_Variant>
AV-unprocessed.smi:2027-4

> <Gold.Version>
5.8.1

> <Gold.Id.Protein>
6NUR|6NUR_protein|mol2

> <Gold.PLP.Fitness>
55.8487

> <Gold.PLP.PLP>
-40.0917

> <Gold.PLP.part.hbond>
-3.0000

> <Gold.PLP.part.metal>
0.0000

> <Gold.PLP.part.buried>
-3.1343

> <Gold.PLP.part.nonpolar>
-33.8551

> <Gold.PLP.part.repulsive>
0.2668

> <Gold.PLP.ligand.clash>
0.0000

> <Gold.PLP.ligand.torsion>
0.9616

> <Gold.PLP.Chemscore.Hbond>
3.7644

> <Gold.PLP.Chemscore.CHOScore>
2.0000

> <Gold.PLP.Chemscore.Metal>
0.0000

> <Gold.Chemscore.Hbonds>
donor molecule, donor type, donor heavy atom, donor atom, acceptor molecule, acceptor atom, score
      L1  H    10    33       P1  7948  1.00
      L1  H    12    50       P1  7948  2.00
      P1  H 10785 10796       L1     5  0.70
      L1  C     6    29       P1 10186  1.00
      L1  C    20    45       P1  7957  1.00

> <Gold.PLP.Chemscore.Internal.Correction>
0.3870

> <Gold.Rescore>
     Score         DG    S(hbond)    S(metal)    S(lipo)     H(rot)  DE(clash)    DE(int)     intcor
     18.29     -19.17       2.63        0.00      96.64       2.50       0.27       0.61       ----

> <Gold.Chemscore.Fitness>
18.2902

> <Gold.Chemscore.DG>
-19.1715

> <Gold.Chemscore.ZeroCoef>
-5.4800

> <Gold.Chemscore.Hbond>
2.6338

> <Gold.Chemscore.Metal>
0.0000

> <Gold.Chemscore.Lipo>
96.6372

> <Gold.Chemscore.Internal_Hbond>
0.0000

> <Gold.Chemscore.DEClash>
0.2672

> <Gold.Chemscore.DEInternal>
0.6141

> <Gold.Chemscore.Rot>
2.5047

> <Gold.Chemscore.Internal.Correction>
   9.000000E+99

> <Gold.Chemscore.Hbonds>
donor molecule, donor type, donor heavy atom, donor atom, acceptor molecule, acceptor atom, score
      L1  H    10    33       P1  7948  0.93
      L1  H    12    50       P1  7948  1.00
      P1  H 10785 10796       L1     5  0.67

> <Gold.Chemscore.Hbond.Weighted>
-8.7970

> <Gold.Chemscore.Metal.Weighted>
-0.0000

> <Gold.Chemscore.Lipo.Weighted>
-11.3065

> <Gold.Chemscore.Internal_Hbond.Weighted>
0.0000

> <Gold.Chemscore.DEClash.Weighted>
0.2672

> <Gold.Chemscore.DEInternal.Weighted>
0.6141

> <Gold.Chemscore.Rot.Weighted>
6.4120

> <Gold.Chemscore.Internal.Correction.Weighted>
   9.000000E+99

> <Gold.Protein.RotatedTorsions>
[ 6907 6896 6895 6894 ] final  -52.77 input  -60.11 | X-H torsion
[ 7974 7965 7964 7962 ] final -152.87 input  175.53 | X-H torsion
[ 8008 7997 7996 7995 ] final -123.35 input   59.86 | X-H torsion
[ 10167 10162 10161 10158 ] final   10.07 input  -65.29 | X-H torsion
[ 10718 10713 10712 10709 ] final  103.56 input   66.30 | X-H torsion
[ 10763 10752 10751 10750 ] final   30.83 input  -60.55 | X-H torsion
[ 11005 11000 10999 10996 ] final   47.51 input  -57.11 | X-H torsion

> <Gold.Protein.ActiveResidues>
 VAL166  LYS551  ARG553  GLY616  TRP617  ASP618  TYR619  PRO620  LYS621  CYS622 
 ASP623  PHE694  ASN695  SER759  ASP760  ASP761  ALA762  ILE779  LEU786  VAL792 
 PHE793  MET794  SER795  GLU796  ALA797  LYS798  CYS799  TRP800  GLU811  SER814 

> <Gold.Protein.RotatedAtoms>
  150.8488  134.7805  159.6991 H   0  0  0  0  0  0  0  0  0  0  0  0  # atno 6907 bound_to 6896
  152.4558  134.5292  159.9815 H   0  0  0  0  0  0  0  0  0  0  0  0  # atno 6908 bound_to 6896
  151.5417  133.3394  159.2972 H   0  0  0  0  0  0  0  0  0  0  0  0  # atno 6909 bound_to 6896
  144.7771  140.4603  143.5866 H   0  0  0  0  0  0  0  0  0  0  0  0  # atno 7974 bound_to 7965
  155.1790  140.0410  157.2878 H   0  0  0  0  0  0  0  0  0  0  0  0  # atno 8008 bound_to 7997
  154.6216  140.2502  155.7514 H   0  0  0  0  0  0  0  0  0  0  0  0  # atno 8009 bound_to 7997
  156.2437  140.2893  156.0527 H   0  0  0  0  0  0  0  0  0  0  0  0  # atno 8010 bound_to 7997
  140.6217  143.8191  150.7183 H   0  0  0  0  0  0  0  0  0  0  0  0  # atno 10167 bound_to 10162
  157.6768  131.0782  150.5573 H   0  0  0  0  0  0  0  0  0  0  0  0  # atno 10718 bound_to 10713
  153.0349  135.6454  154.1105 H   0  0  0  0  0  0  0  0  0  0  0  0  # atno 10763 bound_to 10752
  154.0821  135.2872  155.3290 H   0  0  0  0  0  0  0  0  0  0  0  0  # atno 10764 bound_to 10752
  154.6523  135.5421  153.7980 H   0  0  0  0  0  0  0  0  0  0  0  0  # atno 10765 bound_to 10752
  140.1272  134.4752  155.8550 H   0  0  0  0  0  0  0  0  0  0  0  0  # atno 11005 bound_to 11000
  145.6156  139.1518  143.3051 LP  0  0  0  0  0  0  0  0  0  0  0  0  # atno 17320 bound_to 7965
  146.1957  140.6269  142.9125 LP  0  0  0  0  0  0  0  0  0  0  0  0  # atno 17321 bound_to 7965
  140.1782  143.4137  152.1952 LP  0  0  0  0  0  0  0  0  0  0  0  0  # atno 17342 bound_to 10162
  139.5444  144.7285  151.4630 LP  0  0  0  0  0  0  0  0  0  0  0  0  # atno 17343 bound_to 10162
  156.5877  130.4321  149.5950 LP  0  0  0  0  0  0  0  0  0  0  0  0  # atno 17370 bound_to 10713
  156.2609  130.6962  151.1730 LP  0  0  0  0  0  0  0  0  0  0  0  0  # atno 17371 bound_to 10713
  141.2163  133.6782  156.7001 LP  0  0  0  0  0  0  0  0  0  0  0  0  # atno 17394 bound_to 11000
  140.2888  134.8257  157.3998 LP  0  0  0  0  0  0  0  0  0  0  0  0  # atno 17395 bound_to 11000

$$$$
