#       Name:                AV-unprocessed.smi:1645
#       Creating user name   scv26
#       Creation time:       Fri Mar 27 07:31:55 2020


#       File generated by GOLD software.
#

@<TRIPOS>MOLECULE
AV-unprocessed.smi:1645
    59    62     1
SMALL
NO_CHARGES


@<TRIPOS>ATOM
      1 ****        -1.1210   2.0186  -0.9252 O.2            1 S1                 0.0000
      2 ****        -1.4929   1.4421   0.1017 C.2            1 S1                 0.0000
      3 ****        -0.6347   0.7085   0.8332 N.am           1 S1                 0.0000
      4 ****         0.7462   0.4256   0.6367 C.ar           1 S1                 0.0000
      5 ****         1.3586  -0.4443   1.5622 C.ar           1 S1                 0.0000
      6 ****         2.7231  -0.7715   1.4285 C.ar           1 S1                 0.0000
      7 ****         3.4782  -0.2243   0.3613 C.ar           1 S1                 0.0000
      8 ****         4.8496  -0.4901   0.1465 N.3            1 S1                 0.0000
      9 ****         5.2482  -0.7508  -1.2406 C.3            1 S1                 0.0000
     10 ****         6.7685  -0.6108  -1.4265 C.3            1 S1                 0.0000
     11 ****         7.5318  -1.4765  -0.4148 C.3            1 S1                 0.0000
     12 ****         7.0896  -1.1212   1.0110 C.3            1 S1                 0.0000
     13 ****         5.5655  -1.2542   1.1703 C.3            1 S1                 0.0000
     14 ****         2.8475   0.6103  -0.4995 N.pl3          1 S1                 1.0000
     15 ****         1.5439   0.9512  -0.4080 C.ar           1 S1                 0.0000
     16 ****        -2.7441   1.4331   0.6351 N.pl3          1 S1                -1.0000
     17 ****        -3.8993   2.1538   0.0846 C.3            1 S1                 0.0000
     18 ****        -4.8515   2.5372   1.2232 C.3            1 S1                 0.0000
     19 ****        -5.7634   1.3133   1.4340 C.3            1 S1                 0.0000
     20 ****        -5.6645   0.4740   0.2122 N.4            1 S1                 1.0000
     21 ****        -5.2327  -0.9222   0.5085 C.3            1 S1                 0.0000
     22 ****        -4.9114  -1.7157  -0.7631 C.3            1 S1                 0.0000
     23 ****        -3.7892  -1.0232  -1.5385 C.3            1 S1                 0.0000
     24 ****        -4.2304   0.3946  -1.9259 C.3            1 S1                 0.0000
     25 ****        -4.8131   1.2283  -0.7497 C.3            1 S1                 0.0000
     26 ****        -1.0447   0.2766   1.6484 H              1 S1                 0.0000
     27 ****         0.7849  -0.8662   2.3746 H              1 S1                 0.0000
     28 ****         3.1603  -1.4485   2.1463 H              1 S1                 0.0000
     29 ****         4.9326  -1.7601  -1.5077 H              1 S1                 0.0000
     30 ****         4.7535  -0.0739  -1.9367 H              1 S1                 0.0000
     31 ****         7.0465  -0.8902  -2.4431 H              1 S1                 0.0000
     32 ****         7.0566   0.4341  -1.3029 H              1 S1                 0.0000
     33 ****         7.3397  -2.5323  -0.6104 H              1 S1                 0.0000
     34 ****         8.6063  -1.3270  -0.5247 H              1 S1                 0.0000
     35 ****         7.5968  -1.7631   1.7316 H              1 S1                 0.0000
     36 ****         7.3922  -0.0986   1.2416 H              1 S1                 0.0000
     37 ****         5.2935  -0.9007   2.1652 H              1 S1                 0.0000
     38 ****         5.2713  -2.3024   1.1040 H              1 S1                 0.0000
     39 ****         1.2104   1.6294  -1.1772 H              1 S1                 0.0000
     40 ****        -3.6118   3.0381  -0.4856 H              1 S1                 0.0000
     41 ****        -4.3367   2.8408   2.1360 H              1 S1                 0.0000
     42 ****        -5.4606   3.3845   0.9058 H              1 S1                 0.0000
     43 ****        -5.4544   0.7598   2.3230 H              1 S1                 0.0000
     44 ****        -6.7975   1.6192   1.5957 H              1 S1                 0.0000
     45 ****        -4.3508  -0.9125   1.1510 H              1 S1                 0.0000
     46 ****        -6.0219  -1.4223   1.0708 H              1 S1                 0.0000
     47 ****        -4.6078  -2.7293  -0.4997 H              1 S1                 0.0000
     48 ****        -5.8017  -1.8067  -1.3864 H              1 S1                 0.0000
     49 ****        -2.8825  -0.9908  -0.9345 H              1 S1                 0.0000
     50 ****        -3.5428  -1.5938  -2.4342 H              1 S1                 0.0000
     51 ****        -3.4183   0.9212  -2.4307 H              1 S1                 0.0000
     52 ****        -5.0124   0.2921  -2.6796 H              1 S1                 0.0000
     53 ****        -5.5113   1.9168  -1.2296 H              1 S1                 0.0000
     54 ****        -6.5821   0.4083  -0.2035 H              1 S1                 0.0000
     55 ****         3.3904   1.0103  -1.2646 H              1 S1                 0.0000
     56 ****        -0.1696   1.9439  -1.2239 LP             1 S1                 0.0000
     57 ****        -1.7713   2.5602  -1.4580 LP             1 S1                 0.0000
     58 ****         5.2235   0.4219   0.3154 LP             1 S1                 0.0000
     59 ****        -2.8884   0.8948   1.4654 LP             1 S1                 0.0000
@<TRIPOS>BOND
    1    1    2 2     
    2    2    3 am    
    3    2   16 1     
    4    3    4 1     
    5    3   26 1     
    6    4   15 ar    
    7    4    5 ar    
    8    5    6 ar    
    9    5   27 1     
   10    6    7 ar    
   11    6   28 1     
   12    7    8 1     
   13    7   14 ar    
   14    8   13 1     
   15    8    9 1     
   16    9   10 1     
   17    9   29 1     
   18    9   30 1     
   19   10   11 1     
   20   10   31 1     
   21   10   32 1     
   22   11   12 1     
   23   11   33 1     
   24   11   34 1     
   25   12   13 1     
   26   12   35 1     
   27   12   36 1     
   28   13   37 1     
   29   13   38 1     
   30   14   15 ar    
   31   14   55 1     
   32   15   39 1     
   33   16   17 1     
   34   17   25 1     
   35   17   18 1     
   36   17   40 1     
   37   18   19 1     
   38   18   41 1     
   39   18   42 1     
   40   19   20 1     
   41   19   43 1     
   42   19   44 1     
   43   20   25 1     
   44   20   21 1     
   45   20   54 1     
   46   21   22 1     
   47   21   45 1     
   48   21   46 1     
   49   22   23 1     
   50   22   47 1     
   51   22   48 1     
   52   23   24 1     
   53   23   49 1     
   54   23   50 1     
   55   24   25 1     
   56   24   51 1     
   57   24   52 1     
   58   25   53 1     
   59    1   56 1     
   60    1   57 1     
   61    8   58 1     
   62   16   59 1     
@<TRIPOS>SUBSTRUCTURE
      1 S1             1
@<TRIPOS>SET
LONE_PAIRS      STATIC     ATOMS    <user>   **** ""
4 56 57 58 59
DONOR_HYDROGENS      STATIC     ATOMS    <user>   **** ""
3 26 55 54
ATOM$BLUE        STATIC     ATOMS    COLORGROUP SYSTEM
4 56 57 58 59
ATOM$RED        STATIC     ATOMS    COLORGROUP SYSTEM
3 26 55 54
