#       Name:                AV-unprocessed.smi:1497
#       Creating user name   scv26
#       Creation time:       Fri Mar 27 06:17:36 2020


#       File generated by GOLD software.
#

@<TRIPOS>MOLECULE
AV-unprocessed.smi:1497
    38    39     1
SMALL
NO_CHARGES


@<TRIPOS>ATOM
      1 ****        -5.0016   0.9060   0.8729 N.am           1 S1                 0.0000
      2 ****        -4.9431   1.5731  -0.2832 C.2            1 S1                 0.0000
      3 ****        -5.3709   2.7190  -0.4020 O.2            1 S1                 0.0000
      4 ****        -4.3225   0.8485  -1.4797 C.3            1 S1                 0.0000
      5 ****        -2.8726   0.8364  -1.3981 N.pl3          1 S1                 0.0000
      6 ****        -2.0589  -0.1078  -0.8028 C.2            1 S1                 0.0000
      7 ****        -0.7823   0.3296  -0.9881 C.2            1 S1                 0.0000
      8 ****         0.3761  -0.3462  -0.5293 N.am           1 S1                 0.0000
      9 ****         1.6608   0.0326  -0.6683 C.2            1 S1                 0.0000
     10 ****         2.0001   1.0512  -1.2716 O.2            1 S1                 0.0000
     11 ****         2.5580  -0.8196  -0.1081 N.am           1 S1                 0.0000
     12 ****         2.2424  -1.9397   0.7951 C.3            1 S1                 0.0000
     13 ****         2.4201  -1.4775   2.2509 C.3            1 S1                 0.0000
     14 ****         4.1485  -1.0096   2.5787 S.3            1 S1                 0.0000
     15 ****         4.4392   0.1011   1.1659 C.3            1 S1                 0.0000
     16 ****         4.0019  -0.5569  -0.1540 C.3            1 S1                 0.0000
     17 ****        -0.8912   1.5526  -1.7085 C.2            1 S1                 0.0000
     18 ****        -2.1591   1.8488  -1.9519 N.2            1 S1                 0.0000
     19 ****        -5.4011   1.3518   1.6862 H              1 S1                 0.0000
     20 ****        -4.6453  -0.0366   0.9327 H              1 S1                 0.0000
     21 ****        -4.6833  -0.1802  -1.5210 H              1 S1                 0.0000
     22 ****        -4.6272   1.3314  -2.4098 H              1 S1                 0.0000
     23 ****        -2.4519  -0.9853  -0.3105 H              1 S1                 0.0000
     24 ****         0.2138  -1.2082  -0.0297 H              1 S1                 0.0000
     25 ****         1.2384  -2.3393   0.6511 H              1 S1                 0.0000
     26 ****         2.9072  -2.7799   0.5894 H              1 S1                 0.0000
     27 ****         1.7726  -0.6258   2.4628 H              1 S1                 0.0000
     28 ****         2.1375  -2.2736   2.9398 H              1 S1                 0.0000
     29 ****         3.8938   1.0318   1.3262 H              1 S1                 0.0000
     30 ****         5.4990   0.3539   1.1322 H              1 S1                 0.0000
     31 ****         4.5497  -1.4870  -0.3109 H              1 S1                 0.0000
     32 ****         4.2743   0.0814  -0.9958 H              1 S1                 0.0000
     33 ****        -0.1222   2.2246  -2.0592 H              1 S1                 0.0000
     34 ****        -5.7802   3.1838   0.3831 LP             1 S1                 0.0000
     35 ****        -5.3097   3.1866  -1.2838 LP             1 S1                 0.0000
     36 ****         1.3071   1.6409  -1.6864 LP             1 S1                 0.0000
     37 ****         2.9686   1.2886  -1.3467 LP             1 S1                 0.0000
     38 ****        -2.5140   2.6468  -2.4390 LP             1 S1                 0.0000
@<TRIPOS>BOND
    1    1    2 am    
    2    1   19 1     
    3    1   20 1     
    4    2    3 2     
    5    2    4 1     
    6    4    5 1     
    7    4   21 1     
    8    4   22 1     
    9    5   18 1     
   10    5    6 1     
   11    6    7 2     
   12    6   23 1     
   13    7    8 1     
   14    7   17 1     
   15    8    9 am    
   16    8   24 1     
   17    9   10 2     
   18    9   11 am    
   19   11   16 1     
   20   11   12 1     
   21   12   13 1     
   22   12   25 1     
   23   12   26 1     
   24   13   14 1     
   25   13   27 1     
   26   13   28 1     
   27   14   15 1     
   28   15   16 1     
   29   15   29 1     
   30   15   30 1     
   31   16   31 1     
   32   16   32 1     
   33   17   18 2     
   34   17   33 1     
   35    3   34 1     
   36    3   35 1     
   37   10   36 1     
   38   10   37 1     
   39   18   38 1     
@<TRIPOS>SUBSTRUCTURE
      1 S1             1
@<TRIPOS>SET
LONE_PAIRS      STATIC     ATOMS    <user>   **** ""
5 34 35 36 37 38
DONOR_HYDROGENS      STATIC     ATOMS    <user>   **** ""
3 19 20 24
ATOM$BLUE        STATIC     ATOMS    COLORGROUP SYSTEM
5 34 35 36 37 38
ATOM$RED        STATIC     ATOMS    COLORGROUP SYSTEM
3 19 20 24
