AV-unprocessed.smi:1|AV-procd|sdf|19|dock1
  -GOLD-   2262015123D 1   1.00000     0.00000
 Structure written by MMmdl.
 56 61  0  0  0  0  0  0  0  0  2 V2000
  148.8948  132.3054  154.5906 O   0  0  0  0  0  0  0  0  0  0  0  0
  147.8475  131.6595  154.5130 C   0  0  0  0  0  0  0  0  0  0  0  0
  146.6762  131.8899  155.1586 N   0  5  0  0  0  0  0  0  0  0  0  0
  146.5369  132.9855  155.9204 C   0  0  0  0  0  0  0  0  0  0  0  0
  145.8071  132.9366  157.0646 N   0  0  0  0  0  0  0  0  0  0  0  0
  145.6703  134.0275  157.8280 C   0  0  0  0  0  0  0  0  0  0  0  0
  146.1735  135.2521  157.6424 N   0  0  0  0  0  0  0  0  0  0  0  0
  146.9169  135.3084  156.4995 C   0  0  0  0  0  0  0  0  0  0  0  0
  147.1463  134.2292  155.5986 C   0  0  0  0  0  0  0  0  0  0  0  0
  147.9525  134.6342  154.5443 N   0  0  0  0  0  0  0  0  0  0  0  0
  148.1698  135.9133  154.8463 C   0  0  0  0  0  0  0  0  0  0  0  0
  147.6020  136.3877  155.9743 N   0  0  0  0  0  0  0  0  0  0  0  0
  147.6718  137.7569  156.5642 C   0  0  2  0  0  0  0  0  0  0  0  0
  148.4128  138.5737  155.7138 O   0  0  0  0  0  0  0  0  0  0  0  0
  148.9736  139.6135  156.4993 C   0  0  2  0  0  0  0  0  0  0  0  0
  150.0783  140.3575  155.7374 C   0  0  0  0  0  0  0  0  0  0  0  0
  150.6801  141.2996  156.6110 O   0  0  0  0  0  0  0  0  0  0  0  0
  151.7994  140.9821  157.2893 C   0  0  0  0  0  0  0  0  0  0  0  0
  152.4828  139.9840  157.0524 O   0  0  0  0  0  0  0  0  0  0  0  0
  152.1184  141.9621  158.3674 C   0  0  0  0  0  0  0  0  0  0  0  0
  151.4539  143.2105  158.3882 C   0  0  0  0  0  0  0  0  0  0  0  0
  151.7417  144.1596  159.3884 C   0  0  0  0  0  0  0  0  0  0  0  0
  152.6954  143.8708  160.3817 C   0  0  0  0  0  0  0  0  0  0  0  0
  153.3608  142.6312  160.3740 C   0  0  0  0  0  0  0  0  0  0  0  0
  153.0759  141.6814  159.3735 C   0  0  0  0  0  0  0  0  0  0  0  0
  149.4302  138.8798  157.7636 C   0  0  2  0  0  0  0  0  0  0  0  0
  150.7037  138.2909  157.5577 O   0  0  0  0  0  0  0  0  0  0  0  0
  150.6504  136.6859  158.0122 S   0  0  0  0  0  0  0  0  0  0  0  0
  151.0281  135.8673  156.8503 O   0  0  0  0  0  0  0  0  0  0  0  0
  151.3140  136.5579  159.3187 O   0  0  0  0  0  0  0  0  0  0  0  0
  149.0043  136.5401  158.2491 O   0  0  0  0  0  0  0  0  0  0  0  0
  148.3756  137.7736  157.9361 C   0  0  2  0  0  0  0  0  0  0  0  0
  147.7778  130.5034  153.5518 C   0  0  0  0  0  0  0  0  0  0  0  0
  148.9003  129.6596  153.3877 C   0  0  0  0  0  0  0  0  0  0  0  0
  148.8472  128.5595  152.5095 C   0  0  0  0  0  0  0  0  0  0  0  0
  147.6671  128.2851  151.7935 C   0  0  0  0  0  0  0  0  0  0  0  0
  146.5383  129.1092  151.9597 C   0  0  0  0  0  0  0  0  0  0  0  0
  146.5906  130.2098  152.8373 C   0  0  0  0  0  0  0  0  0  0  0  0
  145.0712  133.8998  158.7172 H   0  0  0  0  0  0  0  0  0  0  0  0
  148.7829  136.5376  154.2131 H   0  0  0  0  0  0  0  0  0  0  0  0
  146.6369  138.0994  156.6111 H   0  0  0  0  0  0  0  0  0  0  0  0
  148.1719  140.3097  156.7534 H   0  0  0  0  0  0  0  0  0  0  0  0
  150.8156  139.6479  155.3589 H   0  0  0  0  0  0  0  0  0  0  0  0
  149.6596  140.8808  154.8773 H   0  0  0  0  0  0  0  0  0  0  0  0
  150.7197  143.4561  157.6342 H   0  0  0  0  0  0  0  0  0  0  0  0
  151.2304  145.1110  159.3921 H   0  0  0  0  0  0  0  0  0  0  0  0
  152.9167  144.5989  161.1479 H   0  0  0  0  0  0  0  0  0  0  0  0
  154.0926  142.4079  161.1363 H   0  0  0  0  0  0  0  0  0  0  0  0
  153.6055  140.7403  159.3967 H   0  0  0  0  0  0  0  0  0  0  0  0
  149.4826  139.5416  158.6284 H   0  0  0  0  0  0  0  0  0  0  0  0
  147.6434  138.0290  158.7026 H   0  0  0  0  0  0  0  0  0  0  0  0
  149.8135  129.8560  153.9309 H   0  0  0  0  0  0  0  0  0  0  0  0
  149.7128  127.9255  152.3869 H   0  0  0  0  0  0  0  0  0  0  0  0
  147.6261  127.4415  151.1208 H   0  0  0  0  0  0  0  0  0  0  0  0
  145.6300  128.8969  151.4154 H   0  0  0  0  0  0  0  0  0  0  0  0
  145.7101  130.8245  152.9580 H   0  0  0  0  0  0  0  0  0  0  0  0
  1  2  2  0  0  0  0
  2  3  1  0  0  0  0
  2 33  1  0  0  0  0
  3  4  1  0  0  0  0
  4  9  1  0  0  0  0
  4  5  2  0  0  0  0
  5  6  1  0  0  0  0
  6  7  2  0  0  0  0
  6 39  1  0  0  0  0
  7  8  1  0  0  0  0
  8 12  1  0  0  0  0
  8  9  2  0  0  0  0
  9 10  1  0  0  0  0
 10 11  2  0  0  0  0
 11 12  1  0  0  0  0
 11 40  1  0  0  0  0
 12 13  1  0  0  0  0
 13 32  1  0  0  0  0
 13 14  1  0  0  0  0
 13 41  1  0  0  0  0
 14 15  1  0  0  0  0
 15 16  1  0  0  0  0
 15 26  1  0  0  0  0
 15 42  1  0  0  0  0
 16 17  1  0  0  0  0
 16 43  1  0  0  0  0
 16 44  1  0  0  0  0
 17 18  1  0  0  0  0
 18 19  2  0  0  0  0
 18 20  1  0  0  0  0
 20 25  1  0  0  0  0
 20 21  2  0  0  0  0
 21 22  1  0  0  0  0
 21 45  1  0  0  0  0
 22 23  2  0  0  0  0
 22 46  1  0  0  0  0
 23 24  1  0  0  0  0
 23 47  1  0  0  0  0
 24 25  2  0  0  0  0
 24 48  1  0  0  0  0
 25 49  1  0  0  0  0
 26 32  1  0  0  0  0
 26 27  1  0  0  0  0
 26 50  1  0  0  0  0
 27 28  1  0  0  0  0
 28 29  2  0  0  0  0
 28 30  2  0  0  0  0
 28 31  1  0  0  0  0
 31 32  1  0  0  0  0
 32 51  1  0  0  0  0
 33 38  1  0  0  0  0
 33 34  2  0  0  0  0
 34 35  1  0  0  0  0
 34 52  1  0  0  0  0
 35 36  2  0  0  0  0
 35 53  1  0  0  0  0
 36 37  1  0  0  0  0
 36 54  1  0  0  0  0
 37 38  2  0  0  0  0
 37 55  1  0  0  0  0
 38 56  1  0  0  0  0
M  CHG  1   3  -1
M  END
> <s_m_source_file>
AV-unprocessed.smi

> <i_m_source_file_index>
1

> <i_lp_mmshare_version>
43012

> <i_f3d_flags>
0

> <s_epik_input>
W2NIXTFbY0hdW2NIXVtjSF1bY0hdYzFDKD1PKVtOSF1jKG5bY0hdbjIpYyhjMjMpbltjSF1uM1tDQEBIXShbQ0BIXShbQ0BIXTQ1KU9TKE81KSg9Tyk9TylPW0NASF00W0NIMl1PQyg9TyljNltjSF1bY0hdW2NIXVtjSF1bY0hdNg==

> <s_epik_cmdline>
J2VwaWtfcHl0aG9uJywgJy1waCcsICc3LjAnLCAnLXRuJywgJzgnLCAnLW1hJywgJzIwMCcsICctbWV0YWxfYmluZGluZycsICctaW1hZScsICc8aW5maWxlLm1hZT4nLCAnLW9tYWUnLCAnPG91dGZpbGUubWFlPic=

> <r_lp_tautomer_probability>
1

> <r_epik_Ionization_Penalty>
4.39121

> <r_epik_Ionization_Penalty_Charging>
3.39398

> <r_epik_Ionization_Penalty_Neutral>
0.997232

> <r_epik_State_Penalty>
3.39839

> <r_epik_Charging_Adjusted_Penalty>
6.79237

> <i_epik_Tot_Q>
-1

> <i_epik_Tot_abs_Q>
1

> <r_epik_Metal_State_Penalty>
0.497663

> <b_epik_Metal_Only>
1

> <s_epik_Chemistry_Notes>
This compound has an ester and may undergo hydrolysis at high or low pH. This compound contains an acetal/aminal-like group ( X-CH(R)-Y where X, Y are N, S, or O) that may be acid/base labile, releasing an aldehyde.

> <s_lp_Force_Field>
OPLS_2005

> <r_lp_Energy>
44.2661

> <b_lp_Chiralities_Consistent>
1

> <s_lp_Variant>
AV-unprocessed.smi:1-19

> <Gold.Version>
5.8.1

> <Gold.Id.Protein>
6NUR|6NUR_protein|mol2

> <Gold.PLP.Fitness>
50.3381

> <Gold.PLP.PLP>
-43.0647

> <Gold.PLP.part.hbond>
-2.0000

> <Gold.PLP.part.metal>
0.0000

> <Gold.PLP.part.buried>
-6.4646

> <Gold.PLP.part.nonpolar>
-34.9576

> <Gold.PLP.part.repulsive>
0.6605

> <Gold.PLP.ligand.clash>
0.0000

> <Gold.PLP.ligand.torsion>
1.2633

> <Gold.PLP.Chemscore.Hbond>
2.0000

> <Gold.PLP.Chemscore.CHOScore>
0.7774

> <Gold.PLP.Chemscore.Metal>
0.0000

> <Gold.Chemscore.Hbonds>
donor molecule, donor type, donor heavy atom, donor atom, acceptor molecule, acceptor atom, score
      P1  H  6896  6909       L1    30  0.98
      P1  H  7997  8008       L1    19  1.00
      L1  C    11    40       P1  7948  0.87

> <Gold.PLP.Chemscore.Internal.Correction>
1.4680

> <Gold.Rescore>
     Score         DG    S(hbond)    S(metal)    S(lipo)     H(rot)  DE(clash)    DE(int)     intcor
     11.38     -20.20       1.90        0.00     117.74       2.11       0.00       8.82       ----

> <Gold.Chemscore.Fitness>
11.3837

> <Gold.Chemscore.DG>
-20.2043

> <Gold.Chemscore.ZeroCoef>
-5.4800

> <Gold.Chemscore.Hbond>
1.9041

> <Gold.Chemscore.Metal>
0.0000

> <Gold.Chemscore.Lipo>
117.7395

> <Gold.Chemscore.Internal_Hbond>
0.0000

> <Gold.Chemscore.DEClash>
0.0013

> <Gold.Chemscore.DEInternal>
8.8193

> <Gold.Chemscore.Rot>
2.1136

> <Gold.Chemscore.Internal.Correction>
   9.000000E+99

> <Gold.Chemscore.Hbonds>
donor molecule, donor type, donor heavy atom, donor atom, acceptor molecule, acceptor atom, score
      P1  H  6896  6909       L1    30  0.67
      P1  H  7997  8008       L1    19  0.97

> <Gold.Chemscore.Hbond.Weighted>
-6.3596

> <Gold.Chemscore.Metal.Weighted>
-0.0000

> <Gold.Chemscore.Lipo.Weighted>
-13.7755

> <Gold.Chemscore.Internal_Hbond.Weighted>
0.0000

> <Gold.Chemscore.DEClash.Weighted>
0.0013

> <Gold.Chemscore.DEInternal.Weighted>
8.8193

> <Gold.Chemscore.Rot.Weighted>
5.4107

> <Gold.Chemscore.Internal.Correction.Weighted>
   9.000000E+99

> <Gold.Protein.RotatedTorsions>
[ 6907 6896 6895 6894 ] final   93.70 input  -60.11 | X-H torsion
[ 7974 7965 7964 7962 ] final   42.84 input  175.53 | X-H torsion
[ 8008 7997 7996 7995 ] final  -52.47 input   59.86 | X-H torsion
[ 10167 10162 10161 10158 ] final   72.20 input  -65.29 | X-H torsion
[ 10718 10713 10712 10709 ] final  -35.06 input   66.30 | X-H torsion
[ 10763 10752 10751 10750 ] final  -31.98 input  -60.55 | X-H torsion
[ 11005 11000 10999 10996 ] final -139.77 input  -57.11 | X-H torsion

> <Gold.Protein.ActiveResidues>
 VAL166  LYS551  ARG553  GLY616  TRP617  ASP618  TYR619  PRO620  LYS621  CYS622 
 ASP623  PHE694  ASN695  SER759  ASP760  ASP761  ALA762  ILE779  LEU786  VAL792 
 PHE793  MET794  SER795  GLU796  ALA797  LYS798  CYS799  TRP800  GLU811  SER814 

> <Gold.Protein.RotatedAtoms>
  152.5452  134.1307  159.8437 H   0  0  0  0  0  0  0  0  0  0  0  0  # atno 6907 bound_to 6896
  151.1353  133.5001  159.2605 H   0  0  0  0  0  0  0  0  0  0  0  0  # atno 6908 bound_to 6896
  151.1631  135.0293  159.8774 H   0  0  0  0  0  0  0  0  0  0  0  0  # atno 6909 bound_to 6896
  146.0706  139.5254  142.9600 H   0  0  0  0  0  0  0  0  0  0  0  0  # atno 7974 bound_to 7965
  154.4107  140.1223  156.4996 H   0  0  0  0  0  0  0  0  0  0  0  0  # atno 8008 bound_to 7997
  155.6908  140.3495  155.4873 H   0  0  0  0  0  0  0  0  0  0  0  0  # atno 8009 bound_to 7997
  155.9470  140.1098  157.0998 H   0  0  0  0  0  0  0  0  0  0  0  0  # atno 8010 bound_to 7997
  140.0378  144.5414  150.7457 H   0  0  0  0  0  0  0  0  0  0  0  0  # atno 10167 bound_to 10162
  156.3431  130.4296  149.7769 H   0  0  0  0  0  0  0  0  0  0  0  0  # atno 10718 bound_to 10713
  153.8062  135.6886  153.4848 H   0  0  0  0  0  0  0  0  0  0  0  0  # atno 10763 bound_to 10752
  153.1657  135.4562  154.9832 H   0  0  0  0  0  0  0  0  0  0  0  0  # atno 10764 bound_to 10752
  154.7986  135.3329  154.7547 H   0  0  0  0  0  0  0  0  0  0  0  0  # atno 10765 bound_to 10752
  140.8488  134.2312  157.4772 H   0  0  0  0  0  0  0  0  0  0  0  0  # atno 11005 bound_to 11000
  145.6398  141.0287  143.1818 LP  0  0  0  0  0  0  0  0  0  0  0  0  # atno 17320 bound_to 7965
  144.7229  139.7969  143.7375 LP  0  0  0  0  0  0  0  0  0  0  0  0  # atno 17321 bound_to 7965
  140.7273  143.2650  151.4074 LP  0  0  0  0  0  0  0  0  0  0  0  0  # atno 17342 bound_to 10162
  139.6033  144.1249  152.2222 LP  0  0  0  0  0  0  0  0  0  0  0  0  # atno 17343 bound_to 10162
  156.4998  130.8123  151.3128 LP  0  0  0  0  0  0  0  0  0  0  0  0  # atno 17370 bound_to 10713
  157.7450  130.9948  150.2722 LP  0  0  0  0  0  0  0  0  0  0  0  0  # atno 17371 bound_to 10713
  139.8704  134.9672  156.4590 LP  0  0  0  0  0  0  0  0  0  0  0  0  # atno 17394 bound_to 11000
  140.8814  133.7915  155.9470 LP  0  0  0  0  0  0  0  0  0  0  0  0  # atno 17395 bound_to 11000

$$$$
