AV-unprocessed.smi:2796|AV-procd|sdf|10782|dock1
  -GOLD-   2272015213D 1   1.00000     0.00000
 Structure written by MMmdl.
 27 28  0  0  0  0  0  0  0  0  1 V2000
  153.9311  142.5167  163.0006 N   0  0  0  0  0  0  0  0  0  0  0  0
  153.4617  142.5956  161.9457 C   0  0  0  0  0  0  0  0  0  0  0  0
  152.8716  142.6937  160.6216 C   0  0  0  0  0  0  0  0  0  0  0  0
  152.7323  143.9593  160.0145 C   0  0  0  0  0  0  0  0  0  0  0  0
  152.1560  144.0349  158.7318 C   0  0  0  0  0  0  0  0  0  0  0  0
  151.7374  142.8427  158.0967 C   0  0  0  0  0  0  0  0  0  0  0  0
  151.1496  142.8111  156.8242 N   0  0  0  0  0  0  0  0  0  0  0  0
  151.0271  141.5580  156.0938 C   0  0  0  0  0  0  0  0  0  0  0  0
  149.6853  141.4012  155.4063 C   0  0  0  0  0  0  0  0  0  0  0  0
  149.5335  141.1143  154.0969 C   0  0  0  0  0  0  0  0  0  0  0  0
  148.3148  140.8993  153.5049 O   0  0  0  0  0  0  0  0  0  0  0  0
  147.2437  140.7059  154.4223 C   0  0  0  0  0  0  0  0  0  0  0  0
  147.3484  141.6992  155.5908 C   0  0  0  0  0  0  0  0  0  0  0  0
  148.6097  141.5852  156.2435 O   0  0  0  0  0  0  0  0  0  0  0  0
  151.9247  141.6299  158.7927 C   0  0  0  0  0  0  0  0  0  0  0  0
  152.4762  141.5495  160.0225 N   0  0  0  0  0  0  0  0  0  0  0  0
  153.0582  144.8583  160.5180 H   0  0  0  0  0  0  0  0  0  0  0  0
  152.0447  144.9997  158.2602 H   0  0  0  0  0  0  0  0  0  0  0  0
  150.5826  143.5927  156.5273 H   0  0  0  0  0  0  0  0  0  0  0  0
  151.8023  141.5037  155.3289 H   0  0  0  0  0  0  0  0  0  0  0  0
  151.1806  140.7233  156.7789 H   0  0  0  0  0  0  0  0  0  0  0  0
  150.3515  140.9724  153.4063 H   0  0  0  0  0  0  0  0  0  0  0  0
  146.2961  140.8321  153.8980 H   0  0  0  0  0  0  0  0  0  0  0  0
  147.2711  139.6801  154.7925 H   0  0  0  0  0  0  0  0  0  0  0  0
  147.2276  142.7214  155.2299 H   0  0  0  0  0  0  0  0  0  0  0  0
  146.5544  141.5201  156.3158 H   0  0  0  0  0  0  0  0  0  0  0  0
  151.6223  140.6918  158.3506 H   0  0  0  0  0  0  0  0  0  0  0  0
  1  2  3  0  0  0  0
  2  3  1  0  0  0  0
  3 16  1  0  0  0  0
  3  4  2  0  0  0  0
  4  5  1  0  0  0  0
  4 17  1  0  0  0  0
  5  6  2  0  0  0  0
  5 18  1  0  0  0  0
  6  7  1  0  0  0  0
  6 15  1  0  0  0  0
  7  8  1  0  0  0  0
  7 19  1  0  0  0  0
  8  9  1  0  0  0  0
  8 20  1  0  0  0  0
  8 21  1  0  0  0  0
  9 14  1  0  0  0  0
  9 10  2  0  0  0  0
 10 11  1  0  0  0  0
 10 22  1  0  0  0  0
 11 12  1  0  0  0  0
 12 13  1  0  0  0  0
 12 23  1  0  0  0  0
 12 24  1  0  0  0  0
 13 14  1  0  0  0  0
 13 25  1  0  0  0  0
 13 26  1  0  0  0  0
 15 16  2  0  0  0  0
 15 27  1  0  0  0  0
M  END
> <s_m_source_file>
AV-unprocessed.smi

> <i_m_source_file_index>
2796

> <i_lp_mmshare_version>
43012

> <i_f3d_flags>
0

> <s_epik_input>
TiNDYzFbY0hdW2NIXWMoW2NIXW4xKVtOSF1bQ0gyXUMyPVtDSF1PW0NIMl1bQ0gyXU8y

> <s_epik_cmdline>
J2VwaWtfcHl0aG9uJywgJy1waCcsICc3LjAnLCAnLXRuJywgJzgnLCAnLW1hJywgJzIwMCcsICctbWV0YWxfYmluZGluZycsICctaW1hZScsICc8aW5maWxlLm1hZT4nLCAnLW9tYWUnLCAnPG91dGZpbGUubWFlPic=

> <r_lp_tautomer_probability>
1

> <r_epik_Ionization_Penalty>
1.57619e-06

> <r_epik_Ionization_Penalty_Charging>
0

> <r_epik_Ionization_Penalty_Neutral>
1.57619e-06

> <r_epik_State_Penalty>
-0

> <r_epik_Charging_Adjusted_Penalty>
0

> <i_epik_Tot_Q>
0

> <i_epik_Tot_abs_Q>
0

> <r_epik_Metal_State_Penalty>
-0

> <b_epik_Metal_Only>
0

> <s_lp_Force_Field>
OPLS_2005

> <r_lp_Energy>
3.17898

> <b_lp_Chiralities_Consistent>
1

> <s_lp_Variant>
AV-unprocessed.smi:2796-1

> <Gold.Version>
5.8.1

> <Gold.Id.Protein>
6NUR|6NUR_protein|mol2

> <Gold.PLP.Fitness>
40.0770

> <Gold.PLP.PLP>
-34.5087

> <Gold.PLP.part.hbond>
-2.0000

> <Gold.PLP.part.metal>
0.0000

> <Gold.PLP.part.buried>
-4.0970

> <Gold.PLP.part.nonpolar>
-28.8067

> <Gold.PLP.part.repulsive>
0.3989

> <Gold.PLP.ligand.clash>
0.0000

> <Gold.PLP.ligand.torsion>
0.2192

> <Gold.PLP.Chemscore.Hbond>
1.0000

> <Gold.PLP.Chemscore.CHOScore>
1.0000

> <Gold.PLP.Chemscore.Metal>
0.0000

> <Gold.Chemscore.Hbonds>
donor molecule, donor type, donor heavy atom, donor atom, acceptor molecule, acceptor atom, score
      L1  H     7    19       P1  8028  0.57
      L1  C    10    22       P1  7957  0.68

> <Gold.PLP.Chemscore.Internal.Correction>
0.0066

> <Gold.Rescore>
     Score         DG    S(hbond)    S(metal)    S(lipo)     H(rot)  DE(clash)    DE(int)     intcor
     15.11     -15.38       1.00        0.00      83.52       1.26       0.15       0.11       ----

> <Gold.Chemscore.Fitness>
15.1150

> <Gold.Chemscore.DG>
-15.3753

> <Gold.Chemscore.ZeroCoef>
-5.4800

> <Gold.Chemscore.Hbond>
0.9993

> <Gold.Chemscore.Metal>
0.0000

> <Gold.Chemscore.Lipo>
83.5175

> <Gold.Chemscore.Internal_Hbond>
0.0000

> <Gold.Chemscore.DEClash>
0.1524

> <Gold.Chemscore.DEInternal>
0.1079

> <Gold.Chemscore.Rot>
1.2554

> <Gold.Chemscore.Internal.Correction>
   9.000000E+99

> <Gold.Chemscore.Hbonds>
donor molecule, donor type, donor heavy atom, donor atom, acceptor molecule, acceptor atom, score
      L1  H     7    19       P1  8028  0.56

> <Gold.Chemscore.Hbond.Weighted>
-3.3377

> <Gold.Chemscore.Metal.Weighted>
-0.0000

> <Gold.Chemscore.Lipo.Weighted>
-9.7716

> <Gold.Chemscore.Internal_Hbond.Weighted>
0.0000

> <Gold.Chemscore.DEClash.Weighted>
0.1524

> <Gold.Chemscore.DEInternal.Weighted>
0.1079

> <Gold.Chemscore.Rot.Weighted>
3.2139

> <Gold.Chemscore.Internal.Correction.Weighted>
   9.000000E+99

> <Gold.Protein.RotatedTorsions>
[ 6907 6896 6895 6894 ] final  166.67 input  -60.11 | X-H torsion
[ 7974 7965 7964 7962 ] final  143.76 input  175.53 | X-H torsion
[ 8008 7997 7996 7995 ] final -159.93 input   59.86 | X-H torsion
[ 10167 10162 10161 10158 ] final  164.11 input  -65.29 | X-H torsion
[ 10718 10713 10712 10709 ] final   57.25 input   66.30 | X-H torsion
[ 10763 10752 10751 10750 ] final  -37.24 input  -60.55 | X-H torsion
[ 11005 11000 10999 10996 ] final  -68.90 input  -57.11 | X-H torsion

> <Gold.Protein.ActiveResidues>
 VAL166  LYS551  ARG553  GLY616  TRP617  ASP618  TYR619  PRO620  LYS621  CYS622 
 ASP623  PHE694  ASN695  SER759  ASP760  ASP761  ALA762  ILE779  LEU786  VAL792 
 PHE793  MET794  SER795  GLU796  ALA797  LYS798  CYS799  TRP800  GLU811  SER814 

> <Gold.Protein.RotatedAtoms>
  151.8753  133.3484  159.3748 H   0  0  0  0  0  0  0  0  0  0  0  0  # atno 6907 bound_to 6896
  150.7142  134.5072  159.5599 H   0  0  0  0  0  0  0  0  0  0  0  0  # atno 6908 bound_to 6896
  152.2613  134.8031  160.0481 H   0  0  0  0  0  0  0  0  0  0  0  0  # atno 6909 bound_to 6896
  144.8893  139.5581  143.5806 H   0  0  0  0  0  0  0  0  0  0  0  0  # atno 7974 bound_to 7965
  155.7700  140.0850  157.2113 H   0  0  0  0  0  0  0  0  0  0  0  0  # atno 8008 bound_to 7997
  154.3997  140.1527  156.2987 H   0  0  0  0  0  0  0  0  0  0  0  0  # atno 8009 bound_to 7997
  155.8757  140.3423  155.5855 H   0  0  0  0  0  0  0  0  0  0  0  0  # atno 8010 bound_to 7997
  139.4884  144.4269  151.9119 H   0  0  0  0  0  0  0  0  0  0  0  0  # atno 10167 bound_to 10162
  157.5499  130.8758  149.8948 H   0  0  0  0  0  0  0  0  0  0  0  0  # atno 10718 bound_to 10713
  153.8930  135.6810  153.4759 H   0  0  0  0  0  0  0  0  0  0  0  0  # atno 10763 bound_to 10752
  153.1170  135.4757  154.9130 H   0  0  0  0  0  0  0  0  0  0  0  0  # atno 10764 bound_to 10752
  154.7613  135.3211  154.8326 H   0  0  0  0  0  0  0  0  0  0  0  0  # atno 10765 bound_to 10752
  141.1542  133.6751  156.6517 H   0  0  0  0  0  0  0  0  0  0  0  0  # atno 11005 bound_to 11000
  146.3044  139.7531  142.9067 LP  0  0  0  0  0  0  0  0  0  0  0  0  # atno 17320 bound_to 7965
  145.3811  141.0358  143.3177 LP  0  0  0  0  0  0  0  0  0  0  0  0  # atno 17321 bound_to 7965
  140.3715  144.2850  150.5919 LP  0  0  0  0  0  0  0  0  0  0  0  0  # atno 17342 bound_to 10162
  140.5315  143.2242  151.8231 LP  0  0  0  0  0  0  0  0  0  0  0  0  # atno 17343 bound_to 10162
  156.0568  130.3707  150.1073 LP  0  0  0  0  0  0  0  0  0  0  0  0  # atno 17370 bound_to 10713
  156.9247  130.9694  151.3543 LP  0  0  0  0  0  0  0  0  0  0  0  0  # atno 17371 bound_to 10713
  140.3315  134.7925  157.4330 LP  0  0  0  0  0  0  0  0  0  0  0  0  # atno 17394 bound_to 11000
  140.1013  134.5469  155.8351 LP  0  0  0  0  0  0  0  0  0  0  0  0  # atno 17395 bound_to 11000

$$$$
