AV-unprocessed.smi:2224|AV-procd|sdf|8991|dock3
  -GOLD-   2272012203D 1   1.00000     0.00000
 Structure written by MMmdl.
 44 46  0  0  0  0  0  0  0  0  1 V2000
  151.8515  146.1063  160.4091 C   0  0  0  0  0  0  0  0  0  0  0  0
  152.0227  144.7239  159.8153 C   0  0  0  0  0  0  0  0  0  0  0  0
  152.9186  143.7974  160.3824 C   0  0  0  0  0  0  0  0  0  0  0  0
  153.0320  142.5287  159.7804 C   0  0  0  0  0  0  0  0  0  0  0  0
  153.9730  141.4819  160.3392 C   0  0  0  0  0  0  0  0  0  0  0  0
  152.3244  142.1646  158.6894 N   0  0  0  0  0  0  0  0  0  0  0  0
  151.4599  143.0497  158.1343 C   0  0  0  0  0  0  0  0  0  0  0  0
  150.6703  142.7675  156.9885 N   0  0  0  0  0  0  0  0  0  0  0  0
  150.6275  141.6344  156.2661 C   0  0  0  0  0  0  0  0  0  0  0  0
  151.2933  140.6219  156.4851 O   0  0  0  0  0  0  0  0  0  0  0  0
  149.7596  141.7419  155.2510 N   0  0  0  0  0  0  0  0  0  0  0  0
  149.4991  140.6948  154.2704 C   0  0  2  0  0  0  0  0  0  0  0  0
  148.0049  140.4993  154.0118 C   0  0  1  0  0  0  0  0  0  0  0  0
  147.1073  140.7212  152.8471 C   0  0  0  0  0  0  0  0  0  0  0  0
  146.3525  139.3657  152.8994 C   0  0  0  0  0  0  0  0  0  0  0  0
  147.0802  138.5413  153.8429 O   0  0  0  0  0  0  0  0  0  0  0  0
  148.3966  139.0518  153.7893 C   0  0  2  0  0  0  0  0  0  0  0  0
  149.4687  139.2426  154.8812 C   0  0  0  0  0  0  0  0  0  0  0  0
  150.7463  138.4254  154.6875 C   0  0  0  0  0  0  0  0  0  0  0  0
  149.0431  139.0401  156.3499 C   0  0  0  0  0  0  0  0  0  0  0  0
  151.2832  144.3416  158.6783 C   0  0  0  0  0  0  0  0  0  0  0  0
  152.5292  146.2652  161.2484 H   0  0  0  0  0  0  0  0  0  0  0  0
  150.8298  146.2400  160.7648 H   0  0  0  0  0  0  0  0  0  0  0  0
  152.0564  146.8688  159.6571 H   0  0  0  0  0  0  0  0  0  0  0  0
  153.5028  144.0521  161.2548 H   0  0  0  0  0  0  0  0  0  0  0  0
  154.5665  141.8814  161.1620 H   0  0  0  0  0  0  0  0  0  0  0  0
  154.6570  141.1330  159.5649 H   0  0  0  0  0  0  0  0  0  0  0  0
  153.4079  140.6265  160.7102 H   0  0  0  0  0  0  0  0  0  0  0  0
  150.0790  143.5220  156.6735 H   0  0  0  0  0  0  0  0  0  0  0  0
  149.2510  142.6070  155.1433 H   0  0  0  0  0  0  0  0  0  0  0  0
  150.0860  140.7849  153.3516 H   0  0  0  0  0  0  0  0  0  0  0  0
  147.4377  140.6525  154.9329 H   0  0  0  0  0  0  0  0  0  0  0  0
  146.4431  141.5757  152.9796 H   0  0  0  0  0  0  0  0  0  0  0  0
  147.6659  140.8432  151.9179 H   0  0  0  0  0  0  0  0  0  0  0  0
  145.3230  139.4852  153.2382 H   0  0  0  0  0  0  0  0  0  0  0  0
  146.3329  138.8938  151.9162 H   0  0  0  0  0  0  0  0  0  0  0  0
  148.8439  138.8609  152.8069 H   0  0  0  0  0  0  0  0  0  0  0  0
  150.5713  137.3627  154.8578 H   0  0  0  0  0  0  0  0  0  0  0  0
  151.5348  138.7441  155.3701 H   0  0  0  0  0  0  0  0  0  0  0  0
  151.1386  138.5293  153.6753 H   0  0  0  0  0  0  0  0  0  0  0  0
  148.8503  137.9877  156.5603 H   0  0  0  0  0  0  0  0  0  0  0  0
  148.1398  139.5813  156.6244 H   0  0  0  0  0  0  0  0  0  0  0  0
  149.8241  139.3676  157.0369 H   0  0  0  0  0  0  0  0  0  0  0  0
  150.5902  145.0376  158.2274 H   0  0  0  0  0  0  0  0  0  0  0  0
  1  2  1  0  0  0  0
  1 22  1  0  0  0  0
  1 23  1  0  0  0  0
  1 24  1  0  0  0  0
  2 21  1  0  0  0  0
  2  3  2  0  0  0  0
  3  4  1  0  0  0  0
  3 25  1  0  0  0  0
  4  5  1  0  0  0  0
  4  6  2  0  0  0  0
  5 26  1  0  0  0  0
  5 27  1  0  0  0  0
  5 28  1  0  0  0  0
  6  7  1  0  0  0  0
  7  8  1  0  0  0  0
  7 21  2  0  0  0  0
  8  9  1  0  0  0  0
  8 29  1  0  0  0  0
  9 10  2  0  0  0  0
  9 11  1  0  0  0  0
 11 12  1  0  0  0  0
 11 30  1  0  0  0  0
 12 18  1  0  0  0  0
 12 13  1  0  0  0  0
 12 31  1  0  0  0  0
 13 17  1  0  0  0  0
 13 14  1  0  0  0  0
 13 32  1  0  0  0  0
 14 15  1  0  0  0  0
 14 33  1  0  0  0  0
 14 34  1  0  0  0  0
 15 16  1  0  0  0  0
 15 35  1  0  0  0  0
 15 36  1  0  0  0  0
 16 17  1  0  0  0  0
 17 18  1  0  0  0  0
 17 37  1  0  0  0  0
 18 19  1  0  0  0  0
 18 20  1  0  0  0  0
 19 38  1  0  0  0  0
 19 39  1  0  0  0  0
 19 40  1  0  0  0  0
 20 41  1  0  0  0  0
 20 42  1  0  0  0  0
 20 43  1  0  0  0  0
 21 44  1  0  0  0  0
M  END
> <s_m_source_file>
AV-unprocessed.smi

> <i_m_source_file_index>
2224

> <i_lp_mmshare_version>
43012

> <i_f3d_flags>
0

> <s_epik_input>
W0NIM11jMVtjSF1jKFtDSDNdKW5jKFtjSF0xKVtOSF1DKD1PKVtOSF1bQ0BIXTJDKFtDSDNdKShbQ0gzXSlbQ0BIXShbQ0BASF0yMylPW0NIMl1bQ0gyXTM=

> <s_epik_cmdline>
J2VwaWtfcHl0aG9uJywgJy1waCcsICc3LjAnLCAnLXRuJywgJzgnLCAnLW1hJywgJzIwMCcsICctbWV0YWxfYmluZGluZycsICctaW1hZScsICc8aW5maWxlLm1hZT4nLCAnLW9tYWUnLCAnPG91dGZpbGUubWFlPic=

> <r_lp_tautomer_probability>
1

> <r_epik_Ionization_Penalty>
0.000276544

> <r_epik_Ionization_Penalty_Charging>
0

> <r_epik_Ionization_Penalty_Neutral>
0.000276544

> <r_epik_State_Penalty>
-0

> <r_epik_Charging_Adjusted_Penalty>
0

> <i_epik_Tot_Q>
0

> <i_epik_Tot_abs_Q>
0

> <r_epik_Metal_State_Penalty>
-0

> <b_epik_Metal_Only>
0

> <s_lp_Force_Field>
OPLS_2005

> <r_lp_Energy>
62.2425

> <b_lp_Chiralities_Consistent>
1

> <s_lp_Variant>
AV-unprocessed.smi:2224-1

> <Gold.Version>
5.8.1

> <Gold.Id.Protein>
6NUR|6NUR_protein|mol2

> <Gold.PLP.Fitness>
43.3273

> <Gold.PLP.PLP>
-38.8322

> <Gold.PLP.part.hbond>
-1.6534

> <Gold.PLP.part.metal>
0.0000

> <Gold.PLP.part.buried>
2.0117

> <Gold.PLP.part.nonpolar>
-38.6124

> <Gold.PLP.part.repulsive>
0.3827

> <Gold.PLP.ligand.clash>
0.0000

> <Gold.PLP.ligand.torsion>
0.2388

> <Gold.PLP.Chemscore.Hbond>
1.5688

> <Gold.PLP.Chemscore.CHOScore>
0.0000

> <Gold.PLP.Chemscore.Metal>
0.0000

> <Gold.Chemscore.Hbonds>
donor molecule, donor type, donor heavy atom, donor atom, acceptor molecule, acceptor atom, score
      L1  H     8    29       P1  8028  1.00
      L1  H    11    30       P1  8028  0.59

> <Gold.PLP.Chemscore.Internal.Correction>
0.2664

> <Gold.Rescore>
     Score         DG    S(hbond)    S(metal)    S(lipo)     H(rot)  DE(clash)    DE(int)     intcor
     15.80     -22.15       1.63        0.00     117.84       1.00       2.50       3.86       ----

> <Gold.Chemscore.Fitness>
15.7955

> <Gold.Chemscore.DG>
-22.1534

> <Gold.Chemscore.ZeroCoef>
-5.4800

> <Gold.Chemscore.Hbond>
1.6304

> <Gold.Chemscore.Metal>
0.0000

> <Gold.Chemscore.Lipo>
117.8438

> <Gold.Chemscore.Internal_Hbond>
0.0000

> <Gold.Chemscore.DEClash>
2.5028

> <Gold.Chemscore.DEInternal>
3.8551

> <Gold.Chemscore.Rot>
1.0000

> <Gold.Chemscore.Internal.Correction>
   9.000000E+99

> <Gold.Chemscore.Hbonds>
donor molecule, donor type, donor heavy atom, donor atom, acceptor molecule, acceptor atom, score
      L1  H     8    29       P1  8028  0.98
      L1  H    11    30       P1  8028  0.56

> <Gold.Chemscore.Hbond.Weighted>
-5.4456

> <Gold.Chemscore.Metal.Weighted>
-0.0000

> <Gold.Chemscore.Lipo.Weighted>
-13.7877

> <Gold.Chemscore.Internal_Hbond.Weighted>
0.0000

> <Gold.Chemscore.DEClash.Weighted>
2.5028

> <Gold.Chemscore.DEInternal.Weighted>
3.8551

> <Gold.Chemscore.Rot.Weighted>
2.5600

> <Gold.Chemscore.Internal.Correction.Weighted>
   9.000000E+99

> <Gold.Protein.RotatedTorsions>
[ 6907 6896 6895 6894 ] final  -40.77 input  -60.11 | X-H torsion
[ 7974 7965 7964 7962 ] final -125.11 input  175.53 | X-H torsion
[ 8008 7997 7996 7995 ] final  121.88 input   59.86 | X-H torsion
[ 10167 10162 10161 10158 ] final   89.39 input  -65.29 | X-H torsion
[ 10718 10713 10712 10709 ] final  -12.65 input   66.30 | X-H torsion
[ 10763 10752 10751 10750 ] final   26.46 input  -60.55 | X-H torsion
[ 11005 11000 10999 10996 ] final   80.74 input  -57.11 | X-H torsion

> <Gold.Protein.ActiveResidues>
 VAL166  LYS551  ARG553  GLY616  TRP617  ASP618  TYR619  PRO620  LYS621  CYS622 
 ASP623  PHE694  ASN695  SER759  ASP760  ASP761  ALA762  ILE779  LEU786  VAL792 
 PHE793  MET794  SER795  GLU796  ALA797  LYS798  CYS799  TRP800  GLU811  SER814 

> <Gold.Protein.RotatedAtoms>
  150.9746  134.9112  159.7807 H   0  0  0  0  0  0  0  0  0  0  0  0  # atno 6907 bound_to 6896
  152.5201  134.3494  159.9255 H   0  0  0  0  0  0  0  0  0  0  0  0  # atno 6908 bound_to 6896
  151.3503  133.3887  159.2714 H   0  0  0  0  0  0  0  0  0  0  0  0  # atno 6909 bound_to 6896
  145.0010  140.7821  143.4496 H   0  0  0  0  0  0  0  0  0  0  0  0  # atno 7974 bound_to 7965
  156.2705  140.2798  156.1379 H   0  0  0  0  0  0  0  0  0  0  0  0  # atno 8008 bound_to 7997
  155.0985  140.0389  157.2707 H   0  0  0  0  0  0  0  0  0  0  0  0  # atno 8009 bound_to 7997
  154.6834  140.2613  155.6891 H   0  0  0  0  0  0  0  0  0  0  0  0  # atno 8010 bound_to 7997
  139.8577  144.6560  150.9094 H   0  0  0  0  0  0  0  0  0  0  0  0  # atno 10167 bound_to 10162
  156.6416  130.4929  149.6093 H   0  0  0  0  0  0  0  0  0  0  0  0  # atno 10718 bound_to 10713
  153.0621  135.6559  154.0439 H   0  0  0  0  0  0  0  0  0  0  0  0  # atno 10763 bound_to 10752
  154.0105  135.2929  155.3394 H   0  0  0  0  0  0  0  0  0  0  0  0  # atno 10764 bound_to 10752
  154.6963  135.5262  153.8531 H   0  0  0  0  0  0  0  0  0  0  0  0  # atno 10765 bound_to 10752
  139.9123  134.7943  156.1949 H   0  0  0  0  0  0  0  0  0  0  0  0  # atno 11005 bound_to 11000
  145.2152  139.2185  143.5122 LP  0  0  0  0  0  0  0  0  0  0  0  0  # atno 17320 bound_to 7965
  146.3452  140.1999  142.8589 LP  0  0  0  0  0  0  0  0  0  0  0  0  # atno 17321 bound_to 7965
  140.7779  143.3771  151.1543 LP  0  0  0  0  0  0  0  0  0  0  0  0  # atno 17342 bound_to 10162
  139.7403  143.8934  152.3048 LP  0  0  0  0  0  0  0  0  0  0  0  0  # atno 17343 bound_to 10162
  156.2155  130.6705  151.1314 LP  0  0  0  0  0  0  0  0  0  0  0  0  # atno 17370 bound_to 10713
  157.7169  131.0704  150.6291 LP  0  0  0  0  0  0  0  0  0  0  0  0  # atno 17371 bound_to 10713
  141.0561  133.6865  156.1862 LP  0  0  0  0  0  0  0  0  0  0  0  0  # atno 17394 bound_to 11000
  140.6735  134.4842  157.5588 LP  0  0  0  0  0  0  0  0  0  0  0  0  # atno 17395 bound_to 11000

$$$$
