AV-unprocessed.smi:1408|AV-procd|sdf|5726|dock6
  -GOLD-   22720 5363D 1   1.00000     0.00000
 Structure written by MMmdl.
 41 42  0  0  0  0  0  0  0  0  1 V2000
  145.6224  134.2970  151.1221 C   0  0  0  0  0  0  0  0  0  0  0  0
  145.9299  132.9011  151.6399 C   0  0  0  0  0  0  0  0  0  0  0  0
  145.1531  131.8118  151.1910 C   0  0  0  0  0  0  0  0  0  0  0  0
  145.4380  130.5221  151.6708 C   0  0  0  0  0  0  0  0  0  0  0  0
  146.4949  130.3752  152.5853 C   0  0  0  0  0  0  0  0  0  0  0  0
  147.2424  131.4103  153.0192 N   0  0  0  0  0  0  0  0  0  0  0  0
  146.9806  132.6622  152.5663 C   0  0  0  0  0  0  0  0  0  0  0  0
  147.7270  133.8015  152.9816 N   0  0  0  0  0  0  0  0  0  0  0  0
  148.1136  134.1423  154.2240 C   0  0  0  0  0  0  0  0  0  0  0  0
  147.8888  133.4925  155.2454 O   0  0  0  0  0  0  0  0  0  0  0  0
  148.7893  135.3010  154.2205 N   0  0  0  0  0  0  0  0  0  0  0  0
  149.3321  135.9622  155.4040 C   0  0  0  0  0  0  0  0  0  0  0  0
  148.7925  137.3968  155.4946 C   0  0  0  0  0  0  0  0  0  0  0  0
  149.3837  138.1427  156.7039 C   0  0  0  0  0  0  0  0  0  0  0  0
  150.8603  138.1099  156.6985 N   0  0  0  0  0  0  0  0  0  0  0  0
  151.7593  139.5037  156.1711 S   0  0  0  0  0  0  0  0  0  0  0  0
  151.7395  140.6257  157.6285 C   0  0  0  0  0  0  0  0  0  0  0  0
  153.1485  139.0811  155.9362 O   0  0  0  0  0  0  0  0  0  0  0  0
  150.9993  140.1458  155.0876 O   0  0  0  0  0  0  0  0  0  0  0  0
  151.4462  136.7605  156.5667 C   0  0  0  0  0  0  0  0  0  0  0  0
  150.8688  136.0022  155.3580 C   0  0  0  0  0  0  0  0  0  0  0  0
  144.7836  134.2866  150.4253 H   0  0  0  0  0  0  0  0  0  0  0  0
  146.4863  134.7093  150.6003 H   0  0  0  0  0  0  0  0  0  0  0  0
  145.3645  134.9620  151.9469 H   0  0  0  0  0  0  0  0  0  0  0  0
  144.3472  131.9597  150.4871 H   0  0  0  0  0  0  0  0  0  0  0  0
  144.8618  129.6682  151.3467 H   0  0  0  0  0  0  0  0  0  0  0  0
  146.7479  129.4017  152.9788 H   0  0  0  0  0  0  0  0  0  0  0  0
  147.9903  134.4360  152.2427 H   0  0  0  0  0  0  0  0  0  0  0  0
  148.9299  135.7666  153.3360 H   0  0  0  0  0  0  0  0  0  0  0  0
  149.0137  135.4181  156.2956 H   0  0  0  0  0  0  0  0  0  0  0  0
  149.0196  137.9386  154.5768 H   0  0  0  0  0  0  0  0  0  0  0  0
  147.7051  137.3802  155.5766 H   0  0  0  0  0  0  0  0  0  0  0  0
  149.0261  139.1718  156.7268 H   0  0  0  0  0  0  0  0  0  0  0  0
  149.0335  137.6758  157.6251 H   0  0  0  0  0  0  0  0  0  0  0  0
  152.2858  141.5363  157.3835 H   0  0  0  0  0  0  0  0  0  0  0  0
  152.2215  140.1417  158.4761 H   0  0  0  0  0  0  0  0  0  0  0  0
  150.7134  140.8869  157.8818 H   0  0  0  0  0  0  0  0  0  0  0  0
  152.5315  136.8229  156.4916 H   0  0  0  0  0  0  0  0  0  0  0  0
  151.2339  136.2035  157.4800 H   0  0  0  0  0  0  0  0  0  0  0  0
  151.2704  134.9883  155.3450 H   0  0  0  0  0  0  0  0  0  0  0  0
  151.2001  136.4708  154.4319 H   0  0  0  0  0  0  0  0  0  0  0  0
  1  2  1  0  0  0  0
  1 22  1  0  0  0  0
  1 23  1  0  0  0  0
  1 24  1  0  0  0  0
  2  7  1  0  0  0  0
  2  3  2  0  0  0  0
  3  4  1  0  0  0  0
  3 25  1  0  0  0  0
  4  5  2  0  0  0  0
  4 26  1  0  0  0  0
  5  6  1  0  0  0  0
  5 27  1  0  0  0  0
  6  7  2  0  0  0  0
  7  8  1  0  0  0  0
  8  9  1  0  0  0  0
  8 28  1  0  0  0  0
  9 10  2  0  0  0  0
  9 11  1  0  0  0  0
 11 12  1  0  0  0  0
 11 29  1  0  0  0  0
 12 21  1  0  0  0  0
 12 13  1  0  0  0  0
 12 30  1  0  0  0  0
 13 14  1  0  0  0  0
 13 31  1  0  0  0  0
 13 32  1  0  0  0  0
 14 15  1  0  0  0  0
 14 33  1  0  0  0  0
 14 34  1  0  0  0  0
 15 16  1  0  0  0  0
 15 20  1  0  0  0  0
 16 17  1  0  0  0  0
 16 18  2  0  0  0  0
 16 19  2  0  0  0  0
 17 35  1  0  0  0  0
 17 36  1  0  0  0  0
 17 37  1  0  0  0  0
 20 21  1  0  0  0  0
 20 38  1  0  0  0  0
 20 39  1  0  0  0  0
 21 40  1  0  0  0  0
 21 41  1  0  0  0  0
M  END
> <s_m_source_file>
AV-unprocessed.smi

> <i_m_source_file_index>
1408

> <i_lp_mmshare_version>
43012

> <i_f3d_flags>
0

> <s_epik_input>
W0NIM11jMVtjSF1bY0hdW2NIXW5jMVtOSF1DKD1PKVtOSF1bQ0hdMltDSDJdW0NIMl1OKFMoPU8pKD1PKVtDSDNdKVtDSDJdW0NIMl0y

> <s_epik_cmdline>
J2VwaWtfcHl0aG9uJywgJy1waCcsICc3LjAnLCAnLXRuJywgJzgnLCAnLW1hJywgJzIwMCcsICctbWV0YWxfYmluZGluZycsICctaW1hZScsICc8aW5maWxlLm1hZT4nLCAnLW9tYWUnLCAnPG91dGZpbGUubWFlPic=

> <r_lp_tautomer_probability>
1

> <r_epik_Ionization_Penalty>
5.70787e-05

> <r_epik_Ionization_Penalty_Charging>
0

> <r_epik_Ionization_Penalty_Neutral>
5.70787e-05

> <r_epik_State_Penalty>
-0

> <r_epik_Charging_Adjusted_Penalty>
0

> <i_epik_Tot_Q>
0

> <i_epik_Tot_abs_Q>
0

> <r_epik_Metal_State_Penalty>
-0

> <b_epik_Metal_Only>
0

> <s_lp_Force_Field>
OPLS_2005

> <r_lp_Energy>
5.75517

> <b_lp_Chiralities_Consistent>
1

> <s_lp_Variant>
AV-unprocessed.smi:1408-1

> <Gold.Version>
5.8.1

> <Gold.Id.Protein>
6NUR|6NUR_protein|mol2

> <Gold.PLP.Fitness>
38.9979

> <Gold.PLP.PLP>
-28.1971

> <Gold.PLP.part.hbond>
-3.9595

> <Gold.PLP.part.metal>
0.0000

> <Gold.PLP.part.buried>
-5.3123

> <Gold.PLP.part.nonpolar>
-19.7673

> <Gold.PLP.part.repulsive>
0.1762

> <Gold.PLP.ligand.clash>
0.0000

> <Gold.PLP.ligand.torsion>
1.4558

> <Gold.PLP.Chemscore.Hbond>
3.8873

> <Gold.PLP.Chemscore.CHOScore>
0.0000

> <Gold.PLP.Chemscore.Metal>
0.0000

> <Gold.Chemscore.Hbonds>
donor molecule, donor type, donor heavy atom, donor atom, acceptor molecule, acceptor atom, score
      L1  H     8    28       P1  7948  0.90
      L1  H    11    29       P1  7948  0.98
      P1  H  7989  7998       L1    19  1.00
      P1  H  7997  8010       L1    18  1.00

> <Gold.PLP.Chemscore.Internal.Correction>
2.0506

> <Gold.Rescore>
     Score         DG    S(hbond)    S(metal)    S(lipo)     H(rot)  DE(clash)    DE(int)     intcor
     19.50     -20.93       3.57        0.00      51.93       1.00       0.00       1.43       ----

> <Gold.Chemscore.Fitness>
19.5003

> <Gold.Chemscore.DG>
-20.9268

> <Gold.Chemscore.ZeroCoef>
-5.4800

> <Gold.Chemscore.Hbond>
3.5723

> <Gold.Chemscore.Metal>
0.0000

> <Gold.Chemscore.Lipo>
51.9265

> <Gold.Chemscore.Internal_Hbond>
0.0000

> <Gold.Chemscore.DEClash>
0.0000

> <Gold.Chemscore.DEInternal>
1.4265

> <Gold.Chemscore.Rot>
1.0000

> <Gold.Chemscore.Internal.Correction>
   9.000000E+99

> <Gold.Chemscore.Hbonds>
donor molecule, donor type, donor heavy atom, donor atom, acceptor molecule, acceptor atom, score
      L1  H     8    28       P1  7948  0.21
      L1  H    11    29       P1  7948  0.84
      P1  H  7989  7998       L1    19  1.00
      P1  H  7997  8010       L1    18  0.96

> <Gold.Chemscore.Hbond.Weighted>
-11.9314

> <Gold.Chemscore.Metal.Weighted>
-0.0000

> <Gold.Chemscore.Lipo.Weighted>
-6.0754

> <Gold.Chemscore.Internal_Hbond.Weighted>
0.0000

> <Gold.Chemscore.DEClash.Weighted>
0.0000

> <Gold.Chemscore.DEInternal.Weighted>
1.4265

> <Gold.Chemscore.Rot.Weighted>
2.5600

> <Gold.Chemscore.Internal.Correction.Weighted>
   9.000000E+99

> <Gold.Protein.RotatedTorsions>
[ 6907 6896 6895 6894 ] final -156.26 input  -60.11 | X-H torsion
[ 7974 7965 7964 7962 ] final  -54.85 input  175.53 | X-H torsion
[ 8008 7997 7996 7995 ] final   79.30 input   59.86 | X-H torsion
[ 10167 10162 10161 10158 ] final  118.92 input  -65.29 | X-H torsion
[ 10718 10713 10712 10709 ] final -116.38 input   66.30 | X-H torsion
[ 10763 10752 10751 10750 ] final  116.86 input  -60.55 | X-H torsion
[ 11005 11000 10999 10996 ] final   84.83 input  -57.11 | X-H torsion

> <Gold.Protein.ActiveResidues>
 VAL166  LYS551  ARG553  GLY616  TRP617  ASP618  TYR619  PRO620  LYS621  CYS622 
 ASP623  PHE694  ASN695  SER759  ASP760  ASP761  ALA762  ILE779  LEU786  VAL792 
 PHE793  MET794  SER795  GLU796  ALA797  LYS798  CYS799  TRP800  GLU811  SER814 

> <Gold.Protein.RotatedAtoms>
  151.2850  133.4192  159.2629 H   0  0  0  0  0  0  0  0  0  0  0  0  # atno 6907 bound_to 6896
  151.0327  134.9551  159.8130 H   0  0  0  0  0  0  0  0  0  0  0  0  # atno 6908 bound_to 6896
  152.5349  134.2810  159.9060 H   0  0  0  0  0  0  0  0  0  0  0  0  # atno 6909 bound_to 6896
  145.8809  140.8145  142.9840 H   0  0  0  0  0  0  0  0  0  0  0  0  # atno 7974 bound_to 7965
  155.8678  140.3450  155.5800 H   0  0  0  0  0  0  0  0  0  0  0  0  # atno 8008 bound_to 7997
  155.7862  140.0865  157.2053 H   0  0  0  0  0  0  0  0  0  0  0  0  # atno 8009 bound_to 7997
  154.4015  140.1491  156.3096 H   0  0  0  0  0  0  0  0  0  0  0  0  # atno 8010 bound_to 7997
  139.6080  144.7075  151.2909 H   0  0  0  0  0  0  0  0  0  0  0  0  # atno 10167 bound_to 10162
  156.0960  130.6132  150.9028 H   0  0  0  0  0  0  0  0  0  0  0  0  # atno 10718 bound_to 10713
  153.5436  135.3554  155.2729 H   0  0  0  0  0  0  0  0  0  0  0  0  # atno 10763 bound_to 10752
  154.8714  135.4097  154.3015 H   0  0  0  0  0  0  0  0  0  0  0  0  # atno 10764 bound_to 10752
  153.3728  135.7065  153.6693 H   0  0  0  0  0  0  0  0  0  0  0  0  # atno 10765 bound_to 10752
  139.8989  134.8244  156.2499 H   0  0  0  0  0  0  0  0  0  0  0  0  # atno 11005 bound_to 11000
  144.6727  140.1382  143.7439 LP  0  0  0  0  0  0  0  0  0  0  0  0  # atno 17320 bound_to 7965
  145.9025  139.2439  143.1485 LP  0  0  0  0  0  0  0  0  0  0  0  0  # atno 17321 bound_to 7965
  140.7299  143.6896  150.7933 LP  0  0  0  0  0  0  0  0  0  0  0  0  # atno 17342 bound_to 10162
  140.0485  143.5274  152.2685 LP  0  0  0  0  0  0  0  0  0  0  0  0  # atno 17343 bound_to 10162
  157.6120  131.0935  150.8777 LP  0  0  0  0  0  0  0  0  0  0  0  0  # atno 17370 bound_to 10713
  156.8915  130.5214  149.5286 LP  0  0  0  0  0  0  0  0  0  0  0  0  # atno 17371 bound_to 10713
  141.0230  133.7030  156.1301 LP  0  0  0  0  0  0  0  0  0  0  0  0  # atno 17394 bound_to 11000
  140.7206  134.4363  157.5575 LP  0  0  0  0  0  0  0  0  0  0  0  0  # atno 17395 bound_to 11000

$$$$
