AV-unprocessed.smi:2821|AV-procd|sdf|10856|dock7
  -GOLD-   2272015303D 1   1.00000     0.00000
 Structure written by MMmdl.
 36 37  0  0  0  0  0  0  0  0  1 V2000
  147.2107  140.8400  153.6572 C   0  0  0  0  0  0  0  0  0  0  0  0
  148.6108  140.7774  154.2719 C   0  0  0  0  0  0  0  0  0  0  0  0
  149.1259  139.4602  154.1043 O   0  0  0  0  0  0  0  0  0  0  0  0
  150.2695  139.1129  154.7936 C   0  0  0  0  0  0  0  0  0  0  0  0
  150.9169  137.8943  154.4982 C   0  0  0  0  0  0  0  0  0  0  0  0
  152.0378  137.5051  155.1445 N   0  0  0  0  0  0  0  0  0  0  0  0
  152.5132  138.3442  156.0912 C   0  0  0  0  0  0  0  0  0  0  0  0
  151.8788  139.5690  156.3950 C   0  0  0  0  0  0  0  0  0  0  0  0
  152.4221  140.3975  157.3880 N   0  0  0  0  0  0  0  0  0  0  0  0
  151.5746  141.1880  158.2768 C   0  0  2  0  0  0  0  0  0  0  0  0
  150.6406  142.0984  157.4599 C   0  0  0  0  0  0  0  0  0  0  0  0
  152.4439  142.0097  159.2474 C   0  0  2  0  0  0  0  0  0  0  0  0
  153.4058  141.1764  160.0975 C   0  0  0  0  0  0  0  0  0  0  0  0
  153.6271  142.0297  161.3372 C   0  0  0  0  0  0  0  0  0  0  0  0
  152.5169  143.0811  161.2686 C   0  0  0  0  0  0  0  0  0  0  0  0
  151.6444  142.6278  160.2440 O   0  0  0  0  0  0  0  0  0  0  0  0
  150.7528  139.9505  155.7453 N   0  0  0  0  0  0  0  0  0  0  0  0
  146.7794  141.8348  153.7717 H   0  0  0  0  0  0  0  0  0  0  0  0
  146.5400  140.1272  154.1373 H   0  0  0  0  0  0  0  0  0  0  0  0
  147.2405  140.6089  152.5922 H   0  0  0  0  0  0  0  0  0  0  0  0
  149.2587  141.5061  153.7816 H   0  0  0  0  0  0  0  0  0  0  0  0
  148.5564  141.0325  155.3316 H   0  0  0  0  0  0  0  0  0  0  0  0
  150.5327  137.2282  153.7398 H   0  0  0  0  0  0  0  0  0  0  0  0
  153.4100  138.0342  156.6079 H   0  0  0  0  0  0  0  0  0  0  0  0
  153.4104  140.6033  157.3657 H   0  0  0  0  0  0  0  0  0  0  0  0
  150.9620  140.5121  158.8749 H   0  0  0  0  0  0  0  0  0  0  0  0
  149.9825  142.6739  158.1112 H   0  0  0  0  0  0  0  0  0  0  0  0
  150.0040  141.5213  156.7889 H   0  0  0  0  0  0  0  0  0  0  0  0
  151.2074  142.8056  156.8533 H   0  0  0  0  0  0  0  0  0  0  0  0
  152.9948  142.7835  158.7086 H   0  0  0  0  0  0  0  0  0  0  0  0
  152.9354  140.2349  160.3847 H   0  0  0  0  0  0  0  0  0  0  0  0
  154.3330  140.9408  159.5747 H   0  0  0  0  0  0  0  0  0  0  0  0
  153.5532  141.4248  162.2414 H   0  0  0  0  0  0  0  0  0  0  0  0
  154.6086  142.5045  161.3292 H   0  0  0  0  0  0  0  0  0  0  0  0
  151.9872  143.1956  162.2146 H   0  0  0  0  0  0  0  0  0  0  0  0
  152.9253  144.0528  160.9868 H   0  0  0  0  0  0  0  0  0  0  0  0
  1  2  1  0  0  0  0
  1 18  1  0  0  0  0
  1 19  1  0  0  0  0
  1 20  1  0  0  0  0
  2  3  1  0  0  0  0
  2 21  1  0  0  0  0
  2 22  1  0  0  0  0
  3  4  1  0  0  0  0
  4 17  1  0  0  0  0
  4  5  2  0  0  0  0
  5  6  1  0  0  0  0
  5 23  1  0  0  0  0
  6  7  2  0  0  0  0
  7  8  1  0  0  0  0
  7 24  1  0  0  0  0
  8  9  1  0  0  0  0
  8 17  2  0  0  0  0
  9 10  1  0  0  0  0
  9 25  1  0  0  0  0
 10 11  1  0  0  0  0
 10 12  1  0  0  0  0
 10 26  1  0  0  0  0
 11 27  1  0  0  0  0
 11 28  1  0  0  0  0
 11 29  1  0  0  0  0
 12 16  1  0  0  0  0
 12 13  1  0  0  0  0
 12 30  1  0  0  0  0
 13 14  1  0  0  0  0
 13 31  1  0  0  0  0
 13 32  1  0  0  0  0
 14 15  1  0  0  0  0
 14 33  1  0  0  0  0
 14 34  1  0  0  0  0
 15 16  1  0  0  0  0
 15 35  1  0  0  0  0
 15 36  1  0  0  0  0
M  END
> <s_m_source_file>
AV-unprocessed.smi

> <i_m_source_file_index>
2821

> <i_lp_mmshare_version>
43012

> <i_f3d_flags>
0

> <s_epik_input>
W0NIM11bQ0gyXU9jMVtjSF1uW2NIXWMobjEpW05IXVtDQEhdKFtDSDNdKVtDQEBIXTJbQ0gyXVtDSDJdW0NIMl1PMg==

> <s_epik_cmdline>
J2VwaWtfcHl0aG9uJywgJy1waCcsICc3LjAnLCAnLXRuJywgJzgnLCAnLW1hJywgJzIwMCcsICctbWV0YWxfYmluZGluZycsICctaW1hZScsICc8aW5maWxlLm1hZT4nLCAnLW9tYWUnLCAnPG91dGZpbGUubWFlPic=

> <r_lp_tautomer_probability>
1

> <r_epik_Ionization_Penalty>
4.69533e-05

> <r_epik_Ionization_Penalty_Charging>
0

> <r_epik_Ionization_Penalty_Neutral>
4.69533e-05

> <r_epik_State_Penalty>
-0

> <r_epik_Charging_Adjusted_Penalty>
0

> <i_epik_Tot_Q>
0

> <i_epik_Tot_abs_Q>
0

> <r_epik_Metal_State_Penalty>
-0

> <b_epik_Metal_Only>
0

> <s_lp_Force_Field>
OPLS_2005

> <r_lp_Energy>
27.5992

> <b_lp_Chiralities_Consistent>
1

> <s_lp_Variant>
AV-unprocessed.smi:2821-1

> <Gold.Version>
5.8.1

> <Gold.Id.Protein>
6NUR|6NUR_protein|mol2

> <Gold.PLP.Fitness>
40.2187

> <Gold.PLP.PLP>
-35.6526

> <Gold.PLP.part.hbond>
-1.8260

> <Gold.PLP.part.metal>
0.0000

> <Gold.PLP.part.buried>
-5.2487

> <Gold.PLP.part.nonpolar>
-31.1190

> <Gold.PLP.part.repulsive>
2.9525

> <Gold.PLP.ligand.clash>
0.0000

> <Gold.PLP.ligand.torsion>
0.4110

> <Gold.PLP.Chemscore.Hbond>
0.6232

> <Gold.PLP.Chemscore.CHOScore>
1.1632

> <Gold.PLP.Chemscore.Metal>
0.0000

> <Gold.Chemscore.Hbonds>
donor molecule, donor type, donor heavy atom, donor atom, acceptor molecule, acceptor atom, score
      P1  H 10752 10765       L1     6  0.54
      L1  C     5    23       P1  7948  0.58
      L1  C     5    23       P1  7949  0.42

> <Gold.PLP.Chemscore.Internal.Correction>
0.0289

> <Gold.Rescore>
     Score         DG    S(hbond)    S(metal)    S(lipo)     H(rot)  DE(clash)    DE(int)     intcor
     11.73     -13.52       0.80        0.00      79.94       1.55       0.02       1.77       ----

> <Gold.Chemscore.Fitness>
11.7335

> <Gold.Chemscore.DG>
-13.5200

> <Gold.Chemscore.ZeroCoef>
-5.4800

> <Gold.Chemscore.Hbond>
0.7961

> <Gold.Chemscore.Metal>
0.0000

> <Gold.Chemscore.Lipo>
79.9361

> <Gold.Chemscore.Internal_Hbond>
0.0000

> <Gold.Chemscore.DEClash>
0.0203

> <Gold.Chemscore.DEInternal>
1.7663

> <Gold.Chemscore.Rot>
1.5514

> <Gold.Chemscore.Internal.Correction>
   9.000000E+99

> <Gold.Chemscore.Hbonds>
donor molecule, donor type, donor heavy atom, donor atom, acceptor molecule, acceptor atom, score
      P1  H 10752 10765       L1     6  0.51

> <Gold.Chemscore.Hbond.Weighted>
-2.6590

> <Gold.Chemscore.Metal.Weighted>
-0.0000

> <Gold.Chemscore.Lipo.Weighted>
-9.3525

> <Gold.Chemscore.Internal_Hbond.Weighted>
0.0000

> <Gold.Chemscore.DEClash.Weighted>
0.0203

> <Gold.Chemscore.DEInternal.Weighted>
1.7663

> <Gold.Chemscore.Rot.Weighted>
3.9715

> <Gold.Chemscore.Internal.Correction.Weighted>
   9.000000E+99

> <Gold.Protein.RotatedTorsions>
[ 6907 6896 6895 6894 ] final -159.01 input  -60.11 | X-H torsion
[ 7974 7965 7964 7962 ] final   93.16 input  175.53 | X-H torsion
[ 8008 7997 7996 7995 ] final -101.58 input   59.86 | X-H torsion
[ 10167 10162 10161 10158 ] final    4.89 input  -65.29 | X-H torsion
[ 10718 10713 10712 10709 ] final   92.38 input   66.30 | X-H torsion
[ 10763 10752 10751 10750 ] final  179.91 input  -60.55 | X-H torsion
[ 11005 11000 10999 10996 ] final  -23.32 input  -57.11 | X-H torsion

> <Gold.Protein.ActiveResidues>
 VAL166  LYS551  ARG553  GLY616  TRP617  ASP618  TYR619  PRO620  LYS621  CYS622 
 ASP623  PHE694  ASN695  SER759  ASP760  ASP761  ALA762  ILE779  LEU786  VAL792 
 PHE793  MET794  SER795  GLU796  ALA797  LYS798  CYS799  TRP800  GLU811  SER814 

> <Gold.Protein.RotatedAtoms>
  151.3270  133.4016  159.2659 H   0  0  0  0  0  0  0  0  0  0  0  0  # atno 6907 bound_to 6896
  150.9987  134.9305  159.7952 H   0  0  0  0  0  0  0  0  0  0  0  0  # atno 6908 bound_to 6896
  152.5269  134.3235  159.9209 H   0  0  0  0  0  0  0  0  0  0  0  0  # atno 6909 bound_to 6896
  145.4826  139.2278  143.2874 H   0  0  0  0  0  0  0  0  0  0  0  0  # atno 7974 bound_to 7965
  154.8445  140.0433  157.1564 H   0  0  0  0  0  0  0  0  0  0  0  0  # atno 8008 bound_to 7997
  154.9010  140.3000  155.5297 H   0  0  0  0  0  0  0  0  0  0  0  0  # atno 8009 bound_to 7997
  156.2994  140.2376  156.4038 H   0  0  0  0  0  0  0  0  0  0  0  0  # atno 8010 bound_to 7997
  140.6511  143.7542  150.7577 H   0  0  0  0  0  0  0  0  0  0  0  0  # atno 10167 bound_to 10162
  157.6958  131.0441  150.3873 H   0  0  0  0  0  0  0  0  0  0  0  0  # atno 10718 bound_to 10713
  154.5268  135.2797  155.1215 H   0  0  0  0  0  0  0  0  0  0  0  0  # atno 10763 bound_to 10752
  154.2751  135.6296  153.5329 H   0  0  0  0  0  0  0  0  0  0  0  0  # atno 10764 bound_to 10752
  152.9948  135.5637  154.5771 H   0  0  0  0  0  0  0  0  0  0  0  0  # atno 10765 bound_to 10752
  140.8740  133.7700  156.0221 H   0  0  0  0  0  0  0  0  0  0  0  0  # atno 11005 bound_to 11000
  146.2332  140.5614  142.8966 LP  0  0  0  0  0  0  0  0  0  0  0  0  # atno 17320 bound_to 7965
  144.7880  140.5975  143.6561 LP  0  0  0  0  0  0  0  0  0  0  0  0  # atno 17321 bound_to 7965
  140.1193  143.4627  152.2323 LP  0  0  0  0  0  0  0  0  0  0  0  0  # atno 17342 bound_to 10162
  139.5726  144.7471  151.3849 LP  0  0  0  0  0  0  0  0  0  0  0  0  # atno 17343 bound_to 10162
  156.4280  130.3966  149.6779 LP  0  0  0  0  0  0  0  0  0  0  0  0  # atno 17370 bound_to 10713
  156.4007  130.7673  151.2681 LP  0  0  0  0  0  0  0  0  0  0  0  0  # atno 17371 bound_to 10713
  140.8540  134.2920  157.5263 LP  0  0  0  0  0  0  0  0  0  0  0  0  # atno 17394 bound_to 11000
  139.8714  134.9483  156.3991 LP  0  0  0  0  0  0  0  0  0  0  0  0  # atno 17395 bound_to 11000

$$$$
