#       Name:                AV-unprocessed.smi:794
#       Creating user name   scv26
#       Creation time:       Fri Mar 27 01:19:27 2020


#       File generated by GOLD software.
#

@<TRIPOS>MOLECULE
AV-unprocessed.smi:794
    46    48     1
SMALL
NO_CHARGES


@<TRIPOS>ATOM
      1 ****        -5.8322  -0.5314   0.8044 C.3            1 S1                 0.0000
      2 ****        -4.7932   0.4929   0.4642 C.2            1 S1                 0.0000
      3 ****        -3.4386   0.1593   0.5565 N.2            1 S1                 0.0000
      4 ****        -2.6416   1.1794   0.2226 C.2            1 S1                 0.0000
      5 ****        -1.2232   1.1212   0.2217 N.am           1 S1                 0.0000
      6 ****        -0.4353   0.0747   0.5247 C.2            1 S1                 0.0000
      7 ****        -0.8308  -1.0318   0.8922 O.2            1 S1                 0.0000
      8 ****         0.8606   0.3814   0.3667 N.am           1 S1                 0.0000
      9 ****         1.9812  -0.5272   0.6152 C.3            1 S1                 0.0000
     10 ****         3.2447   0.2755   0.9943 C.3            1 S1                 0.0000
     11 ****         4.2759  -0.6777   1.6252 C.3            1 S1                 0.0000
     12 ****         4.7528  -1.5025   0.4147 C.3            1 S1                 0.0000
     13 ****         3.9331  -0.9100  -0.7493 C.3            1 S1                 0.0000
     14 ****         3.8779   0.5620  -0.3617 C.3            1 S1                 0.0000
     15 ****         2.4556  -1.3555  -0.6184 C.3            1 S1                 0.0000
     16 ****         1.6442  -1.1712  -1.9213 C.3            1 S1                 0.0000
     17 ****         2.1298  -2.0309  -2.9309 O.3            1 S1                 0.0000
     18 ****        -3.5129   2.6334  -0.2324 S.3            1 S1                 0.0000
     19 ****        -5.0138   1.7861   0.0490 C.2            1 S1                 0.0000
     20 ****        -6.3264   2.4656  -0.1584 C.3            1 S1                 0.0000
     21 ****        -6.5210  -0.1559   1.5615 H              1 S1                 0.0000
     22 ****        -5.3858  -1.4471   1.1933 H              1 S1                 0.0000
     23 ****        -6.4202  -0.7995  -0.0736 H              1 S1                 0.0000
     24 ****        -0.7551   1.9703  -0.0583 H              1 S1                 0.0000
     25 ****         1.0952   1.3146   0.0614 H              1 S1                 0.0000
     26 ****         1.7144  -1.1935   1.4379 H              1 S1                 0.0000
     27 ****         3.0458   1.1565   1.6059 H              1 S1                 0.0000
     28 ****         5.1067  -0.1197   2.0588 H              1 S1                 0.0000
     29 ****         3.8451  -1.2994   2.4109 H              1 S1                 0.0000
     30 ****         5.8213  -1.3565   0.2503 H              1 S1                 0.0000
     31 ****         4.5797  -2.5714   0.5439 H              1 S1                 0.0000
     32 ****         4.3758  -1.1090  -1.7256 H              1 S1                 0.0000
     33 ****         3.2481   1.1647  -1.0174 H              1 S1                 0.0000
     34 ****         4.8626   1.0271  -0.2896 H              1 S1                 0.0000
     35 ****         2.4170  -2.4160  -0.3634 H              1 S1                 0.0000
     36 ****         0.5956  -1.4195  -1.7572 H              1 S1                 0.0000
     37 ****         1.6842  -0.1419  -2.2781 H              1 S1                 0.0000
     38 ****         1.5936  -1.9225  -3.7016 H              1 S1                 0.0000
     39 ****        -7.0226   1.8130  -0.6856 H              1 S1                 0.0000
     40 ****        -6.2113   3.3757  -0.7477 H              1 S1                 0.0000
     41 ****        -6.7751   2.7370   0.7972 H              1 S1                 0.0000
     42 ****        -3.1042  -0.7395   0.8398 LP             1 S1                 0.0000
     43 ****        -1.8110  -1.2068   0.9855 LP             1 S1                 0.0000
     44 ****        -0.1719  -1.7555   1.0973 LP             1 S1                 0.0000
     45 ****         2.0821  -2.9794  -2.6178 LP             1 S1                 0.0000
     46 ****         3.0784  -1.7978  -3.1447 LP             1 S1                 0.0000
@<TRIPOS>BOND
    1    1    2 1     
    2    1   21 1     
    3    1   22 1     
    4    1   23 1     
    5    2   19 2     
    6    2    3 1     
    7    3    4 2     
    8    4    5 1     
    9    4   18 1     
   10    5    6 am    
   11    5   24 1     
   12    6    7 2     
   13    6    8 am    
   14    8    9 1     
   15    8   25 1     
   16    9   15 1     
   17    9   10 1     
   18    9   26 1     
   19   10   14 1     
   20   10   11 1     
   21   10   27 1     
   22   11   12 1     
   23   11   28 1     
   24   11   29 1     
   25   12   13 1     
   26   12   30 1     
   27   12   31 1     
   28   13   14 1     
   29   13   15 1     
   30   13   32 1     
   31   14   33 1     
   32   14   34 1     
   33   15   16 1     
   34   15   35 1     
   35   16   17 1     
   36   16   36 1     
   37   16   37 1     
   38   17   38 1     
   39   18   19 1     
   40   19   20 1     
   41   20   39 1     
   42   20   40 1     
   43   20   41 1     
   44    3   42 1     
   45    7   43 1     
   46    7   44 1     
   47   17   45 1     
   48   17   46 1     
@<TRIPOS>SUBSTRUCTURE
      1 S1             1
@<TRIPOS>SET
LONE_PAIRS      STATIC     ATOMS    <user>   **** ""
5 42 43 44 45 46
DONOR_HYDROGENS      STATIC     ATOMS    <user>   **** ""
3 24 25 38
ATOM$BLUE        STATIC     ATOMS    COLORGROUP SYSTEM
5 42 43 44 45 46
ATOM$RED        STATIC     ATOMS    COLORGROUP SYSTEM
3 24 25 38
