#       Name:                AV-unprocessed.smi:3154
#       Creating user name   scv26
#       Creation time:       Fri Mar 27 17:43:58 2020


#       File generated by GOLD software.
#

@<TRIPOS>MOLECULE
AV-unprocessed.smi:3154
    38    39     1
SMALL
NO_CHARGES


@<TRIPOS>ATOM
      1 ****        -2.2266  -0.6680  -0.7974 C.3            1 S1                 0.0000
      2 ****        -1.2495  -0.1390   0.2670 C.3            1 S1                 0.0000
      3 ****        -1.5427  -0.7006   1.6797 C.3            1 S1                 0.0000
      4 ****        -2.9143  -0.4821   2.1037 N.pl3          1 S1                 0.0000
      5 ****        -3.9008  -1.4180   2.3335 C.2            1 S1                 0.0000
      6 ****        -5.0206  -0.7409   2.7238 C.2            1 S1                 0.0000
      7 ****        -4.6130   0.6223   2.7096 C.2            1 S1                 0.0000
      8 ****        -3.3507   0.7737   2.3428 N.2            1 S1                 0.0000
      9 ****         0.0969  -0.4968  -0.1690 N.3            1 S1                 0.0000
     10 ****         1.1403   0.2957   0.4946 C.3            1 S1                 0.0000
     11 ****         2.5266  -0.0710  -0.0294 C.2            1 S1                 0.0000
     12 ****         3.2120  -0.8995   0.5695 O.2            1 S1                 0.0000
     13 ****         2.9220   0.5527  -1.1492 N.am           1 S1                 0.0000
     14 ****         4.1714   0.3581  -1.8104 C.3            1 S1                 0.0000
     15 ****         4.8049   1.5568  -2.4824 C.3            1 S1                 0.0000
     16 ****         4.1913   0.4687  -3.3198 C.3            1 S1                 0.0000
     17 ****        -3.2512  -0.3605  -0.5874 H              1 S1                 0.0000
     18 ****        -2.2104  -1.7575  -0.8458 H              1 S1                 0.0000
     19 ****        -1.9761  -0.2864  -1.7879 H              1 S1                 0.0000
     20 ****        -1.3397   0.9484   0.2807 H              1 S1                 0.0000
     21 ****        -1.3454  -1.7733   1.7049 H              1 S1                 0.0000
     22 ****        -0.8930  -0.2477   2.4283 H              1 S1                 0.0000
     23 ****        -3.7268  -2.4754   2.1990 H              1 S1                 0.0000
     24 ****        -5.9837  -1.1559   2.9821 H              1 S1                 0.0000
     25 ****        -5.1922   1.5003   2.9548 H              1 S1                 0.0000
     26 ****         0.1460  -0.3791  -1.1707 H              1 S1                 0.0000
     27 ****         0.9631   1.3600   0.3312 H              1 S1                 0.0000
     28 ****         1.1236   0.1266   1.5709 H              1 S1                 0.0000
     29 ****         2.2867   1.2177  -1.5660 H              1 S1                 0.0000
     30 ****         4.8603  -0.3647  -1.3755 H              1 S1                 0.0000
     31 ****         4.2782   2.5079  -2.4306 H              1 S1                 0.0000
     32 ****         5.8907   1.6251  -2.4647 H              1 S1                 0.0000
     33 ****         4.8673  -0.1896  -3.8619 H              1 S1                 0.0000
     34 ****         3.2548   0.6933  -3.8268 H              1 S1                 0.0000
     35 ****        -2.8352   1.6267   2.2609 LP             1 S1                 0.0000
     36 ****         0.2693  -1.4483   0.0859 LP             1 S1                 0.0000
     37 ****         2.8609  -1.3327   1.3996 LP             1 S1                 0.0000
     38 ****         4.1200  -1.1395   0.2260 LP             1 S1                 0.0000
@<TRIPOS>BOND
    1    1    2 1     
    2    1   17 1     
    3    1   18 1     
    4    1   19 1     
    5    2    3 1     
    6    2    9 1     
    7    2   20 1     
    8    3    4 1     
    9    3   21 1     
   10    3   22 1     
   11    4    8 1     
   12    4    5 1     
   13    5    6 2     
   14    5   23 1     
   15    6    7 1     
   16    6   24 1     
   17    7    8 2     
   18    7   25 1     
   19    9   10 1     
   20    9   26 1     
   21   10   11 1     
   22   10   27 1     
   23   10   28 1     
   24   11   12 2     
   25   11   13 am    
   26   13   14 1     
   27   13   29 1     
   28   14   16 1     
   29   14   15 1     
   30   14   30 1     
   31   15   16 1     
   32   15   31 1     
   33   15   32 1     
   34   16   33 1     
   35   16   34 1     
   36    8   35 1     
   37    9   36 1     
   38   12   37 1     
   39   12   38 1     
@<TRIPOS>SUBSTRUCTURE
      1 S1             1
@<TRIPOS>SET
LONE_PAIRS      STATIC     ATOMS    <user>   **** ""
4 35 36 37 38
DONOR_HYDROGENS      STATIC     ATOMS    <user>   **** ""
2 26 29
ATOM$BLUE        STATIC     ATOMS    COLORGROUP SYSTEM
4 35 36 37 38
ATOM$RED        STATIC     ATOMS    COLORGROUP SYSTEM
2 26 29
