AV-unprocessed.smi:3237|AV-procd|sdf|12368|dock2
  -GOLD-   2272018233D 1   1.00000     0.00000
 Structure written by MMmdl.
 36 38  0  0  0  0  0  0  0  0  3 V2000
  149.5186  140.5199  154.2854 C   0  0  0  0  0  0  0  0  0  0  0  0
  149.7719  139.0964  154.6466 C   0  0  0  0  0  0  0  0  0  0  0  0
  150.6995  138.1836  154.2313 C   0  0  0  0  0  0  0  0  0  0  0  0
  150.3627  137.0184  154.9728 C   0  0  0  0  0  0  0  0  0  0  0  0
  150.9997  135.8384  154.9202 N   0  5  0  0  0  0  0  0  0  0  0  0
  150.3005  134.6838  155.0019 C   0  0  0  0  0  0  0  0  0  0  0  0
  150.4808  133.7725  155.8128 O   0  0  0  0  0  0  0  0  0  0  0  0
  149.3279  134.5790  154.0862 N   0  0  0  0  0  0  0  0  0  0  0  0
  148.4181  133.4486  153.9429 C   0  0  1  0  0  0  0  0  0  0  0  0
  147.3551  133.6220  152.8626 C   0  0  0  0  0  0  0  0  0  0  0  0
  146.9371  132.1765  152.5721 C   0  0  0  0  0  0  0  0  0  0  0  0
  148.1076  131.3204  152.8892 N   0  3  2  0  0  0  0  0  0  0  0  0
  147.7727  130.1492  153.7286 C   0  0  0  0  0  0  0  0  0  0  0  0
  148.5805  128.9172  153.3973 C   0  0  0  0  0  0  0  0  0  0  0  0
  147.1354  129.0169  152.9590 C   0  0  0  0  0  0  0  0  0  0  0  0
  149.1487  132.1911  153.4774 C   0  0  0  0  0  0  0  0  0  0  0  0
  149.3328  137.2119  155.7793 N   0  0  0  0  0  0  0  0  0  0  0  0
  148.9428  138.5401  155.5703 O   0  0  0  0  0  0  0  0  0  0  0  0
  150.4519  141.0312  154.0491 H   0  0  0  0  0  0  0  0  0  0  0  0
  149.0411  141.0535  155.1075 H   0  0  0  0  0  0  0  0  0  0  0  0
  148.8665  140.5853  153.4145 H   0  0  0  0  0  0  0  0  0  0  0  0
  151.4899  138.3245  153.5096 H   0  0  0  0  0  0  0  0  0  0  0  0
  149.2169  135.3468  153.4401 H   0  0  0  0  0  0  0  0  0  0  0  0
  147.9351  133.2412  154.9000 H   0  0  0  0  0  0  0  0  0  0  0  0
  146.5205  134.2471  153.1816 H   0  0  0  0  0  0  0  0  0  0  0  0
  147.7922  134.0713  151.9693 H   0  0  0  0  0  0  0  0  0  0  0  0
  146.0912  131.9098  153.2081 H   0  0  0  0  0  0  0  0  0  0  0  0
  146.6233  132.0422  151.5367 H   0  0  0  0  0  0  0  0  0  0  0  0
  147.4773  130.3572  154.7557 H   0  0  0  0  0  0  0  0  0  0  0  0
  149.3467  128.9955  152.6281 H   0  0  0  0  0  0  0  0  0  0  0  0
  148.8084  128.2333  154.2124 H   0  0  0  0  0  0  0  0  0  0  0  0
  146.4112  128.3979  153.4847 H   0  0  0  0  0  0  0  0  0  0  0  0
  146.9404  129.1610  151.8977 H   0  0  0  0  0  0  0  0  0  0  0  0
  149.8631  132.4358  152.6898 H   0  0  0  0  0  0  0  0  0  0  0  0
  149.7022  131.7082  154.2841 H   0  0  0  0  0  0  0  0  0  0  0  0
  148.4779  130.9674  152.0184 H   0  0  0  0  0  0  0  0  0  0  0  0
  1  2  1  0  0  0  0
  1 19  1  0  0  0  0
  1 20  1  0  0  0  0
  1 21  1  0  0  0  0
  2 18  1  0  0  0  0
  2  3  2  0  0  0  0
  3  4  1  0  0  0  0
  3 22  1  0  0  0  0
  4  5  1  0  0  0  0
  4 17  2  0  0  0  0
  5  6  1  0  0  0  0
  6  7  2  0  0  0  0
  6  8  1  0  0  0  0
  8  9  1  0  0  0  0
  8 23  1  0  0  0  0
  9 16  1  0  0  0  0
  9 10  1  0  0  0  0
  9 24  1  0  0  0  0
 10 11  1  0  0  0  0
 10 25  1  0  0  0  0
 10 26  1  0  0  0  0
 11 12  1  0  0  0  0
 11 27  1  0  0  0  0
 11 28  1  0  0  0  0
 12 13  1  0  0  0  0
 12 16  1  0  0  0  0
 12 36  1  0  0  0  0
 13 15  1  0  0  0  0
 13 14  1  0  0  0  0
 13 29  1  0  0  0  0
 14 15  1  0  0  0  0
 14 30  1  0  0  0  0
 14 31  1  0  0  0  0
 15 32  1  0  0  0  0
 15 33  1  0  0  0  0
 16 34  1  0  0  0  0
 16 35  1  0  0  0  0
 17 18  1  0  0  0  0
M  CHG  1   5  -1
M  CHG  1  12   1
M  END
> <s_m_source_file>
AV-unprocessed.smi

> <i_m_source_file_index>
3237

> <i_lp_mmshare_version>
43012

> <i_f3d_flags>
0

> <s_epik_input>
W0NIM11jMVtjSF1jKG5vMSlbTkhdQyg9TylbTkhdW0NAQEhdMltDSDJdW0NIMl1OKFtDSDJdMilbQ0hdM1tDSDJdW0NIMl0z

> <s_epik_cmdline>
J2VwaWtfcHl0aG9uJywgJy1waCcsICc3LjAnLCAnLXRuJywgJzgnLCAnLW1hJywgJzIwMCcsICctbWV0YWxfYmluZGluZycsICctaW1hZScsICc8aW5maWxlLm1hZT4nLCAnLW9tYWUnLCAnPG91dGZpbGUubWFlPic=

> <r_epik_Ionization_Penalty>
6.08472

> <r_epik_Ionization_Penalty_Charging>
6.08464

> <r_epik_Ionization_Penalty_Neutral>
8.41751e-05

> <r_epik_State_Penalty>
6.08438

> <r_epik_Charging_Adjusted_Penalty>
12.169

> <i_epik_Tot_Q>
0

> <i_epik_Tot_abs_Q>
2

> <r_epik_Metal_State_Penalty>
2.0369

> <b_epik_Metal_Only>
1

> <s_lp_Force_Field>
OPLS_2005

> <r_lp_Energy>
24.4971

> <b_lp_Chiralities_Consistent>
1

> <s_lp_Variant>
AV-unprocessed.smi:3237-6

> <Gold.Version>
5.8.1

> <Gold.Id.Protein>
6NUR|6NUR_protein|mol2

> <Gold.PLP.Fitness>
39.4194

> <Gold.PLP.PLP>
-29.0662

> <Gold.PLP.part.hbond>
-3.0000

> <Gold.PLP.part.metal>
0.0000

> <Gold.PLP.part.buried>
-2.5891

> <Gold.PLP.part.nonpolar>
-22.3468

> <Gold.PLP.part.repulsive>
0.2634

> <Gold.PLP.ligand.clash>
0.0000

> <Gold.PLP.ligand.torsion>
1.4581

> <Gold.PLP.Chemscore.Hbond>
4.0000

> <Gold.PLP.Chemscore.CHOScore>
0.0000

> <Gold.PLP.Chemscore.Metal>
0.0000

> <Gold.Chemscore.Hbonds>
donor molecule, donor type, donor heavy atom, donor atom, acceptor molecule, acceptor atom, score
      L1  H     8    23       P1  7948  1.00
      L1  H    12    36       P1 10747  1.00
      P1  H 10752 10763       L1     5  2.00

> <Gold.PLP.Chemscore.Internal.Correction>
1.2695

> <Gold.Rescore>
     Score         DG    S(hbond)    S(metal)    S(lipo)     H(rot)  DE(clash)    DE(int)     intcor
     15.91     -17.46       2.42        0.00      60.51       1.25       0.03       1.52       ----

> <Gold.Chemscore.Fitness>
15.9078

> <Gold.Chemscore.DG>
-17.4553

> <Gold.Chemscore.ZeroCoef>
-5.4800

> <Gold.Chemscore.Hbond>
2.4211

> <Gold.Chemscore.Metal>
0.0000

> <Gold.Chemscore.Lipo>
60.5106

> <Gold.Chemscore.Internal_Hbond>
0.0000

> <Gold.Chemscore.DEClash>
0.0282

> <Gold.Chemscore.DEInternal>
1.5192

> <Gold.Chemscore.Rot>
1.2464

> <Gold.Chemscore.Internal.Correction>
   9.000000E+99

> <Gold.Chemscore.Hbonds>
donor molecule, donor type, donor heavy atom, donor atom, acceptor molecule, acceptor atom, score
      L1  H     8    23       P1  7948  0.30
      L1  H    12    36       P1 10747  0.97
      P1  H 10752 10763       L1     5  0.79

> <Gold.Chemscore.Hbond.Weighted>
-8.0864

> <Gold.Chemscore.Metal.Weighted>
-0.0000

> <Gold.Chemscore.Lipo.Weighted>
-7.0797

> <Gold.Chemscore.Internal_Hbond.Weighted>
0.0000

> <Gold.Chemscore.DEClash.Weighted>
0.0282

> <Gold.Chemscore.DEInternal.Weighted>
1.5192

> <Gold.Chemscore.Rot.Weighted>
3.1909

> <Gold.Chemscore.Internal.Correction.Weighted>
   9.000000E+99

> <Gold.Protein.RotatedTorsions>
[ 6907 6896 6895 6894 ] final  -38.18 input  -60.11 | X-H torsion
[ 7974 7965 7964 7962 ] final  -40.76 input  175.53 | X-H torsion
[ 8008 7997 7996 7995 ] final  105.34 input   59.86 | X-H torsion
[ 10167 10162 10161 10158 ] final -140.64 input  -65.29 | X-H torsion
[ 10718 10713 10712 10709 ] final -140.60 input   66.30 | X-H torsion
[ 10763 10752 10751 10750 ] final   69.92 input  -60.55 | X-H torsion
[ 11005 11000 10999 10996 ] final  105.62 input  -57.11 | X-H torsion

> <Gold.Protein.ActiveResidues>
 VAL166  LYS551  ARG553  GLY616  TRP617  ASP618  TYR619  PRO620  LYS621  CYS622 
 ASP623  PHE694  ASN695  SER759  ASP760  ASP761  ALA762  ILE779  LEU786  VAL792 
 PHE793  MET794  SER795  GLU796  ALA797  LYS798  CYS799  TRP800  GLU811  SER814 

> <Gold.Protein.RotatedAtoms>
  151.0056  134.9356  159.7977 H   0  0  0  0  0  0  0  0  0  0  0  0  # atno 6907 bound_to 6896
  152.5289  134.3097  159.9119 H   0  0  0  0  0  0  0  0  0  0  0  0  # atno 6908 bound_to 6896
  151.3102  133.4042  159.2680 H   0  0  0  0  0  0  0  0  0  0  0  0  # atno 6909 bound_to 6896
  146.0275  140.6774  142.9149 H   0  0  0  0  0  0  0  0  0  0  0  0  # atno 7974 bound_to 7965
  156.1650  140.3132  155.8873 H   0  0  0  0  0  0  0  0  0  0  0  0  # atno 8008 bound_to 7997
  155.3704  140.0481  157.3062 H   0  0  0  0  0  0  0  0  0  0  0  0  # atno 8009 bound_to 7997
  154.5184  140.2189  155.9033 H   0  0  0  0  0  0  0  0  0  0  0  0  # atno 8010 bound_to 7997
  139.8262  143.7508  152.2666 H   0  0  0  0  0  0  0  0  0  0  0  0  # atno 10167 bound_to 10162
  156.3242  130.7551  151.1655 H   0  0  0  0  0  0  0  0  0  0  0  0  # atno 10718 bound_to 10713
  153.0313  135.5193  154.7362 H   0  0  0  0  0  0  0  0  0  0  0  0  # atno 10763 bound_to 10752
  154.6375  135.2908  155.0145 H   0  0  0  0  0  0  0  0  0  0  0  0  # atno 10764 bound_to 10752
  154.1075  135.6627  153.4931 H   0  0  0  0  0  0  0  0  0  0  0  0  # atno 10765 bound_to 10752
  139.8804  134.9342  156.5541 H   0  0  0  0  0  0  0  0  0  0  0  0  # atno 11005 bound_to 11000
  144.7016  140.3676  143.7152 LP  0  0  0  0  0  0  0  0  0  0  0  0  # atno 17320 bound_to 7965
  145.7095  139.1681  143.2547 LP  0  0  0  0  0  0  0  0  0  0  0  0  # atno 17321 bound_to 7965
  139.7702  144.7479  151.0236 LP  0  0  0  0  0  0  0  0  0  0  0  0  # atno 17342 bound_to 10162
  140.7810  143.4654  151.0220 LP  0  0  0  0  0  0  0  0  0  0  0  0  # atno 17343 bound_to 10162
  157.7418  131.0499  150.5071 LP  0  0  0  0  0  0  0  0  0  0  0  0  # atno 17370 bound_to 10713
  156.5228  130.4166  149.6242 LP  0  0  0  0  0  0  0  0  0  0  0  0  # atno 17371 bound_to 10713
  140.8218  133.8347  155.8903 LP  0  0  0  0  0  0  0  0  0  0  0  0  # atno 17394 bound_to 11000
  140.9411  134.1900  157.4797 LP  0  0  0  0  0  0  0  0  0  0  0  0  # atno 17395 bound_to 11000

$$$$
