AV-unprocessed.smi:47|AV-procd|sdf|439|dock2
  -GOLD-   2262016313D 1   1.00000     0.00000
 Structure written by MMmdl.
 32 34  0  0  0  0  0  0  0  0  2 V2000
  154.2740  135.8263  164.6408 O   0  0  0  0  0  0  0  0  0  0  0  0
  154.2454  137.1566  164.1671 C   0  0  1  0  0  0  0  0  0  0  0  0
  155.6441  137.7885  164.2119 C   0  0  0  0  0  0  0  0  0  0  0  0
  155.7350  138.6205  163.0035 N   0  3  0  0  0  0  0  0  0  0  0  0
  154.9627  137.9198  161.9640 C   0  0  2  0  0  0  0  0  0  0  0  0
  154.5530  138.9784  160.9841 C   0  0  0  0  0  0  0  0  0  0  0  0
  154.7084  138.9187  159.6591 N   0  0  0  0  0  0  0  0  0  0  0  0
  154.2024  140.1116  159.1785 N   0  0  0  0  0  0  0  0  0  0  0  0
  153.7825  140.8058  160.2463 C   0  0  0  0  0  0  0  0  0  0  0  0
  153.1782  142.1381  160.1752 C   0  0  0  0  0  0  0  0  0  0  0  0
  152.8290  142.8312  161.3577 C   0  0  0  0  0  0  0  0  0  0  0  0
  152.2519  144.1143  161.2894 C   0  0  0  0  0  0  0  0  0  0  0  0
  152.0204  144.7185  160.0395 C   0  0  0  0  0  0  0  0  0  0  0  0
  152.3659  144.0379  158.8573 C   0  0  0  0  0  0  0  0  0  0  0  0
  152.9416  142.7542  158.9242 C   0  0  0  0  0  0  0  0  0  0  0  0
  153.9881  140.1244  161.3875 N   0  0  0  0  0  0  0  0  0  0  0  0
  153.8064  137.2244  162.6947 C   0  0  0  0  0  0  0  0  0  0  0  0
  153.5561  137.7376  164.7814 H   0  0  0  0  0  0  0  0  0  0  0  0
  155.6098  137.1833  161.4849 H   0  0  0  0  0  0  0  0  0  0  0  0
  153.7715  140.4161  162.3298 H   0  0  0  0  0  0  0  0  0  0  0  0
  155.1674  135.5167  164.6224 H   0  0  0  0  0  0  0  0  0  0  0  0
  155.8184  138.3686  165.1186 H   0  0  0  0  0  0  0  0  0  0  0  0
  156.4182  137.0219  164.1485 H   0  0  0  0  0  0  0  0  0  0  0  0
  155.2815  139.5044  163.1875 H   0  0  0  0  0  0  0  0  0  0  0  0
  152.9966  142.3874  162.3278 H   0  0  0  0  0  0  0  0  0  0  0  0
  151.9869  144.6362  162.1970 H   0  0  0  0  0  0  0  0  0  0  0  0
  151.5792  145.7029  159.9877 H   0  0  0  0  0  0  0  0  0  0  0  0
  152.1903  144.5009  157.8973 H   0  0  0  0  0  0  0  0  0  0  0  0
  153.2009  142.2511  158.0043 H   0  0  0  0  0  0  0  0  0  0  0  0
  153.5902  136.2485  162.2579 H   0  0  0  0  0  0  0  0  0  0  0  0
  152.8922  137.8161  162.6257 H   0  0  0  0  0  0  0  0  0  0  0  0
  156.6918  138.7771  162.7201 H   0  0  0  0  0  0  0  0  0  0  0  0
  1  2  1  0  0  0  0
  1 21  1  0  0  0  0
  2 18  1  0  0  0  0
  2 17  1  0  0  0  0
  2  3  1  0  0  0  0
  3  4  1  0  0  0  0
  3 22  1  0  0  0  0
  3 23  1  0  0  0  0
  4  5  1  0  0  0  0
  4 24  1  0  0  0  0
  4 32  1  0  0  0  0
  5 19  1  0  0  0  0
  5 17  1  0  0  0  0
  5  6  1  0  0  0  0
  6  7  2  0  0  0  0
  6 16  1  0  0  0  0
  7  8  1  0  0  0  0
  8  9  2  0  0  0  0
  9 16  1  0  0  0  0
  9 10  1  0  0  0  0
 10 15  1  0  0  0  0
 10 11  2  0  0  0  0
 11 12  1  0  0  0  0
 11 25  1  0  0  0  0
 12 13  2  0  0  0  0
 12 26  1  0  0  0  0
 13 14  1  0  0  0  0
 13 27  1  0  0  0  0
 14 15  2  0  0  0  0
 14 28  1  0  0  0  0
 15 29  1  0  0  0  0
 16 20  1  0  0  0  0
 17 30  1  0  0  0  0
 17 31  1  0  0  0  0
M  CHG  1   4   1
M  END
> <s_m_source_file>
AV-unprocessed.smi

> <i_m_source_file_index>
47

> <i_lp_mmshare_version>
43012

> <i_f3d_flags>
0

> <s_epik_input>
W09IXVtDQEhdMVtDSDJdW05IXVtDQEBIXShbQ0gyXTEpYzJuW25IXWMobjIpLWMzW2NIXVtjSF1bY0hdW2NIXVtjSF0z

> <s_epik_cmdline>
J2VwaWtfcHl0aG9uJywgJy1waCcsICc3LjAnLCAnLXRuJywgJzgnLCAnLW1hJywgJzIwMCcsICctbWV0YWxfYmluZGluZycsICctaW1hZScsICc8aW5maWxlLm1hZT4nLCAnLW9tYWUnLCAnPG91dGZpbGUubWFlPic=

> <r_lp_tautomer_probability>
0.0517155

> <r_epik_Ionization_Penalty>
2.45729

> <r_epik_Ionization_Penalty_Charging>
0.0688988

> <r_epik_Ionization_Penalty_Neutral>
2.3884

> <r_epik_State_Penalty>
2.69236

> <r_epik_Charging_Adjusted_Penalty>
2.76126

> <i_epik_Tot_Q>
1

> <i_epik_Tot_abs_Q>
1

> <r_epik_Metal_State_Penalty>
3.18974

> <b_epik_Metal_Only>
0

> <s_lp_Force_Field>
OPLS_2005

> <r_lp_Energy>
30.5648

> <b_lp_Chiralities_Consistent>
1

> <s_lp_Variant>
AV-unprocessed.smi:47-17

> <Gold.Version>
5.8.1

> <Gold.Id.Protein>
6NUR|6NUR_protein|mol2

> <Gold.PLP.Fitness>
44.6782

> <Gold.PLP.PLP>
-42.1011

> <Gold.PLP.part.hbond>
-1.8454

> <Gold.PLP.part.metal>
0.0000

> <Gold.PLP.part.buried>
-5.0663

> <Gold.PLP.part.nonpolar>
-33.7177

> <Gold.PLP.part.repulsive>
0.0172

> <Gold.PLP.ligand.clash>
0.0000

> <Gold.PLP.ligand.torsion>
0.1588

> <Gold.PLP.Chemscore.Hbond>
0.9600

> <Gold.PLP.Chemscore.CHOScore>
0.0000

> <Gold.PLP.Chemscore.Metal>
0.0000

> <Gold.Chemscore.Hbonds>
donor molecule, donor type, donor heavy atom, donor atom, acceptor molecule, acceptor atom, score
      P1  H  7997  8010       L1     8  0.87

> <Gold.PLP.Chemscore.Internal.Correction>
0.0148

> <Gold.Rescore>
     Score         DG    S(hbond)    S(metal)    S(lipo)     H(rot)  DE(clash)    DE(int)     intcor
     15.89     -16.12       0.69        0.00     104.05       1.50       0.13       0.10       ----

> <Gold.Chemscore.Fitness>
15.8881

> <Gold.Chemscore.DG>
-16.1242

> <Gold.Chemscore.ZeroCoef>
-5.4800

> <Gold.Chemscore.Hbond>
0.6892

> <Gold.Chemscore.Metal>
0.0000

> <Gold.Chemscore.Lipo>
104.0484

> <Gold.Chemscore.Internal_Hbond>
0.0000

> <Gold.Chemscore.DEClash>
0.1317

> <Gold.Chemscore.DEInternal>
0.1044

> <Gold.Chemscore.Rot>
1.4966

> <Gold.Chemscore.Internal.Correction>
   9.000000E+99

> <Gold.Chemscore.Hbonds>
donor molecule, donor type, donor heavy atom, donor atom, acceptor molecule, acceptor atom, score
      P1  H  7997  8010       L1     8  0.15

> <Gold.Chemscore.Hbond.Weighted>
-2.3018

> <Gold.Chemscore.Metal.Weighted>
-0.0000

> <Gold.Chemscore.Lipo.Weighted>
-12.1737

> <Gold.Chemscore.Internal_Hbond.Weighted>
0.0000

> <Gold.Chemscore.DEClash.Weighted>
0.1317

> <Gold.Chemscore.DEInternal.Weighted>
0.1044

> <Gold.Chemscore.Rot.Weighted>
3.8312

> <Gold.Chemscore.Internal.Correction.Weighted>
   9.000000E+99

> <Gold.Protein.RotatedTorsions>
[ 6907 6896 6895 6894 ] final -110.28 input  -60.11 | X-H torsion
[ 7974 7965 7964 7962 ] final  -41.25 input  175.53 | X-H torsion
[ 8008 7997 7996 7995 ] final    4.70 input   59.86 | X-H torsion
[ 10167 10162 10161 10158 ] final  151.36 input  -65.29 | X-H torsion
[ 10718 10713 10712 10709 ] final   45.97 input   66.30 | X-H torsion
[ 10763 10752 10751 10750 ] final  167.48 input  -60.55 | X-H torsion
[ 11005 11000 10999 10996 ] final  -95.63 input  -57.11 | X-H torsion

> <Gold.Protein.ActiveResidues>
 VAL166  LYS551  ARG553  GLY616  TRP617  ASP618  TYR619  PRO620  LYS621  CYS622 
 ASP623  PHE694  ASN695  SER759  ASP760  ASP761  ALA762  ILE779  LEU786  VAL792 
 PHE793  MET794  SER795  GLU796  ALA797  LYS798  CYS799  TRP800  GLU811  SER814 

> <Gold.Protein.RotatedAtoms>
  150.7615  133.9405  159.3454 H   0  0  0  0  0  0  0  0  0  0  0  0  # atno 6907 bound_to 6896
  151.7313  135.0872  160.0310 H   0  0  0  0  0  0  0  0  0  0  0  0  # atno 6908 bound_to 6896
  152.3588  133.6233  159.6035 H   0  0  0  0  0  0  0  0  0  0  0  0  # atno 6909 bound_to 6896
  146.0229  140.6828  142.9170 H   0  0  0  0  0  0  0  0  0  0  0  0  # atno 7974 bound_to 7965
  154.7192  140.2708  155.6557 H   0  0  0  0  0  0  0  0  0  0  0  0  # atno 8008 bound_to 7997
  156.2818  140.2738  156.1782 H   0  0  0  0  0  0  0  0  0  0  0  0  # atno 8009 bound_to 7997
  155.0530  140.0371  157.2540 H   0  0  0  0  0  0  0  0  0  0  0  0  # atno 8010 bound_to 7997
  139.4841  144.5447  151.7505 H   0  0  0  0  0  0  0  0  0  0  0  0  # atno 10167 bound_to 10162
  157.4432  130.8093  149.7714 H   0  0  0  0  0  0  0  0  0  0  0  0  # atno 10718 bound_to 10713
  154.3545  135.2753  155.2354 H   0  0  0  0  0  0  0  0  0  0  0  0  # atno 10763 bound_to 10752
  154.4568  135.5917  153.6232 H   0  0  0  0  0  0  0  0  0  0  0  0  # atno 10764 bound_to 10752
  152.9847  135.6055  154.3759 H   0  0  0  0  0  0  0  0  0  0  0  0  # atno 10765 bound_to 10752
  141.1436  133.8040  157.0461 H   0  0  0  0  0  0  0  0  0  0  0  0  # atno 11005 bound_to 11000
  144.6997  140.3598  143.7166 LP  0  0  0  0  0  0  0  0  0  0  0  0  # atno 17320 bound_to 7965
  145.7165  139.1698  143.2509 LP  0  0  0  0  0  0  0  0  0  0  0  0  # atno 17321 bound_to 7965
  140.4991  144.1195  150.5967 LP  0  0  0  0  0  0  0  0  0  0  0  0  # atno 17342 bound_to 10162
  140.4082  143.2670  151.9865 LP  0  0  0  0  0  0  0  0  0  0  0  0  # atno 17343 bound_to 10162
  155.9957  130.3910  150.2809 LP  0  0  0  0  0  0  0  0  0  0  0  0  # atno 17370 bound_to 10713
  157.0976  131.0187  151.3098 LP  0  0  0  0  0  0  0  0  0  0  0  0  # atno 17371 bound_to 10713
  140.0662  134.9728  157.1389 LP  0  0  0  0  0  0  0  0  0  0  0  0  # atno 17394 bound_to 11000
  140.3777  134.2321  155.7173 LP  0  0  0  0  0  0  0  0  0  0  0  0  # atno 17395 bound_to 11000

$$$$
