AV-unprocessed.smi:1518|AV-procd|sdf|6124|dock7
  -GOLD-   22720 6263D 1   1.00000     0.00000
 Structure written by MMmdl.
 45 47  0  0  0  0  0  0  0  0  1 V2000
  154.4470  140.5965  161.3577 C   0  0  0  0  0  0  0  0  0  0  0  0
  154.1578  140.6579  159.8586 C   0  0  0  0  0  0  0  0  0  0  0  0
  154.7235  139.8558  159.1162 O   0  0  0  0  0  0  0  0  0  0  0  0
  153.2028  141.6954  159.3729 C   0  0  0  0  0  0  0  0  0  0  0  0
  153.0849  142.9106  160.0841 C   0  0  0  0  0  0  0  0  0  0  0  0
  152.1913  143.9067  159.6513 C   0  0  0  0  0  0  0  0  0  0  0  0
  151.4080  143.6985  158.5023 C   0  0  0  0  0  0  0  0  0  0  0  0
  151.5081  142.4982  157.7722 C   0  0  0  0  0  0  0  0  0  0  0  0
  150.7033  142.3807  156.6595 O   0  0  0  0  0  0  0  0  0  0  0  0
  151.1042  141.4960  155.6206 C   0  0  0  0  0  0  0  0  0  0  0  0
  149.8691  140.8093  155.0163 C   0  0  2  0  0  0  0  0  0  0  0  0
  149.1530  140.1551  156.0446 O   0  0  0  0  0  0  0  0  0  0  0  0
  150.2052  139.8528  153.8532 C   0  0  0  0  0  0  0  0  0  0  0  0
  150.6778  138.5532  154.3104 N   0  0  0  0  0  0  0  0  0  0  0  0
  151.9598  138.1296  154.4450 C   0  0  0  0  0  0  0  0  0  0  0  0
  153.1194  139.0278  154.1181 C   0  0  0  0  0  0  0  0  0  0  0  0
  153.8770  139.4211  155.2446 O   0  0  0  0  0  0  0  0  0  0  0  0
  152.1098  136.8816  154.8958 N   0  0  0  0  0  0  0  0  0  0  0  0
  150.8065  136.4585  155.0674 C   0  0  0  0  0  0  0  0  0  0  0  0
  150.2943  135.2231  155.5242 C   0  0  0  0  0  0  0  0  0  0  0  0
  148.9021  135.0190  155.6201 C   0  0  0  0  0  0  0  0  0  0  0  0
  148.0042  136.0452  155.2617 C   0  0  0  0  0  0  0  0  0  0  0  0
  148.4937  137.2839  154.8049 C   0  0  0  0  0  0  0  0  0  0  0  0
  149.8844  137.4824  154.7107 C   0  0  0  0  0  0  0  0  0  0  0  0
  152.4116  141.4984  158.2148 C   0  0  0  0  0  0  0  0  0  0  0  0
  153.5409  140.3494  161.9108 H   0  0  0  0  0  0  0  0  0  0  0  0
  154.8281  141.5537  161.7141 H   0  0  0  0  0  0  0  0  0  0  0  0
  155.1953  139.8328  161.5711 H   0  0  0  0  0  0  0  0  0  0  0  0
  153.6767  143.0918  160.9700 H   0  0  0  0  0  0  0  0  0  0  0  0
  152.1067  144.8320  160.2015 H   0  0  0  0  0  0  0  0  0  0  0  0
  150.7239  144.4686  158.1771 H   0  0  0  0  0  0  0  0  0  0  0  0
  151.6623  142.0261  154.8467 H   0  0  0  0  0  0  0  0  0  0  0  0
  151.7590  140.7289  156.0369 H   0  0  0  0  0  0  0  0  0  0  0  0
  149.2069  141.5922  154.6462 H   0  0  0  0  0  0  0  0  0  0  0  0
  149.5405  139.3045  156.1846 H   0  0  0  0  0  0  0  0  0  0  0  0
  149.3305  139.7079  153.2188 H   0  0  0  0  0  0  0  0  0  0  0  0
  150.9722  140.2870  153.2108 H   0  0  0  0  0  0  0  0  0  0  0  0
  153.7872  138.5221  153.4214 H   0  0  0  0  0  0  0  0  0  0  0  0
  152.7441  139.9222  153.6203 H   0  0  0  0  0  0  0  0  0  0  0  0
  153.3271  139.3672  156.0109 H   0  0  0  0  0  0  0  0  0  0  0  0
  150.9743  134.4313  155.8017 H   0  0  0  0  0  0  0  0  0  0  0  0
  148.5216  134.0707  155.9702 H   0  0  0  0  0  0  0  0  0  0  0  0
  146.9392  135.8808  155.3376 H   0  0  0  0  0  0  0  0  0  0  0  0
  147.8083  138.0711  154.5284 H   0  0  0  0  0  0  0  0  0  0  0  0
  152.4998  140.5749  157.6652 H   0  0  0  0  0  0  0  0  0  0  0  0
  1  2  1  0  0  0  0
  1 26  1  0  0  0  0
  1 27  1  0  0  0  0
  1 28  1  0  0  0  0
  2  3  2  0  0  0  0
  2  4  1  0  0  0  0
  4 25  1  0  0  0  0
  4  5  2  0  0  0  0
  5  6  1  0  0  0  0
  5 29  1  0  0  0  0
  6  7  2  0  0  0  0
  6 30  1  0  0  0  0
  7  8  1  0  0  0  0
  7 31  1  0  0  0  0
  8  9  1  0  0  0  0
  8 25  2  0  0  0  0
  9 10  1  0  0  0  0
 10 11  1  0  0  0  0
 10 32  1  0  0  0  0
 10 33  1  0  0  0  0
 11 12  1  0  0  0  0
 11 13  1  0  0  0  0
 11 34  1  0  0  0  0
 12 35  1  0  0  0  0
 13 14  1  0  0  0  0
 13 36  1  0  0  0  0
 13 37  1  0  0  0  0
 14 24  1  0  0  0  0
 14 15  1  0  0  0  0
 15 16  1  0  0  0  0
 15 18  2  0  0  0  0
 16 17  1  0  0  0  0
 16 38  1  0  0  0  0
 16 39  1  0  0  0  0
 17 40  1  0  0  0  0
 18 19  1  0  0  0  0
 19 24  2  0  0  0  0
 19 20  1  0  0  0  0
 20 21  2  0  0  0  0
 20 41  1  0  0  0  0
 21 22  1  0  0  0  0
 21 42  1  0  0  0  0
 22 23  2  0  0  0  0
 22 43  1  0  0  0  0
 23 24  1  0  0  0  0
 23 44  1  0  0  0  0
 25 45  1  0  0  0  0
M  END
> <s_m_source_file>
AV-unprocessed.smi

> <i_m_source_file_index>
1518

> <i_lp_mmshare_version>
43012

> <i_f3d_flags>
0

> <s_epik_input>
W0NIM11DKD1PKWMxW2NIXVtjSF1bY0hdYyhbY0hdMSlPW0NIMl1bQ0BIXShbT0hdKVtDSDJdbihjKG4yKVtDSDJdW09IXSljKGMyMylbY0hdW2NIXVtjSF1bY0hdMw==

> <s_epik_cmdline>
J2VwaWtfcHl0aG9uJywgJy1waCcsICc3LjAnLCAnLXRuJywgJzgnLCAnLW1hJywgJzIwMCcsICctbWV0YWxfYmluZGluZycsICctaW1hZScsICc8aW5maWxlLm1hZT4nLCAnLW9tYWUnLCAnPG91dGZpbGUubWFlPic=

> <r_lp_tautomer_probability>
0.99995

> <r_epik_Ionization_Penalty>
0.0583159

> <r_epik_Ionization_Penalty_Charging>
0

> <r_epik_Ionization_Penalty_Neutral>
0.0583159

> <r_epik_State_Penalty>
0.0503525

> <r_epik_Charging_Adjusted_Penalty>
0.0503525

> <i_epik_Tot_Q>
0

> <i_epik_Tot_abs_Q>
0

> <r_epik_Metal_State_Penalty>
5.25517e-05

> <b_epik_Metal_Only>
0

> <s_lp_Force_Field>
OPLS_2005

> <r_lp_Energy>
22.7276

> <b_lp_Chiralities_Consistent>
1

> <s_lp_Variant>
AV-unprocessed.smi:1518-1

> <Gold.Version>
5.8.1

> <Gold.Id.Protein>
6NUR|6NUR_protein|mol2

> <Gold.PLP.Fitness>
51.1848

> <Gold.PLP.PLP>
-45.2885

> <Gold.PLP.part.hbond>
-2.7634

> <Gold.PLP.part.metal>
0.0000

> <Gold.PLP.part.buried>
-6.0229

> <Gold.PLP.part.nonpolar>
-36.5328

> <Gold.PLP.part.repulsive>
0.5593

> <Gold.PLP.ligand.clash>
0.0000

> <Gold.PLP.ligand.torsion>
1.5140

> <Gold.PLP.Chemscore.Hbond>
2.9440

> <Gold.PLP.Chemscore.CHOScore>
0.0000

> <Gold.PLP.Chemscore.Metal>
0.0000

> <Gold.Chemscore.Hbonds>
donor molecule, donor type, donor heavy atom, donor atom, acceptor molecule, acceptor atom, score
      P1  H  7997  8008       L1    17  0.03
      P1  H  7997  8010       L1     3  1.00
      P1  H 10752 10763       L1    18  0.90

> <Gold.PLP.Chemscore.Internal.Correction>
0.0924

> <Gold.Rescore>
     Score         DG    S(hbond)    S(metal)    S(lipo)     H(rot)  DE(clash)    DE(int)     intcor
     17.65     -19.17       2.57        0.00     114.70       3.25       0.02       1.51       ----

> <Gold.Chemscore.Fitness>
17.6473

> <Gold.Chemscore.DG>
-19.1721

> <Gold.Chemscore.ZeroCoef>
-5.4800

> <Gold.Chemscore.Hbond>
2.5711

> <Gold.Chemscore.Metal>
0.0000

> <Gold.Chemscore.Lipo>
114.7005

> <Gold.Chemscore.Internal_Hbond>
0.0000

> <Gold.Chemscore.DEClash>
0.0187

> <Gold.Chemscore.DEInternal>
1.5061

> <Gold.Chemscore.Rot>
3.2482

> <Gold.Chemscore.Internal.Correction>
   9.000000E+99

> <Gold.Chemscore.Hbonds>
donor molecule, donor type, donor heavy atom, donor atom, acceptor molecule, acceptor atom, score
      P1  H  7997  8010       L1     3  0.98
      P1  H 10752 10763       L1    18  0.52

> <Gold.Chemscore.Hbond.Weighted>
-8.5876

> <Gold.Chemscore.Metal.Weighted>
-0.0000

> <Gold.Chemscore.Lipo.Weighted>
-13.4200

> <Gold.Chemscore.Internal_Hbond.Weighted>
0.0000

> <Gold.Chemscore.DEClash.Weighted>
0.0187

> <Gold.Chemscore.DEInternal.Weighted>
1.5061

> <Gold.Chemscore.Rot.Weighted>
8.3155

> <Gold.Chemscore.Internal.Correction.Weighted>
   9.000000E+99

> <Gold.Protein.RotatedTorsions>
[ 6907 6896 6895 6894 ] final  -19.88 input  -60.11 | X-H torsion
[ 7974 7965 7964 7962 ] final -164.01 input  175.53 | X-H torsion
[ 8008 7997 7996 7995 ] final   -6.97 input   59.86 | X-H torsion
[ 10167 10162 10161 10158 ] final -158.02 input  -65.29 | X-H torsion
[ 10718 10713 10712 10709 ] final -174.55 input   66.30 | X-H torsion
[ 10763 10752 10751 10750 ] final   67.45 input  -60.55 | X-H torsion
[ 11005 11000 10999 10996 ] final  155.32 input  -57.11 | X-H torsion

> <Gold.Protein.ActiveResidues>
 VAL166  LYS551  ARG553  GLY616  TRP617  ASP618  TYR619  PRO620  LYS621  CYS622 
 ASP623  PHE694  ASN695  SER759  ASP760  ASP761  ALA762  ILE779  LEU786  VAL792 
 PHE793  MET794  SER795  GLU796  ALA797  LYS798  CYS799  TRP800  GLU811  SER814 

> <Gold.Protein.RotatedAtoms>
  151.2565  135.0639  159.9081 H   0  0  0  0  0  0  0  0  0  0  0  0  # atno 6907 bound_to 6896
  152.5372  134.0277  159.8020 H   0  0  0  0  0  0  0  0  0  0  0  0  # atno 6908 bound_to 6896
  151.0493  133.5588  159.2675 H   0  0  0  0  0  0  0  0  0  0  0  0  # atno 6909 bound_to 6896
  144.7309  140.3023  143.6202 H   0  0  0  0  0  0  0  0  0  0  0  0  # atno 7974 bound_to 7965
  154.5884  140.2419  155.7955 H   0  0  0  0  0  0  0  0  0  0  0  0  # atno 8008 bound_to 7997
  156.2230  140.2991  155.9952 H   0  0  0  0  0  0  0  0  0  0  0  0  # atno 8009 bound_to 7997
  155.2417  140.0407  157.2966 H   0  0  0  0  0  0  0  0  0  0  0  0  # atno 8010 bound_to 7997
  139.6725  143.9721  152.2291 H   0  0  0  0  0  0  0  0  0  0  0  0  # atno 10167 bound_to 10162
  156.7867  130.9503  151.3120 H   0  0  0  0  0  0  0  0  0  0  0  0  # atno 10718 bound_to 10713
  153.0187  135.5283  154.6981 H   0  0  0  0  0  0  0  0  0  0  0  0  # atno 10763 bound_to 10752
  154.6098  135.2877  155.0447 H   0  0  0  0  0  0  0  0  0  0  0  0  # atno 10764 bound_to 10752
  154.1473  135.6568  153.5008 H   0  0  0  0  0  0  0  0  0  0  0  0  # atno 10765 bound_to 10752
  140.1571  134.8635  157.2527 H   0  0  0  0  0  0  0  0  0  0  0  0  # atno 11005 bound_to 11000
  145.7748  139.1870  143.2191 LP  0  0  0  0  0  0  0  0  0  0  0  0  # atno 17320 bound_to 7965
  146.0882  140.7687  142.9608 LP  0  0  0  0  0  0  0  0  0  0  0  0  # atno 17321 bound_to 7965
  139.9489  144.6633  150.8192 LP  0  0  0  0  0  0  0  0  0  0  0  0  # atno 17342 bound_to 10162
  140.7623  143.3195  151.2654 LP  0  0  0  0  0  0  0  0  0  0  0  0  # atno 17343 bound_to 10162
  157.6620  130.8974  149.9850 LP  0  0  0  0  0  0  0  0  0  0  0  0  # atno 17370 bound_to 10713
  156.1184  130.3647  149.9929 LP  0  0  0  0  0  0  0  0  0  0  0  0  # atno 17371 bound_to 10713
  140.2535  134.3655  155.7433 LP  0  0  0  0  0  0  0  0  0  0  0  0  # atno 17394 bound_to 11000
  141.2205  133.7329  156.8971 LP  0  0  0  0  0  0  0  0  0  0  0  0  # atno 17395 bound_to 11000

$$$$
