AV-unprocessed.smi:101|AV-procd|sdf|916|dock9
  -GOLD-   2262017413D 1   1.00000     0.00000
 Structure written by MMmdl.
 44 46  0  0  0  0  0  0  0  0  1 V2000
  151.1163  133.6218  153.7052 C   0  0  0  0  0  0  0  0  0  0  0  0
  149.9135  134.4946  154.0233 C   0  0  0  0  0  0  0  0  0  0  0  0
  150.0346  135.7164  154.6031 C   0  0  0  0  0  0  0  0  0  0  0  0
  148.9540  136.5355  154.9060 N   0  0  0  0  0  0  0  0  0  0  0  0
  149.1251  137.8978  155.5504 C   0  0  1  0  0  0  0  0  0  0  0  0
  150.4783  138.1129  155.8343 O   0  0  0  0  0  0  0  0  0  0  0  0
  150.9810  139.1675  155.0215 C   0  0  2  0  0  0  0  0  0  0  0  0
  152.1996  139.8224  155.6866 C   0  0  0  0  0  0  0  0  0  0  0  0
  151.8328  140.3807  156.9385 O   0  0  0  0  0  0  0  0  0  0  0  0
  152.6746  140.3061  157.9862 C   0  0  0  0  0  0  0  0  0  0  0  0
  153.4804  139.3879  158.1510 O   0  0  0  0  0  0  0  0  0  0  0  0
  152.5280  141.4530  158.9281 C   0  0  0  0  0  0  0  0  0  0  0  0
  151.7436  142.5669  158.5474 C   0  0  0  0  0  0  0  0  0  0  0  0
  151.5892  143.6654  159.4152 C   0  0  0  0  0  0  0  0  0  0  0  0
  152.2173  143.6639  160.6741 C   0  0  0  0  0  0  0  0  0  0  0  0
  153.0003  142.5621  161.0648 C   0  0  0  0  0  0  0  0  0  0  0  0
  153.1557  141.4621  160.1987 C   0  0  0  0  0  0  0  0  0  0  0  0
  149.7683  140.0743  154.8188 C   0  0  1  0  0  0  0  0  0  0  0  0
  149.9129  140.9559  153.7209 O   0  0  0  0  0  0  0  0  0  0  0  0
  148.6411  139.0609  154.6484 C   0  0  1  0  0  0  0  0  0  0  0  0
  148.4596  138.6864  153.2902 O   0  0  0  0  0  0  0  0  0  0  0  0
  147.6503  136.1029  154.5890 C   0  0  0  0  0  0  0  0  0  0  0  0
  146.6509  136.7871  154.8059 O   0  0  0  0  0  0  0  0  0  0  0  0
  147.5250  134.8477  153.9972 N   0  0  0  0  0  0  0  0  0  0  0  0
  148.5807  133.9877  153.6851 C   0  0  0  0  0  0  0  0  0  0  0  0
  148.3437  132.8998  153.1627 O   0  0  0  0  0  0  0  0  0  0  0  0
  146.5925  134.5339  153.7708 H   0  0  0  0  0  0  0  0  0  0  0  0
  152.0526  134.1060  153.9835 H   0  0  0  0  0  0  0  0  0  0  0  0
  151.1584  133.4031  152.6376 H   0  0  0  0  0  0  0  0  0  0  0  0
  151.0549  132.6772  154.2469 H   0  0  0  0  0  0  0  0  0  0  0  0
  151.0314  136.0599  154.8327 H   0  0  0  0  0  0  0  0  0  0  0  0
  148.6040  137.8495  156.5085 H   0  0  0  0  0  0  0  0  0  0  0  0
  151.2801  138.7428  154.0619 H   0  0  0  0  0  0  0  0  0  0  0  0
  152.9874  139.0819  155.8306 H   0  0  0  0  0  0  0  0  0  0  0  0
  152.5997  140.6043  155.0394 H   0  0  0  0  0  0  0  0  0  0  0  0
  151.2517  142.5912  157.5856 H   0  0  0  0  0  0  0  0  0  0  0  0
  150.9878  144.5102  159.1135 H   0  0  0  0  0  0  0  0  0  0  0  0
  152.0984  144.5068  161.3391 H   0  0  0  0  0  0  0  0  0  0  0  0
  153.4836  142.5600  162.0308 H   0  0  0  0  0  0  0  0  0  0  0  0
  153.7636  140.6328  160.5296 H   0  0  0  0  0  0  0  0  0  0  0  0
  149.5804  140.6597  155.7196 H   0  0  0  0  0  0  0  0  0  0  0  0
  149.7685  140.4689  152.9238 H   0  0  0  0  0  0  0  0  0  0  0  0
  147.6936  139.4462  155.0266 H   0  0  0  0  0  0  0  0  0  0  0  0
  148.8747  139.3364  152.7440 H   0  0  0  0  0  0  0  0  0  0  0  0
  1  2  1  0  0  0  0
  1 28  1  0  0  0  0
  1 29  1  0  0  0  0
  1 30  1  0  0  0  0
  2 25  1  0  0  0  0
  2  3  2  0  0  0  0
  3  4  1  0  0  0  0
  3 31  1  0  0  0  0
  4  5  1  0  0  0  0
  4 22  1  0  0  0  0
  5 20  1  0  0  0  0
  5  6  1  0  0  0  0
  5 32  1  0  0  0  0
  6  7  1  0  0  0  0
  7  8  1  0  0  0  0
  7 18  1  0  0  0  0
  7 33  1  0  0  0  0
  8  9  1  0  0  0  0
  8 34  1  0  0  0  0
  8 35  1  0  0  0  0
  9 10  1  0  0  0  0
 10 11  2  0  0  0  0
 10 12  1  0  0  0  0
 12 17  1  0  0  0  0
 12 13  2  0  0  0  0
 13 14  1  0  0  0  0
 13 36  1  0  0  0  0
 14 15  2  0  0  0  0
 14 37  1  0  0  0  0
 15 16  1  0  0  0  0
 15 38  1  0  0  0  0
 16 17  2  0  0  0  0
 16 39  1  0  0  0  0
 17 40  1  0  0  0  0
 18 19  1  0  0  0  0
 18 20  1  0  0  0  0
 18 41  1  0  0  0  0
 19 42  1  0  0  0  0
 20 21  1  0  0  0  0
 20 43  1  0  0  0  0
 21 44  1  0  0  0  0
 22 23  2  0  0  0  0
 22 24  1  0  0  0  0
 24 27  1  0  0  0  0
 24 25  1  0  0  0  0
 25 26  2  0  0  0  0
M  END
> <s_m_source_file>
AV-unprocessed.smi

> <i_m_source_file_index>
101

> <i_lp_mmshare_version>
43012

> <i_f3d_flags>
0

> <s_epik_input>
Tz1jMVtuSF1jKD1PKW4oW2NIXWMxW0NIM10pW0NAQEhdMk9bQ0BIXShbQ0BASF0oW09IXSlbQ0BIXTJbT0hdKVtDSDJdT0MoPU8pYzNbY0hdW2NIXVtjSF1bY0hdW2NIXTM=

> <s_epik_cmdline>
J2VwaWtfcHl0aG9uJywgJy1waCcsICc3LjAnLCAnLXRuJywgJzgnLCAnLW1hJywgJzIwMCcsICctbWV0YWxfYmluZGluZycsICctaW1hZScsICc8aW5maWxlLm1hZT4nLCAnLW9tYWUnLCAnPG91dGZpbGUubWFlPic=

> <r_lp_tautomer_probability>
0.999537

> <r_epik_Ionization_Penalty>
0.00263537

> <r_epik_Ionization_Penalty_Charging>
0.00263428

> <r_epik_Ionization_Penalty_Neutral>
1.09111e-06

> <r_epik_State_Penalty>
0.00183335

> <r_epik_Charging_Adjusted_Penalty>
0.00446763

> <i_epik_Tot_Q>
0

> <i_epik_Tot_abs_Q>
0

> <r_epik_Metal_State_Penalty>
1.00528

> <b_epik_Metal_Only>
0

> <s_epik_Chemistry_Notes>
This compound has an ester and may undergo hydrolysis at high or low pH. This compound contains an acetal/aminal-like group ( X-CH(R)-Y where X, Y are N, S, or O) that may be acid/base labile, releasing an aldehyde.

> <s_lp_Force_Field>
OPLS_2005

> <r_lp_Energy>
40.9392

> <b_lp_Chiralities_Consistent>
1

> <s_lp_Variant>
AV-unprocessed.smi:101-4

> <Gold.Version>
5.8.1

> <Gold.Id.Protein>
6NUR|6NUR_protein|mol2

> <Gold.PLP.Fitness>
53.5954

> <Gold.PLP.PLP>
-42.6045

> <Gold.PLP.part.hbond>
-4.9437

> <Gold.PLP.part.metal>
0.0000

> <Gold.PLP.part.buried>
-4.7618

> <Gold.PLP.part.nonpolar>
-31.8622

> <Gold.PLP.part.repulsive>
0.0835

> <Gold.PLP.ligand.clash>
0.0000

> <Gold.PLP.ligand.torsion>
0.7147

> <Gold.PLP.Chemscore.Hbond>
4.1113

> <Gold.PLP.Chemscore.CHOScore>
0.0000

> <Gold.PLP.Chemscore.Metal>
0.0000

> <Gold.Chemscore.Hbonds>
donor molecule, donor type, donor heavy atom, donor atom, acceptor molecule, acceptor atom, score
      L1  H    19    42       P1  7957  1.00
      L1  H    21    44       P1  7957  1.00
      P1  H  7989  7998       L1    19  0.18
      P1  H  7997  8009       L1    11  0.70

> <Gold.PLP.Chemscore.Internal.Correction>
0.0865

> <Gold.Rescore>
     Score         DG    S(hbond)    S(metal)    S(lipo)     H(rot)  DE(clash)    DE(int)     intcor
     16.19     -17.49       2.63        0.00     100.22       3.32       0.33       0.97       ----

> <Gold.Chemscore.Fitness>
16.1887

> <Gold.Chemscore.DG>
-17.4936

> <Gold.Chemscore.ZeroCoef>
-5.4800

> <Gold.Chemscore.Hbond>
2.6288

> <Gold.Chemscore.Metal>
0.0000

> <Gold.Chemscore.Lipo>
100.2177

> <Gold.Chemscore.Internal_Hbond>
0.0000

> <Gold.Chemscore.DEClash>
0.3302

> <Gold.Chemscore.DEInternal>
0.9746

> <Gold.Chemscore.Rot>
3.3172

> <Gold.Chemscore.Internal.Correction>
   9.000000E+99

> <Gold.Chemscore.Hbonds>
donor molecule, donor type, donor heavy atom, donor atom, acceptor molecule, acceptor atom, score
      L1  H    19    42       P1  7957  1.00
      L1  H    21    44       P1  7957  0.98
      P1  H  7997  8009       L1    11  0.07

> <Gold.Chemscore.Hbond.Weighted>
-8.7801

> <Gold.Chemscore.Metal.Weighted>
-0.0000

> <Gold.Chemscore.Lipo.Weighted>
-11.7255

> <Gold.Chemscore.Internal_Hbond.Weighted>
0.0000

> <Gold.Chemscore.DEClash.Weighted>
0.3302

> <Gold.Chemscore.DEInternal.Weighted>
0.9746

> <Gold.Chemscore.Rot.Weighted>
8.4920

> <Gold.Chemscore.Internal.Correction.Weighted>
   9.000000E+99

> <Gold.Protein.RotatedTorsions>
[ 6907 6896 6895 6894 ] final   51.74 input  -60.11 | X-H torsion
[ 7974 7965 7964 7962 ] final  152.03 input  175.53 | X-H torsion
[ 8008 7997 7996 7995 ] final  151.68 input   59.86 | X-H torsion
[ 10167 10162 10161 10158 ] final  -17.80 input  -65.29 | X-H torsion
[ 10718 10713 10712 10709 ] final -114.48 input   66.30 | X-H torsion
[ 10763 10752 10751 10750 ] final  -30.98 input  -60.55 | X-H torsion
[ 11005 11000 10999 10996 ] final  127.86 input  -57.11 | X-H torsion

> <Gold.Protein.ActiveResidues>
 VAL166  LYS551  ARG553  GLY616  TRP617  ASP618  TYR619  PRO620  LYS621  CYS622 
 ASP623  PHE694  ASN695  SER759  ASP760  ASP761  ALA762  ILE779  LEU786  VAL792 
 PHE793  MET794  SER795  GLU796  ALA797  LYS798  CYS799  TRP800  GLU811  SER814 

> <Gold.Protein.RotatedAtoms>
  152.3159  134.7440  160.0325 H   0  0  0  0  0  0  0  0  0  0  0  0  # atno 6907 bound_to 6896
  151.7905  133.3353  159.3505 H   0  0  0  0  0  0  0  0  0  0  0  0  # atno 6908 bound_to 6896
  150.7344  134.5778  159.5967 H   0  0  0  0  0  0  0  0  0  0  0  0  # atno 6909 bound_to 6896
  144.8251  139.6615  143.6083 H   0  0  0  0  0  0  0  0  0  0  0  0  # atno 7974 bound_to 7965
  156.2663  140.2041  156.6213 H   0  0  0  0  0  0  0  0  0  0  0  0  # atno 8008 bound_to 7997
  154.6754  140.0545  157.0234 H   0  0  0  0  0  0  0  0  0  0  0  0  # atno 8009 bound_to 7997
  155.1076  140.3212  155.4533 H   0  0  0  0  0  0  0  0  0  0  0  0  # atno 8010 bound_to 7997
  140.7251  143.4980  150.9906 H   0  0  0  0  0  0  0  0  0  0  0  0  # atno 10167 bound_to 10162
  156.0833  130.6029  150.8780 H   0  0  0  0  0  0  0  0  0  0  0  0  # atno 10718 bound_to 10713
  153.7899  135.6898  153.4873 H   0  0  0  0  0  0  0  0  0  0  0  0  # atno 10763 bound_to 10752
  153.1756  135.4526  154.9959 H   0  0  0  0  0  0  0  0  0  0  0  0  # atno 10764 bound_to 10752
  154.8048  135.3352  154.7396 H   0  0  0  0  0  0  0  0  0  0  0  0  # atno 10765 bound_to 10752
  139.9529  134.9618  156.8916 H   0  0  0  0  0  0  0  0  0  0  0  0  # atno 11005 bound_to 11000
  146.2556  139.6295  142.9397 LP  0  0  0  0  0  0  0  0  0  0  0  0  # atno 17320 bound_to 7965
  145.5018  141.0437  143.2536 LP  0  0  0  0  0  0  0  0  0  0  0  0  # atno 17321 bound_to 7965
  139.8688  143.7219  152.3168 LP  0  0  0  0  0  0  0  0  0  0  0  0  # atno 17342 bound_to 10162
  139.7461  144.7547  151.0578 LP  0  0  0  0  0  0  0  0  0  0  0  0  # atno 17343 bound_to 10162
  157.5958  131.0943  150.9043 LP  0  0  0  0  0  0  0  0  0  0  0  0  # atno 17370 bound_to 10713
  156.9210  130.5315  149.5279 LP  0  0  0  0  0  0  0  0  0  0  0  0  # atno 17371 bound_to 10713
  140.5676  134.0475  155.7419 LP  0  0  0  0  0  0  0  0  0  0  0  0  # atno 17394 bound_to 11000
  141.1196  133.9483  157.2756 LP  0  0  0  0  0  0  0  0  0  0  0  0  # atno 17395 bound_to 11000

$$$$
