AV-unprocessed.smi:2740|AV-procd|sdf|10555|dock6
  -GOLD-   2272015 03D 1   1.00000     0.00000
 Structure written by MMmdl.
 31 32  0  0  0  0  0  0  0  0  1 V2000
  153.6892  142.5976  159.6010 C   0  0  0  0  0  0  0  0  0  0  0  0
  152.3833  143.2637  159.8744 C   0  0  0  0  0  0  0  0  0  0  0  0
  151.9443  143.7933  161.0640 C   0  0  0  0  0  0  0  0  0  0  0  0
  150.6670  144.3550  160.9964 N   0  0  0  0  0  0  0  0  0  0  0  0
  150.1393  144.2545  159.7716 C   0  0  0  0  0  0  0  0  0  0  0  0
  148.8568  144.7435  159.4083 N   0  0  0  0  0  0  0  0  0  0  0  0
  147.7137  144.6819  160.1133 C   0  0  0  0  0  0  0  0  0  0  0  0
  147.5889  144.1592  161.2211 O   0  0  0  0  0  0  0  0  0  0  0  0
  146.7040  145.2657  159.4517 N   0  0  0  0  0  0  0  0  0  0  0  0
  145.3291  145.3733  159.9302 C   0  0  0  0  0  0  0  0  0  0  0  0
  144.3797  145.8909  158.8361 C   0  0  1  0  0  0  0  0  0  0  0  0
  144.8418  147.1629  158.1236 C   0  0  0  0  0  0  0  0  0  0  0  0
  144.1184  147.0515  156.8017 C   0  0  0  0  0  0  0  0  0  0  0  0
  144.2056  145.5535  156.5260 C   0  0  0  0  0  0  0  0  0  0  0  0
  144.2456  144.9189  157.8023 O   0  0  0  0  0  0  0  0  0  0  0  0
  151.1890  143.4506  158.6149 S   0  0  0  0  0  0  0  0  0  0  0  0
  154.4037  142.7917  160.4013 H   0  0  0  0  0  0  0  0  0  0  0  0
  154.1231  142.9615  158.6694 H   0  0  0  0  0  0  0  0  0  0  0  0
  153.5619  141.5183  159.5167 H   0  0  0  0  0  0  0  0  0  0  0  0
  152.4744  143.8155  162.0047 H   0  0  0  0  0  0  0  0  0  0  0  0
  148.8060  145.2006  158.5100 H   0  0  0  0  0  0  0  0  0  0  0  0
  146.8994  145.6691  158.5472 H   0  0  0  0  0  0  0  0  0  0  0  0
  144.9741  144.4198  160.3250 H   0  0  0  0  0  0  0  0  0  0  0  0
  145.3258  146.0686  160.7700 H   0  0  0  0  0  0  0  0  0  0  0  0
  143.3856  146.0567  159.2545 H   0  0  0  0  0  0  0  0  0  0  0  0
  144.5951  148.0726  158.6720 H   0  0  0  0  0  0  0  0  0  0  0  0
  145.9201  147.1431  157.9594 H   0  0  0  0  0  0  0  0  0  0  0  0
  143.0767  147.3536  156.9182 H   0  0  0  0  0  0  0  0  0  0  0  0
  144.5662  147.6578  156.0139 H   0  0  0  0  0  0  0  0  0  0  0  0
  143.3685  145.1929  155.9279 H   0  0  0  0  0  0  0  0  0  0  0  0
  145.1280  145.3177  155.9941 H   0  0  0  0  0  0  0  0  0  0  0  0
  1  2  1  0  0  0  0
  1 17  1  0  0  0  0
  1 18  1  0  0  0  0
  1 19  1  0  0  0  0
  2 16  1  0  0  0  0
  2  3  2  0  0  0  0
  3  4  1  0  0  0  0
  3 20  1  0  0  0  0
  4  5  2  0  0  0  0
  5  6  1  0  0  0  0
  5 16  1  0  0  0  0
  6  7  1  0  0  0  0
  6 21  1  0  0  0  0
  7  8  2  0  0  0  0
  7  9  1  0  0  0  0
  9 10  1  0  0  0  0
  9 22  1  0  0  0  0
 10 11  1  0  0  0  0
 10 23  1  0  0  0  0
 10 24  1  0  0  0  0
 11 15  1  0  0  0  0
 11 12  1  0  0  0  0
 11 25  1  0  0  0  0
 12 13  1  0  0  0  0
 12 26  1  0  0  0  0
 12 27  1  0  0  0  0
 13 14  1  0  0  0  0
 13 28  1  0  0  0  0
 13 29  1  0  0  0  0
 14 15  1  0  0  0  0
 14 30  1  0  0  0  0
 14 31  1  0  0  0  0
M  END
> <s_m_source_file>
AV-unprocessed.smi

> <i_m_source_file_index>
2740

> <i_lp_mmshare_version>
43012

> <i_f3d_flags>
0

> <s_epik_input>
W0NIM11jMVtjSF1uYyhzMSlbTkhdQyg9TylbTkhdW0NIMl1bQ0BASF0yW0NIMl1bQ0gyXVtDSDJdTzI=

> <s_epik_cmdline>
J2VwaWtfcHl0aG9uJywgJy1waCcsICc3LjAnLCAnLXRuJywgJzgnLCAnLW1hJywgJzIwMCcsICctbWV0YWxfYmluZGluZycsICctaW1hZScsICc8aW5maWxlLm1hZT4nLCAnLW9tYWUnLCAnPG91dGZpbGUubWFlPic=

> <r_lp_tautomer_probability>
0.999

> <r_epik_Ionization_Penalty>
0.000387528

> <r_epik_Ionization_Penalty_Charging>
0

> <r_epik_Ionization_Penalty_Neutral>
0.000387528

> <r_epik_State_Penalty>
0.000177984

> <r_epik_Charging_Adjusted_Penalty>
0.000177984

> <i_epik_Tot_Q>
0

> <i_epik_Tot_abs_Q>
0

> <r_epik_Metal_State_Penalty>
0.00626158

> <b_epik_Metal_Only>
0

> <s_lp_Force_Field>
OPLS_2005

> <r_lp_Energy>
15.3507

> <b_lp_Chiralities_Consistent>
1

> <s_lp_Variant>
AV-unprocessed.smi:2740-2

> <Gold.Version>
5.8.1

> <Gold.Id.Protein>
6NUR|6NUR_protein|mol2

> <Gold.PLP.Fitness>
36.9358

> <Gold.PLP.PLP>
-28.7320

> <Gold.PLP.part.hbond>
-3.2963

> <Gold.PLP.part.metal>
0.0000

> <Gold.PLP.part.buried>
-5.1321

> <Gold.PLP.part.nonpolar>
-21.0972

> <Gold.PLP.part.repulsive>
0.6360

> <Gold.PLP.ligand.clash>
0.0000

> <Gold.PLP.ligand.torsion>
0.3989

> <Gold.PLP.Chemscore.Hbond>
3.0000

> <Gold.PLP.Chemscore.CHOScore>
0.0000

> <Gold.PLP.Chemscore.Metal>
0.0000

> <Gold.Chemscore.Hbonds>
donor molecule, donor type, donor heavy atom, donor atom, acceptor molecule, acceptor atom, score
      L1  H     6    21       P1  8029  1.00
      L1  H     9    22       P1  8029  1.00
      P1  H  6933  6944       L1     8  1.00

> <Gold.PLP.Chemscore.Internal.Correction>
0.0016

> <Gold.Rescore>
     Score         DG    S(hbond)    S(metal)    S(lipo)     H(rot)  DE(clash)    DE(int)     intcor
     19.80     -20.19       2.91        0.00      70.38       1.27       0.02       0.37       ----

> <Gold.Chemscore.Fitness>
19.8033

> <Gold.Chemscore.DG>
-20.1924

> <Gold.Chemscore.ZeroCoef>
-5.4800

> <Gold.Chemscore.Hbond>
2.9113

> <Gold.Chemscore.Metal>
0.0000

> <Gold.Chemscore.Lipo>
70.3773

> <Gold.Chemscore.Internal_Hbond>
0.0000

> <Gold.Chemscore.DEClash>
0.0153

> <Gold.Chemscore.DEInternal>
0.3738

> <Gold.Chemscore.Rot>
1.2678

> <Gold.Chemscore.Internal.Correction>
   9.000000E+99

> <Gold.Chemscore.Hbonds>
donor molecule, donor type, donor heavy atom, donor atom, acceptor molecule, acceptor atom, score
      L1  H     6    21       P1  8029  0.93
      L1  H     9    22       P1  8029  0.96
      P1  H  6933  6944       L1     8  0.87

> <Gold.Chemscore.Hbond.Weighted>
-9.7237

> <Gold.Chemscore.Metal.Weighted>
-0.0000

> <Gold.Chemscore.Lipo.Weighted>
-8.2341

> <Gold.Chemscore.Internal_Hbond.Weighted>
0.0000

> <Gold.Chemscore.DEClash.Weighted>
0.0153

> <Gold.Chemscore.DEInternal.Weighted>
0.3738

> <Gold.Chemscore.Rot.Weighted>
3.2455

> <Gold.Chemscore.Internal.Correction.Weighted>
   9.000000E+99

> <Gold.Protein.RotatedTorsions>
[ 6907 6896 6895 6894 ] final   60.81 input  -60.11 | X-H torsion
[ 7974 7965 7964 7962 ] final  131.46 input  175.53 | X-H torsion
[ 8008 7997 7996 7995 ] final  103.77 input   59.86 | X-H torsion
[ 10167 10162 10161 10158 ] final  -77.52 input  -65.29 | X-H torsion
[ 10718 10713 10712 10709 ] final  153.89 input   66.30 | X-H torsion
[ 10763 10752 10751 10750 ] final  118.12 input  -60.55 | X-H torsion
[ 11005 11000 10999 10996 ] final   73.79 input  -57.11 | X-H torsion

> <Gold.Protein.ActiveResidues>
 VAL166  LYS551  ARG553  GLY616  TRP617  ASP618  TYR619  PRO620  LYS621  CYS622 
 ASP623  PHE694  ASN695  SER759  ASP760  ASP761  ALA762  ILE779  LEU786  VAL792 
 PHE793  MET794  SER795  GLU796  ALA797  LYS798  CYS799  TRP800  GLU811  SER814 

> <Gold.Protein.RotatedAtoms>
  152.4035  134.6247  160.0059 H   0  0  0  0  0  0  0  0  0  0  0  0  # atno 6907 bound_to 6896
  151.6445  133.3318  159.3146 H   0  0  0  0  0  0  0  0  0  0  0  0  # atno 6908 bound_to 6896
  150.7932  134.7014  159.6597 H   0  0  0  0  0  0  0  0  0  0  0  0  # atno 6909 bound_to 6896
  145.0071  139.4256  143.5263 H   0  0  0  0  0  0  0  0  0  0  0  0  # atno 7974 bound_to 7965
  156.1514  140.3159  155.8653 H   0  0  0  0  0  0  0  0  0  0  0  0  # atno 8008 bound_to 7997
  155.3964  140.0497  157.3055 H   0  0  0  0  0  0  0  0  0  0  0  0  # atno 8009 bound_to 7997
  154.5061  140.2147  155.9259 H   0  0  0  0  0  0  0  0  0  0  0  0  # atno 8010 bound_to 7997
  140.4763  143.2413  151.8128 H   0  0  0  0  0  0  0  0  0  0  0  0  # atno 10167 bound_to 10162
  157.2388  131.0754  151.1806 H   0  0  0  0  0  0  0  0  0  0  0  0  # atno 10718 bound_to 10713
  153.5627  135.3517  155.2806 H   0  0  0  0  0  0  0  0  0  0  0  0  # atno 10763 bound_to 10752
  154.8693  135.4140  154.2812 H   0  0  0  0  0  0  0  0  0  0  0  0  # atno 10764 bound_to 10752
  153.3562  135.7057  153.6818 H   0  0  0  0  0  0  0  0  0  0  0  0  # atno 10765 bound_to 10752
  139.9423  134.7377  156.1069 H   0  0  0  0  0  0  0  0  0  0  0  0  # atno 11005 bound_to 11000
  146.3463  139.9493  142.8731 LP  0  0  0  0  0  0  0  0  0  0  0  0  # atno 17320 bound_to 7965
  145.2074  140.9881  143.4120 LP  0  0  0  0  0  0  0  0  0  0  0  0  # atno 17321 bound_to 7965
  139.4826  144.4829  151.9283 LP  0  0  0  0  0  0  0  0  0  0  0  0  # atno 17342 bound_to 10162
  140.3915  144.2610  150.5899 LP  0  0  0  0  0  0  0  0  0  0  0  0  # atno 17343 bound_to 10162
  157.3401  130.7029  149.6376 LP  0  0  0  0  0  0  0  0  0  0  0  0  # atno 17370 bound_to 10713
  155.9671  130.4282  150.4779 LP  0  0  0  0  0  0  0  0  0  0  0  0  # atno 17371 bound_to 10713
  141.1061  133.6659  156.2868 LP  0  0  0  0  0  0  0  0  0  0  0  0  # atno 17394 bound_to 11000
  140.5922  134.5639  157.5501 LP  0  0  0  0  0  0  0  0  0  0  0  0  # atno 17395 bound_to 11000

$$$$
