AV-unprocessed.smi:284|AV-procd|sdf|2160|dock3
  -GOLD-   2262021513D 1   1.00000     0.00000
 Structure written by MMmdl.
 60 62  0  0  0  0  0  0  0  0  1 V2000
  149.1975  134.0425  155.6394 C   0  0  0  0  0  0  0  0  0  0  0  0
  149.3243  135.5242  155.3224 C   0  0  0  0  0  0  0  0  0  0  0  0
  148.2467  136.2961  155.0517 C   0  0  0  0  0  0  0  0  0  0  0  0
  148.3266  137.6451  154.7599 N   0  0  0  0  0  0  0  0  0  0  0  0
  147.0874  138.4603  154.4608 C   0  0  1  0  0  0  0  0  0  0  0  0
  147.1542  139.0332  153.0432 C   0  0  0  0  0  0  0  0  0  0  0  0
  146.2718  138.0715  152.2735 C   0  0  2  0  0  0  0  0  0  0  0  0
  145.7085  138.6991  151.1401 O   0  0  0  0  0  0  0  0  0  0  0  0
  145.2184  137.6985  153.3196 C   0  0  1  0  0  0  0  0  0  0  0  0
  144.5281  136.3527  153.0470 C   0  0  0  0  0  0  0  0  0  0  0  0
  144.0411  136.3167  151.7225 O   0  0  0  0  0  0  0  0  0  0  0  0
  145.9630  137.6328  154.5348 O   0  0  0  0  0  0  0  0  0  0  0  0
  149.5876  138.2727  154.7040 C   0  0  0  0  0  0  0  0  0  0  0  0
  149.6877  139.4680  154.4170 O   0  0  0  0  0  0  0  0  0  0  0  0
  150.7342  137.4946  154.9817 N   0  0  0  0  0  0  0  0  0  0  0  0
  152.0563  138.1592  154.9551 C   0  0  0  0  0  0  0  0  0  0  0  0
  152.2845  139.1003  156.1483 C   0  0  0  0  0  0  0  0  0  0  0  0
  153.1508  138.8418  156.9846 O   0  0  0  0  0  0  0  0  0  0  0  0
  151.5121  140.2022  156.1642 N   0  0  0  0  0  0  0  0  0  0  0  0
  151.4526  141.2401  157.1341 C   0  0  0  0  0  0  0  0  0  0  0  0
  151.9849  140.9618  158.4079 C   0  0  0  0  0  0  0  0  0  0  0  0
  151.9854  141.9425  159.4183 C   0  0  0  0  0  0  0  0  0  0  0  0
  151.4577  143.2345  159.1758 C   0  0  0  0  0  0  0  0  0  0  0  0
  151.4405  144.3357  160.2533 C   0  0  0  0  0  0  0  0  0  0  0  0
  152.1805  143.8404  161.5137 C   0  0  0  0  0  0  0  0  0  0  0  0
  150.0111  144.7403  160.6798 C   0  0  0  0  0  0  0  0  0  0  0  0
  152.1429  145.5986  159.7132 C   0  0  0  0  0  0  0  0  0  0  0  0
  150.9355  143.5092  157.8901 C   0  0  0  0  0  0  0  0  0  0  0  0
  150.9366  142.5312  156.8775 C   0  0  0  0  0  0  0  0  0  0  0  0
  150.6634  136.1181  155.3096 C   0  0  0  0  0  0  0  0  0  0  0  0
  151.6857  135.4799  155.5679 O   0  0  0  0  0  0  0  0  0  0  0  0
  148.1592  133.7099  155.6172 H   0  0  0  0  0  0  0  0  0  0  0  0
  149.5942  133.8295  156.6327 H   0  0  0  0  0  0  0  0  0  0  0  0
  149.7530  133.4484  154.9131 H   0  0  0  0  0  0  0  0  0  0  0  0
  147.2759  135.8244  155.0622 H   0  0  0  0  0  0  0  0  0  0  0  0
  147.0152  139.2234  155.2369 H   0  0  0  0  0  0  0  0  0  0  0  0
  146.7213  140.0347  153.0625 H   0  0  0  0  0  0  0  0  0  0  0  0
  148.1760  139.0984  152.6670 H   0  0  0  0  0  0  0  0  0  0  0  0
  146.8458  137.1952  151.9689 H   0  0  0  0  0  0  0  0  0  0  0  0
  145.0138  139.2721  151.4268 H   0  0  0  0  0  0  0  0  0  0  0  0
  144.4886  138.5066  153.4013 H   0  0  0  0  0  0  0  0  0  0  0  0
  145.2438  135.5366  153.1515 H   0  0  0  0  0  0  0  0  0  0  0  0
  143.7200  136.1669  153.7547 H   0  0  0  0  0  0  0  0  0  0  0  0
  144.1373  137.1769  151.3429 H   0  0  0  0  0  0  0  0  0  0  0  0
  152.8723  137.4355  154.9345 H   0  0  0  0  0  0  0  0  0  0  0  0
  152.1804  138.7185  154.0260 H   0  0  0  0  0  0  0  0  0  0  0  0
  150.9165  140.3313  155.3593 H   0  0  0  0  0  0  0  0  0  0  0  0
  152.3962  139.9855  158.6198 H   0  0  0  0  0  0  0  0  0  0  0  0
  152.4020  141.6711  160.3755 H   0  0  0  0  0  0  0  0  0  0  0  0
  152.1655  144.5923  162.3037 H   0  0  0  0  0  0  0  0  0  0  0  0
  153.2270  143.6109  161.3134 H   0  0  0  0  0  0  0  0  0  0  0  0
  151.7178  142.9373  161.9136 H   0  0  0  0  0  0  0  0  0  0  0  0
  149.4622  143.8978  161.1026 H   0  0  0  0  0  0  0  0  0  0  0  0
  149.4357  145.1342  159.8411 H   0  0  0  0  0  0  0  0  0  0  0  0
  150.0330  145.5193  161.4426 H   0  0  0  0  0  0  0  0  0  0  0  0
  152.1287  146.4052  160.4472 H   0  0  0  0  0  0  0  0  0  0  0  0
  151.6513  145.9678  158.8123 H   0  0  0  0  0  0  0  0  0  0  0  0
  153.1877  145.4132  159.4637 H   0  0  0  0  0  0  0  0  0  0  0  0
  150.5301  144.4838  157.6631 H   0  0  0  0  0  0  0  0  0  0  0  0
  150.5478  142.8039  155.9090 H   0  0  0  0  0  0  0  0  0  0  0  0
  1  2  1  0  0  0  0
  1 32  1  0  0  0  0
  1 33  1  0  0  0  0
  1 34  1  0  0  0  0
  2 30  1  0  0  0  0
  2  3  2  0  0  0  0
  3  4  1  0  0  0  0
  3 35  1  0  0  0  0
  4  5  1  0  0  0  0
  4 13  1  0  0  0  0
  5 12  1  0  0  0  0
  5  6  1  0  0  0  0
  5 36  1  0  0  0  0
  6  7  1  0  0  0  0
  6 37  1  0  0  0  0
  6 38  1  0  0  0  0
  7  8  1  0  0  0  0
  7  9  1  0  0  0  0
  7 39  1  0  0  0  0
  8 40  1  0  0  0  0
  9 10  1  0  0  0  0
  9 12  1  0  0  0  0
  9 41  1  0  0  0  0
 10 11  1  0  0  0  0
 10 42  1  0  0  0  0
 10 43  1  0  0  0  0
 11 44  1  0  0  0  0
 13 14  2  0  0  0  0
 13 15  1  0  0  0  0
 15 16  1  0  0  0  0
 15 30  1  0  0  0  0
 16 17  1  0  0  0  0
 16 45  1  0  0  0  0
 16 46  1  0  0  0  0
 17 18  2  0  0  0  0
 17 19  1  0  0  0  0
 19 20  1  0  0  0  0
 19 47  1  0  0  0  0
 20 29  1  0  0  0  0
 20 21  2  0  0  0  0
 21 22  1  0  0  0  0
 21 48  1  0  0  0  0
 22 23  2  0  0  0  0
 22 49  1  0  0  0  0
 23 24  1  0  0  0  0
 23 28  1  0  0  0  0
 24 25  1  0  0  0  0
 24 26  1  0  0  0  0
 24 27  1  0  0  0  0
 25 50  1  0  0  0  0
 25 51  1  0  0  0  0
 25 52  1  0  0  0  0
 26 53  1  0  0  0  0
 26 54  1  0  0  0  0
 26 55  1  0  0  0  0
 27 56  1  0  0  0  0
 27 57  1  0  0  0  0
 27 58  1  0  0  0  0
 28 29  2  0  0  0  0
 28 59  1  0  0  0  0
 29 60  1  0  0  0  0
 30 31  2  0  0  0  0
M  END
> <s_m_source_file>
AV-unprocessed.smi

> <i_m_source_file_index>
284

> <i_lp_mmshare_version>
43012

> <i_f3d_flags>
0

> <s_epik_input>
W09IXVtDSDJdW0NAQEhdKE8xKVtDQEhdKFtPSF0pW0NIMl1bQ0BIXTFuKFtjSF1jMltDSDNdKWMoPU8pbihjMj1PKVtDSDJdQyg9TylbTkhdYzNbY0hdW2NIXWMoQyhbQ0gzXSkoW0NIM10pW0NIM10pW2NIXVtjSF0z

> <s_epik_cmdline>
J2VwaWtfcHl0aG9uJywgJy1waCcsICc3LjAnLCAnLXRuJywgJzgnLCAnLW1hJywgJzIwMCcsICctbWV0YWxfYmluZGluZycsICctaW1hZScsICc8aW5maWxlLm1hZT4nLCAnLW9tYWUnLCAnPG91dGZpbGUubWFlPic=

> <r_lp_tautomer_probability>
1

> <r_epik_Ionization_Penalty>
4.92358e-06

> <r_epik_Ionization_Penalty_Charging>
1.29777e-07

> <r_epik_Ionization_Penalty_Neutral>
4.79381e-06

> <r_epik_State_Penalty>
-0

> <r_epik_Charging_Adjusted_Penalty>
1.29777e-07

> <i_epik_Tot_Q>
0

> <i_epik_Tot_abs_Q>
0

> <r_epik_Metal_State_Penalty>
-0

> <b_epik_Metal_Only>
0

> <s_epik_Chemistry_Notes>
This compound contains an acetal/aminal-like group ( X-CH(R)-Y where X, Y are N, S, or O) that may be acid/base labile, releasing an aldehyde.

> <s_lp_Force_Field>
OPLS_2005

> <r_lp_Energy>
39.3511

> <b_lp_Chiralities_Consistent>
1

> <s_lp_Variant>
AV-unprocessed.smi:284-4

> <Gold.Version>
5.8.1

> <Gold.Id.Protein>
6NUR|6NUR_protein|mol2

> <Gold.PLP.Fitness>
60.4473

> <Gold.PLP.PLP>
-49.1852

> <Gold.PLP.part.hbond>
-4.0242

> <Gold.PLP.part.metal>
0.0000

> <Gold.PLP.part.buried>
-5.6470

> <Gold.PLP.part.nonpolar>
-41.5955

> <Gold.PLP.part.repulsive>
0.4220

> <Gold.PLP.ligand.clash>
0.0000

> <Gold.PLP.ligand.torsion>
0.4143

> <Gold.PLP.Chemscore.Hbond>
4.0000

> <Gold.PLP.Chemscore.CHOScore>
0.0000

> <Gold.PLP.Chemscore.Metal>
0.0000

> <Gold.Chemscore.Hbonds>
donor molecule, donor type, donor heavy atom, donor atom, acceptor molecule, acceptor atom, score
      L1  H     8    40       P1 10175  0.96
      L1  H    11    44       P1 10171  0.84
      P1  H  7997  8010       L1    18  1.00
      P1  H 10752 10764       L1    31  0.99

> <Gold.PLP.Chemscore.Internal.Correction>
0.0908

> <Gold.Rescore>
     Score         DG    S(hbond)    S(metal)    S(lipo)     H(rot)  DE(clash)    DE(int)     intcor
     21.31     -24.61       3.44        0.00     137.08       3.27       0.22       3.09       ----

> <Gold.Chemscore.Fitness>
21.3091

> <Gold.Chemscore.DG>
-24.6136

> <Gold.Chemscore.ZeroCoef>
-5.4800

> <Gold.Chemscore.Hbond>
3.4357

> <Gold.Chemscore.Metal>
0.0000

> <Gold.Chemscore.Lipo>
137.0798

> <Gold.Chemscore.Internal_Hbond>
0.0000

> <Gold.Chemscore.DEClash>
0.2193

> <Gold.Chemscore.DEInternal>
3.0851

> <Gold.Chemscore.Rot>
3.2735

> <Gold.Chemscore.Internal.Correction>
   9.000000E+99

> <Gold.Chemscore.Hbonds>
donor molecule, donor type, donor heavy atom, donor atom, acceptor molecule, acceptor atom, score
      L1  H     8    40       P1 10175  0.64
      L1  H    11    44       P1 10171  0.80
      P1  H  7997  8010       L1    18  0.60
      P1  H 10752 10764       L1    31  0.90

> <Gold.Chemscore.Hbond.Weighted>
-11.4753

> <Gold.Chemscore.Metal.Weighted>
-0.0000

> <Gold.Chemscore.Lipo.Weighted>
-16.0383

> <Gold.Chemscore.Internal_Hbond.Weighted>
0.0000

> <Gold.Chemscore.DEClash.Weighted>
0.2193

> <Gold.Chemscore.DEInternal.Weighted>
3.0851

> <Gold.Chemscore.Rot.Weighted>
8.3801

> <Gold.Chemscore.Internal.Correction.Weighted>
   9.000000E+99

> <Gold.Protein.RotatedTorsions>
[ 6907 6896 6895 6894 ] final -170.40 input  -60.11 | X-H torsion
[ 7974 7965 7964 7962 ] final  171.09 input  175.53 | X-H torsion
[ 8008 7997 7996 7995 ] final   51.16 input   59.86 | X-H torsion
[ 10167 10162 10161 10158 ] final  -24.73 input  -65.29 | X-H torsion
[ 10718 10713 10712 10709 ] final -104.10 input   66.30 | X-H torsion
[ 10763 10752 10751 10750 ] final  -52.91 input  -60.55 | X-H torsion
[ 11005 11000 10999 10996 ] final  102.53 input  -57.11 | X-H torsion

> <Gold.Protein.ActiveResidues>
 VAL166  LYS551  ARG553  GLY616  TRP617  ASP618  TYR619  PRO620  LYS621  CYS622 
 ASP623  PHE694  ASN695  SER759  ASP760  ASP761  ALA762  ILE779  LEU786  VAL792 
 PHE793  MET794  SER795  GLU796  ALA797  LYS798  CYS799  TRP800  GLU811  SER814 

> <Gold.Protein.RotatedAtoms>
  151.5072  133.3492  159.2878 H   0  0  0  0  0  0  0  0  0  0  0  0  # atno 6907 bound_to 6896
  150.8735  134.8116  159.7183 H   0  0  0  0  0  0  0  0  0  0  0  0  # atno 6908 bound_to 6896
  152.4715  134.4959  159.9761 H   0  0  0  0  0  0  0  0  0  0  0  0  # atno 6909 bound_to 6896
  144.7305  139.9298  143.6424 H   0  0  0  0  0  0  0  0  0  0  0  0  # atno 7974 bound_to 7965
  155.4308  140.3450  155.4280 H   0  0  0  0  0  0  0  0  0  0  0  0  # atno 8008 bound_to 7997
  156.1338  140.1522  156.9057 H   0  0  0  0  0  0  0  0  0  0  0  0  # atno 8009 bound_to 7997
  154.4915  140.0840  156.7585 H   0  0  0  0  0  0  0  0  0  0  0  0  # atno 8010 bound_to 7997
  140.7288  143.4327  151.0777 H   0  0  0  0  0  0  0  0  0  0  0  0  # atno 10167 bound_to 10162
  156.0291  130.5499  150.7348 H   0  0  0  0  0  0  0  0  0  0  0  0  # atno 10718 bound_to 10713
  154.1503  135.6491  153.4962 H   0  0  0  0  0  0  0  0  0  0  0  0  # atno 10763 bound_to 10752
  153.0140  135.5336  154.6815 H   0  0  0  0  0  0  0  0  0  0  0  0  # atno 10764 bound_to 10752
  154.6101  135.2953  155.0413 H   0  0  0  0  0  0  0  0  0  0  0  0  # atno 10765 bound_to 10752
  139.8778  134.9227  156.5072 H   0  0  0  0  0  0  0  0  0  0  0  0  # atno 11005 bound_to 11000
  146.0866  139.3854  143.0431 LP  0  0  0  0  0  0  0  0  0  0  0  0  # atno 17320 bound_to 7965
  145.7768  140.9873  143.1120 LP  0  0  0  0  0  0  0  0  0  0  0  0  # atno 17321 bound_to 7965
  139.7985  143.8117  152.3160 LP  0  0  0  0  0  0  0  0  0  0  0  0  # atno 17342 bound_to 10162
  139.8125  144.7330  150.9678 LP  0  0  0  0  0  0  0  0  0  0  0  0  # atno 17343 bound_to 10162
  157.4931  131.0912  151.0403 LP  0  0  0  0  0  0  0  0  0  0  0  0  # atno 17370 bound_to 10713
  157.0804  130.5901  149.5419 LP  0  0  0  0  0  0  0  0  0  0  0  0  # atno 17371 bound_to 10713
  140.8547  133.8105  155.9204 LP  0  0  0  0  0  0  0  0  0  0  0  0  # atno 17394 bound_to 11000
  140.9110  134.2261  157.4986 LP  0  0  0  0  0  0  0  0  0  0  0  0  # atno 17395 bound_to 11000

$$$$
