AV-unprocessed.smi:1720|AV-procd|sdf|6932|dock1
  -GOLD-   22720 8143D 1   1.00000     0.00000
 Structure written by MMmdl.
 32 33  0  0  0  0  0  0  0  0  1 V2000
  151.2227  141.6196  158.5666 C   0  0  0  0  0  0  0  0  0  0  0  0
  151.5306  142.6915  157.5108 C   0  0  1  0  0  0  0  0  0  0  0  0
  150.4126  142.7600  156.5709 N   0  0  0  0  0  0  0  0  0  0  0  0
  149.9190  141.7353  155.8605 C   0  0  0  0  0  0  0  0  0  0  0  0
  150.3653  140.5891  155.9111 O   0  0  0  0  0  0  0  0  0  0  0  0
  148.8893  142.1283  155.0932 N   0  0  0  0  0  0  0  0  0  0  0  0
  148.1206  141.3297  154.2090 C   0  0  0  0  0  0  0  0  0  0  0  0
  148.3869  139.9656  153.9118 C   0  0  0  0  0  0  0  0  0  0  0  0
  147.5035  139.4761  153.0537 N   0  0  0  0  0  0  0  0  0  0  0  0
  146.6767  140.5154  152.7987 N   0  0  0  0  0  0  0  0  0  0  0  0
  147.0145  141.6644  153.4791 C   0  0  0  0  0  0  0  0  0  0  0  0
  151.7848  144.0724  158.1504 C   0  0  2  0  0  0  0  0  0  0  0  0
  152.6661  144.0542  159.4022 C   0  0  0  0  0  0  0  0  0  0  0  0
  152.2330  145.3219  160.1006 C   0  0  0  0  0  0  0  0  0  0  0  0
  150.7319  145.3219  159.8316 C   0  0  0  0  0  0  0  0  0  0  0  0
  150.5573  144.6562  158.5835 O   0  0  0  0  0  0  0  0  0  0  0  0
  145.8946  140.4258  152.1658 H   0  0  0  0  0  0  0  0  0  0  0  0
  152.0547  141.5011  159.2615 H   0  0  0  0  0  0  0  0  0  0  0  0
  151.0462  140.6494  158.1011 H   0  0  0  0  0  0  0  0  0  0  0  0
  150.3371  141.8765  159.1492 H   0  0  0  0  0  0  0  0  0  0  0  0
  152.4377  142.3833  156.9878 H   0  0  0  0  0  0  0  0  0  0  0  0
  149.9778  143.6640  156.4572 H   0  0  0  0  0  0  0  0  0  0  0  0
  148.6298  143.1025  155.1436 H   0  0  0  0  0  0  0  0  0  0  0  0
  149.1751  139.3270  154.2831 H   0  0  0  0  0  0  0  0  0  0  0  0
  146.4522  142.5811  153.3805 H   0  0  0  0  0  0  0  0  0  0  0  0
  152.2292  144.7486  157.4179 H   0  0  0  0  0  0  0  0  0  0  0  0
  152.4338  143.1894  160.0255 H   0  0  0  0  0  0  0  0  0  0  0  0
  153.7320  144.0349  159.1737 H   0  0  0  0  0  0  0  0  0  0  0  0
  152.4765  145.3343  161.1635 H   0  0  0  0  0  0  0  0  0  0  0  0
  152.7013  146.1876  159.6300 H   0  0  0  0  0  0  0  0  0  0  0  0
  150.2074  144.7540  160.6009 H   0  0  0  0  0  0  0  0  0  0  0  0
  150.3130  146.3280  159.8097 H   0  0  0  0  0  0  0  0  0  0  0  0
  1  2  1  0  0  0  0
  1 18  1  0  0  0  0
  1 19  1  0  0  0  0
  1 20  1  0  0  0  0
  2  3  1  0  0  0  0
  2 12  1  0  0  0  0
  2 21  1  0  0  0  0
  3  4  1  0  0  0  0
  3 22  1  0  0  0  0
  4  5  2  0  0  0  0
  4  6  1  0  0  0  0
  6  7  1  0  0  0  0
  6 23  1  0  0  0  0
  7 11  2  0  0  0  0
  7  8  1  0  0  0  0
  8  9  2  0  0  0  0
  8 24  1  0  0  0  0
  9 10  1  0  0  0  0
 10 17  1  0  0  0  0
 10 11  1  0  0  0  0
 11 25  1  0  0  0  0
 12 16  1  0  0  0  0
 12 13  1  0  0  0  0
 12 26  1  0  0  0  0
 13 14  1  0  0  0  0
 13 27  1  0  0  0  0
 13 28  1  0  0  0  0
 14 15  1  0  0  0  0
 14 29  1  0  0  0  0
 14 30  1  0  0  0  0
 15 16  1  0  0  0  0
 15 31  1  0  0  0  0
 15 32  1  0  0  0  0
M  END
> <s_m_source_file>
AV-unprocessed.smi

> <i_m_source_file_index>
1720

> <i_lp_mmshare_version>
43012

> <i_f3d_flags>
0

> <s_epik_input>
TzFbQ0gyXVtDSDJdW0NIMl1bQ0BIXTFbQ0BIXShbQ0gzXSlbTkhdQyg9TylbTkhdYzJbY0hdbltuSF1bY0hdMg==

> <s_epik_cmdline>
J2VwaWtfcHl0aG9uJywgJy1waCcsICc3LjAnLCAnLXRuJywgJzgnLCAnLW1hJywgJzIwMCcsICctbWV0YWxfYmluZGluZycsICctaW1hZScsICc8aW5maWxlLm1hZT4nLCAnLW9tYWUnLCAnPG91dGZpbGUubWFlPic=

> <r_lp_tautomer_probability>
1

> <r_epik_Ionization_Penalty>
4.95841e-05

> <r_epik_Ionization_Penalty_Charging>
0

> <r_epik_Ionization_Penalty_Neutral>
4.95841e-05

> <r_epik_State_Penalty>
-0

> <r_epik_Charging_Adjusted_Penalty>
0

> <i_epik_Tot_Q>
0

> <i_epik_Tot_abs_Q>
0

> <r_epik_Metal_State_Penalty>
-0

> <b_epik_Metal_Only>
0

> <s_lp_Force_Field>
OPLS_2005

> <r_lp_Energy>
20.0519

> <b_lp_Chiralities_Consistent>
1

> <s_lp_Variant>
AV-unprocessed.smi:1720-2

> <Gold.Version>
5.8.1

> <Gold.Id.Protein>
6NUR|6NUR_protein|mol2

> <Gold.PLP.Fitness>
41.2998

> <Gold.PLP.PLP>
-33.3141

> <Gold.PLP.part.hbond>
-3.0000

> <Gold.PLP.part.metal>
0.0000

> <Gold.PLP.part.buried>
-6.2636

> <Gold.PLP.part.nonpolar>
-24.6883

> <Gold.PLP.part.repulsive>
0.9883

> <Gold.PLP.ligand.clash>
0.0000

> <Gold.PLP.ligand.torsion>
0.2410

> <Gold.PLP.Chemscore.Hbond>
2.8160

> <Gold.PLP.Chemscore.CHOScore>
0.0000

> <Gold.PLP.Chemscore.Metal>
0.0000

> <Gold.Chemscore.Hbonds>
donor molecule, donor type, donor heavy atom, donor atom, acceptor molecule, acceptor atom, score
      L1  H     3    22       P1  8028  1.00
      L1  H     6    23       P1  8028  1.00
      L1  H    10    17       P1 10175  0.36

> <Gold.PLP.Chemscore.Internal.Correction>
0.0197

> <Gold.Rescore>
     Score         DG    S(hbond)    S(metal)    S(lipo)     H(rot)  DE(clash)    DE(int)     intcor
     17.76     -19.31       2.22        0.00      83.41       1.31       0.18       1.37       ----

> <Gold.Chemscore.Fitness>
17.7616

> <Gold.Chemscore.DG>
-19.3104

> <Gold.Chemscore.ZeroCoef>
-5.4800

> <Gold.Chemscore.Hbond>
2.2213

> <Gold.Chemscore.Metal>
0.0000

> <Gold.Chemscore.Lipo>
83.4145

> <Gold.Chemscore.Internal_Hbond>
0.0000

> <Gold.Chemscore.DEClash>
0.1775

> <Gold.Chemscore.DEInternal>
1.3713

> <Gold.Chemscore.Rot>
1.3079

> <Gold.Chemscore.Internal.Correction>
   9.000000E+99

> <Gold.Chemscore.Hbonds>
donor molecule, donor type, donor heavy atom, donor atom, acceptor molecule, acceptor atom, score
      L1  H     3    22       P1  8028  0.96
      L1  H     6    23       P1  8028  0.98
      L1  H    10    17       P1 10175  0.11

> <Gold.Chemscore.Hbond.Weighted>
-7.4192

> <Gold.Chemscore.Metal.Weighted>
-0.0000

> <Gold.Chemscore.Lipo.Weighted>
-9.7595

> <Gold.Chemscore.Internal_Hbond.Weighted>
0.0000

> <Gold.Chemscore.DEClash.Weighted>
0.1775

> <Gold.Chemscore.DEInternal.Weighted>
1.3713

> <Gold.Chemscore.Rot.Weighted>
3.3483

> <Gold.Chemscore.Internal.Correction.Weighted>
   9.000000E+99

> <Gold.Protein.RotatedTorsions>
[ 6907 6896 6895 6894 ] final -173.35 input  -60.11 | X-H torsion
[ 7974 7965 7964 7962 ] final  -50.93 input  175.53 | X-H torsion
[ 8008 7997 7996 7995 ] final  -69.91 input   59.86 | X-H torsion
[ 10167 10162 10161 10158 ] final -142.21 input  -65.29 | X-H torsion
[ 10718 10713 10712 10709 ] final   61.60 input   66.30 | X-H torsion
[ 10763 10752 10751 10750 ] final  -14.72 input  -60.55 | X-H torsion
[ 11005 11000 10999 10996 ] final  -34.10 input  -57.11 | X-H torsion

> <Gold.Protein.ActiveResidues>
 VAL166  LYS551  ARG553  GLY616  TRP617  ASP618  TYR619  PRO620  LYS621  CYS622 
 ASP623  PHE694  ASN695  SER759  ASP760  ASP761  ALA762  ILE779  LEU786  VAL792 
 PHE793  MET794  SER795  GLU796  ALA797  LYS798  CYS799  TRP800  GLU811  SER814 

> <Gold.Protein.RotatedAtoms>
  151.5547  133.3412  159.2959 H   0  0  0  0  0  0  0  0  0  0  0  0  # atno 6907 bound_to 6896
  150.8458  134.7769  159.6980 H   0  0  0  0  0  0  0  0  0  0  0  0  # atno 6908 bound_to 6896
  152.4516  134.5390  159.9885 H   0  0  0  0  0  0  0  0  0  0  0  0  # atno 6909 bound_to 6896
  145.9245  140.7805  142.9631 H   0  0  0  0  0  0  0  0  0  0  0  0  # atno 7974 bound_to 7965
  154.4973  140.0844  156.7723 H   0  0  0  0  0  0  0  0  0  0  0  0  # atno 8008 bound_to 7997
  155.4087  140.3440  155.4244 H   0  0  0  0  0  0  0  0  0  0  0  0  # atno 8009 bound_to 7997
  156.1410  140.1529  156.8908 H   0  0  0  0  0  0  0  0  0  0  0  0  # atno 8010 bound_to 7997
  139.8110  143.7703  152.2663 H   0  0  0  0  0  0  0  0  0  0  0  0  # atno 10167 bound_to 10162
  157.5840  130.9003  149.9481 H   0  0  0  0  0  0  0  0  0  0  0  0  # atno 10718 bound_to 10713
  153.5325  135.7014  153.5676 H   0  0  0  0  0  0  0  0  0  0  0  0  # atno 10763 bound_to 10752
  153.3677  135.3953  155.1765 H   0  0  0  0  0  0  0  0  0  0  0  0  # atno 10764 bound_to 10752
  154.8683  135.3804  154.4823 H   0  0  0  0  0  0  0  0  0  0  0  0  # atno 10765 bound_to 10752
  140.9688  133.7121  156.1490 H   0  0  0  0  0  0  0  0  0  0  0  0  # atno 11005 bound_to 11000
  144.6757  140.2028  143.7385 LP  0  0  0  0  0  0  0  0  0  0  0  0  # atno 17320 bound_to 7965
  145.8507  139.2174  143.1773 LP  0  0  0  0  0  0  0  0  0  0  0  0  # atno 17321 bound_to 7965
  139.7852  144.7430  151.0032 LP  0  0  0  0  0  0  0  0  0  0  0  0  # atno 17342 bound_to 10162
  140.7818  143.4500  151.0427 LP  0  0  0  0  0  0  0  0  0  0  0  0  # atno 17343 bound_to 10162
  156.0887  130.3665  150.0436 LP  0  0  0  0  0  0  0  0  0  0  0  0  # atno 17370 bound_to 10713
  156.8571  130.9479  151.3621 LP  0  0  0  0  0  0  0  0  0  0  0  0  # atno 17371 bound_to 10713
  140.7359  134.4203  157.5560 LP  0  0  0  0  0  0  0  0  0  0  0  0  # atno 17394 bound_to 11000
  139.8904  134.8804  156.2369 LP  0  0  0  0  0  0  0  0  0  0  0  0  # atno 17395 bound_to 11000

$$$$
