AV-unprocessed.smi:2656|AV-procd|sdf|10306|dock8
  -GOLD-   2272014323D 1   1.00000     0.00000
 Structure written by MMmdl.
 44 45  0  0  0  0  0  0  0  0  2 V2000
  150.1535  129.4696  154.8062 C   0  0  0  0  0  0  0  0  0  0  0  0
  151.3548  130.0972  155.3639 N   0  0  0  0  0  0  0  0  0  0  0  0
  152.2714  129.1446  156.0019 C   0  0  0  0  0  0  0  0  0  0  0  0
  151.6669  131.4219  155.3549 C   0  0  0  0  0  0  0  0  0  0  0  0
  152.7398  131.7983  155.8334 O   0  0  0  0  0  0  0  0  0  0  0  0
  150.6982  132.5102  154.7721 C   0  0  0  0  0  0  0  0  0  0  0  0
  150.3284  132.2735  153.2733 C   0  0  0  0  0  0  0  0  0  0  0  0
  149.3428  133.2238  152.7555 N   0  0  0  0  0  0  0  0  0  0  0  0
  148.0947  132.9235  152.3696 C   0  0  0  0  0  0  0  0  0  0  0  0
  147.6137  131.7930  152.4398 O   0  0  0  0  0  0  0  0  0  0  0  0
  147.4638  134.0051  151.8807 N   0  0  0  0  0  0  0  0  0  0  0  0
  146.1524  134.0907  151.3389 C   0  0  0  0  0  0  0  0  0  0  0  0
  145.5040  132.8820  151.0010 C   0  0  0  0  0  0  0  0  0  0  0  0
  144.2065  132.9190  150.4509 C   0  0  0  0  0  0  0  0  0  0  0  0
  143.5989  134.1064  150.2408 N   0  3  0  0  0  0  0  0  0  0  0  0
  144.1846  135.2879  150.5316 C   0  0  0  0  0  0  0  0  0  0  0  0
  145.4812  135.3140  151.0845 C   0  0  0  0  0  0  0  0  0  0  0  0
  149.3826  132.5807  155.5993 C   0  0  0  0  0  0  0  0  0  0  0  0
  149.6609  133.4367  156.8408 C   0  0  0  0  0  0  0  0  0  0  0  0
  150.8833  134.2871  156.4886 C   0  0  0  0  0  0  0  0  0  0  0  0
  151.2414  133.9339  155.0394 C   0  0  0  0  0  0  0  0  0  0  0  0
  149.7639  129.9720  153.9257 H   0  0  0  0  0  0  0  0  0  0  0  0
  149.3669  129.4345  155.5603 H   0  0  0  0  0  0  0  0  0  0  0  0
  150.3498  128.4441  154.4914 H   0  0  0  0  0  0  0  0  0  0  0  0
  153.2023  129.0768  155.4374 H   0  0  0  0  0  0  0  0  0  0  0  0
  151.8552  128.1391  156.0731 H   0  0  0  0  0  0  0  0  0  0  0  0
  152.5120  129.4556  157.0201 H   0  0  0  0  0  0  0  0  0  0  0  0
  151.2263  132.3053  152.6536 H   0  0  0  0  0  0  0  0  0  0  0  0
  149.9461  131.2700  153.1061 H   0  0  0  0  0  0  0  0  0  0  0  0
  149.6492  134.1811  152.6619 H   0  0  0  0  0  0  0  0  0  0  0  0
  148.0167  134.8472  151.8152 H   0  0  0  0  0  0  0  0  0  0  0  0
  145.9907  131.9318  151.1686 H   0  0  0  0  0  0  0  0  0  0  0  0
  143.6412  132.0411  150.1739 H   0  0  0  0  0  0  0  0  0  0  0  0
  143.6048  136.1722  150.3104 H   0  0  0  0  0  0  0  0  0  0  0  0
  145.9382  136.2698  151.2913 H   0  0  0  0  0  0  0  0  0  0  0  0
  148.6050  133.0814  155.0209 H   0  0  0  0  0  0  0  0  0  0  0  0
  148.9734  131.6035  155.8597 H   0  0  0  0  0  0  0  0  0  0  0  0
  148.7976  134.0514  157.0978 H   0  0  0  0  0  0  0  0  0  0  0  0
  149.8793  132.8058  157.7030 H   0  0  0  0  0  0  0  0  0  0  0  0
  150.6883  135.3536  156.6045 H   0  0  0  0  0  0  0  0  0  0  0  0
  151.7109  134.0326  157.1520 H   0  0  0  0  0  0  0  0  0  0  0  0
  152.3125  134.0447  154.8825 H   0  0  0  0  0  0  0  0  0  0  0  0
  150.7532  134.6427  154.3688 H   0  0  0  0  0  0  0  0  0  0  0  0
  142.6598  134.1114  149.8414 H   0  0  0  0  0  0  0  0  0  0  0  0
  1  2  1  0  0  0  0
  1 22  1  0  0  0  0
  1 23  1  0  0  0  0
  1 24  1  0  0  0  0
  2  3  1  0  0  0  0
  2  4  1  0  0  0  0
  3 25  1  0  0  0  0
  3 26  1  0  0  0  0
  3 27  1  0  0  0  0
  4  5  2  0  0  0  0
  4  6  1  0  0  0  0
  6 21  1  0  0  0  0
  6  7  1  0  0  0  0
  6 18  1  0  0  0  0
  7  8  1  0  0  0  0
  7 28  1  0  0  0  0
  7 29  1  0  0  0  0
  8  9  1  0  0  0  0
  8 30  1  0  0  0  0
  9 10  2  0  0  0  0
  9 11  1  0  0  0  0
 11 12  1  0  0  0  0
 11 31  1  0  0  0  0
 12 17  1  0  0  0  0
 12 13  2  0  0  0  0
 13 14  1  0  0  0  0
 13 32  1  0  0  0  0
 14 15  2  0  0  0  0
 14 33  1  0  0  0  0
 15 16  1  0  0  0  0
 15 44  1  0  0  0  0
 16 17  2  0  0  0  0
 16 34  1  0  0  0  0
 17 35  1  0  0  0  0
 18 19  1  0  0  0  0
 18 36  1  0  0  0  0
 18 37  1  0  0  0  0
 19 20  1  0  0  0  0
 19 38  1  0  0  0  0
 19 39  1  0  0  0  0
 20 21  1  0  0  0  0
 20 40  1  0  0  0  0
 20 41  1  0  0  0  0
 21 42  1  0  0  0  0
 21 43  1  0  0  0  0
M  CHG  1  15   1
M  END
> <s_m_source_file>
AV-unprocessed.smi

> <i_m_source_file_index>
2656

> <i_lp_mmshare_version>
43012

> <i_f3d_flags>
0

> <s_epik_input>
W0NIMl0xW0NIMl1bQ0gyXVtDSDJdQzEoQyg9TylOKFtDSDNdKVtDSDNdKVtDSDJdW05IXUMoPU8pW05IXWMyW2NIXVtjSF1uW2NIXVtjSF0y

> <s_epik_cmdline>
J2VwaWtfcHl0aG9uJywgJy1waCcsICc3LjAnLCAnLXRuJywgJzgnLCAnLW1hJywgJzIwMCcsICctbWV0YWxfYmluZGluZycsICctaW1hZScsICc8aW5maWxlLm1hZT4nLCAnLW9tYWUnLCAnPG91dGZpbGUubWFlPic=

> <r_epik_Ionization_Penalty>
1.05774

> <r_epik_Ionization_Penalty_Charging>
1.05772

> <r_epik_Ionization_Penalty_Neutral>
1.88023e-05

> <r_epik_State_Penalty>
1.11116

> <r_epik_Charging_Adjusted_Penalty>
2.16887

> <i_epik_Tot_Q>
1

> <i_epik_Tot_abs_Q>
1

> <r_epik_Metal_State_Penalty>
1.20442

> <b_epik_Metal_Only>
0

> <s_lp_Force_Field>
OPLS_2005

> <r_lp_Energy>
45.9804

> <b_lp_Chiralities_Consistent>
1

> <s_lp_Variant>
AV-unprocessed.smi:2656-2

> <Gold.Version>
5.8.1

> <Gold.Id.Protein>
6NUR|6NUR_protein|mol2

> <Gold.PLP.Fitness>
41.7104

> <Gold.PLP.PLP>
-29.7784

> <Gold.PLP.part.hbond>
-3.7019

> <Gold.PLP.part.metal>
0.0000

> <Gold.PLP.part.buried>
-4.3277

> <Gold.PLP.part.nonpolar>
-21.9040

> <Gold.PLP.part.repulsive>
0.1445

> <Gold.PLP.ligand.clash>
0.0000

> <Gold.PLP.ligand.torsion>
0.1527

> <Gold.PLP.Chemscore.Hbond>
4.0220

> <Gold.PLP.Chemscore.CHOScore>
0.0000

> <Gold.PLP.Chemscore.Metal>
0.0000

> <Gold.Chemscore.Hbonds>
donor molecule, donor type, donor heavy atom, donor atom, acceptor molecule, acceptor atom, score
      L1  H    11    31       P1  7948  0.95
      L1  H    15    44       P1 10186  2.00

> <Gold.PLP.Chemscore.Internal.Correction>
0.1714

> <Gold.Rescore>
     Score         DG    S(hbond)    S(metal)    S(lipo)     H(rot)  DE(clash)    DE(int)     intcor
     16.55     -18.23       2.91        0.00      59.49       1.54       0.00       1.68       ----

> <Gold.Chemscore.Fitness>
16.5516

> <Gold.Chemscore.DG>
-18.2292

> <Gold.Chemscore.ZeroCoef>
-5.4800

> <Gold.Chemscore.Hbond>
2.9141

> <Gold.Chemscore.Metal>
0.0000

> <Gold.Chemscore.Lipo>
59.4886

> <Gold.Chemscore.Internal_Hbond>
0.0000

> <Gold.Chemscore.DEClash>
0.0009

> <Gold.Chemscore.DEInternal>
1.6768

> <Gold.Chemscore.Rot>
1.5406

> <Gold.Chemscore.Internal.Correction>
   9.000000E+99

> <Gold.Chemscore.Hbonds>
donor molecule, donor type, donor heavy atom, donor atom, acceptor molecule, acceptor atom, score
      L1  H    11    31       P1  7948  0.21
      L1  H    15    44       P1 10186  1.00

> <Gold.Chemscore.Hbond.Weighted>
-9.7330

> <Gold.Chemscore.Metal.Weighted>
-0.0000

> <Gold.Chemscore.Lipo.Weighted>
-6.9602

> <Gold.Chemscore.Internal_Hbond.Weighted>
0.0000

> <Gold.Chemscore.DEClash.Weighted>
0.0009

> <Gold.Chemscore.DEInternal.Weighted>
1.6768

> <Gold.Chemscore.Rot.Weighted>
3.9440

> <Gold.Chemscore.Internal.Correction.Weighted>
   9.000000E+99

> <Gold.Protein.RotatedTorsions>
[ 6907 6896 6895 6894 ] final -174.79 input  -60.11 | X-H torsion
[ 7974 7965 7964 7962 ] final   59.00 input  175.53 | X-H torsion
[ 8008 7997 7996 7995 ] final -166.00 input   59.86 | X-H torsion
[ 10167 10162 10161 10158 ] final -117.87 input  -65.29 | X-H torsion
[ 10718 10713 10712 10709 ] final  128.65 input   66.30 | X-H torsion
[ 10763 10752 10751 10750 ] final  158.82 input  -60.55 | X-H torsion
[ 11005 11000 10999 10996 ] final  171.14 input  -57.11 | X-H torsion

> <Gold.Protein.ActiveResidues>
 VAL166  LYS551  ARG553  GLY616  TRP617  ASP618  TYR619  PRO620  LYS621  CYS622 
 ASP623  PHE694  ASN695  SER759  ASP760  ASP761  ALA762  ILE779  LEU786  VAL792 
 PHE793  MET794  SER795  GLU796  ALA797  LYS798  CYS799  TRP800  GLU811  SER814 

> <Gold.Protein.RotatedAtoms>
  151.5781  133.3381  159.3002 H   0  0  0  0  0  0  0  0  0  0  0  0  # atno 6907 bound_to 6896
  150.8329  134.7593  159.6880 H   0  0  0  0  0  0  0  0  0  0  0  0  # atno 6908 bound_to 6896
  152.4410  134.5598  159.9942 H   0  0  0  0  0  0  0  0  0  0  0  0  # atno 6909 bound_to 6896
  145.9120  139.3661  143.0530 H   0  0  0  0  0  0  0  0  0  0  0  0  # atno 7974 bound_to 7965
  155.8577  140.0973  157.1634 H   0  0  0  0  0  0  0  0  0  0  0  0  # atno 8008 bound_to 7997
  154.3988  140.1371  156.3984 H   0  0  0  0  0  0  0  0  0  0  0  0  # atno 8009 bound_to 7997
  155.7892  140.3456  155.5342 H   0  0  0  0  0  0  0  0  0  0  0  0  # atno 8010 bound_to 7997
  140.0636  143.4944  152.2018 H   0  0  0  0  0  0  0  0  0  0  0  0  # atno 10167 bound_to 10162
  157.5225  131.1098  150.9132 H   0  0  0  0  0  0  0  0  0  0  0  0  # atno 10718 bound_to 10713
  154.2220  135.2781  155.2921 H   0  0  0  0  0  0  0  0  0  0  0  0  # atno 10763 bound_to 10752
  154.5694  135.5623  153.7084 H   0  0  0  0  0  0  0  0  0  0  0  0  # atno 10764 bound_to 10752
  153.0039  135.6317  154.2361 H   0  0  0  0  0  0  0  0  0  0  0  0  # atno 10765 bound_to 10752
  140.3158  134.7479  157.4026 H   0  0  0  0  0  0  0  0  0  0  0  0  # atno 11005 bound_to 11000
  145.8659  140.9448  143.0676 LP  0  0  0  0  0  0  0  0  0  0  0  0  # atno 17320 bound_to 7965
  144.6744  140.0592  143.7476 LP  0  0  0  0  0  0  0  0  0  0  0  0  # atno 17321 bound_to 7965
  139.5878  144.7538  151.3475 LP  0  0  0  0  0  0  0  0  0  0  0  0  # atno 17342 bound_to 10162
  140.7160  143.7266  150.7655 LP  0  0  0  0  0  0  0  0  0  0  0  0  # atno 17343 bound_to 10162
  156.9738  130.5501  149.5292 LP  0  0  0  0  0  0  0  0  0  0  0  0  # atno 17370 bound_to 10713
  156.0364  130.5451  150.8663 LP  0  0  0  0  0  0  0  0  0  0  0  0  # atno 17371 bound_to 10713
  140.0985  134.5505  155.8375 LP  0  0  0  0  0  0  0  0  0  0  0  0  # atno 17394 bound_to 11000
  141.2098  133.6687  156.6464 LP  0  0  0  0  0  0  0  0  0  0  0  0  # atno 17395 bound_to 11000

$$$$
