AV-unprocessed.smi:1724|AV-procd|sdf|6951|dock1
  -GOLD-   22720 8163D 1   1.00000     0.00000
 Structure written by MMmdl.
 37 38  0  0  0  0  0  0  0  0  2 V2000
  145.5635  138.3831  153.6507 O   0  0  0  0  0  0  0  0  0  0  0  0
  146.5100  137.8669  153.0573 C   0  0  0  0  0  0  0  0  0  0  0  0
  146.3790  136.8023  152.2523 N   0  0  0  0  0  0  0  0  0  0  0  0
  145.1325  136.0933  151.9750 C   0  0  0  0  0  0  0  0  0  0  0  0
  145.3363  134.8910  151.0299 C   0  0  2  0  0  0  0  0  0  0  0  0
  144.0271  134.1457  150.7064 C   0  0  0  0  0  0  0  0  0  0  0  0
  144.3165  132.9106  149.8461 C   0  0  0  0  0  0  0  0  0  0  0  0
  145.3915  132.0352  150.5066 C   0  0  0  0  0  0  0  0  0  0  0  0
  146.5672  132.8052  150.7293 O   0  0  0  0  0  0  0  0  0  0  0  0
  146.3571  133.8963  151.6199 C   0  0  0  0  0  0  0  0  0  0  0  0
  147.7910  138.2770  153.0988 N   0  0  0  0  0  0  0  0  0  0  0  0
  148.3762  139.3315  153.8218 C   0  0  0  0  0  0  0  0  0  0  0  0
  149.4316  139.2055  154.6736 C   0  0  0  0  0  0  0  0  0  0  0  0
  150.0012  140.3430  155.3849 C   0  0  0  0  0  0  0  0  0  0  0  0
  151.1113  140.2220  156.4138 C   0  0  0  0  0  0  0  0  0  0  0  0
  151.3875  141.4048  156.9635 F   0  0  0  0  0  0  0  0  0  0  0  0
  150.7717  139.3753  157.3859 F   0  0  0  0  0  0  0  0  0  0  0  0
  152.2197  139.7646  155.8332 F   0  0  0  0  0  0  0  0  0  0  0  0
  149.3444  141.5236  155.0976 C   0  0  0  0  0  0  0  0  0  0  0  0
  148.3136  141.7391  154.2516 N   0  5  0  0  0  0  0  0  0  0  0  0
  147.7890  140.6683  153.5913 C   0  0  0  0  0  0  0  0  0  0  0  0
  146.8437  140.7935  152.8117 O   0  0  0  0  0  0  0  0  0  0  0  0
  147.2098  136.4506  151.7996 H   0  0  0  0  0  0  0  0  0  0  0  0
  144.7426  135.7420  152.9307 H   0  0  0  0  0  0  0  0  0  0  0  0
  144.3760  136.7695  151.5726 H   0  0  0  0  0  0  0  0  0  0  0  0
  145.7487  135.2682  150.0925 H   0  0  0  0  0  0  0  0  0  0  0  0
  143.5359  133.8412  151.6318 H   0  0  0  0  0  0  0  0  0  0  0  0
  143.3281  134.7971  150.1811 H   0  0  0  0  0  0  0  0  0  0  0  0
  143.4025  132.3360  149.6930 H   0  0  0  0  0  0  0  0  0  0  0  0
  144.6587  133.2238  148.8589 H   0  0  0  0  0  0  0  0  0  0  0  0
  145.0314  131.6186  151.4488 H   0  0  0  0  0  0  0  0  0  0  0  0
  145.6385  131.1931  149.8598 H   0  0  0  0  0  0  0  0  0  0  0  0
  147.3140  134.3931  151.7828 H   0  0  0  0  0  0  0  0  0  0  0  0
  146.0257  133.5244  152.5909 H   0  0  0  0  0  0  0  0  0  0  0  0
  148.4396  137.7741  152.5108 H   0  0  0  0  0  0  0  0  0  0  0  0
  149.9009  138.2510  154.8415 H   0  0  0  0  0  0  0  0  0  0  0  0
  149.6976  142.4314  155.6318 H   0  0  0  0  0  0  0  0  0  0  0  0
  1  2  2  0  0  0  0
  2  3  1  0  0  0  0
  2 11  1  0  0  0  0
  3  4  1  0  0  0  0
  3 23  1  0  0  0  0
  4  5  1  0  0  0  0
  4 24  1  0  0  0  0
  4 25  1  0  0  0  0
  5 10  1  0  0  0  0
  5  6  1  0  0  0  0
  5 26  1  0  0  0  0
  6  7  1  0  0  0  0
  6 27  1  0  0  0  0
  6 28  1  0  0  0  0
  7  8  1  0  0  0  0
  7 29  1  0  0  0  0
  7 30  1  0  0  0  0
  8  9  1  0  0  0  0
  8 31  1  0  0  0  0
  8 32  1  0  0  0  0
  9 10  1  0  0  0  0
 10 33  1  0  0  0  0
 10 34  1  0  0  0  0
 11 12  1  0  0  0  0
 11 35  1  0  0  0  0
 12 21  1  0  0  0  0
 12 13  2  0  0  0  0
 13 14  1  0  0  0  0
 13 36  1  0  0  0  0
 14 15  1  0  0  0  0
 14 19  2  0  0  0  0
 15 16  1  0  0  0  0
 15 17  1  0  0  0  0
 15 18  1  0  0  0  0
 19 20  1  0  0  0  0
 19 37  1  0  0  0  0
 20 21  1  0  0  0  0
 21 22  2  0  0  0  0
M  CHG  1  20  -1
M  END
> <s_m_source_file>
AV-unprocessed.smi

> <i_m_source_file_index>
1724

> <i_lp_mmshare_version>
43012

> <i_f3d_flags>
0

> <s_epik_input>
Tz1jMVtuSF1bY0hdYyhDKEYpKEYpRilbY0hdYzFbTkhdQyg9TylbTkhdW0NIMl1bQ0BASF0yW0NIMl1bQ0gyXVtDSDJdT1tDSDJdMg==

> <s_epik_cmdline>
J2VwaWtfcHl0aG9uJywgJy1waCcsICc3LjAnLCAnLXRuJywgJzgnLCAnLW1hJywgJzIwMCcsICctbWV0YWxfYmluZGluZycsICctaW1hZScsICc8aW5maWxlLm1hZT4nLCAnLW9tYWUnLCAnPG91dGZpbGUubWFlPic=

> <r_lp_tautomer_probability>
1

> <r_epik_Ionization_Penalty>
3.16025

> <r_epik_Ionization_Penalty_Charging>
0.171172

> <r_epik_Ionization_Penalty_Neutral>
2.98908

> <r_epik_State_Penalty>
2.98521

> <r_epik_Charging_Adjusted_Penalty>
3.15638

> <i_epik_Tot_Q>
-1

> <i_epik_Tot_abs_Q>
1

> <r_epik_Metal_State_Penalty>
0.452642

> <b_epik_Metal_Only>
1

> <s_lp_Force_Field>
OPLS_2005

> <r_lp_Energy>
24.3751

> <b_lp_Chiralities_Consistent>
1

> <s_lp_Variant>
AV-unprocessed.smi:1724-3

> <Gold.Version>
5.8.1

> <Gold.Id.Protein>
6NUR|6NUR_protein|mol2

> <Gold.PLP.Fitness>
40.6584

> <Gold.PLP.PLP>
-35.7568

> <Gold.PLP.part.hbond>
-3.2961

> <Gold.PLP.part.metal>
0.0000

> <Gold.PLP.part.buried>
-2.1929

> <Gold.PLP.part.nonpolar>
-32.7670

> <Gold.PLP.part.repulsive>
1.7819

> <Gold.PLP.ligand.clash>
0.0000

> <Gold.PLP.ligand.torsion>
0.5402

> <Gold.PLP.Chemscore.Hbond>
1.9680

> <Gold.PLP.Chemscore.CHOScore>
0.0000

> <Gold.PLP.Chemscore.Metal>
0.0000

> <Gold.Chemscore.Hbonds>
donor molecule, donor type, donor heavy atom, donor atom, acceptor molecule, acceptor atom, score
      L1  H     3    23       P1  7948  0.99
      L1  H    11    35       P1  7948  0.98

> <Gold.PLP.Chemscore.Internal.Correction>
0.0779

> <Gold.Rescore>
     Score         DG    S(hbond)    S(metal)    S(lipo)     H(rot)  DE(clash)    DE(int)     intcor
     15.14     -16.21       1.88        0.00      67.04       1.32       0.36       0.70       ----

> <Gold.Chemscore.Fitness>
15.1406

> <Gold.Chemscore.DG>
-16.2053

> <Gold.Chemscore.ZeroCoef>
-5.4800

> <Gold.Chemscore.Hbond>
1.8781

> <Gold.Chemscore.Metal>
0.0000

> <Gold.Chemscore.Lipo>
67.0417

> <Gold.Chemscore.Internal_Hbond>
0.0000

> <Gold.Chemscore.DEClash>
0.3621

> <Gold.Chemscore.DEInternal>
0.7026

> <Gold.Chemscore.Rot>
1.3248

> <Gold.Chemscore.Internal.Correction>
   9.000000E+99

> <Gold.Chemscore.Hbonds>
donor molecule, donor type, donor heavy atom, donor atom, acceptor molecule, acceptor atom, score
      L1  H     3    23       P1  7948  0.93
      L1  H    11    35       P1  7948  0.93

> <Gold.Chemscore.Hbond.Weighted>
-6.2730

> <Gold.Chemscore.Metal.Weighted>
-0.0000

> <Gold.Chemscore.Lipo.Weighted>
-7.8439

> <Gold.Chemscore.Internal_Hbond.Weighted>
0.0000

> <Gold.Chemscore.DEClash.Weighted>
0.3621

> <Gold.Chemscore.DEInternal.Weighted>
0.7026

> <Gold.Chemscore.Rot.Weighted>
3.3915

> <Gold.Chemscore.Internal.Correction.Weighted>
   9.000000E+99

> <Gold.Protein.RotatedTorsions>
[ 6907 6896 6895 6894 ] final -129.77 input  -60.11 | X-H torsion
[ 7974 7965 7964 7962 ] final  -69.07 input  175.53 | X-H torsion
[ 8008 7997 7996 7995 ] final  153.14 input   59.86 | X-H torsion
[ 10167 10162 10161 10158 ] final  103.86 input  -65.29 | X-H torsion
[ 10718 10713 10712 10709 ] final -117.67 input   66.30 | X-H torsion
[ 10763 10752 10751 10750 ] final  -36.38 input  -60.55 | X-H torsion
[ 11005 11000 10999 10996 ] final  101.43 input  -57.11 | X-H torsion

> <Gold.Protein.ActiveResidues>
 VAL166  LYS551  ARG553  GLY616  TRP617  ASP618  TYR619  PRO620  LYS621  CYS622 
 ASP623  PHE694  ASN695  SER759  ASP760  ASP761  ALA762  ILE779  LEU786  VAL792 
 PHE793  MET794  SER795  GLU796  ALA797  LYS798  CYS799  TRP800  GLU811  SER814 

> <Gold.Protein.RotatedAtoms>
  150.9323  133.6752  159.2807 H   0  0  0  0  0  0  0  0  0  0  0  0  # atno 6907 bound_to 6896
  151.4169  135.0991  159.9612 H   0  0  0  0  0  0  0  0  0  0  0  0  # atno 6908 bound_to 6896
  152.5032  133.8784  159.7388 H   0  0  0  0  0  0  0  0  0  0  0  0  # atno 6909 bound_to 6896
  145.7084  140.9088  143.0693 H   0  0  0  0  0  0  0  0  0  0  0  0  # atno 7974 bound_to 7965
  156.2596  140.2002  156.6443 H   0  0  0  0  0  0  0  0  0  0  0  0  # atno 8008 bound_to 7997
  154.6585  140.0563  157.0060 H   0  0  0  0  0  0  0  0  0  0  0  0  # atno 8009 bound_to 7997
  155.1311  140.3234  155.4476 H   0  0  0  0  0  0  0  0  0  0  0  0  # atno 8010 bound_to 7997
  139.7226  144.7054  151.0848 H   0  0  0  0  0  0  0  0  0  0  0  0  # atno 10167 bound_to 10162
  156.1050  130.6203  150.9193 H   0  0  0  0  0  0  0  0  0  0  0  0  # atno 10718 bound_to 10713
  153.8788  135.6823  153.4768 H   0  0  0  0  0  0  0  0  0  0  0  0  # atno 10763 bound_to 10752
  153.1245  135.4725  154.9248 H   0  0  0  0  0  0  0  0  0  0  0  0  # atno 10764 bound_to 10752
  154.7679  135.3229  154.8201 H   0  0  0  0  0  0  0  0  0  0  0  0  # atno 10765 bound_to 10752
  139.8773  134.9183  156.4906 H   0  0  0  0  0  0  0  0  0  0  0  0  # atno 11005 bound_to 11000
  144.6948  139.9042  143.7460 LP  0  0  0  0  0  0  0  0  0  0  0  0  # atno 17320 bound_to 7965
  146.0734  139.3723  143.0509 LP  0  0  0  0  0  0  0  0  0  0  0  0  # atno 17321 bound_to 7965
  140.7756  143.5146  150.9610 LP  0  0  0  0  0  0  0  0  0  0  0  0  # atno 17342 bound_to 10162
  139.8833  143.7044  152.3154 LP  0  0  0  0  0  0  0  0  0  0  0  0  # atno 17343 bound_to 10162
  157.6226  131.0928  150.8594 LP  0  0  0  0  0  0  0  0  0  0  0  0  # atno 17370 bound_to 10713
  156.8715  130.5147  149.5296 LP  0  0  0  0  0  0  0  0  0  0  0  0  # atno 17371 bound_to 10713
  140.8661  133.8023  155.9315 LP  0  0  0  0  0  0  0  0  0  0  0  0  # atno 17394 bound_to 11000
  140.9000  134.2390  157.5047 LP  0  0  0  0  0  0  0  0  0  0  0  0  # atno 17395 bound_to 11000

$$$$
