AV-unprocessed.smi:1971|AV-procd|sdf|7969|dock6
  -GOLD-   2272010143D 1   1.00000     0.00000
 Structure written by MMmdl.
 43 44  0  0  0  0  0  0  0  0  3 V2000
  145.9815  142.2757  154.5851 C   0  0  0  0  0  0  0  0  0  0  0  0
  147.3399  141.6439  154.2486 C   0  0  0  0  0  0  0  0  0  0  0  0
  148.2667  141.6347  155.4075 N   0  3  0  0  0  0  0  0  0  0  0  0
  149.6700  141.3657  155.0069 C   0  0  0  0  0  0  0  0  0  0  0  0
  150.6079  141.3843  156.2357 C   0  0  0  0  0  0  0  0  0  0  0  0
  150.2044  140.4054  157.2568 N   0  0  0  0  0  0  0  0  0  0  0  0
  150.3792  138.9914  156.8547 C   0  0  1  0  0  0  0  0  0  0  0  0
  151.6164  138.8488  155.9366 C   0  0  0  0  0  0  0  0  0  0  0  0
  150.5065  138.0436  158.0793 C   0  0  0  0  0  0  0  0  0  0  0  0
  149.2999  138.0290  158.9012 N   0  0  0  0  0  0  0  0  0  0  0  0
  148.8103  136.9618  159.5493 C   0  0  0  0  0  0  0  0  0  0  0  0
  149.3842  135.8729  159.4628 O   0  0  0  0  0  0  0  0  0  0  0  0
  147.6903  137.2232  160.2595 N   0  5  0  0  0  0  0  0  0  0  0  0
  147.2432  136.3347  161.1620 C   0  0  0  0  0  0  0  0  0  0  0  0
  147.8489  135.1649  161.3959 N   0  0  0  0  0  0  0  0  0  0  0  0
  147.2202  134.4014  162.3810 C   0  0  0  0  0  0  0  0  0  0  0  0
  146.1136  135.0069  162.9145 C   0  0  0  0  0  0  0  0  0  0  0  0
  145.8270  136.5640  162.1915 S   0  0  0  0  0  0  0  0  0  0  0  0
  148.8478  140.7914  157.6694 C   0  0  0  0  0  0  0  0  0  0  0  0
  147.8507  140.7136  156.4950 C   0  0  0  0  0  0  0  0  0  0  0  0
  145.3645  142.3576  153.6900 H   0  0  0  0  0  0  0  0  0  0  0  0
  146.1035  143.2792  154.9938 H   0  0  0  0  0  0  0  0  0  0  0  0
  145.4222  141.6819  155.3076 H   0  0  0  0  0  0  0  0  0  0  0  0
  147.2090  140.6308  153.8654 H   0  0  0  0  0  0  0  0  0  0  0  0
  147.7884  142.2245  153.4412 H   0  0  0  0  0  0  0  0  0  0  0  0
  149.7348  140.4186  154.4705 H   0  0  0  0  0  0  0  0  0  0  0  0
  149.9926  142.1361  154.3059 H   0  0  0  0  0  0  0  0  0  0  0  0
  151.6408  141.2351  155.9277 H   0  0  0  0  0  0  0  0  0  0  0  0
  150.5908  142.3788  156.6842 H   0  0  0  0  0  0  0  0  0  0  0  0
  149.5073  138.6709  156.2873 H   0  0  0  0  0  0  0  0  0  0  0  0
  151.8198  137.8068  155.6907 H   0  0  0  0  0  0  0  0  0  0  0  0
  152.5116  139.2504  156.4127 H   0  0  0  0  0  0  0  0  0  0  0  0
  151.4858  139.3513  154.9798 H   0  0  0  0  0  0  0  0  0  0  0  0
  150.7114  137.0247  157.7492 H   0  0  0  0  0  0  0  0  0  0  0  0
  151.3250  138.3281  158.7392 H   0  0  0  0  0  0  0  0  0  0  0  0
  148.7990  138.9004  158.9956 H   0  0  0  0  0  0  0  0  0  0  0  0
  147.6304  133.4371  162.6411 H   0  0  0  0  0  0  0  0  0  0  0  0
  145.4544  134.6360  163.6846 H   0  0  0  0  0  0  0  0  0  0  0  0
  148.5034  140.1992  158.5149 H   0  0  0  0  0  0  0  0  0  0  0  0
  148.8767  141.8143  158.0474 H   0  0  0  0  0  0  0  0  0  0  0  0
  146.8641  140.9953  156.8603 H   0  0  0  0  0  0  0  0  0  0  0  0
  147.7620  139.6938  156.1180 H   0  0  0  0  0  0  0  0  0  0  0  0
  148.2593  142.5670  155.7957 H   0  0  0  0  0  0  0  0  0  0  0  0
  1  2  1  0  0  0  0
  1 21  1  0  0  0  0
  1 22  1  0  0  0  0
  1 23  1  0  0  0  0
  2  3  1  0  0  0  0
  2 24  1  0  0  0  0
  2 25  1  0  0  0  0
  3 20  1  0  0  0  0
  3  4  1  0  0  0  0
  3 43  1  0  0  0  0
  4  5  1  0  0  0  0
  4 26  1  0  0  0  0
  4 27  1  0  0  0  0
  5  6  1  0  0  0  0
  5 28  1  0  0  0  0
  5 29  1  0  0  0  0
  6  7  1  0  0  0  0
  6 19  1  0  0  0  0
  7  8  1  0  0  0  0
  7  9  1  0  0  0  0
  7 30  1  0  0  0  0
  8 31  1  0  0  0  0
  8 32  1  0  0  0  0
  8 33  1  0  0  0  0
  9 10  1  0  0  0  0
  9 34  1  0  0  0  0
  9 35  1  0  0  0  0
 10 11  1  0  0  0  0
 10 36  1  0  0  0  0
 11 12  2  0  0  0  0
 11 13  1  0  0  0  0
 13 14  1  0  0  0  0
 14 18  1  0  0  0  0
 14 15  2  0  0  0  0
 15 16  1  0  0  0  0
 16 17  2  0  0  0  0
 16 37  1  0  0  0  0
 17 18  1  0  0  0  0
 17 38  1  0  0  0  0
 19 20  1  0  0  0  0
 19 39  1  0  0  0  0
 19 40  1  0  0  0  0
 20 41  1  0  0  0  0
 20 42  1  0  0  0  0
M  CHG  1   3   1
M  CHG  1  13  -1
M  END
> <s_m_source_file>
AV-unprocessed.smi

> <i_m_source_file_index>
1971

> <i_lp_mmshare_version>
43012

> <i_f3d_flags>
0

> <s_epik_input>
W0NIM11bQ0gyXU4xW0NIMl1bQ0gyXU4oW0NIMl1bQ0gyXTEpW0NASF0oW0NIM10pW0NIMl1bTkhdQyg9TylbTkhdYzJuW2NIXVtjSF1zMg==

> <s_epik_cmdline>
J2VwaWtfcHl0aG9uJywgJy1waCcsICc3LjAnLCAnLXRuJywgJzgnLCAnLW1hJywgJzIwMCcsICctbWV0YWxfYmluZGluZycsICctaW1hZScsICc8aW5maWxlLm1hZT4nLCAnLW9tYWUnLCAnPG91dGZpbGUubWFlPic=

> <r_lp_tautomer_probability>
0.999

> <r_epik_Ionization_Penalty>
7.06996

> <r_epik_Ionization_Penalty_Charging>
5.92347

> <r_epik_Ionization_Penalty_Neutral>
1.14649

> <r_epik_State_Penalty>
6.04391

> <r_epik_Charging_Adjusted_Penalty>
11.9674

> <i_epik_Tot_Q>
0

> <i_epik_Tot_abs_Q>
2

> <r_epik_Metal_State_Penalty>
2.01291

> <b_epik_Metal_Only>
1

> <s_lp_Force_Field>
OPLS_2005

> <r_lp_Energy>
11.7698

> <b_lp_Chiralities_Consistent>
1

> <s_lp_Variant>
AV-unprocessed.smi:1971-8

> <Gold.Version>
5.8.1

> <Gold.Id.Protein>
6NUR|6NUR_protein|mol2

> <Gold.PLP.Fitness>
46.3268

> <Gold.PLP.PLP>
-33.6590

> <Gold.PLP.part.hbond>
-3.5688

> <Gold.PLP.part.metal>
0.0000

> <Gold.PLP.part.buried>
-5.8483

> <Gold.PLP.part.nonpolar>
-25.9546

> <Gold.PLP.part.repulsive>
0.3174

> <Gold.PLP.ligand.clash>
0.1801

> <Gold.PLP.ligand.torsion>
0.7832

> <Gold.PLP.Chemscore.Hbond>
4.7663

> <Gold.PLP.Chemscore.CHOScore>
0.0000

> <Gold.PLP.Chemscore.Metal>
0.0000

> <Gold.Chemscore.Hbonds>
donor molecule, donor type, donor heavy atom, donor atom, acceptor molecule, acceptor atom, score
      L1  H     3    43       P1  8028  0.97
      P1  H  6896  6907       L1    12  1.00
      P1  H  6931  6943       L1    13  0.06
      P1  H  6934  6947       L1    13  1.79

> <Gold.PLP.Chemscore.Internal.Correction>
0.1154

> <Gold.Rescore>
     Score         DG    S(hbond)    S(metal)    S(lipo)     H(rot)  DE(clash)    DE(int)     intcor
     14.21     -17.07       2.44        0.00      67.77       1.75       0.28       2.58       ----

> <Gold.Chemscore.Fitness>
14.2124

> <Gold.Chemscore.DG>
-17.0729

> <Gold.Chemscore.ZeroCoef>
-5.4800

> <Gold.Chemscore.Hbond>
2.4388

> <Gold.Chemscore.Metal>
0.0000

> <Gold.Chemscore.Lipo>
67.7655

> <Gold.Chemscore.Internal_Hbond>
0.0000

> <Gold.Chemscore.DEClash>
0.2755

> <Gold.Chemscore.DEInternal>
2.5849

> <Gold.Chemscore.Rot>
1.7505

> <Gold.Chemscore.Internal.Correction>
   9.000000E+99

> <Gold.Chemscore.Hbonds>
donor molecule, donor type, donor heavy atom, donor atom, acceptor molecule, acceptor atom, score
      L1  H     3    43       P1  8028  0.45
      P1  H  6896  6907       L1    12  1.00
      P1  H  6934  6947       L1    13  0.51

> <Gold.Chemscore.Hbond.Weighted>
-8.1457

> <Gold.Chemscore.Metal.Weighted>
-0.0000

> <Gold.Chemscore.Lipo.Weighted>
-7.9286

> <Gold.Chemscore.Internal_Hbond.Weighted>
0.0000

> <Gold.Chemscore.DEClash.Weighted>
0.2755

> <Gold.Chemscore.DEInternal.Weighted>
2.5849

> <Gold.Chemscore.Rot.Weighted>
4.4813

> <Gold.Chemscore.Internal.Correction.Weighted>
   9.000000E+99

> <Gold.Protein.RotatedTorsions>
[ 6907 6896 6895 6894 ] final  -51.32 input  -60.11 | X-H torsion
[ 7974 7965 7964 7962 ] final -131.26 input  175.53 | X-H torsion
[ 8008 7997 7996 7995 ] final  -71.29 input   59.86 | X-H torsion
[ 10167 10162 10161 10158 ] final  -28.99 input  -65.29 | X-H torsion
[ 10718 10713 10712 10709 ] final  162.07 input   66.30 | X-H torsion
[ 10763 10752 10751 10750 ] final -120.86 input  -60.55 | X-H torsion
[ 11005 11000 10999 10996 ] final  -79.56 input  -57.11 | X-H torsion

> <Gold.Protein.ActiveResidues>
 VAL166  LYS551  ARG553  GLY616  TRP617  ASP618  TYR619  PRO620  LYS621  CYS622 
 ASP623  PHE694  ASN695  SER759  ASP760  ASP761  ALA762  ILE779  LEU786  VAL792 
 PHE793  MET794  SER795  GLU796  ALA797  LYS798  CYS799  TRP800  GLU811  SER814 

> <Gold.Protein.RotatedAtoms>
  150.8623  134.7977  159.7091 H   0  0  0  0  0  0  0  0  0  0  0  0  # atno 6907 bound_to 6896
  152.4656  134.5081  159.9755 H   0  0  0  0  0  0  0  0  0  0  0  0  # atno 6908 bound_to 6896
  151.5183  133.3433  159.2932 H   0  0  0  0  0  0  0  0  0  0  0  0  # atno 6909 bound_to 6896
  144.9396  140.7224  143.4855 H   0  0  0  0  0  0  0  0  0  0  0  0  # atno 7974 bound_to 7965
  154.5076  140.0818  156.7926 H   0  0  0  0  0  0  0  0  0  0  0  0  # atno 8008 bound_to 7997
  155.3857  140.3430  155.4230 H   0  0  0  0  0  0  0  0  0  0  0  0  # atno 8009 bound_to 7997
  156.1535  140.1566  156.8719 H   0  0  0  0  0  0  0  0  0  0  0  0  # atno 8010 bound_to 7997
  140.7265  143.3965  151.1339 H   0  0  0  0  0  0  0  0  0  0  0  0  # atno 10167 bound_to 10162
  157.1276  131.0508  151.2386 H   0  0  0  0  0  0  0  0  0  0  0  0  # atno 10718 bound_to 10713
  154.8654  135.4188  154.2527 H   0  0  0  0  0  0  0  0  0  0  0  0  # atno 10763 bound_to 10752
  153.3471  135.6997  153.6825 H   0  0  0  0  0  0  0  0  0  0  0  0  # atno 10764 bound_to 10752
  153.5780  135.3578  155.2836 H   0  0  0  0  0  0  0  0  0  0  0  0  # atno 10765 bound_to 10752
  141.1667  133.7111  156.8140 H   0  0  0  0  0  0  0  0  0  0  0  0  # atno 11005 bound_to 11000
  145.3012  139.1850  143.4689 LP  0  0  0  0  0  0  0  0  0  0  0  0  # atno 17320 bound_to 7965
  146.3280  140.3003  142.8620 LP  0  0  0  0  0  0  0  0  0  0  0  0  # atno 17321 bound_to 7965
  139.7578  143.8681  152.3093 LP  0  0  0  0  0  0  0  0  0  0  0  0  # atno 17342 bound_to 10162
  139.8556  144.7142  150.9161 LP  0  0  0  0  0  0  0  0  0  0  0  0  # atno 17343 bound_to 10162
  157.4421  130.7550  149.7078 LP  0  0  0  0  0  0  0  0  0  0  0  0  # atno 17370 bound_to 10713
  155.9815  130.4019  150.3470 LP  0  0  0  0  0  0  0  0  0  0  0  0  # atno 17371 bound_to 10713
  140.2167  134.8787  157.3333 LP  0  0  0  0  0  0  0  0  0  0  0  0  # atno 17394 bound_to 11000
  140.2030  134.4231  155.7652 LP  0  0  0  0  0  0  0  0  0  0  0  0  # atno 17395 bound_to 11000

$$$$
