#       Name:                AV-unprocessed.smi:40
#       Creating user name   scv26
#       Creation time:       Thu Mar 26 16:22:19 2020


#       File generated by GOLD software.
#

@<TRIPOS>MOLECULE
AV-unprocessed.smi:40
    58    59     1
SMALL
NO_CHARGES


@<TRIPOS>ATOM
      1 ****        -3.7154   3.9221  -1.0624 C.3            1 S1                 0.0000
      2 ****        -4.2258   3.3291   0.2555 C.3            1 S1                 0.0000
      3 ****        -3.6305   1.9448   0.5492 C.3            1 S1                 0.0000
      4 ****        -4.1367   1.3535   1.8740 C.3            1 S1                 0.0000
      5 ****        -3.5759  -0.0505   2.1549 C.3            1 S1                 0.0000
      6 ****        -2.1630  -0.0179   2.3084 O.3            1 S1                 0.0000
      7 ****        -1.5996   0.2643   3.5040 C.2            1 S1                 0.0000
      8 ****        -2.2323   0.4761   4.5381 O.2            1 S1                 0.0000
      9 ****        -0.1567   0.3292   3.3922 N.am           1 S1                 0.0000
     10 ****         0.7146   0.5893   4.3906 C.2            1 S1                 0.0000
     11 ****         1.6812  -0.2856   4.5993 N.2            1 S1                 0.0000
     12 ****         2.6282  -0.1528   5.5801 C.2            1 S1                 0.0000
     13 ****         3.5080  -1.0006   5.7219 O.2            1 S1                 0.0000
     14 ****         2.5530   0.9953   6.4038 N.am           1 S1                 0.0000
     15 ****         3.5555   1.1881   7.5200 C.3            1 S1                 0.0000
     16 ****         2.8595   1.6304   8.6441 O.3            1 S1                 0.0000
     17 ****         3.6468   2.5927   9.3263 C.3            1 S1                 0.0000
     18 ****         2.7518   3.4849  10.1936 C.3            1 S1                 0.0000
     19 ****         4.3721   3.3351   8.2019 C.3            1 S1                 0.0000
     20 ****         5.5757   3.8989   8.6834 O.3            1 S1                 0.0000
     21 ****         4.6516   2.2294   7.1896 C.3            1 S1                 0.0000
     22 ****         4.6091   2.7317   5.8656 O.3            1 S1                 0.0000
     23 ****         1.5572   1.9354   6.1864 C.2            1 S1                 0.0000
     24 ****         0.6335   1.7826   5.2141 C.2            1 S1                 0.0000
     25 ****        -0.3094   2.7206   5.0179 F              1 S1                 0.0000
     26 ****         3.9740   0.2086   7.7536 H              1 S1                 0.0000
     27 ****         4.3633   2.0548   9.9503 H              1 S1                 0.0000
     28 ****         3.7258   4.1040   7.7747 H              1 S1                 0.0000
     29 ****         5.6196   1.7604   7.3733 H              1 S1                 0.0000
     30 ****        -4.1583   4.9015  -1.2448 H              1 S1                 0.0000
     31 ****        -3.9677   3.2804  -1.9069 H              1 S1                 0.0000
     32 ****        -2.6320   4.0449  -1.0458 H              1 S1                 0.0000
     33 ****        -3.9864   4.0113   1.0720 H              1 S1                 0.0000
     34 ****        -5.3136   3.2596   0.2197 H              1 S1                 0.0000
     35 ****        -3.8738   1.2641  -0.2675 H              1 S1                 0.0000
     36 ****        -2.5426   2.0194   0.5744 H              1 S1                 0.0000
     37 ****        -3.8909   2.0239   2.6984 H              1 S1                 0.0000
     38 ****        -5.2251   1.2946   1.8455 H              1 S1                 0.0000
     39 ****        -4.0487  -0.4817   3.0385 H              1 S1                 0.0000
     40 ****        -3.8150  -0.7144   1.3239 H              1 S1                 0.0000
     41 ****         0.2123   0.0790   2.4866 H              1 S1                 0.0000
     42 ****         3.3405   4.2409  10.7138 H              1 S1                 0.0000
     43 ****         2.2265   2.8955  10.9454 H              1 S1                 0.0000
     44 ****         2.0028   3.9993   9.5909 H              1 S1                 0.0000
     45 ****         6.1108   3.2068   9.0408 H              1 S1                 0.0000
     46 ****         3.7455   3.0798   5.7056 H              1 S1                 0.0000
     47 ****         1.5163   2.8226   6.8021 H              1 S1                 0.0000
     48 ****        -3.2318   0.4451   4.5280 LP             1 S1                 0.0000
     49 ****        -1.7469   0.6793   5.3885 LP             1 S1                 0.0000
     50 ****         1.7245  -1.0908   4.0078 LP             1 S1                 0.0000
     51 ****         3.5370  -1.7969   5.1177 LP             1 S1                 0.0000
     52 ****         4.1943  -0.8935   6.4413 LP             1 S1                 0.0000
     53 ****         2.6759   0.8568   9.2505 LP             1 S1                 0.0000
     54 ****         1.9945   2.0448   8.3611 LP             1 S1                 0.0000
     55 ****         5.3719   4.5696   9.3966 LP             1 S1                 0.0000
     56 ****         6.0616   4.3474   7.9332 LP             1 S1                 0.0000
     57 ****         4.8010   1.9939   5.2184 LP             1 S1                 0.0000
     58 ****         5.2904   3.4557   5.7572 LP             1 S1                 0.0000
@<TRIPOS>BOND
    1    1    2 1     
    2    1   30 1     
    3    1   31 1     
    4    1   32 1     
    5    2    3 1     
    6    2   33 1     
    7    2   34 1     
    8    3    4 1     
    9    3   35 1     
   10    3   36 1     
   11    4    5 1     
   12    4   37 1     
   13    4   38 1     
   14    5    6 1     
   15    5   39 1     
   16    5   40 1     
   17    6    7 1     
   18    7    8 2     
   19    7    9 am    
   20    9   10 1     
   21    9   41 1     
   22   10   24 1     
   23   10   11 2     
   24   11   12 1     
   25   12   13 2     
   26   12   14 am    
   27   14   15 1     
   28   14   23 1     
   29   15   26 1     
   30   15   21 1     
   31   15   16 1     
   32   16   17 1     
   33   17   27 1     
   34   17   18 1     
   35   17   19 1     
   36   18   42 1     
   37   18   43 1     
   38   18   44 1     
   39   19   28 1     
   40   19   20 1     
   41   19   21 1     
   42   20   45 1     
   43   21   29 1     
   44   21   22 1     
   45   22   46 1     
   46   23   24 2     
   47   23   47 1     
   48   24   25 1     
   49    8   48 1     
   50    8   49 1     
   51   11   50 1     
   52   13   51 1     
   53   13   52 1     
   54   16   53 1     
   55   16   54 1     
   56   20   55 1     
   57   20   56 1     
   58   22   57 1     
   59   22   58 1     
@<TRIPOS>SUBSTRUCTURE
      1 S1             1
@<TRIPOS>SET
LONE_PAIRS      STATIC     ATOMS    <user>   **** ""
11 48 49 50 51 52 53 54 55 56 57 58
DONOR_HYDROGENS      STATIC     ATOMS    <user>   **** ""
3 41 45 46
ATOM$BLUE        STATIC     ATOMS    COLORGROUP SYSTEM
11 48 49 50 51 52 53 54 55 56 57 58
ATOM$RED        STATIC     ATOMS    COLORGROUP SYSTEM
3 41 45 46
