AV-unprocessed.smi:2999|AV-procd|sdf|11428|dock8
  -GOLD-   2272016353D 1   1.00000     0.00000
 Structure written by MMmdl.
 37 39  0  0  0  0  0  0  0  0  3 V2000
  149.0449  135.0256  158.8787 O   0  0  0  0  0  0  0  0  0  0  0  0
  148.4027  136.0406  158.6003 C   0  0  0  0  0  0  0  0  0  0  0  0
  148.4680  136.5528  157.3656 N   0  0  0  0  0  0  0  0  0  0  0  0
  149.2641  136.0121  156.2713 C   0  0  0  0  0  0  0  0  0  0  0  0
  149.2995  136.9826  155.0813 C   0  0  1  0  0  0  0  0  0  0  0  0
  147.8923  137.3939  154.5976 C   0  0  0  0  0  0  0  0  0  0  0  0
  147.9929  138.3844  153.5025 N   0  3  1  0  0  0  0  0  0  0  0  0
  146.6693  138.7783  152.9737 C   0  0  0  0  0  0  0  0  0  0  0  0
  146.0184  137.7168  152.1180 C   0  0  0  0  0  0  0  0  0  0  0  0
  146.6379  138.9360  151.4714 C   0  0  0  0  0  0  0  0  0  0  0  0
  148.8033  139.5485  153.9250 C   0  0  0  0  0  0  0  0  0  0  0  0
  150.1780  139.0825  154.4300 C   0  0  0  0  0  0  0  0  0  0  0  0
  150.0042  138.1509  155.4910 O   0  0  0  0  0  0  0  0  0  0  0  0
  147.5991  136.7383  159.4338 N   0  5  0  0  0  0  0  0  0  0  0  0
  147.4104  136.3150  160.6945 C   0  0  0  0  0  0  0  0  0  0  0  0
  147.2379  137.1498  161.7259 N   0  0  0  0  0  0  0  0  0  0  0  0
  147.0619  136.4953  162.9465 C   0  0  0  0  0  0  0  0  0  0  0  0
  147.1115  135.1304  162.8435 C   0  0  0  0  0  0  0  0  0  0  0  0
  147.3824  134.6232  161.2008 S   0  0  0  0  0  0  0  0  0  0  0  0
  147.9208  137.3798  157.1772 H   0  0  0  0  0  0  0  0  0  0  0  0
  150.2797  135.8070  156.6141 H   0  0  0  0  0  0  0  0  0  0  0  0
  148.8317  135.0594  155.9624 H   0  0  0  0  0  0  0  0  0  0  0  0
  149.8456  136.5107  154.2620 H   0  0  0  0  0  0  0  0  0  0  0  0
  147.3428  136.5214  154.2424 H   0  0  0  0  0  0  0  0  0  0  0  0
  147.3182  137.8183  155.4232 H   0  0  0  0  0  0  0  0  0  0  0  0
  146.0654  139.4233  153.6097 H   0  0  0  0  0  0  0  0  0  0  0  0
  146.5339  136.7659  151.9938 H   0  0  0  0  0  0  0  0  0  0  0  0
  144.9319  137.6581  152.1312 H   0  0  0  0  0  0  0  0  0  0  0  0
  145.9588  139.6793  151.0586 H   0  0  0  0  0  0  0  0  0  0  0  0
  147.5647  138.7948  150.9182 H   0  0  0  0  0  0  0  0  0  0  0  0
  148.9285  140.2359  153.0878 H   0  0  0  0  0  0  0  0  0  0  0  0
  148.2802  140.0931  154.7127 H   0  0  0  0  0  0  0  0  0  0  0  0
  150.7583  138.6311  153.6235 H   0  0  0  0  0  0  0  0  0  0  0  0
  150.7516  139.9336  154.7972 H   0  0  0  0  0  0  0  0  0  0  0  0
  146.9079  137.0811  163.8405 H   0  0  0  0  0  0  0  0  0  0  0  0
  147.0066  134.3967  163.6279 H   0  0  0  0  0  0  0  0  0  0  0  0
  148.4910  137.9360  152.7468 H   0  0  0  0  0  0  0  0  0  0  0  0
  1  2  2  0  0  0  0
  2  3  1  0  0  0  0
  2 14  1  0  0  0  0
  3  4  1  0  0  0  0
  3 20  1  0  0  0  0
  4  5  1  0  0  0  0
  4 21  1  0  0  0  0
  4 22  1  0  0  0  0
  5 13  1  0  0  0  0
  5  6  1  0  0  0  0
  5 23  1  0  0  0  0
  6  7  1  0  0  0  0
  6 24  1  0  0  0  0
  6 25  1  0  0  0  0
  7  8  1  0  0  0  0
  7 11  1  0  0  0  0
  7 37  1  0  0  0  0
  8 10  1  0  0  0  0
  8  9  1  0  0  0  0
  8 26  1  0  0  0  0
  9 10  1  0  0  0  0
  9 27  1  0  0  0  0
  9 28  1  0  0  0  0
 10 29  1  0  0  0  0
 10 30  1  0  0  0  0
 11 12  1  0  0  0  0
 11 31  1  0  0  0  0
 11 32  1  0  0  0  0
 12 13  1  0  0  0  0
 12 33  1  0  0  0  0
 12 34  1  0  0  0  0
 14 15  1  0  0  0  0
 15 19  1  0  0  0  0
 15 16  2  0  0  0  0
 16 17  1  0  0  0  0
 17 18  2  0  0  0  0
 17 35  1  0  0  0  0
 18 19  1  0  0  0  0
 18 36  1  0  0  0  0
M  CHG  1   7   1
M  CHG  1  14  -1
M  END
> <s_m_source_file>
AV-unprocessed.smi

> <i_m_source_file_index>
2999

> <i_lp_mmshare_version>
43012

> <i_f3d_flags>
0

> <s_epik_input>
czFbY0hdW2NIXW5jMVtOSF1DKD1PKVtOSF1bQ0gyXVtDQEBIXTJbQ0gyXU4oW0NIMl1bQ0gyXU8yKVtDSF0zW0NIMl1bQ0gyXTM=

> <s_epik_cmdline>
J2VwaWtfcHl0aG9uJywgJy1waCcsICc3LjAnLCAnLXRuJywgJzgnLCAnLW1hJywgJzIwMCcsICctbWV0YWxfYmluZGluZycsICctaW1hZScsICc8aW5maWxlLm1hZT4nLCAnLW9tYWUnLCAnPG91dGZpbGUubWFlPic=

> <r_lp_tautomer_probability>
0.999

> <r_epik_Ionization_Penalty>
7.79196

> <r_epik_Ionization_Penalty_Charging>
6.93299

> <r_epik_Ionization_Penalty_Neutral>
0.858963

> <r_epik_State_Penalty>
7.05108

> <r_epik_Charging_Adjusted_Penalty>
13.9841

> <i_epik_Tot_Q>
0

> <i_epik_Tot_abs_Q>
2

> <r_epik_Metal_State_Penalty>
3.05936

> <b_epik_Metal_Only>
1

> <s_lp_Force_Field>
OPLS_2005

> <r_lp_Energy>
14.293

> <b_lp_Chiralities_Consistent>
1

> <s_lp_Variant>
AV-unprocessed.smi:2999-12

> <Gold.Version>
5.8.1

> <Gold.Id.Protein>
6NUR|6NUR_protein|mol2

> <Gold.PLP.Fitness>
46.7520

> <Gold.PLP.PLP>
-33.6035

> <Gold.PLP.part.hbond>
-4.3625

> <Gold.PLP.part.metal>
0.0000

> <Gold.PLP.part.buried>
0.1459

> <Gold.PLP.part.nonpolar>
-30.1327

> <Gold.PLP.part.repulsive>
0.1067

> <Gold.PLP.ligand.clash>
0.0000

> <Gold.PLP.ligand.torsion>
0.9426

> <Gold.PLP.Chemscore.Hbond>
4.5797

> <Gold.PLP.Chemscore.CHOScore>
0.0000

> <Gold.PLP.Chemscore.Metal>
0.0000

> <Gold.Chemscore.Hbonds>
donor molecule, donor type, donor heavy atom, donor atom, acceptor molecule, acceptor atom, score
      L1  H     7    37       P1  7948  1.92
      P1  H  6896  6908       L1     1  1.00
      P1  H  6931  6943       L1    16  0.73
      P1  H  6934  6947       L1    16  0.88

> <Gold.PLP.Chemscore.Internal.Correction>
1.2945

> <Gold.Rescore>
     Score         DG    S(hbond)    S(metal)    S(lipo)     H(rot)  DE(clash)    DE(int)     intcor
     16.24     -20.06       2.85        0.00      77.18       1.55       1.46       2.36       ----

> <Gold.Chemscore.Fitness>
16.2390

> <Gold.Chemscore.DG>
-20.0603

> <Gold.Chemscore.ZeroCoef>
-5.4800

> <Gold.Chemscore.Hbond>
2.8501

> <Gold.Chemscore.Metal>
0.0000

> <Gold.Chemscore.Lipo>
77.1778

> <Gold.Chemscore.Internal_Hbond>
0.0000

> <Gold.Chemscore.DEClash>
1.4642

> <Gold.Chemscore.DEInternal>
2.3571

> <Gold.Chemscore.Rot>
1.5504

> <Gold.Chemscore.Internal.Correction>
   9.000000E+99

> <Gold.Chemscore.Hbonds>
donor molecule, donor type, donor heavy atom, donor atom, acceptor molecule, acceptor atom, score
      L1  H     7    37       P1  7948  0.91
      P1  H  6896  6908       L1     1  0.98
      P1  H  6931  6943       L1    16  0.23
      P1  H  6934  6947       L1    16  0.49

> <Gold.Chemscore.Hbond.Weighted>
-9.5195

> <Gold.Chemscore.Metal.Weighted>
-0.0000

> <Gold.Chemscore.Lipo.Weighted>
-9.0298

> <Gold.Chemscore.Internal_Hbond.Weighted>
0.0000

> <Gold.Chemscore.DEClash.Weighted>
1.4642

> <Gold.Chemscore.DEInternal.Weighted>
2.3571

> <Gold.Chemscore.Rot.Weighted>
3.9690

> <Gold.Chemscore.Internal.Correction.Weighted>
   9.000000E+99

> <Gold.Protein.RotatedTorsions>
[ 6907 6896 6895 6894 ] final  177.96 input  -60.11 | X-H torsion
[ 7974 7965 7964 7962 ] final -156.62 input  175.53 | X-H torsion
[ 8008 7997 7996 7995 ] final   92.13 input   59.86 | X-H torsion
[ 10167 10162 10161 10158 ] final -107.99 input  -65.29 | X-H torsion
[ 10718 10713 10712 10709 ] final -173.96 input   66.30 | X-H torsion
[ 10763 10752 10751 10750 ] final  -48.32 input  -60.55 | X-H torsion
[ 11005 11000 10999 10996 ] final  -77.07 input  -57.11 | X-H torsion

> <Gold.Protein.ActiveResidues>
 VAL166  LYS551  ARG553  GLY616  TRP617  ASP618  TYR619  PRO620  LYS621  CYS622 
 ASP623  PHE694  ASN695  SER759  ASP760  ASP761  ALA762  ILE779  LEU786  VAL792 
 PHE793  MET794  SER795  GLU796  ALA797  LYS798  CYS799  TRP800  GLU811  SER814 

> <Gold.Protein.RotatedAtoms>
  151.6956  133.3311  159.3253 H   0  0  0  0  0  0  0  0  0  0  0  0  # atno 6907 bound_to 6896
  150.7759  134.6661  159.6375 H   0  0  0  0  0  0  0  0  0  0  0  0  # atno 6908 bound_to 6896
  152.3801  134.6606  160.0198 H   0  0  0  0  0  0  0  0  0  0  0  0  # atno 6909 bound_to 6896
  144.7585  140.4084  143.5994 H   0  0  0  0  0  0  0  0  0  0  0  0  # atno 7974 bound_to 7965
  156.0318  140.3329  155.7148 H   0  0  0  0  0  0  0  0  0  0  0  0  # atno 8008 bound_to 7997
  155.5873  140.0643  157.2785 H   0  0  0  0  0  0  0  0  0  0  0  0  # atno 8009 bound_to 7997
  154.4356  140.1833  156.1026 H   0  0  0  0  0  0  0  0  0  0  0  0  # atno 8010 bound_to 7997
  140.1709  143.4043  152.1355 H   0  0  0  0  0  0  0  0  0  0  0  0  # atno 10167 bound_to 10162
  156.7781  130.9473  151.3120 H   0  0  0  0  0  0  0  0  0  0  0  0  # atno 10718 bound_to 10713
  154.0759  135.6598  153.4831 H   0  0  0  0  0  0  0  0  0  0  0  0  # atno 10763 bound_to 10752
  153.0373  135.5168  154.7521 H   0  0  0  0  0  0  0  0  0  0  0  0  # atno 10764 bound_to 10752
  154.6601  135.3014  154.9845 H   0  0  0  0  0  0  0  0  0  0  0  0  # atno 10765 bound_to 10752
  141.1658  133.7008  156.7765 H   0  0  0  0  0  0  0  0  0  0  0  0  # atno 11005 bound_to 11000
  145.6699  139.1597  143.2761 LP  0  0  0  0  0  0  0  0  0  0  0  0  # atno 17320 bound_to 7965
  146.1622  140.6771  142.9272 LP  0  0  0  0  0  0  0  0  0  0  0  0  # atno 17321 bound_to 7965
  139.5338  144.7188  151.4963 LP  0  0  0  0  0  0  0  0  0  0  0  0  # atno 17342 bound_to 10162
  140.6582  143.8554  150.6858 LP  0  0  0  0  0  0  0  0  0  0  0  0  # atno 17343 bound_to 10162
  157.6659  130.9007  149.9932 LP  0  0  0  0  0  0  0  0  0  0  0  0  # atno 17370 bound_to 10713
  156.1235  130.3645  149.9847 LP  0  0  0  0  0  0  0  0  0  0  0  0  # atno 17371 bound_to 10713
  140.2426  134.8602  157.3588 LP  0  0  0  0  0  0  0  0  0  0  0  0  # atno 17394 bound_to 11000
  140.1781  134.4524  155.7789 LP  0  0  0  0  0  0  0  0  0  0  0  0  # atno 17395 bound_to 11000

$$$$
