AV-unprocessed.smi:1683|AV-procd|sdf|6749|dock9
  -GOLD-   22720 7503D 1   1.00000     0.00000
 Structure written by MMmdl.
 37 38  0  0  0  0  0  0  0  0  2 V2000
  144.3624  136.4882  151.6759 O   0  0  0  0  0  0  0  0  0  0  0  0
  145.5823  136.3225  151.6652 C   0  0  0  0  0  0  0  0  0  0  0  0
  146.4594  137.2625  152.0452 N   0  0  0  0  0  0  0  0  0  0  0  0
  146.1054  138.6041  152.4976 C   0  0  0  0  0  0  0  0  0  0  0  0
  146.9671  139.0679  153.6883 C   0  0  2  0  0  0  0  0  0  0  0  0
  147.3980  140.5308  153.6090 C   0  0  0  0  0  0  0  0  0  0  0  0
  148.6523  140.6110  154.4893 C   0  0  0  0  0  0  0  0  0  0  0  0
  149.1201  139.2192  154.7006 N   0  3  2  0  0  0  0  0  0  0  0  0
  150.5829  139.0111  154.5720 C   0  0  0  0  0  0  0  0  0  0  0  0
  151.3497  139.3929  155.8503 C   0  0  0  0  0  0  0  0  0  0  0  0
  150.8034  138.7634  156.8895 F   0  0  0  0  0  0  0  0  0  0  0  0
  152.6321  139.0401  155.7691 F   0  0  0  0  0  0  0  0  0  0  0  0
  151.2681  140.7073  156.0557 F   0  0  0  0  0  0  0  0  0  0  0  0
  148.3067  138.3454  153.8315 C   0  0  0  0  0  0  0  0  0  0  0  0
  146.2062  135.1959  151.2838 N   0  0  0  0  0  0  0  0  0  0  0  0
  145.6089  133.9978  150.8164 C   0  0  0  0  0  0  0  0  0  0  0  0
  146.3005  132.7714  150.6214 C   0  0  0  0  0  0  0  0  0  0  0  0
  145.4881  131.8235  150.1766 N   0  0  0  0  0  0  0  0  0  0  0  0
  144.2847  132.4331  150.0847 N   0  0  0  0  0  0  0  0  0  0  0  0
  144.3105  133.7572  150.4634 C   0  0  0  0  0  0  0  0  0  0  0  0
  143.4643  131.9379  149.7649 H   0  0  0  0  0  0  0  0  0  0  0  0
  147.4435  137.0411  151.9987 H   0  0  0  0  0  0  0  0  0  0  0  0
  146.2299  139.2860  151.6560 H   0  0  0  0  0  0  0  0  0  0  0  0
  145.0472  138.6345  152.7635 H   0  0  0  0  0  0  0  0  0  0  0  0
  146.4057  138.9348  154.6148 H   0  0  0  0  0  0  0  0  0  0  0  0
  147.6595  140.7886  152.5815 H   0  0  0  0  0  0  0  0  0  0  0  0
  146.6140  141.2163  153.9323 H   0  0  0  0  0  0  0  0  0  0  0  0
  149.4091  141.2350  154.0121 H   0  0  0  0  0  0  0  0  0  0  0  0
  148.4220  141.0529  155.4594 H   0  0  0  0  0  0  0  0  0  0  0  0
  150.7608  137.9535  154.3709 H   0  0  0  0  0  0  0  0  0  0  0  0
  150.9665  139.5577  153.7090 H   0  0  0  0  0  0  0  0  0  0  0  0
  148.2013  137.3469  154.2571 H   0  0  0  0  0  0  0  0  0  0  0  0
  148.7850  138.2490  152.8550 H   0  0  0  0  0  0  0  0  0  0  0  0
  147.2148  135.1951  151.3265 H   0  0  0  0  0  0  0  0  0  0  0  0
  147.3433  132.5421  150.7845 H   0  0  0  0  0  0  0  0  0  0  0  0
  143.4292  134.3810  150.4447 H   0  0  0  0  0  0  0  0  0  0  0  0
  148.8674  138.9755  155.6479 H   0  0  0  0  0  0  0  0  0  0  0  0
  1  2  2  0  0  0  0
  2  3  1  0  0  0  0
  2 15  1  0  0  0  0
  3  4  1  0  0  0  0
  3 22  1  0  0  0  0
  4  5  1  0  0  0  0
  4 23  1  0  0  0  0
  4 24  1  0  0  0  0
  5 14  1  0  0  0  0
  5  6  1  0  0  0  0
  5 25  1  0  0  0  0
  6  7  1  0  0  0  0
  6 26  1  0  0  0  0
  6 27  1  0  0  0  0
  7  8  1  0  0  0  0
  7 28  1  0  0  0  0
  7 29  1  0  0  0  0
  8  9  1  0  0  0  0
  8 14  1  0  0  0  0
  8 37  1  0  0  0  0
  9 10  1  0  0  0  0
  9 30  1  0  0  0  0
  9 31  1  0  0  0  0
 10 11  1  0  0  0  0
 10 12  1  0  0  0  0
 10 13  1  0  0  0  0
 14 32  1  0  0  0  0
 14 33  1  0  0  0  0
 15 16  1  0  0  0  0
 15 34  1  0  0  0  0
 16 20  2  0  0  0  0
 16 17  1  0  0  0  0
 17 18  2  0  0  0  0
 17 35  1  0  0  0  0
 18 19  1  0  0  0  0
 19 21  1  0  0  0  0
 19 20  1  0  0  0  0
 20 36  1  0  0  0  0
M  CHG  1   8   1
M  END
> <s_m_source_file>
AV-unprocessed.smi

> <i_m_source_file_index>
1683

> <i_lp_mmshare_version>
43012

> <i_f3d_flags>
0

> <s_epik_input>
W2NIXTFbbkhdbltjSF1jMVtOSF1DKD1PKVtOSF1bQ0gyXVtDQEBIXTJbQ0gyXVtDSDJdTihbQ0gyXTIpW0NIMl1DKEYpKEYpRg==

> <s_epik_cmdline>
J2VwaWtfcHl0aG9uJywgJy1waCcsICc3LjAnLCAnLXRuJywgJzgnLCAnLW1hJywgJzIwMCcsICctbWV0YWxfYmluZGluZycsICctaW1hZScsICc8aW5maWxlLm1hZT4nLCAnLW9tYWUnLCAnPG91dGZpbGUubWFlPic=

> <r_lp_tautomer_probability>
0.5

> <r_epik_Ionization_Penalty>
0.641865

> <r_epik_Ionization_Penalty_Charging>
0.64182

> <r_epik_Ionization_Penalty_Neutral>
4.50685e-05

> <r_epik_State_Penalty>
0.65957

> <r_epik_Charging_Adjusted_Penalty>
1.30139

> <i_epik_Tot_Q>
1

> <i_epik_Tot_abs_Q>
1

> <r_epik_Metal_State_Penalty>
0.659571

> <b_epik_Metal_Only>
0

> <s_lp_Force_Field>
OPLS_2005

> <r_lp_Energy>
30.3314

> <b_lp_Chiralities_Consistent>
1

> <s_lp_Variant>
AV-unprocessed.smi:1683-3

> <Gold.Version>
5.8.1

> <Gold.Id.Protein>
6NUR|6NUR_protein|mol2

> <Gold.PLP.Fitness>
40.4605

> <Gold.PLP.PLP>
-30.5820

> <Gold.PLP.part.hbond>
-2.0000

> <Gold.PLP.part.metal>
0.0000

> <Gold.PLP.part.buried>
-0.4982

> <Gold.PLP.part.nonpolar>
-30.2197

> <Gold.PLP.part.repulsive>
2.3723

> <Gold.PLP.ligand.clash>
0.0000

> <Gold.PLP.ligand.torsion>
1.0151

> <Gold.PLP.Chemscore.Hbond>
1.9516

> <Gold.PLP.Chemscore.CHOScore>
1.8616

> <Gold.PLP.Chemscore.Metal>
0.0000

> <Gold.Chemscore.Hbonds>
donor molecule, donor type, donor heavy atom, donor atom, acceptor molecule, acceptor atom, score
      L1  H     3    22       P1  7948  1.00
      L1  H    15    34       P1  7948  0.95
      L1  C    17    35       P1 10747  1.00
      L1  C    20    36       P1 10186  0.89

> <Gold.PLP.Chemscore.Internal.Correction>
0.4691

> <Gold.Rescore>
     Score         DG    S(hbond)    S(metal)    S(lipo)     H(rot)  DE(clash)    DE(int)     intcor
     11.86     -14.98       1.92        0.00      66.02       1.81       0.63       2.49       ----

> <Gold.Chemscore.Fitness>
11.8573

> <Gold.Chemscore.DG>
-14.9788

> <Gold.Chemscore.ZeroCoef>
-5.4800

> <Gold.Chemscore.Hbond>
1.9197

> <Gold.Chemscore.Metal>
0.0000

> <Gold.Chemscore.Lipo>
66.0229

> <Gold.Chemscore.Internal_Hbond>
0.0000

> <Gold.Chemscore.DEClash>
0.6291

> <Gold.Chemscore.DEInternal>
2.4924

> <Gold.Chemscore.Rot>
1.8116

> <Gold.Chemscore.Internal.Correction>
   9.000000E+99

> <Gold.Chemscore.Hbonds>
donor molecule, donor type, donor heavy atom, donor atom, acceptor molecule, acceptor atom, score
      L1  H     3    22       P1  7948  1.00
      L1  H    15    34       P1  7948  0.68

> <Gold.Chemscore.Hbond.Weighted>
-6.4119

> <Gold.Chemscore.Metal.Weighted>
-0.0000

> <Gold.Chemscore.Lipo.Weighted>
-7.7247

> <Gold.Chemscore.Internal_Hbond.Weighted>
0.0000

> <Gold.Chemscore.DEClash.Weighted>
0.6291

> <Gold.Chemscore.DEInternal.Weighted>
2.4924

> <Gold.Chemscore.Rot.Weighted>
4.6378

> <Gold.Chemscore.Internal.Correction.Weighted>
   9.000000E+99

> <Gold.Protein.RotatedTorsions>
[ 6907 6896 6895 6894 ] final   40.98 input  -60.11 | X-H torsion
[ 7974 7965 7964 7962 ] final  171.29 input  175.53 | X-H torsion
[ 8008 7997 7996 7995 ] final   40.92 input   59.86 | X-H torsion
[ 10167 10162 10161 10158 ] final -176.42 input  -65.29 | X-H torsion
[ 10718 10713 10712 10709 ] final -165.28 input   66.30 | X-H torsion
[ 10763 10752 10751 10750 ] final  -21.79 input  -60.55 | X-H torsion
[ 11005 11000 10999 10996 ] final   90.30 input  -57.11 | X-H torsion

> <Gold.Protein.ActiveResidues>
 VAL166  LYS551  ARG553  GLY616  TRP617  ASP618  TYR619  PRO620  LYS621  CYS622 
 ASP623  PHE694  ASN695  SER759  ASP760  ASP761  ALA762  ILE779  LEU786  VAL792 
 PHE793  MET794  SER795  GLU796  ALA797  LYS798  CYS799  TRP800  GLU811  SER814 

> <Gold.Protein.RotatedAtoms>
  152.1894  134.8685  160.0518 H   0  0  0  0  0  0  0  0  0  0  0  0  # atno 6907 bound_to 6896
  151.9579  133.3681  159.4032 H   0  0  0  0  0  0  0  0  0  0  0  0  # atno 6908 bound_to 6896
  150.6932  134.4195  159.5242 H   0  0  0  0  0  0  0  0  0  0  0  0  # atno 6909 bound_to 6896
  144.7299  139.9327  143.6425 H   0  0  0  0  0  0  0  0  0  0  0  0  # atno 7974 bound_to 7965
  155.2611  140.3359  155.4273 H   0  0  0  0  0  0  0  0  0  0  0  0  # atno 8008 bound_to 7997
  156.2174  140.1794  156.7600 H   0  0  0  0  0  0  0  0  0  0  0  0  # atno 8009 bound_to 7997
  154.5774  140.0659  156.9038 H   0  0  0  0  0  0  0  0  0  0  0  0  # atno 8010 bound_to 7997
  139.5531  144.2059  152.1112 H   0  0  0  0  0  0  0  0  0  0  0  0  # atno 10167 bound_to 10162
  156.6511  130.9008  151.3013 H   0  0  0  0  0  0  0  0  0  0  0  0  # atno 10718 bound_to 10713
  153.6416  135.6985  153.5239 H   0  0  0  0  0  0  0  0  0  0  0  0  # atno 10763 bound_to 10752
  153.2778  135.4195  155.1049 H   0  0  0  0  0  0  0  0  0  0  0  0  # atno 10764 bound_to 10752
  154.8498  135.3594  154.5960 H   0  0  0  0  0  0  0  0  0  0  0  0  # atno 10765 bound_to 10752
  139.8859  134.8605  156.3265 H   0  0  0  0  0  0  0  0  0  0  0  0  # atno 11005 bound_to 11000
  146.0845  139.3833  143.0444 LP  0  0  0  0  0  0  0  0  0  0  0  0  # atno 17320 bound_to 7965
  145.7796  140.9862  143.1106 LP  0  0  0  0  0  0  0  0  0  0  0  0  # atno 17321 bound_to 7965
  140.1558  144.5072  150.6661 LP  0  0  0  0  0  0  0  0  0  0  0  0  # atno 17342 bound_to 10162
  140.6798  143.2321  151.5414 LP  0  0  0  0  0  0  0  0  0  0  0  0  # atno 17343 bound_to 10162
  157.7140  130.9475  150.1190 LP  0  0  0  0  0  0  0  0  0  0  0  0  # atno 17370 bound_to 10713
  156.2083  130.3665  149.8701 LP  0  0  0  0  0  0  0  0  0  0  0  0  # atno 17371 bound_to 10713
  140.9752  133.7302  156.0592 LP  0  0  0  0  0  0  0  0  0  0  0  0  # atno 17394 bound_to 11000
  140.7820  134.3714  157.5485 LP  0  0  0  0  0  0  0  0  0  0  0  0  # atno 17395 bound_to 11000

$$$$
