AV-unprocessed.smi:3056|AV-procd|sdf|11651|dock5
  -GOLD-   2272017 53D 1   1.00000     0.00000
 Structure written by MMmdl.
 48 49  0  0  0  0  0  0  0  0  2 V2000
  154.5845  141.1138  162.2904 C   0  0  0  0  0  0  0  0  0  0  0  0
  153.6622  141.9588  161.4595 C   0  0  0  0  0  0  0  0  0  0  0  0
  152.6927  142.8979  161.9106 C   0  0  0  0  0  0  0  0  0  0  0  0
  152.0432  143.4815  160.9171 N   0  0  0  0  0  0  0  0  0  0  0  0
  152.5614  142.9326  159.7972 N   0  0  0  0  0  0  0  0  0  0  0  0
  152.0771  143.3689  158.4908 C   0  0  2  0  0  0  0  0  0  0  0  0
  152.4059  144.8516  158.2411 C   0  0  0  0  0  0  0  0  0  0  0  0
  150.5864  143.0074  158.2485 C   0  0  1  0  0  0  0  0  0  0  0  0
  149.6242  143.9738  158.9585 C   0  0  0  0  0  0  0  0  0  0  0  0
  150.2561  142.9682  156.8057 N   0  3  0  0  0  0  0  0  0  0  0  0
  149.3516  141.8724  156.3946 C   0  0  0  0  0  0  0  0  0  0  0  0
  149.9604  140.9927  155.2930 C   0  0  0  0  0  0  0  0  0  0  0  0
  149.7623  141.2951  154.1150 O   0  0  0  0  0  0  0  0  0  0  0  0
  150.6992  139.9148  155.6490 N   0  0  0  0  0  0  0  0  0  0  0  0
  151.3937  139.0030  154.7346 C   0  0  0  0  0  0  0  0  0  0  0  0
  152.9068  139.1342  154.9815 C   0  0  0  0  0  0  0  0  0  0  0  0
  153.1963  138.8474  156.3476 O   0  0  0  0  0  0  0  0  0  0  0  0
  152.5132  139.6994  157.2662 C   0  0  2  0  0  0  0  0  0  0  0  0
  152.9267  139.3020  158.6872 C   0  0  0  0  0  0  0  0  0  0  0  0
  150.9935  139.5662  157.0416 C   0  0  0  0  0  0  0  0  0  0  0  0
  153.5477  142.0132  160.0996 C   0  0  0  0  0  0  0  0  0  0  0  0
  154.6677  141.4877  163.3111 H   0  0  0  0  0  0  0  0  0  0  0  0
  155.5921  141.0889  161.8754 H   0  0  0  0  0  0  0  0  0  0  0  0
  154.2361  140.0828  162.3536 H   0  0  0  0  0  0  0  0  0  0  0  0
  152.4454  143.1734  162.9254 H   0  0  0  0  0  0  0  0  0  0  0  0
  152.6503  142.8167  157.7435 H   0  0  0  0  0  0  0  0  0  0  0  0
  152.0921  145.1601  157.2436 H   0  0  0  0  0  0  0  0  0  0  0  0
  153.4795  145.0282  158.3145 H   0  0  0  0  0  0  0  0  0  0  0  0
  151.9171  145.5070  158.9619 H   0  0  0  0  0  0  0  0  0  0  0  0
  150.4048  142.0194  158.6754 H   0  0  0  0  0  0  0  0  0  0  0  0
  149.8394  144.0274  160.0260 H   0  0  0  0  0  0  0  0  0  0  0  0
  148.5900  143.6454  158.8502 H   0  0  0  0  0  0  0  0  0  0  0  0
  149.6914  144.9843  158.5546 H   0  0  0  0  0  0  0  0  0  0  0  0
  149.8071  143.8390  156.5599 H   0  0  0  0  0  0  0  0  0  0  0  0
  149.1191  141.2476  157.2567 H   0  0  0  0  0  0  0  0  0  0  0  0
  148.4192  142.3107  156.0360 H   0  0  0  0  0  0  0  0  0  0  0  0
  151.0706  137.9804  154.9346 H   0  0  0  0  0  0  0  0  0  0  0  0
  151.1779  139.1801  153.6825 H   0  0  0  0  0  0  0  0  0  0  0  0
  153.4547  138.4338  154.3511 H   0  0  0  0  0  0  0  0  0  0  0  0
  153.2578  140.1356  154.7276 H   0  0  0  0  0  0  0  0  0  0  0  0
  152.8216  140.7315  157.0894 H   0  0  0  0  0  0  0  0  0  0  0  0
  152.4419  139.9371  159.4291 H   0  0  0  0  0  0  0  0  0  0  0  0
  154.0045  139.3988  158.8212 H   0  0  0  0  0  0  0  0  0  0  0  0
  152.6557  138.2682  158.9025 H   0  0  0  0  0  0  0  0  0  0  0  0
  150.4562  140.1905  157.7568 H   0  0  0  0  0  0  0  0  0  0  0  0
  150.6692  138.5421  157.2327 H   0  0  0  0  0  0  0  0  0  0  0  0
  154.0840  141.4755  159.3316 H   0  0  0  0  0  0  0  0  0  0  0  0
  151.1162  142.8996  156.2806 H   0  0  0  0  0  0  0  0  0  0  0  0
  1  2  1  0  0  0  0
  1 22  1  0  0  0  0
  1 23  1  0  0  0  0
  1 24  1  0  0  0  0
  2 21  2  0  0  0  0
  2  3  1  0  0  0  0
  3  4  2  0  0  0  0
  3 25  1  0  0  0  0
  4  5  1  0  0  0  0
  5  6  1  0  0  0  0
  5 21  1  0  0  0  0
  6  7  1  0  0  0  0
  6  8  1  0  0  0  0
  6 26  1  0  0  0  0
  7 27  1  0  0  0  0
  7 28  1  0  0  0  0
  7 29  1  0  0  0  0
  8  9  1  0  0  0  0
  8 10  1  0  0  0  0
  8 30  1  0  0  0  0
  9 31  1  0  0  0  0
  9 32  1  0  0  0  0
  9 33  1  0  0  0  0
 10 11  1  0  0  0  0
 10 34  1  0  0  0  0
 10 48  1  0  0  0  0
 11 12  1  0  0  0  0
 11 35  1  0  0  0  0
 11 36  1  0  0  0  0
 12 13  2  0  0  0  0
 12 14  1  0  0  0  0
 14 20  1  0  0  0  0
 14 15  1  0  0  0  0
 15 16  1  0  0  0  0
 15 37  1  0  0  0  0
 15 38  1  0  0  0  0
 16 17  1  0  0  0  0
 16 39  1  0  0  0  0
 16 40  1  0  0  0  0
 17 18  1  0  0  0  0
 18 19  1  0  0  0  0
 18 20  1  0  0  0  0
 18 41  1  0  0  0  0
 19 42  1  0  0  0  0
 19 43  1  0  0  0  0
 19 44  1  0  0  0  0
 20 45  1  0  0  0  0
 20 46  1  0  0  0  0
 21 47  1  0  0  0  0
M  CHG  1  10   1
M  END
> <s_m_source_file>
AV-unprocessed.smi

> <i_m_source_file_index>
3056

> <i_lp_mmshare_version>
43012

> <i_f3d_flags>
0

> <s_epik_input>
W0NIM11jMVtjSF1ubihbY0hdMSlbQ0BIXShbQ0gzXSlbQ0BIXShbQ0gzXSlbTkhdW0NIMl1DKD1PKU4yW0NIMl1bQ0gyXU9bQ0BASF0oW0NIM10pW0NIMl0y

> <s_epik_cmdline>
J2VwaWtfcHl0aG9uJywgJy1waCcsICc3LjAnLCAnLXRuJywgJzgnLCAnLW1hJywgJzIwMCcsICctbWV0YWxfYmluZGluZycsICctaW1hZScsICc8aW5maWxlLm1hZT4nLCAnLW9tYWUnLCAnPG91dGZpbGUubWFlPic=

> <r_lp_tautomer_probability>
1

> <r_epik_Ionization_Penalty>
0.233715

> <r_epik_Ionization_Penalty_Charging>
0.233698

> <r_epik_Ionization_Penalty_Neutral>
1.68157e-05

> <r_epik_State_Penalty>
0.225221

> <r_epik_Charging_Adjusted_Penalty>
0.458919

> <i_epik_Tot_Q>
1

> <i_epik_Tot_abs_Q>
1

> <r_epik_Metal_State_Penalty>
0.225535

> <b_epik_Metal_Only>
0

> <s_lp_Force_Field>
OPLS_2005

> <r_lp_Energy>
29.3518

> <b_lp_Chiralities_Consistent>
1

> <s_lp_Variant>
AV-unprocessed.smi:3056-7

> <Gold.Version>
5.8.1

> <Gold.Id.Protein>
6NUR|6NUR_protein|mol2

> <Gold.PLP.Fitness>
55.3729

> <Gold.PLP.PLP>
-49.6111

> <Gold.PLP.part.hbond>
-4.0000

> <Gold.PLP.part.metal>
0.0000

> <Gold.PLP.part.buried>
-0.3930

> <Gold.PLP.part.nonpolar>
-44.2258

> <Gold.PLP.part.repulsive>
0.3118

> <Gold.PLP.ligand.clash>
0.0000

> <Gold.PLP.ligand.torsion>
1.5795

> <Gold.PLP.Chemscore.Hbond>
2.9179

> <Gold.PLP.Chemscore.CHOScore>
0.0000

> <Gold.PLP.Chemscore.Metal>
0.0000

> <Gold.Chemscore.Hbonds>
donor molecule, donor type, donor heavy atom, donor atom, acceptor molecule, acceptor atom, score
      L1  H    10    34       P1  8028  2.00
      P1  H  7989  7998       L1    13  0.30
      P1  H  7997  8009       L1    17  0.09
      P1  H  8011  8017       L1    13  0.58

> <Gold.PLP.Chemscore.Internal.Correction>
0.1672

> <Gold.Rescore>
     Score         DG    S(hbond)    S(metal)    S(lipo)     H(rot)  DE(clash)    DE(int)     intcor
     18.31     -20.55       1.75        0.00     116.74       1.74       0.49       1.76       ----

> <Gold.Chemscore.Fitness>
18.3054

> <Gold.Chemscore.DG>
-20.5520

> <Gold.Chemscore.ZeroCoef>
-5.4800

> <Gold.Chemscore.Hbond>
1.7535

> <Gold.Chemscore.Metal>
0.0000

> <Gold.Chemscore.Lipo>
116.7358

> <Gold.Chemscore.Internal_Hbond>
0.0000

> <Gold.Chemscore.DEClash>
0.4854

> <Gold.Chemscore.DEInternal>
1.7612

> <Gold.Chemscore.Rot>
1.7354

> <Gold.Chemscore.Internal.Correction>
   9.000000E+99

> <Gold.Chemscore.Hbonds>
donor molecule, donor type, donor heavy atom, donor atom, acceptor molecule, acceptor atom, score
      L1  H    10    34       P1  8028  0.93
      P1  H  7989  7998       L1    13  0.05
      P1  H  8011  8017       L1    13  0.56

> <Gold.Chemscore.Hbond.Weighted>
-5.8565

> <Gold.Chemscore.Metal.Weighted>
-0.0000

> <Gold.Chemscore.Lipo.Weighted>
-13.6581

> <Gold.Chemscore.Internal_Hbond.Weighted>
0.0000

> <Gold.Chemscore.DEClash.Weighted>
0.4854

> <Gold.Chemscore.DEInternal.Weighted>
1.7612

> <Gold.Chemscore.Rot.Weighted>
4.4426

> <Gold.Chemscore.Internal.Correction.Weighted>
   9.000000E+99

> <Gold.Protein.RotatedTorsions>
[ 6907 6896 6895 6894 ] final  137.84 input  -60.11 | X-H torsion
[ 7974 7965 7964 7962 ] final   29.05 input  175.53 | X-H torsion
[ 8008 7997 7996 7995 ] final -156.37 input   59.86 | X-H torsion
[ 10167 10162 10161 10158 ] final  140.51 input  -65.29 | X-H torsion
[ 10718 10713 10712 10709 ] final -135.31 input   66.30 | X-H torsion
[ 10763 10752 10751 10750 ] final   34.61 input  -60.55 | X-H torsion
[ 11005 11000 10999 10996 ] final   19.29 input  -57.11 | X-H torsion

> <Gold.Protein.ActiveResidues>
 VAL166  LYS551  ARG553  GLY616  TRP617  ASP618  TYR619  PRO620  LYS621  CYS622 
 ASP623  PHE694  ASN695  SER759  ASP760  ASP761  ALA762  ILE779  LEU786  VAL792 
 PHE793  MET794  SER795  GLU796  ALA797  LYS798  CYS799  TRP800  GLU811  SER814 

> <Gold.Protein.RotatedAtoms>
  152.2735  133.5404  159.5453 H   0  0  0  0  0  0  0  0  0  0  0  0  # atno 6907 bound_to 6896
  150.7168  134.0665  159.3858 H   0  0  0  0  0  0  0  0  0  0  0  0  # atno 6908 bound_to 6896
  151.8578  135.0535  160.0517 H   0  0  0  0  0  0  0  0  0  0  0  0  # atno 6909 bound_to 6896
  146.1694  139.6974  142.8978 H   0  0  0  0  0  0  0  0  0  0  0  0  # atno 7974 bound_to 7965
  155.7161  140.0784  157.2350 H   0  0  0  0  0  0  0  0  0  0  0  0  # atno 8008 bound_to 7997
  154.4051  140.1621  156.2404 H   0  0  0  0  0  0  0  0  0  0  0  0  # atno 8009 bound_to 7997
  155.9239  140.3396  155.6197 H   0  0  0  0  0  0  0  0  0  0  0  0  # atno 8010 bound_to 7997
  139.5047  144.6230  151.6006 H   0  0  0  0  0  0  0  0  0  0  0  0  # atno 10167 bound_to 10162
  156.2648  130.7231  151.1178 H   0  0  0  0  0  0  0  0  0  0  0  0  # atno 10718 bound_to 10713
  153.0156  135.6355  154.1697 H   0  0  0  0  0  0  0  0  0  0  0  0  # atno 10763 bound_to 10752
  154.1436  135.2833  155.3156 H   0  0  0  0  0  0  0  0  0  0  0  0  # atno 10764 bound_to 10752
  154.6106  135.5557  153.7530 H   0  0  0  0  0  0  0  0  0  0  0  0  # atno 10765 bound_to 10752
  140.4153  134.1575  155.7669 H   0  0  0  0  0  0  0  0  0  0  0  0  # atno 11005 bound_to 11000
  145.4381  141.0420  143.2873 LP  0  0  0  0  0  0  0  0  0  0  0  0  # atno 17320 bound_to 7965
  144.8140  139.5910  143.7016 LP  0  0  0  0  0  0  0  0  0  0  0  0  # atno 17321 bound_to 7965
  140.5938  143.9733  150.6341 LP  0  0  0  0  0  0  0  0  0  0  0  0  # atno 17342 bound_to 10162
  140.2922  143.3316  152.1051 LP  0  0  0  0  0  0  0  0  0  0  0  0  # atno 17343 bound_to 10162
  157.7263  131.0647  150.5914 LP  0  0  0  0  0  0  0  0  0  0  0  0  # atno 17370 bound_to 10713
  156.6005  130.4353  149.5899 LP  0  0  0  0  0  0  0  0  0  0  0  0  # atno 17371 bound_to 10713
  141.1805  133.8423  157.1273 LP  0  0  0  0  0  0  0  0  0  0  0  0  # atno 17394 bound_to 11000
  140.0238  134.9933  157.0646 LP  0  0  0  0  0  0  0  0  0  0  0  0  # atno 17395 bound_to 11000

$$$$
