AV-unprocessed.smi:3196|AV-procd|sdf|12224|dock2
  -GOLD-   2272018 53D 1   1.00000     0.00000
 Structure written by MMmdl.
 33 34  0  0  0  0  0  0  0  0  1 V2000
  146.5126  137.8400  151.6813 C   0  0  0  0  0  0  0  0  0  0  0  0
  147.0425  139.2266  152.0626 C   0  0  0  0  0  0  0  0  0  0  0  0
  147.8973  139.1997  153.3368 C   0  0  0  0  0  0  0  0  0  0  0  0
  148.4197  140.5721  153.7111 C   0  0  1  0  0  0  0  0  0  0  0  0
  147.5582  141.7924  153.5271 C   0  0  0  0  0  0  0  0  0  0  0  0
  147.8848  141.3033  154.9234 C   0  0  2  0  0  0  0  0  0  0  0  0
  148.7918  142.1053  155.6880 N   0  0  0  0  0  0  0  0  0  0  0  0
  149.6750  141.6936  156.6153 C   0  0  0  0  0  0  0  0  0  0  0  0
  149.7534  140.5082  156.9299 O   0  0  0  0  0  0  0  0  0  0  0  0
  150.3966  142.6889  157.1687 N   0  0  0  0  0  0  0  0  0  0  0  0
  151.3933  142.6340  158.1820 C   0  0  0  0  0  0  0  0  0  0  0  0
  152.0917  141.4618  158.5624 C   0  0  0  0  0  0  0  0  0  0  0  0
  153.0638  141.5551  159.5789 C   0  0  0  0  0  0  0  0  0  0  0  0
  153.3735  142.7072  160.2104 N   0  0  0  0  0  0  0  0  0  0  0  0
  152.7136  143.8242  159.8383 C   0  0  0  0  0  0  0  0  0  0  0  0
  151.7243  143.8407  158.8347 C   0  0  0  0  0  0  0  0  0  0  0  0
  151.1028  144.9997  158.5075 F   0  0  0  0  0  0  0  0  0  0  0  0
  145.9046  137.8914  150.7778 H   0  0  0  0  0  0  0  0  0  0  0  0
  145.8937  137.4229  152.4758 H   0  0  0  0  0  0  0  0  0  0  0  0
  147.3307  137.1445  151.4925 H   0  0  0  0  0  0  0  0  0  0  0  0
  147.6307  139.6263  151.2357 H   0  0  0  0  0  0  0  0  0  0  0  0
  146.2017  139.9071  152.2010 H   0  0  0  0  0  0  0  0  0  0  0  0
  147.3153  138.7973  154.1668 H   0  0  0  0  0  0  0  0  0  0  0  0
  148.7497  138.5337  153.1999 H   0  0  0  0  0  0  0  0  0  0  0  0
  149.4809  140.7034  153.5056 H   0  0  0  0  0  0  0  0  0  0  0  0
  148.0460  142.6993  153.1745 H   0  0  0  0  0  0  0  0  0  0  0  0
  146.5405  141.6455  153.1708 H   0  0  0  0  0  0  0  0  0  0  0  0
  147.0494  140.8450  155.4509 H   0  0  0  0  0  0  0  0  0  0  0  0
  148.7145  143.1030  155.5532 H   0  0  0  0  0  0  0  0  0  0  0  0
  150.1706  143.6189  156.8471 H   0  0  0  0  0  0  0  0  0  0  0  0
  151.9164  140.5041  158.0994 H   0  0  0  0  0  0  0  0  0  0  0  0
  153.6116  140.6780  159.8902 H   0  0  0  0  0  0  0  0  0  0  0  0
  152.9829  144.7334  160.3553 H   0  0  0  0  0  0  0  0  0  0  0  0
  1  2  1  0  0  0  0
  1 18  1  0  0  0  0
  1 19  1  0  0  0  0
  1 20  1  0  0  0  0
  2  3  1  0  0  0  0
  2 21  1  0  0  0  0
  2 22  1  0  0  0  0
  3  4  1  0  0  0  0
  3 23  1  0  0  0  0
  3 24  1  0  0  0  0
  4  6  1  0  0  0  0
  4  5  1  0  0  0  0
  4 25  1  0  0  0  0
  5  6  1  0  0  0  0
  5 26  1  0  0  0  0
  5 27  1  0  0  0  0
  6  7  1  0  0  0  0
  6 28  1  0  0  0  0
  7  8  1  0  0  0  0
  7 29  1  0  0  0  0
  8  9  2  0  0  0  0
  8 10  1  0  0  0  0
 10 11  1  0  0  0  0
 10 30  1  0  0  0  0
 11 16  1  0  0  0  0
 11 12  2  0  0  0  0
 12 13  1  0  0  0  0
 12 31  1  0  0  0  0
 13 14  2  0  0  0  0
 13 32  1  0  0  0  0
 14 15  1  0  0  0  0
 15 16  2  0  0  0  0
 15 33  1  0  0  0  0
 16 17  1  0  0  0  0
M  END
> <s_m_source_file>
AV-unprocessed.smi

> <i_m_source_file_index>
3196

> <i_lp_mmshare_version>
43012

> <i_f3d_flags>
0

> <s_epik_input>
W0NIM11bQ0gyXVtDSDJdW0NAQEhdMVtDSDJdW0NASF0xW05IXUMoPU8pW05IXWMyW2NIXVtjSF1uW2NIXWMyRg==

> <s_epik_cmdline>
J2VwaWtfcHl0aG9uJywgJy1waCcsICc3LjAnLCAnLXRuJywgJzgnLCAnLW1hJywgJzIwMCcsICctbWV0YWxfYmluZGluZycsICctaW1hZScsICc8aW5maWxlLm1hZT4nLCAnLW9tYWUnLCAnPG91dGZpbGUubWFlPic=

> <r_epik_Ionization_Penalty>
0.00341997

> <r_epik_Ionization_Penalty_Charging>
0

> <r_epik_Ionization_Penalty_Neutral>
0.00341997

> <r_epik_State_Penalty>
0.00239198

> <r_epik_Charging_Adjusted_Penalty>
0.00239198

> <i_epik_Tot_Q>
0

> <i_epik_Tot_abs_Q>
0

> <r_epik_Metal_State_Penalty>
-0

> <b_epik_Metal_Only>
0

> <s_lp_Force_Field>
OPLS_2005

> <r_lp_Energy>
34.2637

> <b_lp_Chiralities_Consistent>
1

> <s_lp_Variant>
AV-unprocessed.smi:3196-4

> <Gold.Version>
5.8.1

> <Gold.Id.Protein>
6NUR|6NUR_protein|mol2

> <Gold.PLP.Fitness>
40.9541

> <Gold.PLP.PLP>
-36.5166

> <Gold.PLP.part.hbond>
-2.0000

> <Gold.PLP.part.metal>
0.0000

> <Gold.PLP.part.buried>
-1.7875

> <Gold.PLP.part.nonpolar>
-31.9874

> <Gold.PLP.part.repulsive>
0.1397

> <Gold.PLP.ligand.clash>
0.0000

> <Gold.PLP.ligand.torsion>
0.8555

> <Gold.PLP.Chemscore.Hbond>
1.8596

> <Gold.PLP.Chemscore.CHOScore>
0.0000

> <Gold.PLP.Chemscore.Metal>
0.0000

> <Gold.Chemscore.Hbonds>
donor molecule, donor type, donor heavy atom, donor atom, acceptor molecule, acceptor atom, score
      L1  H     7    29       P1  8028  1.00
      L1  H    10    30       P1  8028  0.86

> <Gold.PLP.Chemscore.Internal.Correction>
0.5698

> <Gold.Rescore>
     Score         DG    S(hbond)    S(metal)    S(lipo)     H(rot)  DE(clash)    DE(int)     intcor
     18.19     -19.22       1.94        0.00      92.29       1.39       0.04       0.99       ----

> <Gold.Chemscore.Fitness>
18.1863

> <Gold.Chemscore.DG>
-19.2187

> <Gold.Chemscore.ZeroCoef>
-5.4800

> <Gold.Chemscore.Hbond>
1.9422

> <Gold.Chemscore.Metal>
0.0000

> <Gold.Chemscore.Lipo>
92.2875

> <Gold.Chemscore.Internal_Hbond>
0.0000

> <Gold.Chemscore.DEClash>
0.0417

> <Gold.Chemscore.DEInternal>
0.9907

> <Gold.Chemscore.Rot>
1.3852

> <Gold.Chemscore.Internal.Correction>
   9.000000E+99

> <Gold.Chemscore.Hbonds>
donor molecule, donor type, donor heavy atom, donor atom, acceptor molecule, acceptor atom, score
      L1  H     7    29       P1  8028  0.99
      L1  H    10    30       P1  8028  0.79

> <Gold.Chemscore.Hbond.Weighted>
-6.4871

> <Gold.Chemscore.Metal.Weighted>
-0.0000

> <Gold.Chemscore.Lipo.Weighted>
-10.7976

> <Gold.Chemscore.Internal_Hbond.Weighted>
0.0000

> <Gold.Chemscore.DEClash.Weighted>
0.0417

> <Gold.Chemscore.DEInternal.Weighted>
0.9907

> <Gold.Chemscore.Rot.Weighted>
3.5460

> <Gold.Chemscore.Internal.Correction.Weighted>
   9.000000E+99

> <Gold.Protein.RotatedTorsions>
[ 6907 6896 6895 6894 ] final  -56.18 input  -60.11 | X-H torsion
[ 7974 7965 7964 7962 ] final   24.82 input  175.53 | X-H torsion
[ 8008 7997 7996 7995 ] final  150.75 input   59.86 | X-H torsion
[ 10167 10162 10161 10158 ] final   -1.62 input  -65.29 | X-H torsion
[ 10718 10713 10712 10709 ] final  -78.08 input   66.30 | X-H torsion
[ 10763 10752 10751 10750 ] final  -85.66 input  -60.55 | X-H torsion
[ 11005 11000 10999 10996 ] final  -51.82 input  -57.11 | X-H torsion

> <Gold.Protein.ActiveResidues>
 VAL166  LYS551  ARG553  GLY616  TRP617  ASP618  TYR619  PRO620  LYS621  CYS622 
 ASP623  PHE694  ASN695  SER759  ASP760  ASP761  ALA762  ILE779  LEU786  VAL792 
 PHE793  MET794  SER795  GLU796  ALA797  LYS798  CYS799  TRP800  GLU811  SER814 

> <Gold.Protein.RotatedAtoms>
  150.8189  134.7386  159.6754 H   0  0  0  0  0  0  0  0  0  0  0  0  # atno 6907 bound_to 6896
  152.4306  134.5781  159.9950 H   0  0  0  0  0  0  0  0  0  0  0  0  # atno 6908 bound_to 6896
  151.5971  133.3323  159.3075 H   0  0  0  0  0  0  0  0  0  0  0  0  # atno 6909 bound_to 6896
  146.1919  139.7552  142.8825 H   0  0  0  0  0  0  0  0  0  0  0  0  # atno 7974 bound_to 7965
  156.2703  140.2066  156.6066 H   0  0  0  0  0  0  0  0  0  0  0  0  # atno 8008 bound_to 7997
  154.6864  140.0534  157.0343 H   0  0  0  0  0  0  0  0  0  0  0  0  # atno 8009 bound_to 7997
  155.0928  140.3198  155.4572 H   0  0  0  0  0  0  0  0  0  0  0  0  # atno 8010 bound_to 7997
  140.6817  143.6754  150.8150 H   0  0  0  0  0  0  0  0  0  0  0  0  # atno 10167 bound_to 10162
  156.0127  130.4508  150.3442 H   0  0  0  0  0  0  0  0  0  0  0  0  # atno 10718 bound_to 10713
  154.6136  135.5477  153.7499 H   0  0  0  0  0  0  0  0  0  0  0  0  # atno 10763 bound_to 10752
  153.0206  135.6395  154.1543 H   0  0  0  0  0  0  0  0  0  0  0  0  # atno 10764 bound_to 10752
  154.1480  135.2904  155.3123 H   0  0  0  0  0  0  0  0  0  0  0  0  # atno 10765 bound_to 10752
  141.0892  133.6636  156.3934 H   0  0  0  0  0  0  0  0  0  0  0  0  # atno 11005 bound_to 11000
  145.3766  141.0351  143.3201 LP  0  0  0  0  0  0  0  0  0  0  0  0  # atno 17320 bound_to 7965
  144.8503  139.5332  143.6859 LP  0  0  0  0  0  0  0  0  0  0  0  0  # atno 17321 bound_to 7965
  140.0455  143.5302  152.2698 LP  0  0  0  0  0  0  0  0  0  0  0  0  # atno 17342 bound_to 10162
  139.6145  144.7616  151.2877 LP  0  0  0  0  0  0  0  0  0  0  0  0  # atno 17343 bound_to 10162
  157.1537  131.0327  151.2873 LP  0  0  0  0  0  0  0  0  0  0  0  0  # atno 17370 bound_to 10713
  157.4370  130.7523  149.7038 LP  0  0  0  0  0  0  0  0  0  0  0  0  # atno 17371 bound_to 10713
  140.5293  134.6228  157.5344 LP  0  0  0  0  0  0  0  0  0  0  0  0  # atno 17394 bound_to 11000
  139.9714  134.7286  156.0033 LP  0  0  0  0  0  0  0  0  0  0  0  0  # atno 17395 bound_to 11000

$$$$
