AV-unprocessed.smi:246|AV-procd|sdf|1885|dock5
  -GOLD-   2262020543D 1   1.00000     0.00000
 Structure written by MMmdl.
 57 60  0  0  0  0  0  0  0  0  1 V2000
  152.1023  145.0454  159.3502 C   0  0  0  0  0  0  0  0  0  0  0  0
  151.1184  143.8719  159.4501 C   0  0  0  0  0  0  0  0  0  0  0  0
  151.5841  142.8683  160.3414 O   0  0  0  0  0  0  0  0  0  0  0  0
  152.4826  141.9384  159.7541 C   0  0  0  0  0  0  0  0  0  0  0  0
  151.6767  140.8773  158.9997 C   0  0  0  0  0  0  0  0  0  0  0  0
  150.8449  141.5204  158.0457 O   0  0  0  0  0  0  0  0  0  0  0  0
  150.6399  140.7586  156.8651 C   0  0  2  0  0  0  0  0  0  0  0  0
  150.1906  141.6527  155.7102 C   0  0  0  0  0  0  0  0  0  0  0  0
  149.4715  140.6724  154.7856 C   0  0  0  0  0  0  0  0  0  0  0  0
  148.8578  139.7010  155.6810 N   0  0  0  0  0  0  0  0  0  0  0  0
  148.2609  138.5729  155.2162 C   0  0  0  0  0  0  0  0  0  0  0  0
  148.4812  137.4010  155.8695 N   0  0  0  0  0  0  0  0  0  0  0  0
  147.9067  136.2703  155.4497 C   0  0  0  0  0  0  0  0  0  0  0  0
  147.0919  136.0852  154.4104 N   0  0  0  0  0  0  0  0  0  0  0  0
  146.8774  137.2515  153.7383 C   0  0  0  0  0  0  0  0  0  0  0  0
  147.4176  138.5286  154.0663 C   0  0  0  0  0  0  0  0  0  0  0  0
  146.9788  139.4706  153.1413 N   0  0  0  0  0  0  0  0  0  0  0  0
  146.2171  138.7949  152.3258 C   0  0  0  0  0  0  0  0  0  0  0  0
  146.0970  137.4557  152.6140 N   0  0  0  0  0  0  0  0  0  0  0  0
  145.3094  136.4814  151.8793 C   0  0  0  0  0  0  0  0  0  0  0  0
  145.5170  135.0480  152.4055 C   0  0  2  0  0  0  0  0  0  0  0  0
  146.8458  134.6418  152.1384 O   0  0  0  0  0  0  0  0  0  0  0  0
  144.5479  134.0421  151.7581 C   0  0  1  0  0  0  0  0  0  0  0  0
  144.4791  134.1187  150.2317 C   0  0  0  0  0  0  0  0  0  0  0  0
  144.0414  132.7218  149.8197 C   0  0  0  0  0  0  0  0  0  0  0  0
  144.2763  131.8728  151.0717 C   0  0  0  0  0  0  0  0  0  0  0  0
  145.0020  132.7122  151.9586 O   0  0  0  0  0  0  0  0  0  0  0  0
  149.4969  139.7408  156.9897 C   0  0  0  0  0  0  0  0  0  0  0  0
  151.5590  140.2490  156.5697 H   0  0  0  0  0  0  0  0  0  0  0  0
  151.7728  145.7604  158.5964 H   0  0  0  0  0  0  0  0  0  0  0  0
  153.0957  144.6980  159.0663 H   0  0  0  0  0  0  0  0  0  0  0  0
  152.1911  145.5840  160.2932 H   0  0  0  0  0  0  0  0  0  0  0  0
  150.1227  144.2165  159.7330 H   0  0  0  0  0  0  0  0  0  0  0  0
  151.0185  143.4144  158.4657 H   0  0  0  0  0  0  0  0  0  0  0  0
  153.1872  142.4245  159.0793 H   0  0  0  0  0  0  0  0  0  0  0  0
  153.0629  141.4572  160.5424 H   0  0  0  0  0  0  0  0  0  0  0  0
  152.3611  140.2042  158.4813 H   0  0  0  0  0  0  0  0  0  0  0  0
  151.0937  140.2766  159.6990 H   0  0  0  0  0  0  0  0  0  0  0  0
  149.4845  142.4020  156.0714 H   0  0  0  0  0  0  0  0  0  0  0  0
  151.0164  142.1720  155.2235 H   0  0  0  0  0  0  0  0  0  0  0  0
  148.7287  141.1742  154.1647 H   0  0  0  0  0  0  0  0  0  0  0  0
  150.1875  140.1711  154.1326 H   0  0  0  0  0  0  0  0  0  0  0  0
  148.1305  135.3883  156.0315 H   0  0  0  0  0  0  0  0  0  0  0  0
  145.7155  139.2579  151.4883 H   0  0  0  0  0  0  0  0  0  0  0  0
  144.2599  136.7662  151.9627 H   0  0  0  0  0  0  0  0  0  0  0  0
  145.5647  136.5444  150.8206 H   0  0  0  0  0  0  0  0  0  0  0  0
  145.3741  135.0385  153.4871 H   0  0  0  0  0  0  0  0  0  0  0  0
  147.3990  135.4081  152.1362 H   0  0  0  0  0  0  0  0  0  0  0  0
  143.5470  134.1433  152.1830 H   0  0  0  0  0  0  0  0  0  0  0  0
  143.7996  134.8958  149.8807 H   0  0  0  0  0  0  0  0  0  0  0  0
  145.4676  134.3263  149.8195 H   0  0  0  0  0  0  0  0  0  0  0  0
  142.9894  132.7005  149.5330 H   0  0  0  0  0  0  0  0  0  0  0  0
  144.6279  132.3647  148.9728 H   0  0  0  0  0  0  0  0  0  0  0  0
  143.3268  131.5984  151.5333 H   0  0  0  0  0  0  0  0  0  0  0  0
  144.8286  130.9574  150.8587 H   0  0  0  0  0  0  0  0  0  0  0  0
  149.8776  138.7671  157.2991 H   0  0  0  0  0  0  0  0  0  0  0  0
  148.7608  140.0722  157.7229 H   0  0  0  0  0  0  0  0  0  0  0  0
  1  2  1  0  0  0  0
  1 30  1  0  0  0  0
  1 31  1  0  0  0  0
  1 32  1  0  0  0  0
  2  3  1  0  0  0  0
  2 33  1  0  0  0  0
  2 34  1  0  0  0  0
  3  4  1  0  0  0  0
  4  5  1  0  0  0  0
  4 35  1  0  0  0  0
  4 36  1  0  0  0  0
  5  6  1  0  0  0  0
  5 37  1  0  0  0  0
  5 38  1  0  0  0  0
  6  7  1  0  0  0  0
  7 29  1  0  0  0  0
  7 28  1  0  0  0  0
  7  8  1  0  0  0  0
  8  9  1  0  0  0  0
  8 39  1  0  0  0  0
  8 40  1  0  0  0  0
  9 10  1  0  0  0  0
  9 41  1  0  0  0  0
  9 42  1  0  0  0  0
 10 11  1  0  0  0  0
 10 28  1  0  0  0  0
 11 16  1  0  0  0  0
 11 12  2  0  0  0  0
 12 13  1  0  0  0  0
 13 14  2  0  0  0  0
 13 43  1  0  0  0  0
 14 15  1  0  0  0  0
 15 19  1  0  0  0  0
 15 16  2  0  0  0  0
 16 17  1  0  0  0  0
 17 18  2  0  0  0  0
 18 19  1  0  0  0  0
 18 44  1  0  0  0  0
 19 20  1  0  0  0  0
 20 21  1  0  0  0  0
 20 45  1  0  0  0  0
 20 46  1  0  0  0  0
 21 22  1  0  0  0  0
 21 23  1  0  0  0  0
 21 47  1  0  0  0  0
 22 48  1  0  0  0  0
 23 27  1  0  0  0  0
 23 24  1  0  0  0  0
 23 49  1  0  0  0  0
 24 25  1  0  0  0  0
 24 50  1  0  0  0  0
 24 51  1  0  0  0  0
 25 26  1  0  0  0  0
 25 52  1  0  0  0  0
 25 53  1  0  0  0  0
 26 27  1  0  0  0  0
 26 54  1  0  0  0  0
 26 55  1  0  0  0  0
 28 56  1  0  0  0  0
 28 57  1  0  0  0  0
M  END
> <s_m_source_file>
AV-unprocessed.smi

> <i_m_source_file_index>
246

> <i_lp_mmshare_version>
43012

> <i_f3d_flags>
0

> <s_epik_input>
W0NIM11bQ0gyXU9bQ0gyXVtDSDJdT1tDQEhdMVtDSDJdW0NIMl1OKFtDSDJdMSljKG5bY0hdbjIpYyhjMjMpbltjSF1uM1tDSDJdW0NASF0oW09IXSlbQ0BASF00W0NIMl1bQ0gyXVtDSDJdTzQ=

> <s_epik_cmdline>
J2VwaWtfcHl0aG9uJywgJy1waCcsICc3LjAnLCAnLXRuJywgJzgnLCAnLW1hJywgJzIwMCcsICctbWV0YWxfYmluZGluZycsICctaW1hZScsICc8aW5maWxlLm1hZT4nLCAnLW9tYWUnLCAnPG91dGZpbGUubWFlPic=

> <r_lp_tautomer_probability>
1

> <r_epik_Ionization_Penalty>
0.0024631

> <r_epik_Ionization_Penalty_Charging>
0

> <r_epik_Ionization_Penalty_Neutral>
0.0024631

> <r_epik_State_Penalty>
0.00162428

> <r_epik_Charging_Adjusted_Penalty>
0.00162428

> <i_epik_Tot_Q>
0

> <i_epik_Tot_abs_Q>
0

> <r_epik_Metal_State_Penalty>
-0

> <b_epik_Metal_Only>
0

> <s_lp_Force_Field>
OPLS_2005

> <r_lp_Energy>
48.9745

> <b_lp_Chiralities_Consistent>
1

> <s_lp_Variant>
AV-unprocessed.smi:246-6

> <Gold.Version>
5.8.1

> <Gold.Id.Protein>
6NUR|6NUR_protein|mol2

> <Gold.PLP.Fitness>
46.3944

> <Gold.PLP.PLP>
-40.8968

> <Gold.PLP.part.hbond>
-1.3011

> <Gold.PLP.part.metal>
0.0000

> <Gold.PLP.part.buried>
-3.3539

> <Gold.PLP.part.nonpolar>
-36.9479

> <Gold.PLP.part.repulsive>
0.6603

> <Gold.PLP.ligand.clash>
0.0000

> <Gold.PLP.ligand.torsion>
1.3340

> <Gold.PLP.Chemscore.Hbond>
1.0000

> <Gold.PLP.Chemscore.CHOScore>
1.5462

> <Gold.PLP.Chemscore.Metal>
0.0000

> <Gold.Chemscore.Hbonds>
donor molecule, donor type, donor heavy atom, donor atom, acceptor molecule, acceptor atom, score
      L1  H    22    48       P1  7948  1.00
      L1  C    18    44       P1 10171  0.93
      L1  C    18    44       P1 10175  0.52

> <Gold.PLP.Chemscore.Internal.Correction>
0.5269

> <Gold.Rescore>
     Score         DG    S(hbond)    S(metal)    S(lipo)     H(rot)  DE(clash)    DE(int)     intcor
      8.49     -13.33       0.99        0.00     106.79       3.10       0.88       3.96       ----

> <Gold.Chemscore.Fitness>
8.4941

> <Gold.Chemscore.DG>
-13.3283

> <Gold.Chemscore.ZeroCoef>
-5.4800

> <Gold.Chemscore.Hbond>
0.9870

> <Gold.Chemscore.Metal>
0.0000

> <Gold.Chemscore.Lipo>
106.7893

> <Gold.Chemscore.Internal_Hbond>
0.0000

> <Gold.Chemscore.DEClash>
0.8786

> <Gold.Chemscore.DEInternal>
3.9556

> <Gold.Chemscore.Rot>
3.1026

> <Gold.Chemscore.Internal.Correction>
   9.000000E+99

> <Gold.Chemscore.Hbonds>
donor molecule, donor type, donor heavy atom, donor atom, acceptor molecule, acceptor atom, score
      L1  H    22    48       P1  7948  0.95

> <Gold.Chemscore.Hbond.Weighted>
-3.2966

> <Gold.Chemscore.Metal.Weighted>
-0.0000

> <Gold.Chemscore.Lipo.Weighted>
-12.4943

> <Gold.Chemscore.Internal_Hbond.Weighted>
0.0000

> <Gold.Chemscore.DEClash.Weighted>
0.8786

> <Gold.Chemscore.DEInternal.Weighted>
3.9556

> <Gold.Chemscore.Rot.Weighted>
7.9426

> <Gold.Chemscore.Internal.Correction.Weighted>
   9.000000E+99

> <Gold.Protein.RotatedTorsions>
[ 6907 6896 6895 6894 ] final   53.52 input  -60.11 | X-H torsion
[ 7974 7965 7964 7962 ] final   53.45 input  175.53 | X-H torsion
[ 8008 7997 7996 7995 ] final    8.51 input   59.86 | X-H torsion
[ 10167 10162 10161 10158 ] final  -31.69 input  -65.29 | X-H torsion
[ 10718 10713 10712 10709 ] final -154.45 input   66.30 | X-H torsion
[ 10763 10752 10751 10750 ] final -123.25 input  -60.55 | X-H torsion
[ 11005 11000 10999 10996 ] final  104.87 input  -57.11 | X-H torsion

> <Gold.Protein.ActiveResidues>
 VAL166  LYS551  ARG553  GLY616  TRP617  ASP618  TYR619  PRO620  LYS621  CYS622 
 ASP623  PHE694  ASN695  SER759  ASP760  ASP761  ALA762  ILE779  LEU786  VAL792 
 PHE793  MET794  SER795  GLU796  ALA797  LYS798  CYS799  TRP800  GLU811  SER814 

> <Gold.Protein.RotatedAtoms>
  152.3346  134.7215  160.0280 H   0  0  0  0  0  0  0  0  0  0  0  0  # atno 6907 bound_to 6896
  151.7620  133.3329  159.3428 H   0  0  0  0  0  0  0  0  0  0  0  0  # atno 6908 bound_to 6896
  150.7443  134.6029  159.6090 H   0  0  0  0  0  0  0  0  0  0  0  0  # atno 6909 bound_to 6896
  145.9710  139.4149  143.0190 H   0  0  0  0  0  0  0  0  0  0  0  0  # atno 7974 bound_to 7965
  154.7678  140.2796  155.6162 H   0  0  0  0  0  0  0  0  0  0  0  0  # atno 8008 bound_to 7997
  156.2928  140.2647  156.2400 H   0  0  0  0  0  0  0  0  0  0  0  0  # atno 8009 bound_to 7997
  154.9938  140.0373  157.2320 H   0  0  0  0  0  0  0  0  0  0  0  0  # atno 8010 bound_to 7997
  140.7232  143.3751  151.1704 H   0  0  0  0  0  0  0  0  0  0  0  0  # atno 10167 bound_to 10162
  156.4994  130.8384  151.2603 H   0  0  0  0  0  0  0  0  0  0  0  0  # atno 10718 bound_to 10713
  154.8704  135.4105  154.2913 H   0  0  0  0  0  0  0  0  0  0  0  0  # atno 10763 bound_to 10752
  153.3788  135.7010  153.6586 H   0  0  0  0  0  0  0  0  0  0  0  0  # atno 10764 bound_to 10752
  153.5417  135.3646  155.2693 H   0  0  0  0  0  0  0  0  0  0  0  0  # atno 10765 bound_to 10752
  139.8796  134.9316  156.5428 H   0  0  0  0  0  0  0  0  0  0  0  0  # atno 11005 bound_to 11000
  145.7906  140.9816  143.1051 LP  0  0  0  0  0  0  0  0  0  0  0  0  # atno 17320 bound_to 7965
  144.6837  139.9677  143.7481 LP  0  0  0  0  0  0  0  0  0  0  0  0  # atno 17321 bound_to 7965
  139.7330  143.9043  152.3026 LP  0  0  0  0  0  0  0  0  0  0  0  0  # atno 17342 bound_to 10162
  139.8838  144.7003  150.8847 LP  0  0  0  0  0  0  0  0  0  0  0  0  # atno 17343 bound_to 10162
  157.7464  130.9987  150.2861 LP  0  0  0  0  0  0  0  0  0  0  0  0  # atno 17370 bound_to 10713
  156.3347  130.3806  149.7460 LP  0  0  0  0  0  0  0  0  0  0  0  0  # atno 17371 bound_to 10713
  140.8298  133.8288  155.8973 LP  0  0  0  0  0  0  0  0  0  0  0  0  # atno 17394 bound_to 11000
  140.9339  134.1986  157.4844 LP  0  0  0  0  0  0  0  0  0  0  0  0  # atno 17395 bound_to 11000

$$$$
