AV-unprocessed.smi:1824|AV-procd|sdf|7397|dock8
  -GOLD-   22720 9 63D 1   1.00000     0.00000
 Structure written by MMmdl.
 44 46  0  0  0  0  0  0  0  0  1 V2000
  146.7765  137.6092  153.5300 C   0  0  0  0  0  0  0  0  0  0  0  0
  146.8772  138.9663  154.2343 C   0  0  1  0  0  0  0  0  0  0  0  0
  148.0926  139.0415  155.1759 C   0  0  0  0  0  0  0  0  0  0  0  0
  148.2341  140.3603  155.7799 N   0  0  0  0  0  0  0  0  0  0  0  0
  149.3660  140.3966  156.7058 C   0  0  0  0  0  0  0  0  0  0  0  0
  150.6936  140.9012  156.1004 C   0  0  2  0  0  0  0  0  0  0  0  0
  151.0827  140.0372  155.0488 O   0  0  0  0  0  0  0  0  0  0  0  0
  151.8253  140.9426  157.1463 C   0  0  0  0  0  0  0  0  0  0  0  0
  151.5620  141.8916  158.2137 N   0  0  0  0  0  0  0  0  0  0  0  0
  150.6678  142.8991  158.2063 C   0  0  0  0  0  0  0  0  0  0  0  0
  150.5910  143.6535  159.2991 N   0  0  0  0  0  0  0  0  0  0  0  0
  151.5470  143.0678  160.1110 C   0  0  0  0  0  0  0  0  0  0  0  0
  151.9633  143.3953  161.4211 C   0  0  0  0  0  0  0  0  0  0  0  0
  152.9729  142.6446  162.0592 C   0  0  0  0  0  0  0  0  0  0  0  0
  153.3604  142.9723  163.3148 F   0  0  0  0  0  0  0  0  0  0  0  0
  153.5801  141.5562  161.3976 C   0  0  0  0  0  0  0  0  0  0  0  0
  154.5485  140.8407  162.0174 F   0  0  0  0  0  0  0  0  0  0  0  0
  153.1814  141.2108  160.0922 C   0  0  0  0  0  0  0  0  0  0  0  0
  152.1742  141.9630  159.4600 C   0  0  0  0  0  0  0  0  0  0  0  0
  148.3438  141.3590  154.7190 C   0  0  0  0  0  0  0  0  0  0  0  0
  147.1655  141.3059  153.7261 C   0  0  2  0  0  0  0  0  0  0  0  0
  145.8592  141.8779  154.3027 C   0  0  0  0  0  0  0  0  0  0  0  0
  146.9906  139.9764  153.2334 O   0  0  0  0  0  0  0  0  0  0  0  0
  146.6756  136.7985  154.2518 H   0  0  0  0  0  0  0  0  0  0  0  0
  147.6624  137.4113  152.9259 H   0  0  0  0  0  0  0  0  0  0  0  0
  145.9092  137.5764  152.8701 H   0  0  0  0  0  0  0  0  0  0  0  0
  145.9624  139.1240  154.8064 H   0  0  0  0  0  0  0  0  0  0  0  0
  147.9865  138.2872  155.9565 H   0  0  0  0  0  0  0  0  0  0  0  0
  148.9991  138.7908  154.6226 H   0  0  0  0  0  0  0  0  0  0  0  0
  149.1005  141.0757  157.5172 H   0  0  0  0  0  0  0  0  0  0  0  0
  149.5055  139.4238  157.1801 H   0  0  0  0  0  0  0  0  0  0  0  0
  150.5561  141.9047  155.6950 H   0  0  0  0  0  0  0  0  0  0  0  0
  151.7637  139.4644  155.3664 H   0  0  0  0  0  0  0  0  0  0  0  0
  151.9578  139.9583  157.5974 H   0  0  0  0  0  0  0  0  0  0  0  0
  152.7747  141.1994  156.6737 H   0  0  0  0  0  0  0  0  0  0  0  0
  150.0351  143.0881  157.3510 H   0  0  0  0  0  0  0  0  0  0  0  0
  151.5051  144.2258  161.9372 H   0  0  0  0  0  0  0  0  0  0  0  0
  153.6428  140.3772  159.5839 H   0  0  0  0  0  0  0  0  0  0  0  0
  148.4020  142.3609  155.1433 H   0  0  0  0  0  0  0  0  0  0  0  0
  149.2743  141.2025  154.1709 H   0  0  0  0  0  0  0  0  0  0  0  0
  147.4271  141.9194  152.8635 H   0  0  0  0  0  0  0  0  0  0  0  0
  145.9815  142.9274  154.5712 H   0  0  0  0  0  0  0  0  0  0  0  0
  145.5403  141.3483  155.2000 H   0  0  0  0  0  0  0  0  0  0  0  0
  145.0520  141.8159  153.5728 H   0  0  0  0  0  0  0  0  0  0  0  0
  1  2  1  0  0  0  0
  1 24  1  0  0  0  0
  1 25  1  0  0  0  0
  1 26  1  0  0  0  0
  2 23  1  0  0  0  0
  2  3  1  0  0  0  0
  2 27  1  0  0  0  0
  3  4  1  0  0  0  0
  3 28  1  0  0  0  0
  3 29  1  0  0  0  0
  4  5  1  0  0  0  0
  4 20  1  0  0  0  0
  5  6  1  0  0  0  0
  5 30  1  0  0  0  0
  5 31  1  0  0  0  0
  6  7  1  0  0  0  0
  6  8  1  0  0  0  0
  6 32  1  0  0  0  0
  7 33  1  0  0  0  0
  8  9  1  0  0  0  0
  8 34  1  0  0  0  0
  8 35  1  0  0  0  0
  9 19  1  0  0  0  0
  9 10  1  0  0  0  0
 10 11  2  0  0  0  0
 10 36  1  0  0  0  0
 11 12  1  0  0  0  0
 12 19  2  0  0  0  0
 12 13  1  0  0  0  0
 13 14  2  0  0  0  0
 13 37  1  0  0  0  0
 14 15  1  0  0  0  0
 14 16  1  0  0  0  0
 16 17  1  0  0  0  0
 16 18  2  0  0  0  0
 18 19  1  0  0  0  0
 18 38  1  0  0  0  0
 20 21  1  0  0  0  0
 20 39  1  0  0  0  0
 20 40  1  0  0  0  0
 21 22  1  0  0  0  0
 21 23  1  0  0  0  0
 21 41  1  0  0  0  0
 22 42  1  0  0  0  0
 22 43  1  0  0  0  0
 22 44  1  0  0  0  0
M  END
> <s_m_source_file>
AV-unprocessed.smi

> <i_m_source_file_index>
1824

> <i_lp_mmshare_version>
43012

> <i_f3d_flags>
0

> <s_epik_input>
W0NIM11bQ0BASF0xW0NIMl1OKFtDSDJdW0NASF0oTzEpW0NIM10pW0NIMl1bQ0BIXShbT0hdKVtDSDJdbihbY0hdbjIpYyhjMjMpW2NIXWMoRiljKEYpW2NIXTM=

> <s_epik_cmdline>
J2VwaWtfcHl0aG9uJywgJy1waCcsICc3LjAnLCAnLXRuJywgJzgnLCAnLW1hJywgJzIwMCcsICctbWV0YWxfYmluZGluZycsICctaW1hZScsICc8aW5maWxlLm1hZT4nLCAnLW9tYWUnLCAnPG91dGZpbGUubWFlPic=

> <r_epik_Ionization_Penalty>
0.273778

> <r_epik_Ionization_Penalty_Charging>
0

> <r_epik_Ionization_Penalty_Neutral>
0.273778

> <r_epik_State_Penalty>
0.246794

> <r_epik_Charging_Adjusted_Penalty>
0.246794

> <i_epik_Tot_Q>
0

> <i_epik_Tot_abs_Q>
0

> <r_epik_Metal_State_Penalty>
0.238234

> <b_epik_Metal_Only>
0

> <s_lp_Force_Field>
OPLS_2005

> <r_lp_Energy>
30.6075

> <b_lp_Chiralities_Consistent>
1

> <s_lp_Variant>
AV-unprocessed.smi:1824-5

> <Gold.Version>
5.8.1

> <Gold.Id.Protein>
6NUR|6NUR_protein|mol2

> <Gold.PLP.Fitness>
54.1557

> <Gold.PLP.PLP>
-49.4805

> <Gold.PLP.part.hbond>
-1.0000

> <Gold.PLP.part.metal>
0.0000

> <Gold.PLP.part.buried>
-7.7414

> <Gold.PLP.part.nonpolar>
-40.1138

> <Gold.PLP.part.repulsive>
0.4620

> <Gold.PLP.ligand.clash>
0.0000

> <Gold.PLP.ligand.torsion>
0.6775

> <Gold.PLP.Chemscore.Hbond>
1.0000

> <Gold.PLP.Chemscore.CHOScore>
1.0000

> <Gold.PLP.Chemscore.Metal>
0.0000

> <Gold.Chemscore.Hbonds>
donor molecule, donor type, donor heavy atom, donor atom, acceptor molecule, acceptor atom, score
      P1  H  7989  7998       L1     7  1.00
      L1  C    10    36       P1  8028  0.81

> <Gold.PLP.Chemscore.Internal.Correction>
0.0303

> <Gold.Rescore>
     Score         DG    S(hbond)    S(metal)    S(lipo)     H(rot)  DE(clash)    DE(int)     intcor
     13.86     -15.28       0.75        0.00     111.86       2.26       0.15       1.26       ----

> <Gold.Chemscore.Fitness>
13.8650

> <Gold.Chemscore.DG>
-15.2809

> <Gold.Chemscore.ZeroCoef>
-5.4800

> <Gold.Chemscore.Hbond>
0.7494

> <Gold.Chemscore.Metal>
0.0000

> <Gold.Chemscore.Lipo>
111.8649

> <Gold.Chemscore.Internal_Hbond>
0.0000

> <Gold.Chemscore.DEClash>
0.1543

> <Gold.Chemscore.DEInternal>
1.2616

> <Gold.Chemscore.Rot>
2.2619

> <Gold.Chemscore.Internal.Correction>
   9.000000E+99

> <Gold.Chemscore.Hbonds>
donor molecule, donor type, donor heavy atom, donor atom, acceptor molecule, acceptor atom, score
      P1  H  7989  7998       L1     7  0.67

> <Gold.Chemscore.Hbond.Weighted>
-2.5031

> <Gold.Chemscore.Metal.Weighted>
-0.0000

> <Gold.Chemscore.Lipo.Weighted>
-13.0882

> <Gold.Chemscore.Internal_Hbond.Weighted>
0.0000

> <Gold.Chemscore.DEClash.Weighted>
0.1543

> <Gold.Chemscore.DEInternal.Weighted>
1.2616

> <Gold.Chemscore.Rot.Weighted>
5.7904

> <Gold.Chemscore.Internal.Correction.Weighted>
   9.000000E+99

> <Gold.Protein.RotatedTorsions>
[ 6907 6896 6895 6894 ] final  129.14 input  -60.11 | X-H torsion
[ 7974 7965 7964 7962 ] final    5.40 input  175.53 | X-H torsion
[ 8008 7997 7996 7995 ] final -127.60 input   59.86 | X-H torsion
[ 10167 10162 10161 10158 ] final   60.37 input  -65.29 | X-H torsion
[ 10718 10713 10712 10709 ] final  134.94 input   66.30 | X-H torsion
[ 10763 10752 10751 10750 ] final  -11.46 input  -60.55 | X-H torsion
[ 11005 11000 10999 10996 ] final   12.02 input  -57.11 | X-H torsion

> <Gold.Protein.ActiveResidues>
 VAL166  LYS551  ARG553  GLY616  TRP617  ASP618  TYR619  PRO620  LYS621  CYS622 
 ASP623  PHE694  ASN695  SER759  ASP760  ASP761  ALA762  ILE779  LEU786  VAL792 
 PHE793  MET794  SER795  GLU796  ALA797  LYS798  CYS799  TRP800  GLU811  SER814 

> <Gold.Protein.RotatedAtoms>
  152.3652  133.6348  159.6044 H   0  0  0  0  0  0  0  0  0  0  0  0  # atno 6907 bound_to 6896
  150.7629  133.9359  159.3450 H   0  0  0  0  0  0  0  0  0  0  0  0  # atno 6908 bound_to 6896
  151.7191  135.0899  160.0332 H   0  0  0  0  0  0  0  0  0  0  0  0  # atno 6909 bound_to 6896
  146.2440  140.0389  142.8383 H   0  0  0  0  0  0  0  0  0  0  0  0  # atno 7974 bound_to 7965
  155.2489  140.0431  157.2984 H   0  0  0  0  0  0  0  0  0  0  0  0  # atno 8008 bound_to 7997
  154.5781  140.2393  155.8062 H   0  0  0  0  0  0  0  0  0  0  0  0  # atno 8009 bound_to 7997
  156.2173  140.2981  155.9878 H   0  0  0  0  0  0  0  0  0  0  0  0  # atno 8010 bound_to 7997
  140.1663  144.4320  150.6683 H   0  0  0  0  0  0  0  0  0  0  0  0  # atno 10167 bound_to 10162
  157.4622  131.1074  150.9906 H   0  0  0  0  0  0  0  0  0  0  0  0  # atno 10718 bound_to 10713
  153.4841  135.7017  153.5921 H   0  0  0  0  0  0  0  0  0  0  0  0  # atno 10763 bound_to 10752
  153.4122  135.3846  155.2058 H   0  0  0  0  0  0  0  0  0  0  0  0  # atno 10764 bound_to 10752
  154.8720  135.3907  154.4294 H   0  0  0  0  0  0  0  0  0  0  0  0  # atno 10765 bound_to 10752
  140.4967  134.0787  155.7784 H   0  0  0  0  0  0  0  0  0  0  0  0  # atno 11005 bound_to 11000
  145.1087  140.9391  143.4669 LP  0  0  0  0  0  0  0  0  0  0  0  0  # atno 17320 bound_to 7965
  145.0598  139.3114  143.5886 LP  0  0  0  0  0  0  0  0  0  0  0  0  # atno 17321 bound_to 7965
  140.6610  143.2252  151.5855 LP  0  0  0  0  0  0  0  0  0  0  0  0  # atno 17342 bound_to 10162
  139.5358  144.2786  152.1247 LP  0  0  0  0  0  0  0  0  0  0  0  0  # atno 17343 bound_to 10162
  157.0700  130.5860  149.5401 LP  0  0  0  0  0  0  0  0  0  0  0  0  # atno 17370 bound_to 10713
  156.0034  130.5116  150.7743 LP  0  0  0  0  0  0  0  0  0  0  0  0  # atno 17371 bound_to 10713
  141.1456  133.9060  157.2222 LP  0  0  0  0  0  0  0  0  0  0  0  0  # atno 17394 bound_to 11000
  139.9737  135.0120  156.9578 LP  0  0  0  0  0  0  0  0  0  0  0  0  # atno 17395 bound_to 11000

$$$$
