AV-unprocessed.smi:1374|AV-procd|sdf|5588|dock8
  -GOLD-   22720 5193D 1   1.00000     0.00000
 Structure written by MMmdl.
 42 43  0  0  0  0  0  0  0  0  2 V2000
  153.0327  142.4282  162.2147 C   0  0  0  0  0  0  0  0  0  0  0  0
  152.4485  143.4553  161.2392 C   0  0  0  0  0  0  0  0  0  0  0  0
  152.0891  142.8377  159.8775 C   0  0  0  0  0  0  0  0  0  0  0  0
  153.2394  142.0574  159.2038 C   0  0  0  0  0  0  0  0  0  0  0  0
  153.1760  140.6004  159.4614 N   0  0  0  0  0  0  0  0  0  0  0  0
  152.2430  139.8166  158.7304 C   0  0  0  0  0  0  0  0  0  0  0  0
  151.4097  140.4414  157.8135 N   0  0  0  0  0  0  0  0  0  0  0  0
  152.2051  138.4677  158.9006 C   0  0  0  0  0  0  0  0  0  0  0  0
  151.3026  137.6478  158.1881 N   0  0  0  0  0  0  0  0  0  0  0  0
  149.8974  137.7080  158.6056 C   0  0  0  0  0  0  0  0  0  0  0  0
  151.6614  136.7822  157.1945 C   0  0  0  0  0  0  0  0  0  0  0  0
  152.7856  136.8290  156.6888 O   0  0  0  0  0  0  0  0  0  0  0  0
  150.6705  135.7781  156.7939 C   0  0  0  0  0  0  0  0  0  0  0  0
  150.4816  135.5397  155.4759 C   0  0  0  0  0  0  0  0  0  0  0  0
  149.6186  134.5912  154.9857 O   0  0  0  0  0  0  0  0  0  0  0  0
  149.0974  133.6958  155.9613 C   0  0  0  0  0  0  0  0  0  0  0  0
  148.7786  134.4419  157.2646 C   0  0  0  0  0  0  0  0  0  0  0  0
  149.9486  135.0917  157.7447 O   0  0  0  0  0  0  0  0  0  0  0  0
  153.0957  137.8546  159.8957 C   0  0  0  0  0  0  0  0  0  0  0  0
  153.0467  136.6431  160.1100 O   0  0  0  0  0  0  0  0  0  0  0  0
  153.9561  138.6686  160.5607 N   0  5  0  0  0  0  0  0  0  0  0  0
  154.0236  140.0158  160.3643 C   0  0  0  0  0  0  0  0  0  0  0  0
  154.8337  140.7143  160.9749 O   0  0  0  0  0  0  0  0  0  0  0  0
  153.2682  142.8938  163.1717 H   0  0  0  0  0  0  0  0  0  0  0  0
  153.9503  141.9893  161.8223 H   0  0  0  0  0  0  0  0  0  0  0  0
  152.3262  141.6194  162.4036 H   0  0  0  0  0  0  0  0  0  0  0  0
  151.5620  143.9008  161.6910 H   0  0  0  0  0  0  0  0  0  0  0  0
  153.1640  144.2654  161.0962 H   0  0  0  0  0  0  0  0  0  0  0  0
  151.2455  142.1595  160.0088 H   0  0  0  0  0  0  0  0  0  0  0  0
  151.7352  143.6257  159.2127 H   0  0  0  0  0  0  0  0  0  0  0  0
  153.2458  142.2855  158.1372 H   0  0  0  0  0  0  0  0  0  0  0  0
  154.1966  142.4497  159.5483 H   0  0  0  0  0  0  0  0  0  0  0  0
  151.4501  141.4374  157.6535 H   0  0  0  0  0  0  0  0  0  0  0  0
  150.6573  139.9444  157.3592 H   0  0  0  0  0  0  0  0  0  0  0  0
  149.2573  137.9922  157.7693 H   0  0  0  0  0  0  0  0  0  0  0  0
  149.7384  138.4343  159.4038 H   0  0  0  0  0  0  0  0  0  0  0  0
  149.5640  136.7394  158.9810 H   0  0  0  0  0  0  0  0  0  0  0  0
  151.0065  136.0478  154.6795 H   0  0  0  0  0  0  0  0  0  0  0  0
  148.2005  133.2195  155.5652 H   0  0  0  0  0  0  0  0  0  0  0  0
  149.8263  132.9056  156.1455 H   0  0  0  0  0  0  0  0  0  0  0  0
  147.9946  135.1834  157.1041 H   0  0  0  0  0  0  0  0  0  0  0  0
  148.4164  133.7506  158.0256 H   0  0  0  0  0  0  0  0  0  0  0  0
  1  2  1  0  0  0  0
  1 24  1  0  0  0  0
  1 25  1  0  0  0  0
  1 26  1  0  0  0  0
  2  3  1  0  0  0  0
  2 27  1  0  0  0  0
  2 28  1  0  0  0  0
  3  4  1  0  0  0  0
  3 29  1  0  0  0  0
  3 30  1  0  0  0  0
  4  5  1  0  0  0  0
  4 31  1  0  0  0  0
  4 32  1  0  0  0  0
  5 22  1  0  0  0  0
  5  6  1  0  0  0  0
  6  7  1  0  0  0  0
  6  8  2  0  0  0  0
  7 33  1  0  0  0  0
  7 34  1  0  0  0  0
  8  9  1  0  0  0  0
  8 19  1  0  0  0  0
  9 10  1  0  0  0  0
  9 11  1  0  0  0  0
 10 35  1  0  0  0  0
 10 36  1  0  0  0  0
 10 37  1  0  0  0  0
 11 12  2  0  0  0  0
 11 13  1  0  0  0  0
 13 18  1  0  0  0  0
 13 14  2  0  0  0  0
 14 15  1  0  0  0  0
 14 38  1  0  0  0  0
 15 16  1  0  0  0  0
 16 17  1  0  0  0  0
 16 39  1  0  0  0  0
 16 40  1  0  0  0  0
 17 18  1  0  0  0  0
 17 41  1  0  0  0  0
 17 42  1  0  0  0  0
 19 20  2  0  0  0  0
 19 21  1  0  0  0  0
 21 22  1  0  0  0  0
 22 23  2  0  0  0  0
M  CHG  1  21  -1
M  END
> <s_m_source_file>
AV-unprocessed.smi

> <i_m_source_file_index>
1374

> <i_lp_mmshare_version>
43012

> <i_f3d_flags>
0

> <s_epik_input>
W0NIM11bQ0gyXVtDSDJdW0NIMl1uMWMoW05IMl0pYyhjKD1PKVtuSF1jMT1PKU4oW0NIM10pQyg9TylDMj1bQ0hdT1tDSDJdW0NIMl1PMg==

> <s_epik_cmdline>
J2VwaWtfcHl0aG9uJywgJy1waCcsICc3LjAnLCAnLXRuJywgJzgnLCAnLW1hJywgJzIwMCcsICctbWV0YWxfYmluZGluZycsICctaW1hZScsICc8aW5maWxlLm1hZT4nLCAnLW9tYWUnLCAnPG91dGZpbGUubWFlPic=

> <r_lp_tautomer_probability>
1

> <r_epik_Ionization_Penalty>
6.1831

> <r_epik_Ionization_Penalty_Charging>
0.183564

> <r_epik_Ionization_Penalty_Neutral>
5.99954

> <r_epik_State_Penalty>
5.99952

> <r_epik_Charging_Adjusted_Penalty>
6.18308

> <i_epik_Tot_Q>
-1

> <i_epik_Tot_abs_Q>
1

> <r_epik_Metal_State_Penalty>
1.93002

> <b_epik_Metal_Only>
1

> <s_epik_Chemistry_Notes>
This compound has an imine and may undergo hydrolysis.

> <s_lp_Force_Field>
OPLS_2005

> <r_lp_Energy>
38.087

> <b_lp_Chiralities_Consistent>
1

> <s_lp_Variant>
AV-unprocessed.smi:1374-2

> <Gold.Version>
5.8.1

> <Gold.Id.Protein>
6NUR|6NUR_protein|mol2

> <Gold.PLP.Fitness>
43.0723

> <Gold.PLP.PLP>
-36.8218

> <Gold.PLP.part.hbond>
-3.3953

> <Gold.PLP.part.metal>
0.0000

> <Gold.PLP.part.buried>
-7.0231

> <Gold.PLP.part.nonpolar>
-26.4997

> <Gold.PLP.part.repulsive>
0.1976

> <Gold.PLP.ligand.clash>
0.0000

> <Gold.PLP.ligand.torsion>
2.6721

> <Gold.PLP.Chemscore.Hbond>
2.7195

> <Gold.PLP.Chemscore.CHOScore>
0.0000

> <Gold.PLP.Chemscore.Metal>
0.0000

> <Gold.Chemscore.Hbonds>
donor molecule, donor type, donor heavy atom, donor atom, acceptor molecule, acceptor atom, score
      P1  H  6896  6907       L1    20  1.00
      P1  H  6896  6909       L1    18  0.86
      P1  H 10752 10763       L1    12  0.84

> <Gold.PLP.Chemscore.Internal.Correction>
3.4363

> <Gold.Rescore>
     Score         DG    S(hbond)    S(metal)    S(lipo)     H(rot)  DE(clash)    DE(int)     intcor
     14.29     -18.96       2.86        0.00      65.82       1.47       0.00       4.67       ----

> <Gold.Chemscore.Fitness>
14.2928

> <Gold.Chemscore.DG>
-18.9604

> <Gold.Chemscore.ZeroCoef>
-5.4800

> <Gold.Chemscore.Hbond>
2.8581

> <Gold.Chemscore.Metal>
0.0000

> <Gold.Chemscore.Lipo>
65.8245

> <Gold.Chemscore.Internal_Hbond>
0.0000

> <Gold.Chemscore.DEClash>
0.0000

> <Gold.Chemscore.DEInternal>
4.6676

> <Gold.Chemscore.Rot>
1.4715

> <Gold.Chemscore.Internal.Correction>
   9.000000E+99

> <Gold.Chemscore.Hbonds>
donor molecule, donor type, donor heavy atom, donor atom, acceptor molecule, acceptor atom, score
      P1  H  6896  6907       L1    20  1.00
      P1  H  6896  6909       L1    18  0.73
      P1  H 10752 10763       L1    12  0.77

> <Gold.Chemscore.Hbond.Weighted>
-9.5460

> <Gold.Chemscore.Metal.Weighted>
-0.0000

> <Gold.Chemscore.Lipo.Weighted>
-7.7015

> <Gold.Chemscore.Internal_Hbond.Weighted>
0.0000

> <Gold.Chemscore.DEClash.Weighted>
0.0000

> <Gold.Chemscore.DEInternal.Weighted>
4.6676

> <Gold.Chemscore.Rot.Weighted>
3.7671

> <Gold.Chemscore.Internal.Correction.Weighted>
   9.000000E+99

> <Gold.Protein.RotatedTorsions>
[ 6907 6896 6895 6894 ] final   33.18 input  -60.11 | X-H torsion
[ 7974 7965 7964 7962 ] final  -64.03 input  175.53 | X-H torsion
[ 8008 7997 7996 7995 ] final   27.51 input   59.86 | X-H torsion
[ 10167 10162 10161 10158 ] final -114.65 input  -65.29 | X-H torsion
[ 10718 10713 10712 10709 ] final -151.77 input   66.30 | X-H torsion
[ 10763 10752 10751 10750 ] final  109.37 input  -60.55 | X-H torsion
[ 11005 11000 10999 10996 ] final   80.17 input  -57.11 | X-H torsion

> <Gold.Protein.ActiveResidues>
 VAL166  LYS551  ARG553  GLY616  TRP617  ASP618  TYR619  PRO620  LYS621  CYS622 
 ASP623  PHE694  ASN695  SER759  ASP760  ASP761  ALA762  ILE779  LEU786  VAL792 
 PHE793  MET794  SER795  GLU796  ALA797  LYS798  CYS799  TRP800  GLU811  SER814 

> <Gold.Protein.RotatedAtoms>
  152.0848  134.9447  160.0572 H   0  0  0  0  0  0  0  0  0  0  0  0  # atno 6907 bound_to 6896
  152.0721  133.4107  159.4472 H   0  0  0  0  0  0  0  0  0  0  0  0  # atno 6908 bound_to 6896
  150.6836  134.2999  159.4745 H   0  0  0  0  0  0  0  0  0  0  0  0  # atno 6909 bound_to 6896
  145.7718  140.8809  143.0376 H   0  0  0  0  0  0  0  0  0  0  0  0  # atno 7974 bound_to 7965
  155.0441  140.3172  155.4714 H   0  0  0  0  0  0  0  0  0  0  0  0  # atno 8008 bound_to 7997
  156.2848  140.2158  156.5509 H   0  0  0  0  0  0  0  0  0  0  0  0  # atno 8009 bound_to 7997
  154.7265  140.0485  157.0675 H   0  0  0  0  0  0  0  0  0  0  0  0  # atno 8010 bound_to 7997
  140.0987  143.4633  152.1826 H   0  0  0  0  0  0  0  0  0  0  0  0  # atno 10167 bound_to 10162
  156.4636  130.8225  151.2455 H   0  0  0  0  0  0  0  0  0  0  0  0  # atno 10718 bound_to 10713
  153.4337  135.3782  155.2186 H   0  0  0  0  0  0  0  0  0  0  0  0  # atno 10763 bound_to 10752
  154.8751  135.3846  154.4236 H   0  0  0  0  0  0  0  0  0  0  0  0  # atno 10764 bound_to 10752
  153.4772  135.7088  153.6022 H   0  0  0  0  0  0  0  0  0  0  0  0  # atno 10765 bound_to 10752
  139.9145  134.7899  156.1874 H   0  0  0  0  0  0  0  0  0  0  0  0  # atno 11005 bound_to 11000
  144.6811  139.9866  143.7484 LP  0  0  0  0  0  0  0  0  0  0  0  0  # atno 17320 bound_to 7965
  146.0162  139.3212  143.0840 LP  0  0  0  0  0  0  0  0  0  0  0  0  # atno 17321 bound_to 7965
  139.5683  144.7448  151.3960 LP  0  0  0  0  0  0  0  0  0  0  0  0  # atno 17342 bound_to 10162
  140.6990  143.7679  150.7372 LP  0  0  0  0  0  0  0  0  0  0  0  0  # atno 17343 bound_to 10162
  157.7496  131.0099  150.3285 LP  0  0  0  0  0  0  0  0  0  0  0  0  # atno 17370 bound_to 10713
  156.3691  130.3860  149.7190 LP  0  0  0  0  0  0  0  0  0  0  0  0  # atno 17371 bound_to 10713
  141.0605  133.6844  156.1943 LP  0  0  0  0  0  0  0  0  0  0  0  0  # atno 17394 bound_to 11000
  140.6668  134.4909  157.5586 LP  0  0  0  0  0  0  0  0  0  0  0  0  # atno 17395 bound_to 11000

$$$$
