AV-unprocessed.smi:1752|AV-procd|sdf|7061|dock1
  -GOLD-   22720 8273D 1   1.00000     0.00000
 Structure written by MMmdl.
 43 44  0  0  0  0  0  0  0  0  2 V2000
  151.6193  143.8780  156.9489 C   0  0  0  0  0  0  0  0  0  0  0  0
  151.1199  142.4480  157.2130 C   0  0  1  0  0  0  0  0  0  0  0  0
  150.5460  142.2559  158.6342 C   0  0  0  0  0  0  0  0  0  0  0  0
  151.3597  142.8866  159.6579 N   0  0  0  0  0  0  0  0  0  0  0  0
  151.5034  144.2316  159.9259 C   0  0  0  0  0  0  0  0  0  0  0  0
  152.3683  144.3460  160.9764 C   0  0  0  0  0  0  0  0  0  0  0  0
  152.7068  142.9984  161.2838 C   0  0  0  0  0  0  0  0  0  0  0  0
  152.1032  142.1271  160.4916 N   0  0  0  0  0  0  0  0  0  0  0  0
  150.1138  142.1031  156.2127 N   0  0  0  0  0  0  0  0  0  0  0  0
  150.2093  141.1038  155.3179 C   0  0  0  0  0  0  0  0  0  0  0  0
  151.2016  140.3778  155.2430 O   0  0  0  0  0  0  0  0  0  0  0  0
  149.1545  141.0044  154.4702 N   0  0  0  0  0  0  0  0  0  0  0  0
  148.0920  142.0279  154.3496 C   0  0  0  0  0  0  0  0  0  0  0  0
  146.6970  141.4549  154.0034 C   0  0  0  0  0  0  0  0  0  0  0  0
  146.1522  140.4061  154.9977 C   0  0  0  0  0  0  0  0  0  0  0  0
  147.1458  139.3994  155.4598 N   0  3  1  0  0  0  0  0  0  0  0  0
  146.5296  138.3873  156.3458 C   0  0  0  0  0  0  0  0  0  0  0  0
  147.9761  138.7812  154.3911 C   0  0  0  0  0  0  0  0  0  0  0  0
  148.9398  139.7711  153.6938 C   0  0  0  0  0  0  0  0  0  0  0  0
  152.4384  144.1460  157.6168 H   0  0  0  0  0  0  0  0  0  0  0  0
  150.8223  144.6087  157.0908 H   0  0  0  0  0  0  0  0  0  0  0  0
  151.9894  143.9822  155.9284 H   0  0  0  0  0  0  0  0  0  0  0  0
  151.9734  141.7787  157.0892 H   0  0  0  0  0  0  0  0  0  0  0  0
  149.5325  142.6574  158.6902 H   0  0  0  0  0  0  0  0  0  0  0  0
  150.4715  141.1948  158.8756 H   0  0  0  0  0  0  0  0  0  0  0  0
  150.9819  144.9856  159.3546 H   0  0  0  0  0  0  0  0  0  0  0  0
  152.7077  145.2537  161.4526 H   0  0  0  0  0  0  0  0  0  0  0  0
  153.3689  142.6303  162.0538 H   0  0  0  0  0  0  0  0  0  0  0  0
  149.2812  142.6740  156.1945 H   0  0  0  0  0  0  0  0  0  0  0  0
  147.9835  142.5876  155.2802 H   0  0  0  0  0  0  0  0  0  0  0  0
  148.3913  142.7484  153.5876 H   0  0  0  0  0  0  0  0  0  0  0  0
  145.9864  142.2808  153.9568 H   0  0  0  0  0  0  0  0  0  0  0  0
  146.6884  141.0432  152.9945 H   0  0  0  0  0  0  0  0  0  0  0  0
  145.7722  140.9233  155.8794 H   0  0  0  0  0  0  0  0  0  0  0  0
  145.2989  139.8974  154.5468 H   0  0  0  0  0  0  0  0  0  0  0  0
  145.8222  137.7656  155.7955 H   0  0  0  0  0  0  0  0  0  0  0  0
  145.9970  138.8667  157.1677 H   0  0  0  0  0  0  0  0  0  0  0  0
  147.2897  137.7380  156.7812 H   0  0  0  0  0  0  0  0  0  0  0  0
  148.5838  137.9994  154.8493 H   0  0  0  0  0  0  0  0  0  0  0  0
  147.3395  138.2830  153.6585 H   0  0  0  0  0  0  0  0  0  0  0  0
  148.5694  140.0289  152.7020 H   0  0  0  0  0  0  0  0  0  0  0  0
  149.8846  139.2675  153.4809 H   0  0  0  0  0  0  0  0  0  0  0  0
  147.7991  139.9069  156.0394 H   0  0  0  0  0  0  0  0  0  0  0  0
  1  2  1  0  0  0  0
  1 20  1  0  0  0  0
  1 21  1  0  0  0  0
  1 22  1  0  0  0  0
  2  3  1  0  0  0  0
  2  9  1  0  0  0  0
  2 23  1  0  0  0  0
  3  4  1  0  0  0  0
  3 24  1  0  0  0  0
  3 25  1  0  0  0  0
  4  8  1  0  0  0  0
  4  5  1  0  0  0  0
  5  6  2  0  0  0  0
  5 26  1  0  0  0  0
  6  7  1  0  0  0  0
  6 27  1  0  0  0  0
  7  8  2  0  0  0  0
  7 28  1  0  0  0  0
  9 10  1  0  0  0  0
  9 29  1  0  0  0  0
 10 11  2  0  0  0  0
 10 12  1  0  0  0  0
 12 19  1  0  0  0  0
 12 13  1  0  0  0  0
 13 14  1  0  0  0  0
 13 30  1  0  0  0  0
 13 31  1  0  0  0  0
 14 15  1  0  0  0  0
 14 32  1  0  0  0  0
 14 33  1  0  0  0  0
 15 16  1  0  0  0  0
 15 34  1  0  0  0  0
 15 35  1  0  0  0  0
 16 17  1  0  0  0  0
 16 18  1  0  0  0  0
 16 43  1  0  0  0  0
 17 36  1  0  0  0  0
 17 37  1  0  0  0  0
 17 38  1  0  0  0  0
 18 19  1  0  0  0  0
 18 39  1  0  0  0  0
 18 40  1  0  0  0  0
 19 41  1  0  0  0  0
 19 42  1  0  0  0  0
M  CHG  1  16   1
M  END
> <s_m_source_file>
AV-unprocessed.smi

> <i_m_source_file_index>
1752

> <i_lp_mmshare_version>
43012

> <i_f3d_flags>
0

> <s_epik_input>
bjFbY0hdW2NIXVtjSF1uMVtDSDJdW0NAQEhdKFtDSDNdKVtOSF1DKD1PKU4yW0NIMl1bQ0gyXVtDSDJdTihbQ0gzXSlbQ0gyXVtDSDJdMg==

> <s_epik_cmdline>
J2VwaWtfcHl0aG9uJywgJy1waCcsICc3LjAnLCAnLXRuJywgJzgnLCAnLW1hJywgJzIwMCcsICctbWV0YWxfYmluZGluZycsICctaW1hZScsICc8aW5maWxlLm1hZT4nLCAnLW9tYWUnLCAnPG91dGZpbGUubWFlPic=

> <r_lp_tautomer_probability>
1

> <r_epik_Ionization_Penalty>
0.00208423

> <r_epik_Ionization_Penalty_Charging>
0.00203643

> <r_epik_Ionization_Penalty_Neutral>
4.77939e-05

> <r_epik_State_Penalty>
0.00139278

> <r_epik_Charging_Adjusted_Penalty>
0.00342922

> <i_epik_Tot_Q>
1

> <i_epik_Tot_abs_Q>
1

> <r_epik_Metal_State_Penalty>
-0

> <b_epik_Metal_Only>
0

> <s_lp_Force_Field>
OPLS_2005

> <r_lp_Energy>
45.7643

> <b_lp_Chiralities_Consistent>
1

> <s_lp_Variant>
AV-unprocessed.smi:1752-4

> <Gold.Version>
5.8.1

> <Gold.Id.Protein>
6NUR|6NUR_protein|mol2

> <Gold.PLP.Fitness>
37.6291

> <Gold.PLP.PLP>
-34.2869

> <Gold.PLP.part.hbond>
-2.3742

> <Gold.PLP.part.metal>
0.0000

> <Gold.PLP.part.buried>
2.5105

> <Gold.PLP.part.nonpolar>
-31.9243

> <Gold.PLP.part.repulsive>
0.1696

> <Gold.PLP.ligand.clash>
0.0000

> <Gold.PLP.ligand.torsion>
0.3636

> <Gold.PLP.Chemscore.Hbond>
1.3280

> <Gold.PLP.Chemscore.CHOScore>
0.0000

> <Gold.PLP.Chemscore.Metal>
0.0000

> <Gold.Chemscore.Hbonds>
donor molecule, donor type, donor heavy atom, donor atom, acceptor molecule, acceptor atom, score
      L1  H     9    29       P1  8028  0.48
      P1  H  7989  7998       L1    11  0.75

> <Gold.PLP.Chemscore.Internal.Correction>
0.0854

> <Gold.Rescore>
     Score         DG    S(hbond)    S(metal)    S(lipo)     H(rot)  DE(clash)    DE(int)     intcor
     13.17     -15.25       0.78        0.00      92.16       1.41       1.57       0.51       ----

> <Gold.Chemscore.Fitness>
13.1720

> <Gold.Chemscore.DG>
-15.2549

> <Gold.Chemscore.ZeroCoef>
-5.4800

> <Gold.Chemscore.Hbond>
0.7809

> <Gold.Chemscore.Metal>
0.0000

> <Gold.Chemscore.Lipo>
92.1585

> <Gold.Chemscore.Internal_Hbond>
0.0000

> <Gold.Chemscore.DEClash>
1.5692

> <Gold.Chemscore.DEInternal>
0.5138

> <Gold.Chemscore.Rot>
1.4125

> <Gold.Chemscore.Internal.Correction>
   9.000000E+99

> <Gold.Chemscore.Hbonds>
donor molecule, donor type, donor heavy atom, donor atom, acceptor molecule, acceptor atom, score
      L1  H     9    29       P1  8028  0.47
      P1  H  7989  7998       L1    11  0.09

> <Gold.Chemscore.Hbond.Weighted>
-2.6083

> <Gold.Chemscore.Metal.Weighted>
-0.0000

> <Gold.Chemscore.Lipo.Weighted>
-10.7825

> <Gold.Chemscore.Internal_Hbond.Weighted>
0.0000

> <Gold.Chemscore.DEClash.Weighted>
1.5692

> <Gold.Chemscore.DEInternal.Weighted>
0.5138

> <Gold.Chemscore.Rot.Weighted>
3.6160

> <Gold.Chemscore.Internal.Correction.Weighted>
   9.000000E+99

> <Gold.Protein.RotatedTorsions>
[ 6907 6896 6895 6894 ] final  -12.15 input  -60.11 | X-H torsion
[ 7974 7965 7964 7962 ] final   70.74 input  175.53 | X-H torsion
[ 8008 7997 7996 7995 ] final -147.27 input   59.86 | X-H torsion
[ 10167 10162 10161 10158 ] final   66.82 input  -65.29 | X-H torsion
[ 10718 10713 10712 10709 ] final -110.18 input   66.30 | X-H torsion
[ 10763 10752 10751 10750 ] final   20.88 input  -60.55 | X-H torsion
[ 11005 11000 10999 10996 ] final  -33.59 input  -57.11 | X-H torsion

> <Gold.Protein.ActiveResidues>
 VAL166  LYS551  ARG553  GLY616  TRP617  ASP618  TYR619  PRO620  LYS621  CYS622 
 ASP623  PHE694  ASN695  SER759  ASP760  ASP761  ALA762  ILE779  LEU786  VAL792 
 PHE793  MET794  SER795  GLU796  ALA797  LYS798  CYS799  TRP800  GLU811  SER814 

> <Gold.Protein.RotatedAtoms>
  151.3750  135.0929  159.9477 H   0  0  0  0  0  0  0  0  0  0  0  0  # atno 6907 bound_to 6896
  152.5125  133.9128  159.7506 H   0  0  0  0  0  0  0  0  0  0  0  0  # atno 6908 bound_to 6896
  150.9549  133.6453  159.2794 H   0  0  0  0  0  0  0  0  0  0  0  0  # atno 6909 bound_to 6896
  145.7744  139.2858  143.1302 H   0  0  0  0  0  0  0  0  0  0  0  0  # atno 7974 bound_to 7965
  155.5728  140.0636  157.2802 H   0  0  0  0  0  0  0  0  0  0  0  0  # atno 8008 bound_to 7997
  154.4356  140.1866  156.0943 H   0  0  0  0  0  0  0  0  0  0  0  0  # atno 8009 bound_to 7997
  156.0363  140.3300  155.7198 H   0  0  0  0  0  0  0  0  0  0  0  0  # atno 8010 bound_to 7997
  140.0962  144.4944  150.7067 H   0  0  0  0  0  0  0  0  0  0  0  0  # atno 10167 bound_to 10162
  156.0577  130.5802  150.8201 H   0  0  0  0  0  0  0  0  0  0  0  0  # atno 10718 bound_to 10713
  153.1040  135.6680  153.9620 H   0  0  0  0  0  0  0  0  0  0  0  0  # atno 10763 bound_to 10752
  153.9182  135.3017  155.3449 H   0  0  0  0  0  0  0  0  0  0  0  0  # atno 10764 bound_to 10752
  154.7462  135.5056  153.9283 H   0  0  0  0  0  0  0  0  0  0  0  0  # atno 10765 bound_to 10752
  140.9647  133.7144  156.1426 H   0  0  0  0  0  0  0  0  0  0  0  0  # atno 11005 bound_to 11000
  146.0137  140.8412  142.9958 LP  0  0  0  0  0  0  0  0  0  0  0  0  # atno 17320 bound_to 7965
  144.6807  140.2527  143.7329 LP  0  0  0  0  0  0  0  0  0  0  0  0  # atno 17321 bound_to 7965
  140.7002  143.2430  151.4886 LP  0  0  0  0  0  0  0  0  0  0  0  0  # atno 17342 bound_to 10162
  139.5697  144.1958  152.1817 LP  0  0  0  0  0  0  0  0  0  0  0  0  # atno 17343 bound_to 10162
  157.5560  131.0945  150.9628 LP  0  0  0  0  0  0  0  0  0  0  0  0  # atno 17370 bound_to 10713
  156.9877  130.5551  149.5301 LP  0  0  0  0  0  0  0  0  0  0  0  0  # atno 17371 bound_to 10713
  140.7416  134.4143  157.5554 LP  0  0  0  0  0  0  0  0  0  0  0  0  # atno 17394 bound_to 11000
  139.8890  134.8841  156.2443 LP  0  0  0  0  0  0  0  0  0  0  0  0  # atno 17395 bound_to 11000

$$$$
