AV-unprocessed.smi:2780|AV-procd|sdf|10715|dock7
  -GOLD-   2272015153D 1   1.00000     0.00000
 Structure written by MMmdl.
 47 49  0  0  0  0  0  0  0  0  2 V2000
  153.6706  141.6789  161.5908 C   0  0  0  0  0  0  0  0  0  0  0  0
  152.8582  142.7687  160.9115 C   0  0  0  0  0  0  0  0  0  0  0  0
  152.4593  143.8431  161.6189 C   0  0  0  0  0  0  0  0  0  0  0  0
  151.7143  145.0204  161.0338 C   0  0  0  0  0  0  0  0  0  0  0  0
  151.9063  145.0928  159.5172 C   0  0  0  0  0  0  0  0  0  0  0  0
  151.6290  143.7354  158.8507 C   0  0  1  0  0  0  0  0  0  0  0  0
  151.7426  143.8839  157.3208 C   0  0  0  0  0  0  0  0  0  0  0  0
  152.5443  142.6024  159.4102 C   0  0  2  0  0  0  0  0  0  0  0  0
  151.9371  141.2140  159.0776 C   0  0  0  0  0  0  0  0  0  0  0  0
  152.9327  140.1243  159.1331 N   0  3  0  0  0  0  0  0  0  0  0  0
  152.3443  138.7737  159.2250 C   0  0  0  0  0  0  0  0  0  0  0  0
  151.3474  138.5120  158.0853 C   0  0  0  0  0  0  0  0  0  0  0  0
  151.8998  138.8368  156.7799 N   0  0  0  0  0  0  0  0  0  0  0  0
  153.0204  138.3651  156.2104 C   0  0  0  0  0  0  0  0  0  0  0  0
  153.2976  138.8674  155.0085 N   0  0  0  0  0  0  0  0  0  0  0  0
  152.2781  139.7650  154.7641 N   0  0  0  0  0  0  0  0  0  0  0  0
  151.4779  139.7029  155.8348 C   0  0  0  0  0  0  0  0  0  0  0  0
  150.2559  140.5478  156.0063 C   0  0  0  0  0  0  0  0  0  0  0  0
  149.0397  140.3295  155.1343 C   0  0  0  0  0  0  0  0  0  0  0  0
  149.8581  141.5837  154.9775 C   0  0  0  0  0  0  0  0  0  0  0  0
  154.5840  141.4806  161.0311 H   0  0  0  0  0  0  0  0  0  0  0  0
  153.0963  140.7567  161.6758 H   0  0  0  0  0  0  0  0  0  0  0  0
  153.9621  141.9727  162.6000 H   0  0  0  0  0  0  0  0  0  0  0  0
  152.6825  143.9077  162.6742 H   0  0  0  0  0  0  0  0  0  0  0  0
  150.6582  144.9284  161.2893 H   0  0  0  0  0  0  0  0  0  0  0  0
  152.0777  145.9392  161.4951 H   0  0  0  0  0  0  0  0  0  0  0  0
  151.2508  145.8622  159.1070 H   0  0  0  0  0  0  0  0  0  0  0  0
  152.9270  145.4067  159.2942 H   0  0  0  0  0  0  0  0  0  0  0  0
  150.5938  143.4782  159.0819 H   0  0  0  0  0  0  0  0  0  0  0  0
  152.7617  144.1329  157.0228 H   0  0  0  0  0  0  0  0  0  0  0  0
  151.0919  144.6803  156.9579 H   0  0  0  0  0  0  0  0  0  0  0  0
  151.4557  142.9774  156.7906 H   0  0  0  0  0  0  0  0  0  0  0  0
  153.5063  142.6860  158.9019 H   0  0  0  0  0  0  0  0  0  0  0  0
  151.1161  140.9991  159.7631 H   0  0  0  0  0  0  0  0  0  0  0  0
  151.5092  141.1989  158.0764 H   0  0  0  0  0  0  0  0  0  0  0  0
  153.5066  140.1725  158.3032 H   0  0  0  0  0  0  0  0  0  0  0  0
  153.1491  138.0391  159.1778 H   0  0  0  0  0  0  0  0  0  0  0  0
  151.8571  138.6484  160.1931 H   0  0  0  0  0  0  0  0  0  0  0  0
  151.0141  137.4740  158.0985 H   0  0  0  0  0  0  0  0  0  0  0  0
  150.4566  139.1243  158.2295 H   0  0  0  0  0  0  0  0  0  0  0  0
  153.6550  137.6341  156.6900 H   0  0  0  0  0  0  0  0  0  0  0  0
  150.0977  140.7893  157.0557 H   0  0  0  0  0  0  0  0  0  0  0  0
  149.1091  139.5962  154.3337 H   0  0  0  0  0  0  0  0  0  0  0  0
  148.0621  140.4203  155.6032 H   0  0  0  0  0  0  0  0  0  0  0  0
  149.4277  142.5137  155.3432 H   0  0  0  0  0  0  0  0  0  0  0  0
  150.4677  141.6741  154.0805 H   0  0  0  0  0  0  0  0  0  0  0  0
  153.5205  140.2714  159.9412 H   0  0  0  0  0  0  0  0  0  0  0  0
  1  2  1  0  0  0  0
  1 21  1  0  0  0  0
  1 22  1  0  0  0  0
  1 23  1  0  0  0  0
  2  8  1  0  0  0  0
  2  3  2  0  0  0  0
  3  4  1  0  0  0  0
  3 24  1  0  0  0  0
  4  5  1  0  0  0  0
  4 25  1  0  0  0  0
  4 26  1  0  0  0  0
  5  6  1  0  0  0  0
  5 27  1  0  0  0  0
  5 28  1  0  0  0  0
  6  7  1  0  0  0  0
  6  8  1  0  0  0  0
  6 29  1  0  0  0  0
  7 30  1  0  0  0  0
  7 31  1  0  0  0  0
  7 32  1  0  0  0  0
  8  9  1  0  0  0  0
  8 33  1  0  0  0  0
  9 10  1  0  0  0  0
  9 34  1  0  0  0  0
  9 35  1  0  0  0  0
 10 11  1  0  0  0  0
 10 36  1  0  0  0  0
 10 47  1  0  0  0  0
 11 12  1  0  0  0  0
 11 37  1  0  0  0  0
 11 38  1  0  0  0  0
 12 13  1  0  0  0  0
 12 39  1  0  0  0  0
 12 40  1  0  0  0  0
 13 17  1  0  0  0  0
 13 14  1  0  0  0  0
 14 15  2  0  0  0  0
 14 41  1  0  0  0  0
 15 16  1  0  0  0  0
 16 17  2  0  0  0  0
 17 18  1  0  0  0  0
 18 20  1  0  0  0  0
 18 19  1  0  0  0  0
 18 42  1  0  0  0  0
 19 20  1  0  0  0  0
 19 43  1  0  0  0  0
 19 44  1  0  0  0  0
 20 45  1  0  0  0  0
 20 46  1  0  0  0  0
M  CHG  1  10   1
M  END
> <s_m_source_file>
AV-unprocessed.smi

> <i_m_source_file_index>
2780

> <i_lp_mmshare_version>
43012

> <i_f3d_flags>
0

> <s_epik_input>
W0NIM11DMT1bQ0hdW0NIMl1bQ0gyXVtDQEBIXShbQ0gzXSlbQ0BIXTFbQ0gyXVtOSF1bQ0gyXVtDSDJdbjJbY0hdbm5jMltDSF0zW0NIMl1bQ0gyXTM=

> <s_epik_cmdline>
J2VwaWtfcHl0aG9uJywgJy1waCcsICc3LjAnLCAnLXRuJywgJzgnLCAnLW1hJywgJzIwMCcsICctbWV0YWxfYmluZGluZycsICctaW1hZScsICc8aW5maWxlLm1hZT4nLCAnLW9tYWUnLCAnPG91dGZpbGUubWFlPic=

> <r_lp_tautomer_probability>
1

> <r_epik_Ionization_Penalty>
0.00176214

> <r_epik_Ionization_Penalty_Charging>
0.00175191

> <r_epik_Ionization_Penalty_Neutral>
1.02377e-05

> <r_epik_State_Penalty>
-0

> <r_epik_Charging_Adjusted_Penalty>
0.00175191

> <i_epik_Tot_Q>
1

> <i_epik_Tot_abs_Q>
1

> <r_epik_Metal_State_Penalty>
-0

> <b_epik_Metal_Only>
0

> <s_lp_Force_Field>
OPLS_2005

> <r_lp_Energy>
22.3616

> <b_lp_Chiralities_Consistent>
1

> <s_lp_Variant>
AV-unprocessed.smi:2780-3

> <Gold.Version>
5.8.1

> <Gold.Id.Protein>
6NUR|6NUR_protein|mol2

> <Gold.PLP.Fitness>
49.7872

> <Gold.PLP.PLP>
-45.9091

> <Gold.PLP.part.hbond>
-1.8619

> <Gold.PLP.part.metal>
0.0000

> <Gold.PLP.part.buried>
-1.3768

> <Gold.PLP.part.nonpolar>
-42.0224

> <Gold.PLP.part.repulsive>
0.1616

> <Gold.PLP.ligand.clash>
0.0000

> <Gold.PLP.ligand.torsion>
0.3249

> <Gold.PLP.Chemscore.Hbond>
1.4181

> <Gold.PLP.Chemscore.CHOScore>
0.0000

> <Gold.PLP.Chemscore.Metal>
0.0000

> <Gold.Chemscore.Hbonds>
donor molecule, donor type, donor heavy atom, donor atom, acceptor molecule, acceptor atom, score
      P1  H  7989  7998       L1    16  0.72
      P1  H  7997  8010       L1    15  0.64

> <Gold.PLP.Chemscore.Internal.Correction>
0.2734

> <Gold.Rescore>
     Score         DG    S(hbond)    S(metal)    S(lipo)     H(rot)  DE(clash)    DE(int)     intcor
     17.95     -18.53       0.93        0.00     128.20       1.98       0.16       0.42       ----

> <Gold.Chemscore.Fitness>
17.9460

> <Gold.Chemscore.DG>
-18.5262

> <Gold.Chemscore.ZeroCoef>
-5.4800

> <Gold.Chemscore.Hbond>
0.9329

> <Gold.Chemscore.Metal>
0.0000

> <Gold.Chemscore.Lipo>
128.1960

> <Gold.Chemscore.Internal_Hbond>
0.0000

> <Gold.Chemscore.DEClash>
0.1553

> <Gold.Chemscore.DEInternal>
0.4248

> <Gold.Chemscore.Rot>
1.9799

> <Gold.Chemscore.Internal.Correction>
   9.000000E+99

> <Gold.Chemscore.Hbonds>
donor molecule, donor type, donor heavy atom, donor atom, acceptor molecule, acceptor atom, score
      P1  H  7989  7998       L1    16  0.63
      P1  H  7997  8010       L1    15  0.02

> <Gold.Chemscore.Hbond.Weighted>
-3.1158

> <Gold.Chemscore.Metal.Weighted>
-0.0000

> <Gold.Chemscore.Lipo.Weighted>
-14.9989

> <Gold.Chemscore.Internal_Hbond.Weighted>
0.0000

> <Gold.Chemscore.DEClash.Weighted>
0.1553

> <Gold.Chemscore.DEInternal.Weighted>
0.4248

> <Gold.Chemscore.Rot.Weighted>
5.0685

> <Gold.Chemscore.Internal.Correction.Weighted>
   9.000000E+99

> <Gold.Protein.RotatedTorsions>
[ 6907 6896 6895 6894 ] final  -56.83 input  -60.11 | X-H torsion
[ 7974 7965 7964 7962 ] final   54.99 input  175.53 | X-H torsion
[ 8008 7997 7996 7995 ] final  125.07 input   59.86 | X-H torsion
[ 10167 10162 10161 10158 ] final   83.54 input  -65.29 | X-H torsion
[ 10718 10713 10712 10709 ] final -112.45 input   66.30 | X-H torsion
[ 10763 10752 10751 10750 ] final  175.89 input  -60.55 | X-H torsion
[ 11005 11000 10999 10996 ] final -113.63 input  -57.11 | X-H torsion

> <Gold.Protein.ActiveResidues>
 VAL166  LYS551  ARG553  GLY616  TRP617  ASP618  TYR619  PRO620  LYS621  CYS622 
 ASP623  PHE694  ASN695  SER759  ASP760  ASP761  ALA762  ILE779  LEU786  VAL792 
 PHE793  MET794  SER795  GLU796  ALA797  LYS798  CYS799  TRP800  GLU811  SER814 

> <Gold.Protein.RotatedAtoms>
  150.8135  134.7304  159.6709 H   0  0  0  0  0  0  0  0  0  0  0  0  # atno 6907 bound_to 6896
  152.4255  134.5874  159.9974 H   0  0  0  0  0  0  0  0  0  0  0  0  # atno 6908 bound_to 6896
  151.6077  133.3313  159.3097 H   0  0  0  0  0  0  0  0  0  0  0  0  # atno 6909 bound_to 6896
  145.9551  139.4008  143.0282 H   0  0  0  0  0  0  0  0  0  0  0  0  # atno 7974 bound_to 7965
  156.2822  140.2725  156.1890 H   0  0  0  0  0  0  0  0  0  0  0  0  # atno 8008 bound_to 7997
  155.0478  140.0386  157.2551 H   0  0  0  0  0  0  0  0  0  0  0  0  # atno 8009 bound_to 7997
  154.7220  140.2689  155.6538 H   0  0  0  0  0  0  0  0  0  0  0  0  # atno 8010 bound_to 7997
  139.9174  144.6234  150.8475 H   0  0  0  0  0  0  0  0  0  0  0  0  # atno 10167 bound_to 10162
  156.0706  130.5921  150.8510 H   0  0  0  0  0  0  0  0  0  0  0  0  # atno 10718 bound_to 10713
  154.4737  135.2772  155.1623 H   0  0  0  0  0  0  0  0  0  0  0  0  # atno 10763 bound_to 10752
  154.3362  135.6179  153.5578 H   0  0  0  0  0  0  0  0  0  0  0  0  # atno 10764 bound_to 10752
  152.9867  135.5777  154.5123 H   0  0  0  0  0  0  0  0  0  0  0  0  # atno 10765 bound_to 10752
  141.0602  133.9547  157.2680 H   0  0  0  0  0  0  0  0  0  0  0  0  # atno 11005 bound_to 11000
  145.8117  140.9722  143.0945 LP  0  0  0  0  0  0  0  0  0  0  0  0  # atno 17320 bound_to 7965
  144.6803  139.9929  143.7484 LP  0  0  0  0  0  0  0  0  0  0  0  0  # atno 17321 bound_to 7965
  140.7671  143.3322  151.2386 LP  0  0  0  0  0  0  0  0  0  0  0  0  # atno 17342 bound_to 10162
  139.6891  143.9723  152.2850 LP  0  0  0  0  0  0  0  0  0  0  0  0  # atno 17343 bound_to 10162
  157.5775  131.0946  150.9323 LP  0  0  0  0  0  0  0  0  0  0  0  0  # atno 17370 bound_to 10713
  156.9525  130.5425  149.5283 LP  0  0  0  0  0  0  0  0  0  0  0  0  # atno 17371 bound_to 10713
  139.9426  135.0189  156.8755 LP  0  0  0  0  0  0  0  0  0  0  0  0  # atno 17394 bound_to 11000
  140.5883  134.0286  155.7490 LP  0  0  0  0  0  0  0  0  0  0  0  0  # atno 17395 bound_to 11000

$$$$
