AV-unprocessed.smi:847|AV-procd|sdf|3937|dock3
  -GOLD-   22720 1403D 1   1.00000     0.00000
 Structure written by MMmdl.
 46 47  0  0  0  0  0  0  0  0  1 V2000
  143.7890  146.7353  155.5273 C   0  0  0  0  0  0  0  0  0  0  0  0
  142.9733  145.6229  155.2043 O   0  0  0  0  0  0  0  0  0  0  0  0
  143.6277  144.7001  154.3493 C   0  0  0  0  0  0  0  0  0  0  0  0
  144.7102  143.9620  155.1421 C   0  0  0  0  0  0  0  0  0  0  0  0
  145.3219  142.9937  154.2951 O   0  0  0  0  0  0  0  0  0  0  0  0
  146.5018  142.4093  154.7076 C   0  0  0  0  0  0  0  0  0  0  0  0
  147.4104  141.9620  153.7276 C   0  0  0  0  0  0  0  0  0  0  0  0
  148.6155  141.3637  154.1417 C   0  0  0  0  0  0  0  0  0  0  0  0
  148.8733  141.2269  155.5207 C   0  0  0  0  0  0  0  0  0  0  0  0
  150.1715  140.5891  155.9962 C   0  0  0  0  0  0  0  0  0  0  0  0
  150.5409  140.9320  157.3650 N   0  0  0  0  0  0  0  0  0  0  0  0
  151.7034  140.6062  157.9555 C   0  0  0  0  0  0  0  0  0  0  0  0
  152.5908  139.9788  157.3781 O   0  0  0  0  0  0  0  0  0  0  0  0
  151.9160  141.0333  159.4238 C   0  0  2  0  0  0  0  0  0  0  0  0
  151.8699  142.5679  159.5090 C   0  0  0  0  0  0  0  0  0  0  0  0
  152.7566  142.9242  160.6868 C   0  0  0  0  0  0  0  0  0  0  0  0
  153.7861  141.7978  160.7591 C   0  0  0  0  0  0  0  0  0  0  0  0
  153.1981  140.6549  160.0553 N   0  0  0  0  0  0  0  0  0  0  0  0
  153.7370  139.4113  160.0801 C   0  0  0  0  0  0  0  0  0  0  0  0
  155.0878  139.2102  160.7713 C   0  0  0  0  0  0  0  0  0  0  0  0
  153.1853  138.4322  159.5783 O   0  0  0  0  0  0  0  0  0  0  0  0
  147.9028  141.7124  156.4252 C   0  0  0  0  0  0  0  0  0  0  0  0
  146.7450  142.2874  156.0363 N   0  0  0  0  0  0  0  0  0  0  0  0
  151.1163  140.6100  160.0341 H   0  0  0  0  0  0  0  0  0  0  0  0
  143.2478  147.4047  156.1959 H   0  0  0  0  0  0  0  0  0  0  0  0
  144.0591  147.2985  154.6330 H   0  0  0  0  0  0  0  0  0  0  0  0
  144.7032  146.4210  156.0331 H   0  0  0  0  0  0  0  0  0  0  0  0
  142.8992  143.9800  153.9737 H   0  0  0  0  0  0  0  0  0  0  0  0
  144.0633  145.2065  153.4864 H   0  0  0  0  0  0  0  0  0  0  0  0
  145.4432  144.6725  155.5281 H   0  0  0  0  0  0  0  0  0  0  0  0
  144.2492  143.4590  155.9937 H   0  0  0  0  0  0  0  0  0  0  0  0
  147.1868  142.0756  152.6771 H   0  0  0  0  0  0  0  0  0  0  0  0
  149.3283  141.0137  153.4096 H   0  0  0  0  0  0  0  0  0  0  0  0
  150.1127  139.5042  155.8930 H   0  0  0  0  0  0  0  0  0  0  0  0
  150.9746  140.9181  155.3368 H   0  0  0  0  0  0  0  0  0  0  0  0
  149.8649  141.4529  157.9045 H   0  0  0  0  0  0  0  0  0  0  0  0
  152.2869  143.0258  158.6097 H   0  0  0  0  0  0  0  0  0  0  0  0
  150.8544  142.9478  159.6268 H   0  0  0  0  0  0  0  0  0  0  0  0
  153.2125  143.9104  160.5939 H   0  0  0  0  0  0  0  0  0  0  0  0
  152.1567  142.9222  161.5977 H   0  0  0  0  0  0  0  0  0  0  0  0
  154.7039  142.0952  160.2497 H   0  0  0  0  0  0  0  0  0  0  0  0
  154.0315  141.5666  161.7965 H   0  0  0  0  0  0  0  0  0  0  0  0
  155.8364  139.8944  160.3711 H   0  0  0  0  0  0  0  0  0  0  0  0
  155.4504  138.1934  160.6163 H   0  0  0  0  0  0  0  0  0  0  0  0
  155.0000  139.3732  161.8456 H   0  0  0  0  0  0  0  0  0  0  0  0
  148.0540  141.6434  157.4923 H   0  0  0  0  0  0  0  0  0  0  0  0
  1  2  1  0  0  0  0
  1 25  1  0  0  0  0
  1 26  1  0  0  0  0
  1 27  1  0  0  0  0
  2  3  1  0  0  0  0
  3  4  1  0  0  0  0
  3 28  1  0  0  0  0
  3 29  1  0  0  0  0
  4  5  1  0  0  0  0
  4 30  1  0  0  0  0
  4 31  1  0  0  0  0
  5  6  1  0  0  0  0
  6 23  1  0  0  0  0
  6  7  2  0  0  0  0
  7  8  1  0  0  0  0
  7 32  1  0  0  0  0
  8  9  2  0  0  0  0
  8 33  1  0  0  0  0
  9 10  1  0  0  0  0
  9 22  1  0  0  0  0
 10 11  1  0  0  0  0
 10 34  1  0  0  0  0
 10 35  1  0  0  0  0
 11 12  1  0  0  0  0
 11 36  1  0  0  0  0
 12 13  2  0  0  0  0
 12 14  1  0  0  0  0
 14 24  1  0  0  0  0
 14 18  1  0  0  0  0
 14 15  1  0  0  0  0
 15 16  1  0  0  0  0
 15 37  1  0  0  0  0
 15 38  1  0  0  0  0
 16 17  1  0  0  0  0
 16 39  1  0  0  0  0
 16 40  1  0  0  0  0
 17 18  1  0  0  0  0
 17 41  1  0  0  0  0
 17 42  1  0  0  0  0
 18 19  1  0  0  0  0
 19 20  1  0  0  0  0
 19 21  2  0  0  0  0
 20 43  1  0  0  0  0
 20 44  1  0  0  0  0
 20 45  1  0  0  0  0
 22 23  2  0  0  0  0
 22 46  1  0  0  0  0
M  END
> <s_m_source_file>
AV-unprocessed.smi

> <i_m_source_file_index>
847

> <i_lp_mmshare_version>
43012

> <i_f3d_flags>
0

> <s_epik_input>
W0NIM11PW0NIMl1bQ0gyXU9jMVtjSF1bY0hdYyhbY0hdbjEpW0NIMl1bTkhdQyg9TylbQ0BASF0yW0NIMl1bQ0gyXVtDSDJdTjJDKD1PKVtDSDNd

> <s_epik_cmdline>
J2VwaWtfcHl0aG9uJywgJy1waCcsICc3LjAnLCAnLXRuJywgJzgnLCAnLW1hJywgJzIwMCcsICctbWV0YWxfYmluZGluZycsICctaW1hZScsICc8aW5maWxlLm1hZT4nLCAnLW9tYWUnLCAnPG91dGZpbGUubWFlPic=

> <r_lp_tautomer_probability>
1

> <r_epik_Ionization_Penalty>
6.04138e-05

> <r_epik_Ionization_Penalty_Charging>
0

> <r_epik_Ionization_Penalty_Neutral>
6.04138e-05

> <r_epik_State_Penalty>
-0

> <r_epik_Charging_Adjusted_Penalty>
0

> <i_epik_Tot_Q>
0

> <i_epik_Tot_abs_Q>
0

> <r_epik_Metal_State_Penalty>
-0

> <b_epik_Metal_Only>
0

> <s_lp_Force_Field>
OPLS_2005

> <r_lp_Energy>
14.576

> <b_lp_Chiralities_Consistent>
1

> <s_lp_Variant>
AV-unprocessed.smi:847-1

> <Gold.Version>
5.8.1

> <Gold.Id.Protein>
6NUR|6NUR_protein|mol2

> <Gold.PLP.Fitness>
43.3808

> <Gold.PLP.PLP>
-41.7663

> <Gold.PLP.part.hbond>
-1.0000

> <Gold.PLP.part.metal>
0.0000

> <Gold.PLP.part.buried>
-5.7414

> <Gold.PLP.part.nonpolar>
-35.1069

> <Gold.PLP.part.repulsive>
0.4266

> <Gold.PLP.ligand.clash>
0.0000

> <Gold.PLP.ligand.torsion>
0.7807

> <Gold.PLP.Chemscore.Hbond>
1.0000

> <Gold.PLP.Chemscore.CHOScore>
0.0000

> <Gold.PLP.Chemscore.Metal>
0.0000

> <Gold.Chemscore.Hbonds>
donor molecule, donor type, donor heavy atom, donor atom, acceptor molecule, acceptor atom, score
      P1  H  7997  8008       L1    13  1.00

> <Gold.PLP.Chemscore.Internal.Correction>
0.1760

> <Gold.Rescore>
     Score         DG    S(hbond)    S(metal)    S(lipo)     H(rot)  DE(clash)    DE(int)     intcor
     10.25     -13.84       0.99        0.00      93.78       2.31       0.05       3.53       ----

> <Gold.Chemscore.Fitness>
10.2532

> <Gold.Chemscore.DG>
-13.8390

> <Gold.Chemscore.ZeroCoef>
-5.4800

> <Gold.Chemscore.Hbond>
0.9850

> <Gold.Chemscore.Metal>
0.0000

> <Gold.Chemscore.Lipo>
93.7849

> <Gold.Chemscore.Internal_Hbond>
0.0000

> <Gold.Chemscore.DEClash>
0.0509

> <Gold.Chemscore.DEInternal>
3.5349

> <Gold.Chemscore.Rot>
2.3062

> <Gold.Chemscore.Internal.Correction>
   9.000000E+99

> <Gold.Chemscore.Hbonds>
donor molecule, donor type, donor heavy atom, donor atom, acceptor molecule, acceptor atom, score
      P1  H  7997  8008       L1    13  0.98

> <Gold.Chemscore.Hbond.Weighted>
-3.2900

> <Gold.Chemscore.Metal.Weighted>
-0.0000

> <Gold.Chemscore.Lipo.Weighted>
-10.9728

> <Gold.Chemscore.Internal_Hbond.Weighted>
0.0000

> <Gold.Chemscore.DEClash.Weighted>
0.0509

> <Gold.Chemscore.DEInternal.Weighted>
3.5349

> <Gold.Chemscore.Rot.Weighted>
5.9038

> <Gold.Chemscore.Internal.Correction.Weighted>
   9.000000E+99

> <Gold.Protein.RotatedTorsions>
[ 6907 6896 6895 6894 ] final -179.51 input  -60.11 | X-H torsion
[ 7974 7965 7964 7962 ] final -104.51 input  175.53 | X-H torsion
[ 8008 7997 7996 7995 ] final  -60.91 input   59.86 | X-H torsion
[ 10167 10162 10161 10158 ] final  155.57 input  -65.29 | X-H torsion
[ 10718 10713 10712 10709 ] final   22.76 input   66.30 | X-H torsion
[ 10763 10752 10751 10750 ] final -162.85 input  -60.55 | X-H torsion
[ 11005 11000 10999 10996 ] final -103.21 input  -57.11 | X-H torsion

> <Gold.Protein.ActiveResidues>
 VAL166  LYS551  ARG553  GLY616  TRP617  ASP618  TYR619  PRO620  LYS621  CYS622 
 ASP623  PHE694  ASN695  SER759  ASP760  ASP761  ALA762  ILE779  LEU786  VAL792 
 PHE793  MET794  SER795  GLU796  ALA797  LYS798  CYS799  TRP800  GLU811  SER814 

> <Gold.Protein.RotatedAtoms>
  151.6545  133.3319  159.3159 H   0  0  0  0  0  0  0  0  0  0  0  0  # atno 6907 bound_to 6896
  150.7943  134.6995  159.6552 H   0  0  0  0  0  0  0  0  0  0  0  0  # atno 6908 bound_to 6896
  152.4028  134.6261  160.0115 H   0  0  0  0  0  0  0  0  0  0  0  0  # atno 6909 bound_to 6896
  145.2422  140.9209  143.3143 H   0  0  0  0  0  0  0  0  0  0  0  0  # atno 7974 bound_to 7965
  154.4421  140.1029  156.6348 H   0  0  0  0  0  0  0  0  0  0  0  0  # atno 8008 bound_to 7997
  155.5566  140.3486  155.4462 H   0  0  0  0  0  0  0  0  0  0  0  0  # atno 8009 bound_to 7997
  156.0490  140.1299  157.0060 H   0  0  0  0  0  0  0  0  0  0  0  0  # atno 8010 bound_to 7997
  139.4821  144.5087  151.8058 H   0  0  0  0  0  0  0  0  0  0  0  0  # atno 10167 bound_to 10162
  157.1568  130.6699  149.6030 H   0  0  0  0  0  0  0  0  0  0  0  0  # atno 10718 bound_to 10713
  154.7177  135.3019  154.9098 H   0  0  0  0  0  0  0  0  0  0  0  0  # atno 10763 bound_to 10752
  153.9979  135.6710  153.4761 H   0  0  0  0  0  0  0  0  0  0  0  0  # atno 10764 bound_to 10752
  153.0807  135.5010  154.8413 H   0  0  0  0  0  0  0  0  0  0  0  0  # atno 10765 bound_to 10752
  141.1155  133.8622  157.1458 H   0  0  0  0  0  0  0  0  0  0  0  0  # atno 11005 bound_to 11000
  144.9579  139.4012  143.6370 LP  0  0  0  0  0  0  0  0  0  0  0  0  # atno 17320 bound_to 7965
  146.3325  139.8618  142.8855 LP  0  0  0  0  0  0  0  0  0  0  0  0  # atno 17321 bound_to 7965
  140.4587  144.1752  150.5904 LP  0  0  0  0  0  0  0  0  0  0  0  0  # atno 17342 bound_to 10162
  140.4507  143.2488  151.9351 LP  0  0  0  0  0  0  0  0  0  0  0  0  # atno 17343 bound_to 10162
  155.9760  130.4725  150.6503 LP  0  0  0  0  0  0  0  0  0  0  0  0  # atno 17370 bound_to 10713
  157.4169  131.0831  151.1168 LP  0  0  0  0  0  0  0  0  0  0  0  0  # atno 17371 bound_to 10713
  140.0075  135.0002  157.0325 LP  0  0  0  0  0  0  0  0  0  0  0  0  # atno 17394 bound_to 11000
  140.4656  134.1439  155.7196 LP  0  0  0  0  0  0  0  0  0  0  0  0  # atno 17395 bound_to 11000

$$$$
