#       Name:                AV-unprocessed.smi:1870
#       Creating user name   scv26
#       Creation time:       Fri Mar 27 09:30:47 2020


#       File generated by GOLD software.
#

@<TRIPOS>MOLECULE
AV-unprocessed.smi:1870
    54    56     1
SMALL
NO_CHARGES


@<TRIPOS>ATOM
      1 ****        -3.2018   2.0888  -3.3931 C.3            1 S1                 0.0000
      2 ****        -2.5422   0.7617  -3.1309 C.2            1 S1                 0.0000
      3 ****        -1.2497   0.7482  -3.1246 N.2            1 S1                 0.0000
      4 ****        -0.5424  -0.4164  -2.8972 N.am           1 S1                 0.0000
      5 ****         0.9165  -0.2443  -2.9133 C.3            1 S1                 0.0000
      6 ****         1.5485  -0.3124  -1.5045 C.3            1 S1                 0.0000
      7 ****         2.9397  -0.1117  -1.6570 O.3            1 S1                 0.0000
      8 ****         0.9882   0.7540  -0.5360 C.3            1 S1                 0.0000
      9 ****         1.5507   0.6578   0.8361 N.4            1 S1                 1.0000
     10 ****         1.3419   1.9000   1.6165 C.3            1 S1                 0.0000
     11 ****         2.2167   1.8851   2.8762 C.3            1 S1                 0.0000
     12 ****         2.0717   0.5951   3.6621 C.ar           1 S1                 0.0000
     13 ****         2.4905   0.5438   5.0076 C.ar           1 S1                 0.0000
     14 ****         2.3919  -0.6584   5.7336 C.ar           1 S1                 0.0000
     15 ****         1.8762  -1.8132   5.1156 C.ar           1 S1                 0.0000
     16 ****         1.4584  -1.7664   3.7717 C.ar           1 S1                 0.0000
     17 ****         1.5542  -0.5655   3.0377 C.ar           1 S1                 0.0000
     18 ****         1.0772  -0.5351   1.5897 C.3            1 S1                 0.0000
     19 ****        -1.1085  -1.6386  -2.6844 C.2            1 S1                 0.0000
     20 ****        -0.4380  -2.6559  -2.5045 O.2            1 S1                 0.0000
     21 ****        -2.5728  -1.6150  -2.6829 C.2            1 S1                 0.0000
     22 ****        -3.2065  -2.8724  -2.4486 C.1            1 S1                 0.0000
     23 ****        -3.7316  -3.8835  -2.2439 N.1            1 S1                 0.0000
     24 ****        -3.2784  -0.4749  -2.8886 C.2            1 S1                 0.0000
     25 ****        -4.7991  -0.4006  -2.8989 C.3            1 S1                 0.0000
     26 ****        -3.9299   2.0082  -4.2007 H              1 S1                 0.0000
     27 ****        -2.4780   2.8528  -3.6814 H              1 S1                 0.0000
     28 ****        -3.7209   2.4442  -2.5027 H              1 S1                 0.0000
     29 ****         1.3607  -1.0058  -3.5574 H              1 S1                 0.0000
     30 ****         1.1719   0.7096  -3.3799 H              1 S1                 0.0000
     31 ****         1.3994  -1.3139  -1.1041 H              1 S1                 0.0000
     32 ****         3.3752  -0.3473  -0.8522 H              1 S1                 0.0000
     33 ****         1.2022   1.7395  -0.9526 H              1 S1                 0.0000
     34 ****        -0.0980   0.6834  -0.4666 H              1 S1                 0.0000
     35 ****         1.5939   2.7788   1.0214 H              1 S1                 0.0000
     36 ****         0.2869   1.9877   1.8818 H              1 S1                 0.0000
     37 ****         3.2657   1.9973   2.5999 H              1 S1                 0.0000
     38 ****         1.9651   2.7339   3.5134 H              1 S1                 0.0000
     39 ****         2.8943   1.4250   5.4850 H              1 S1                 0.0000
     40 ****         2.7145  -0.6952   6.7639 H              1 S1                 0.0000
     41 ****         1.8007  -2.7353   5.6733 H              1 S1                 0.0000
     42 ****         1.0599  -2.6564   3.3064 H              1 S1                 0.0000
     43 ****        -0.0135  -0.5612   1.5910 H              1 S1                 0.0000
     44 ****         1.4202  -1.4461   1.1004 H              1 S1                 0.0000
     45 ****        -5.2585  -1.3246  -2.5487 H              1 S1                 0.0000
     46 ****        -5.1614  -0.2115  -3.9097 H              1 S1                 0.0000
     47 ****        -5.1545   0.4005  -2.2501 H              1 S1                 0.0000
     48 ****         2.5507   0.5647   0.7299 H              1 S1                 0.0000
     49 ****        -0.7509   1.5994  -3.2879 LP             1 S1                 0.0000
     50 ****         3.1187   0.8498  -1.8658 LP             1 S1                 0.0000
     51 ****         3.2811  -0.6839  -2.4027 LP             1 S1                 0.0000
     52 ****         0.5607  -2.6042  -2.5111 LP             1 S1                 0.0000
     53 ****        -0.8922  -3.5336  -2.3518 LP             1 S1                 0.0000
     54 ****        -4.1852  -4.7569  -2.0670 LP             1 S1                 0.0000
@<TRIPOS>BOND
    1    1    2 1     
    2    1   26 1     
    3    1   27 1     
    4    1   28 1     
    5    2   24 1     
    6    2    3 2     
    7    3    4 1     
    8    4    5 1     
    9    4   19 am    
   10    5    6 1     
   11    5   29 1     
   12    5   30 1     
   13    6    7 1     
   14    6    8 1     
   15    6   31 1     
   16    7   32 1     
   17    8    9 1     
   18    8   33 1     
   19    8   34 1     
   20    9   18 1     
   21    9   10 1     
   22    9   48 1     
   23   10   11 1     
   24   10   35 1     
   25   10   36 1     
   26   11   12 1     
   27   11   37 1     
   28   11   38 1     
   29   12   17 ar    
   30   12   13 ar    
   31   13   14 ar    
   32   13   39 1     
   33   14   15 ar    
   34   14   40 1     
   35   15   16 ar    
   36   15   41 1     
   37   16   17 ar    
   38   16   42 1     
   39   17   18 1     
   40   18   43 1     
   41   18   44 1     
   42   19   20 2     
   43   19   21 1     
   44   21   22 1     
   45   21   24 2     
   46   22   23 3     
   47   24   25 1     
   48   25   45 1     
   49   25   46 1     
   50   25   47 1     
   51    3   49 1     
   52    7   50 1     
   53    7   51 1     
   54   20   52 1     
   55   20   53 1     
   56   23   54 1     
@<TRIPOS>SUBSTRUCTURE
      1 S1             1
@<TRIPOS>SET
LONE_PAIRS      STATIC     ATOMS    <user>   **** ""
6 49 50 51 52 53 54
DONOR_HYDROGENS      STATIC     ATOMS    <user>   **** ""
2 32 48
ATOM$BLUE        STATIC     ATOMS    COLORGROUP SYSTEM
6 49 50 51 52 53 54
ATOM$RED        STATIC     ATOMS    COLORGROUP SYSTEM
2 32 48
