#       Name:                AV-unprocessed.smi:555
#       Creating user name   scv26
#       Creation time:       Thu Mar 26 23:40:08 2020


#       File generated by GOLD software.
#

@<TRIPOS>MOLECULE
AV-unprocessed.smi:555
    57    58     1
SMALL
NO_CHARGES


@<TRIPOS>ATOM
      1 ****        -4.1143  -1.3335  -3.3443 C.3            1 S1                 0.0000
      2 ****        -3.9856  -0.8835  -2.0073 O.3            1 S1                 0.0000
      3 ****        -5.2407  -0.6505  -1.3877 C.3            1 S1                 0.0000
      4 ****        -5.0173  -0.1479   0.0482 C.3            1 S1                 0.0000
      5 ****        -4.3768   1.1719   0.0687 N.am           1 S1                 0.0000
      6 ****        -3.0030   1.1276   0.2381 N.2            1 S1                 0.0000
      7 ****        -2.3120   2.2213   0.2382 C.2            1 S1                 0.0000
      8 ****        -0.8318   2.2137   0.4030 C.2            1 S1                 0.0000
      9 ****        -0.1662   3.2495   0.3566 O.2            1 S1                 0.0000
     10 ****        -0.2808   1.0022   0.5998 N.am           1 S1                 0.0000
     11 ****         1.1437   0.7403   0.7781 C.3            1 S1                 0.0000
     12 ****         1.8440   0.5975  -0.5856 C.3            1 S1                 0.0000
     13 ****         3.3214   0.2038  -0.4186 C.3            1 S1                 0.0000
     14 ****         3.4541  -1.0425   0.3813 N.4            1 S1                 1.0000
     15 ****         4.8356  -1.6065   0.3780 C.3            1 S1                 0.0000
     16 ****         4.8252  -3.1107   0.6978 C.3            1 S1                 0.0000
     17 ****         5.8165  -0.8387   1.2856 C.3            1 S1                 0.0000
     18 ****         2.8289  -0.8999   1.7245 C.3            1 S1                 0.0000
     19 ****         1.3384  -0.5459   1.5970 C.3            1 S1                 0.0000
     20 ****        -2.9604   3.5111   0.0732 C.2            1 S1                 0.0000
     21 ****        -4.3021   3.5392  -0.0835 C.2            1 S1                 0.0000
     22 ****        -5.1066   2.3162  -0.0955 C.2            1 S1                 0.0000
     23 ****        -6.3280   2.3151  -0.2462 O.2            1 S1                 0.0000
     24 ****        -3.1252  -1.4974  -3.7719 H              1 S1                 0.0000
     25 ****        -4.6289  -0.5955  -3.9609 H              1 S1                 0.0000
     26 ****        -4.6629  -2.2750  -3.3930 H              1 S1                 0.0000
     27 ****        -5.8227   0.0720  -1.9622 H              1 S1                 0.0000
     28 ****        -5.8125  -1.5793  -1.3636 H              1 S1                 0.0000
     29 ****        -5.9714  -0.1083   0.5765 H              1 S1                 0.0000
     30 ****        -4.4137  -0.8716   0.5987 H              1 S1                 0.0000
     31 ****        -0.9001   0.2044   0.6243 H              1 S1                 0.0000
     32 ****         1.5978   1.5668   1.3286 H              1 S1                 0.0000
     33 ****         1.3343  -0.1578  -1.1857 H              1 S1                 0.0000
     34 ****         1.7751   1.5321  -1.1437 H              1 S1                 0.0000
     35 ****         3.7646   0.0628  -1.4050 H              1 S1                 0.0000
     36 ****         3.8691   1.0149   0.0625 H              1 S1                 0.0000
     37 ****         5.2083  -1.5242  -0.6439 H              1 S1                 0.0000
     38 ****         5.8144  -3.5447   0.5487 H              1 S1                 0.0000
     39 ****         4.1324  -3.6472   0.0487 H              1 S1                 0.0000
     40 ****         4.5395  -3.3097   1.7306 H              1 S1                 0.0000
     41 ****         6.8286  -1.2283   1.1721 H              1 S1                 0.0000
     42 ****         5.5549  -0.9296   2.3401 H              1 S1                 0.0000
     43 ****         5.8524   0.2218   1.0374 H              1 S1                 0.0000
     44 ****         2.9250  -1.8249   2.2918 H              1 S1                 0.0000
     45 ****         3.3398  -0.1226   2.2944 H              1 S1                 0.0000
     46 ****         0.9028  -0.4264   2.5899 H              1 S1                 0.0000
     47 ****         0.8087  -1.3743   1.1233 H              1 S1                 0.0000
     48 ****        -2.3915   4.4296   0.0774 H              1 S1                 0.0000
     49 ****        -4.7975   4.4912  -0.2057 H              1 S1                 0.0000
     50 ****         2.8959  -1.7272  -0.1088 H              1 S1                 0.0000
     51 ****        -3.4639  -0.0304  -2.0052 LP             1 S1                 0.0000
     52 ****        -3.4926  -1.5770  -1.4818 LP             1 S1                 0.0000
     53 ****        -2.5438   0.2477   0.3607 LP             1 S1                 0.0000
     54 ****        -0.6187   4.1282   0.2046 LP             1 S1                 0.0000
     55 ****         0.8265   3.2114   0.4709 LP             1 S1                 0.0000
     56 ****        -6.8303   1.4504  -0.2522 LP             1 S1                 0.0000
     57 ****        -6.8182   3.1789  -0.3627 LP             1 S1                 0.0000
@<TRIPOS>BOND
    1    1    2 1     
    2    1   24 1     
    3    1   25 1     
    4    1   26 1     
    5    2    3 1     
    6    3    4 1     
    7    3   27 1     
    8    3   28 1     
    9    4    5 1     
   10    4   29 1     
   11    4   30 1     
   12    5   22 am    
   13    5    6 1     
   14    6    7 2     
   15    7    8 1     
   16    7   20 1     
   17    8    9 2     
   18    8   10 am    
   19   10   11 1     
   20   10   31 1     
   21   11   19 1     
   22   11   12 1     
   23   11   32 1     
   24   12   13 1     
   25   12   33 1     
   26   12   34 1     
   27   13   14 1     
   28   13   35 1     
   29   13   36 1     
   30   14   15 1     
   31   14   18 1     
   32   14   50 1     
   33   15   16 1     
   34   15   17 1     
   35   15   37 1     
   36   16   38 1     
   37   16   39 1     
   38   16   40 1     
   39   17   41 1     
   40   17   42 1     
   41   17   43 1     
   42   18   19 1     
   43   18   44 1     
   44   18   45 1     
   45   19   46 1     
   46   19   47 1     
   47   20   21 2     
   48   20   48 1     
   49   21   22 1     
   50   21   49 1     
   51   22   23 2     
   52    2   51 1     
   53    2   52 1     
   54    6   53 1     
   55    9   54 1     
   56    9   55 1     
   57   23   56 1     
   58   23   57 1     
@<TRIPOS>SUBSTRUCTURE
      1 S1             1
@<TRIPOS>SET
LONE_PAIRS      STATIC     ATOMS    <user>   **** ""
7 51 52 53 54 55 56 57
DONOR_HYDROGENS      STATIC     ATOMS    <user>   **** ""
2 31 50
ATOM$BLUE        STATIC     ATOMS    COLORGROUP SYSTEM
7 51 52 53 54 55 56 57
ATOM$RED        STATIC     ATOMS    COLORGROUP SYSTEM
2 31 50
