#       Name:                AV-unprocessed.smi:1419
#       Creating user name   scv26
#       Creation time:       Fri Mar 27 05:42:28 2020


#       File generated by GOLD software.
#

@<TRIPOS>MOLECULE
AV-unprocessed.smi:1419
    46    47     1
SMALL
NO_CHARGES


@<TRIPOS>ATOM
      1 ****        -2.6238  -0.6203  -1.5385 C.3            1 S1                 0.0000
      2 ****        -1.8983   0.1627  -0.4323 C.3            1 S1                 0.0000
      3 ****        -1.9785  -0.5259   0.9485 C.3            1 S1                 0.0000
      4 ****        -3.3552  -0.7410   1.4019 N.pl3          1 S1                 0.0000
      5 ****        -4.0576  -1.9188   1.4087 C.2            1 S1                 0.0000
      6 ****        -5.2967  -1.6313   1.9209 C.2            1 S1                 0.0000
      7 ****        -5.2967  -0.2923   2.2077 N.pl3          1 S1                 1.0000
      8 ****        -4.1140   0.2467   1.8939 C.2            1 S1                 0.0000
      9 ****        -0.5047   0.3563  -0.8209 N.am           1 S1                 0.0000
     10 ****         0.3098   1.3204  -0.3583 C.2            1 S1                 0.0000
     11 ****        -0.0672   2.1549   0.4659 O.2            1 S1                 0.0000
     12 ****         1.5677   1.2910  -0.8638 N.am           1 S1                 0.0000
     13 ****         2.1299   0.2939  -1.7841 C.3            1 S1                 0.0000
     14 ****         3.1698  -0.5415  -1.0128 C.3            1 S1                 0.0000
     15 ****         3.8666  -1.5676  -1.9130 C.3            1 S1                 0.0000
     16 ****         4.1722   0.3243  -0.4736 O.3            1 S1                 0.0000
     17 ****         3.6942   1.3929   0.3505 C.3            1 S1                 0.0000
     18 ****         3.2282   0.8768   1.7242 C.3            1 S1                 0.0000
     19 ****         2.6226   2.2011  -0.4118 C.3            1 S1                 0.0000
     20 ****        -3.6912  -0.7067  -1.3346 H              1 S1                 0.0000
     21 ****        -2.2208  -1.6286  -1.6396 H              1 S1                 0.0000
     22 ****        -2.5199  -0.1224  -2.5033 H              1 S1                 0.0000
     23 ****        -2.3721   1.1438  -0.3630 H              1 S1                 0.0000
     24 ****        -1.4806  -1.4962   0.9218 H              1 S1                 0.0000
     25 ****        -1.4714   0.0670   1.7113 H              1 S1                 0.0000
     26 ****        -3.6357  -2.8485   1.0553 H              1 S1                 0.0000
     27 ****        -6.1553  -2.2627   2.0981 H              1 S1                 0.0000
     28 ****        -3.8284   1.2771   2.0121 H              1 S1                 0.0000
     29 ****        -0.1260  -0.2921  -1.4959 H              1 S1                 0.0000
     30 ****         1.3847  -0.3620  -2.2341 H              1 S1                 0.0000
     31 ****         2.6066   0.8082  -2.6201 H              1 S1                 0.0000
     32 ****         2.6773  -1.0796  -0.2021 H              1 S1                 0.0000
     33 ****         3.1476  -2.2635  -2.3457 H              1 S1                 0.0000
     34 ****         4.5944  -2.1505  -1.3481 H              1 S1                 0.0000
     35 ****         4.3949  -1.0792  -2.7324 H              1 S1                 0.0000
     36 ****         4.5465   2.0497   0.5271 H              1 S1                 0.0000
     37 ****         2.9510   1.7071   2.3740 H              1 S1                 0.0000
     38 ****         4.0249   0.3220   2.2202 H              1 S1                 0.0000
     39 ****         2.3622   0.2196   1.6514 H              1 S1                 0.0000
     40 ****         3.0711   2.6846  -1.2809 H              1 S1                 0.0000
     41 ****         2.2480   3.0116   0.2148 H              1 S1                 0.0000
     42 ****        -6.0773   0.2185   2.6012 H              1 S1                 0.0000
     43 ****        -1.0052   2.1280   0.8115 LP             1 S1                 0.0000
     44 ****         0.5648   2.8592   0.7893 LP             1 S1                 0.0000
     45 ****         4.6734   0.7277  -1.2392 LP             1 S1                 0.0000
     46 ****         4.7950  -0.2323   0.0762 LP             1 S1                 0.0000
@<TRIPOS>BOND
    1    1    2 1     
    2    1   20 1     
    3    1   21 1     
    4    1   22 1     
    5    2    3 1     
    6    2    9 1     
    7    2   23 1     
    8    3    4 1     
    9    3   24 1     
   10    3   25 1     
   11    4    8 1     
   12    4    5 1     
   13    5    6 2     
   14    5   26 1     
   15    6    7 1     
   16    6   27 1     
   17    7    8 2     
   18    7   42 1     
   19    8   28 1     
   20    9   10 am    
   21    9   29 1     
   22   10   11 2     
   23   10   12 am    
   24   12   19 1     
   25   12   13 1     
   26   13   14 1     
   27   13   30 1     
   28   13   31 1     
   29   14   15 1     
   30   14   16 1     
   31   14   32 1     
   32   15   33 1     
   33   15   34 1     
   34   15   35 1     
   35   16   17 1     
   36   17   18 1     
   37   17   19 1     
   38   17   36 1     
   39   18   37 1     
   40   18   38 1     
   41   18   39 1     
   42   19   40 1     
   43   19   41 1     
   44   11   43 1     
   45   11   44 1     
   46   16   45 1     
   47   16   46 1     
@<TRIPOS>SUBSTRUCTURE
      1 S1             1
@<TRIPOS>SET
LONE_PAIRS      STATIC     ATOMS    <user>   **** ""
4 43 44 45 46
DONOR_HYDROGENS      STATIC     ATOMS    <user>   **** ""
2 42 29
ATOM$BLUE        STATIC     ATOMS    COLORGROUP SYSTEM
4 43 44 45 46
ATOM$RED        STATIC     ATOMS    COLORGROUP SYSTEM
2 42 29
