AV-unprocessed.smi:1958|AV-procd|sdf|7909|dock3
  -GOLD-   2272010 73D 1   1.00000     0.00000
 Structure written by MMmdl.
 48 49  0  0  0  0  0  0  0  0  2 V2000
  154.7943  136.7730  159.9419 C   0  0  0  0  0  0  0  0  0  0  0  0
  153.8902  136.3375  158.9421 O   0  0  0  0  0  0  0  0  0  0  0  0
  154.0826  137.0062  157.7073 C   0  0  0  0  0  0  0  0  0  0  0  0
  153.0379  138.1249  157.5845 C   0  0  0  0  0  0  0  0  0  0  0  0
  152.2116  137.9613  156.3844 N   0  0  0  0  0  0  0  0  0  0  0  0
  151.4659  136.7947  156.3695 N   0  0  0  0  0  0  0  0  0  0  0  0
  150.6880  136.5330  155.3694 C   0  0  0  0  0  0  0  0  0  0  0  0
  149.8655  135.2923  155.3209 C   0  0  0  0  0  0  0  0  0  0  0  0
  149.8612  134.4785  156.2457 O   0  0  0  0  0  0  0  0  0  0  0  0
  149.1437  135.1268  154.1970 N   0  0  0  0  0  0  0  0  0  0  0  0
  148.2776  133.9898  153.8954 C   0  0  0  0  0  0  0  0  0  0  0  0
  148.8059  133.1344  152.7138 C   0  0  1  0  0  0  0  0  0  0  0  0
  149.7448  132.0160  153.2310 C   0  0  0  0  0  0  0  0  0  0  0  0
  147.6631  132.6120  151.8926 N   0  3  0  0  0  0  0  0  0  0  0  0
  146.9106  131.5233  152.5755 C   0  0  0  0  0  0  0  0  0  0  0  0
  145.8028  130.9609  151.6702 C   0  0  0  0  0  0  0  0  0  0  0  0
  144.9194  132.0081  151.2997 O   0  0  0  0  0  0  0  0  0  0  0  0
  145.5903  133.0106  150.5521 C   0  0  0  0  0  0  0  0  0  0  0  0
  146.7049  133.6431  151.4036 C   0  0  0  0  0  0  0  0  0  0  0  0
  150.5842  137.4501  154.2472 C   0  0  0  0  0  0  0  0  0  0  0  0
  151.3266  138.5788  154.2708 C   0  0  0  0  0  0  0  0  0  0  0  0
  152.2177  138.8971  155.3878 C   0  0  0  0  0  0  0  0  0  0  0  0
  152.9119  139.9124  155.4272 O   0  0  0  0  0  0  0  0  0  0  0  0
  154.6076  136.2271  160.8666 H   0  0  0  0  0  0  0  0  0  0  0  0
  154.6711  137.8369  160.1480 H   0  0  0  0  0  0  0  0  0  0  0  0
  155.8280  136.5907  159.6458 H   0  0  0  0  0  0  0  0  0  0  0  0
  155.0911  137.4201  157.6605 H   0  0  0  0  0  0  0  0  0  0  0  0
  153.9762  136.3008  156.8816 H   0  0  0  0  0  0  0  0  0  0  0  0
  152.4038  138.1259  158.4731 H   0  0  0  0  0  0  0  0  0  0  0  0
  153.5304  139.0988  157.5801 H   0  0  0  0  0  0  0  0  0  0  0  0
  149.2084  135.8479  153.4924 H   0  0  0  0  0  0  0  0  0  0  0  0
  148.1322  133.3574  154.7727 H   0  0  0  0  0  0  0  0  0  0  0  0
  147.3032  134.4186  153.6702 H   0  0  0  0  0  0  0  0  0  0  0  0
  149.4090  133.7751  152.0683 H   0  0  0  0  0  0  0  0  0  0  0  0
  150.5539  132.4137  153.8427 H   0  0  0  0  0  0  0  0  0  0  0  0
  150.2372  131.4839  152.4173 H   0  0  0  0  0  0  0  0  0  0  0  0
  149.2033  131.2903  153.8386 H   0  0  0  0  0  0  0  0  0  0  0  0
  147.5661  130.7013  152.8551 H   0  0  0  0  0  0  0  0  0  0  0  0
  146.4725  131.9067  153.4983 H   0  0  0  0  0  0  0  0  0  0  0  0
  146.2248  130.4871  150.7822 H   0  0  0  0  0  0  0  0  0  0  0  0
  145.2372  130.1949  152.2007 H   0  0  0  0  0  0  0  0  0  0  0  0
  145.9964  132.5858  149.6326 H   0  0  0  0  0  0  0  0  0  0  0  0
  144.8680  133.7718  150.2566 H   0  0  0  0  0  0  0  0  0  0  0  0
  146.2724  134.1740  152.2532 H   0  0  0  0  0  0  0  0  0  0  0  0
  147.2090  134.3788  150.7781 H   0  0  0  0  0  0  0  0  0  0  0  0
  149.9355  137.2403  153.4092 H   0  0  0  0  0  0  0  0  0  0  0  0
  151.2616  139.2687  153.4422 H   0  0  0  0  0  0  0  0  0  0  0  0
  148.0749  132.2074  151.0636 H   0  0  0  0  0  0  0  0  0  0  0  0
  1  2  1  0  0  0  0
  1 24  1  0  0  0  0
  1 25  1  0  0  0  0
  1 26  1  0  0  0  0
  2  3  1  0  0  0  0
  3  4  1  0  0  0  0
  3 27  1  0  0  0  0
  3 28  1  0  0  0  0
  4  5  1  0  0  0  0
  4 29  1  0  0  0  0
  4 30  1  0  0  0  0
  5 22  1  0  0  0  0
  5  6  1  0  0  0  0
  6  7  2  0  0  0  0
  7  8  1  0  0  0  0
  7 20  1  0  0  0  0
  8  9  2  0  0  0  0
  8 10  1  0  0  0  0
 10 11  1  0  0  0  0
 10 31  1  0  0  0  0
 11 12  1  0  0  0  0
 11 32  1  0  0  0  0
 11 33  1  0  0  0  0
 12 13  1  0  0  0  0
 12 14  1  0  0  0  0
 12 34  1  0  0  0  0
 13 35  1  0  0  0  0
 13 36  1  0  0  0  0
 13 37  1  0  0  0  0
 14 19  1  0  0  0  0
 14 15  1  0  0  0  0
 14 48  1  0  0  0  0
 15 16  1  0  0  0  0
 15 38  1  0  0  0  0
 15 39  1  0  0  0  0
 16 17  1  0  0  0  0
 16 40  1  0  0  0  0
 16 41  1  0  0  0  0
 17 18  1  0  0  0  0
 18 19  1  0  0  0  0
 18 42  1  0  0  0  0
 18 43  1  0  0  0  0
 19 44  1  0  0  0  0
 19 45  1  0  0  0  0
 20 21  2  0  0  0  0
 20 46  1  0  0  0  0
 21 22  1  0  0  0  0
 21 47  1  0  0  0  0
 22 23  2  0  0  0  0
M  CHG  1  14   1
M  END
> <s_m_source_file>
AV-unprocessed.smi

> <i_m_source_file_index>
1958

> <i_lp_mmshare_version>
43012

> <i_f3d_flags>
0

> <s_epik_input>
W0NIM11PW0NIMl1bQ0gyXW4xbmMoW2NIXVtjSF1jMT1PKUMoPU8pW05IXVtDSDJdW0NASF0oW0NIM10pTjJbQ0gyXVtDSDJdT1tDSDJdW0NIMl0y

> <s_epik_cmdline>
J2VwaWtfcHl0aG9uJywgJy1waCcsICc3LjAnLCAnLXRuJywgJzgnLCAnLW1hJywgJzIwMCcsICctbWV0YWxfYmluZGluZycsICctaW1hZScsICc8aW5maWxlLm1hZT4nLCAnLW9tYWUnLCAnPG91dGZpbGUubWFlPic=

> <r_lp_tautomer_probability>
1

> <r_epik_Ionization_Penalty>
0.724355

> <r_epik_Ionization_Penalty_Charging>
0.724348

> <r_epik_Ionization_Penalty_Neutral>
6.31911e-06

> <r_epik_State_Penalty>
0.749058

> <r_epik_Charging_Adjusted_Penalty>
1.47341

> <i_epik_Tot_Q>
1

> <i_epik_Tot_abs_Q>
1

> <r_epik_Metal_State_Penalty>
0.750821

> <b_epik_Metal_Only>
0

> <s_lp_Force_Field>
OPLS_2005

> <r_lp_Energy>
42.169

> <b_lp_Chiralities_Consistent>
1

> <s_lp_Variant>
AV-unprocessed.smi:1958-4

> <Gold.Version>
5.8.1

> <Gold.Id.Protein>
6NUR|6NUR_protein|mol2

> <Gold.PLP.Fitness>
45.4452

> <Gold.PLP.PLP>
-36.3029

> <Gold.PLP.part.hbond>
-4.0000

> <Gold.PLP.part.metal>
0.0000

> <Gold.PLP.part.buried>
-3.8441

> <Gold.PLP.part.nonpolar>
-27.8998

> <Gold.PLP.part.repulsive>
0.1221

> <Gold.PLP.ligand.clash>
0.5773

> <Gold.PLP.ligand.torsion>
1.1808

> <Gold.PLP.Chemscore.Hbond>
3.9760

> <Gold.PLP.Chemscore.CHOScore>
0.0000

> <Gold.PLP.Chemscore.Metal>
0.0000

> <Gold.Chemscore.Hbonds>
donor molecule, donor type, donor heavy atom, donor atom, acceptor molecule, acceptor atom, score
      L1  H    10    31       P1  7948  0.90
      L1  H    14    48       P1 10747  0.99
      P1  H  7997  8009       L1    23  1.00

> <Gold.PLP.Chemscore.Internal.Correction>
0.1532

> <Gold.Rescore>
     Score         DG    S(hbond)    S(metal)    S(lipo)     H(rot)  DE(clash)    DE(int)     intcor
     20.51     -21.81       3.63        0.00      82.49       2.12       0.02       1.28       ----

> <Gold.Chemscore.Fitness>
20.5114

> <Gold.Chemscore.DG>
-21.8145

> <Gold.Chemscore.ZeroCoef>
-5.4800

> <Gold.Chemscore.Hbond>
3.6275

> <Gold.Chemscore.Metal>
0.0000

> <Gold.Chemscore.Lipo>
82.4884

> <Gold.Chemscore.Internal_Hbond>
0.0000

> <Gold.Chemscore.DEClash>
0.0230

> <Gold.Chemscore.DEInternal>
1.2801

> <Gold.Chemscore.Rot>
2.1221

> <Gold.Chemscore.Internal.Correction>
   9.000000E+99

> <Gold.Chemscore.Hbonds>
donor molecule, donor type, donor heavy atom, donor atom, acceptor molecule, acceptor atom, score
      L1  H    10    31       P1  7948  0.62
      L1  H    14    48       P1 10747  0.94
      P1  H  7997  8009       L1    23  0.99

> <Gold.Chemscore.Hbond.Weighted>
-12.1159

> <Gold.Chemscore.Metal.Weighted>
-0.0000

> <Gold.Chemscore.Lipo.Weighted>
-9.6511

> <Gold.Chemscore.Internal_Hbond.Weighted>
0.0000

> <Gold.Chemscore.DEClash.Weighted>
0.0230

> <Gold.Chemscore.DEInternal.Weighted>
1.2801

> <Gold.Chemscore.Rot.Weighted>
5.4325

> <Gold.Chemscore.Internal.Correction.Weighted>
   9.000000E+99

> <Gold.Protein.RotatedTorsions>
[ 6907 6896 6895 6894 ] final -114.68 input  -60.11 | X-H torsion
[ 7974 7965 7964 7962 ] final  173.11 input  175.53 | X-H torsion
[ 8008 7997 7996 7995 ] final -143.87 input   59.86 | X-H torsion
[ 10167 10162 10161 10158 ] final  -61.19 input  -65.29 | X-H torsion
[ 10718 10713 10712 10709 ] final   70.27 input   66.30 | X-H torsion
[ 10763 10752 10751 10750 ] final   42.68 input  -60.55 | X-H torsion
[ 11005 11000 10999 10996 ] final -137.35 input  -57.11 | X-H torsion

> <Gold.Protein.ActiveResidues>
 VAL166  LYS551  ARG553  GLY616  TRP617  ASP618  TYR619  PRO620  LYS621  CYS622 
 ASP623  PHE694  ASN695  SER759  ASP760  ASP761  ALA762  ILE779  LEU786  VAL792 
 PHE793  MET794  SER795  GLU796  ALA797  LYS798  CYS799  TRP800  GLU811  SER814 

> <Gold.Protein.RotatedAtoms>
  150.7920  133.8767  159.3273 H   0  0  0  0  0  0  0  0  0  0  0  0  # atno 6907 bound_to 6896
  151.6602  135.0988  160.0187 H   0  0  0  0  0  0  0  0  0  0  0  0  # atno 6908 bound_to 6896
  152.3996  133.6759  159.6340 H   0  0  0  0  0  0  0  0  0  0  0  0  # atno 6909 bound_to 6896
  144.7251  139.9599  143.6434 H   0  0  0  0  0  0  0  0  0  0  0  0  # atno 7974 bound_to 7965
  155.5176  140.0588  157.2912 H   0  0  0  0  0  0  0  0  0  0  0  0  # atno 8008 bound_to 7997
  154.4529  140.1958  156.0412 H   0  0  0  0  0  0  0  0  0  0  0  0  # atno 8009 bound_to 7997
  156.0741  140.3256  155.7616 H   0  0  0  0  0  0  0  0  0  0  0  0  # atno 8010 bound_to 7997
  140.6022  143.2364  151.5902 H   0  0  0  0  0  0  0  0  0  0  0  0  # atno 10167 bound_to 10162
  157.6391  130.9468  150.0627 H   0  0  0  0  0  0  0  0  0  0  0  0  # atno 10718 bound_to 10713
  152.9877  135.6124  154.2989 H   0  0  0  0  0  0  0  0  0  0  0  0  # atno 10763 bound_to 10752
  154.2711  135.2779  155.2739 H   0  0  0  0  0  0  0  0  0  0  0  0  # atno 10764 bound_to 10752
  154.5121  135.5838  153.6670 H   0  0  0  0  0  0  0  0  0  0  0  0  # atno 10765 bound_to 10752
  140.8719  134.2039  157.4645 H   0  0  0  0  0  0  0  0  0  0  0  0  # atno 11005 bound_to 11000
  146.0645  139.3637  143.0561 LP  0  0  0  0  0  0  0  0  0  0  0  0  # atno 17320 bound_to 7965
  145.8049  140.9753  143.0979 LP  0  0  0  0  0  0  0  0  0  0  0  0  # atno 17321 bound_to 7965
  139.5299  144.2947  152.1123 LP  0  0  0  0  0  0  0  0  0  0  0  0  # atno 17342 bound_to 10162
  140.2130  144.4544  150.6377 LP  0  0  0  0  0  0  0  0  0  0  0  0  # atno 17343 bound_to 10162
  156.1655  130.3645  149.9239 LP  0  0  0  0  0  0  0  0  0  0  0  0  # atno 17370 bound_to 10713
  156.7227  130.9013  151.3619 LP  0  0  0  0  0  0  0  0  0  0  0  0  # atno 17371 bound_to 10713
  139.8713  134.9778  156.4974 LP  0  0  0  0  0  0  0  0  0  0  0  0  # atno 17394 bound_to 11000
  140.8563  133.8094  155.9219 LP  0  0  0  0  0  0  0  0  0  0  0  0  # atno 17395 bound_to 11000

$$$$
