AV-unprocessed.smi:317|AV-procd|sdf|2327|dock2
  -GOLD-   2262022233D 1   1.00000     0.00000
 Structure written by MMmdl.
 39 40  0  0  0  0  0  0  0  0  1 V2000
  145.8584  142.3709  155.0662 C   0  0  0  0  0  0  0  0  0  0  0  0
  147.0609  141.4205  154.9736 C   0  0  1  0  0  0  0  0  0  0  0  0
  147.4028  141.0868  153.5056 C   0  0  0  0  0  0  0  0  0  0  0  0
  146.5019  140.1295  152.9915 O   0  0  0  0  0  0  0  0  0  0  0  0
  148.1996  142.0628  155.6248 N   0  0  0  0  0  0  0  0  0  0  0  0
  149.0487  141.4634  156.4711 C   0  0  0  0  0  0  0  0  0  0  0  0
  148.9590  140.2833  156.8093 O   0  0  0  0  0  0  0  0  0  0  0  0
  150.0077  142.3128  156.8750 N   0  0  0  0  0  0  0  0  0  0  0  0
  151.1077  142.0445  157.7372 C   0  0  0  0  0  0  0  0  0  0  0  0
  151.5727  143.0113  158.6618 C   0  0  0  0  0  0  0  0  0  0  0  0
  152.7081  142.7306  159.4411 C   0  0  0  0  0  0  0  0  0  0  0  0
  153.3510  141.4953  159.2572 C   0  0  0  0  0  0  0  0  0  0  0  0
  152.9286  140.5698  158.3728 N   0  0  0  0  0  0  0  0  0  0  0  0
  151.8259  140.8195  157.6240 C   0  0  0  0  0  0  0  0  0  0  0  0
  151.4195  139.8047  156.7270 N   0  0  0  0  0  0  0  0  0  0  0  0
  151.4237  140.0450  155.2878 C   0  0  0  0  0  0  0  0  0  0  0  0
  151.3148  138.6603  154.6561 C   0  0  0  0  0  0  0  0  0  0  0  0
  152.1253  137.7982  155.6192 C   0  0  0  0  0  0  0  0  0  0  0  0
  151.8696  138.4400  156.9870 C   0  0  0  0  0  0  0  0  0  0  0  0
  144.9690  141.9233  154.6215 H   0  0  0  0  0  0  0  0  0  0  0  0
  146.0523  143.3110  154.5484 H   0  0  0  0  0  0  0  0  0  0  0  0
  145.6211  142.6041  156.1048 H   0  0  0  0  0  0  0  0  0  0  0  0
  146.7865  140.5091  155.5093 H   0  0  0  0  0  0  0  0  0  0  0  0
  147.3074  141.9749  152.8801 H   0  0  0  0  0  0  0  0  0  0  0  0
  148.4296  140.7355  153.3963 H   0  0  0  0  0  0  0  0  0  0  0  0
  145.6435  140.5209  152.9391 H   0  0  0  0  0  0  0  0  0  0  0  0
  148.3564  143.0356  155.4063 H   0  0  0  0  0  0  0  0  0  0  0  0
  150.0138  143.2214  156.4353 H   0  0  0  0  0  0  0  0  0  0  0  0
  151.0916  143.9717  158.7680 H   0  0  0  0  0  0  0  0  0  0  0  0
  153.0842  143.4512  160.1520 H   0  0  0  0  0  0  0  0  0  0  0  0
  154.2313  141.2453  159.8303 H   0  0  0  0  0  0  0  0  0  0  0  0
  150.5986  140.6926  154.9901 H   0  0  0  0  0  0  0  0  0  0  0  0
  152.3581  140.5132  154.9751 H   0  0  0  0  0  0  0  0  0  0  0  0
  150.2741  138.3334  154.6480 H   0  0  0  0  0  0  0  0  0  0  0  0
  151.6903  138.6288  153.6330 H   0  0  0  0  0  0  0  0  0  0  0  0
  151.8455  136.7449  155.5873 H   0  0  0  0  0  0  0  0  0  0  0  0
  153.1851  137.8721  155.3717 H   0  0  0  0  0  0  0  0  0  0  0  0
  152.7640  138.4138  157.6115 H   0  0  0  0  0  0  0  0  0  0  0  0
  151.0779  137.9004  157.5074 H   0  0  0  0  0  0  0  0  0  0  0  0
  1  2  1  0  0  0  0
  1 20  1  0  0  0  0
  1 21  1  0  0  0  0
  1 22  1  0  0  0  0
  2  3  1  0  0  0  0
  2  5  1  0  0  0  0
  2 23  1  0  0  0  0
  3  4  1  0  0  0  0
  3 24  1  0  0  0  0
  3 25  1  0  0  0  0
  4 26  1  0  0  0  0
  5  6  1  0  0  0  0
  5 27  1  0  0  0  0
  6  7  2  0  0  0  0
  6  8  1  0  0  0  0
  8  9  1  0  0  0  0
  8 28  1  0  0  0  0
  9 14  1  0  0  0  0
  9 10  2  0  0  0  0
 10 11  1  0  0  0  0
 10 29  1  0  0  0  0
 11 12  2  0  0  0  0
 11 30  1  0  0  0  0
 12 13  1  0  0  0  0
 12 31  1  0  0  0  0
 13 14  2  0  0  0  0
 14 15  1  0  0  0  0
 15 19  1  0  0  0  0
 15 16  1  0  0  0  0
 16 17  1  0  0  0  0
 16 32  1  0  0  0  0
 16 33  1  0  0  0  0
 17 18  1  0  0  0  0
 17 34  1  0  0  0  0
 17 35  1  0  0  0  0
 18 19  1  0  0  0  0
 18 36  1  0  0  0  0
 18 37  1  0  0  0  0
 19 38  1  0  0  0  0
 19 39  1  0  0  0  0
M  END
> <s_m_source_file>
AV-unprocessed.smi

> <i_m_source_file_index>
317

> <i_lp_mmshare_version>
43012

> <i_f3d_flags>
0

> <s_epik_input>
W09IXVtDSDJdW0NAQEhdKFtDSDNdKVtOSF1DKD1PKVtOSF1jMVtjSF1bY0hdW2NIXW5jMU4yW0NIMl1bQ0gyXVtDSDJdW0NIMl0y

> <s_epik_cmdline>
J2VwaWtfcHl0aG9uJywgJy1waCcsICc3LjAnLCAnLXRuJywgJzgnLCAnLW1hJywgJzIwMCcsICctbWV0YWxfYmluZGluZycsICctaW1hZScsICc8aW5maWxlLm1hZT4nLCAnLW9tYWUnLCAnPG91dGZpbGUubWFlPic=

> <r_lp_tautomer_probability>
1

> <r_epik_Ionization_Penalty>
0.098371

> <r_epik_Ionization_Penalty_Charging>
0

> <r_epik_Ionization_Penalty_Neutral>
0.098371

> <r_epik_State_Penalty>
0.0879016

> <r_epik_Charging_Adjusted_Penalty>
0.0879016

> <i_epik_Tot_Q>
0

> <i_epik_Tot_abs_Q>
0

> <r_epik_Metal_State_Penalty>
0.0753294

> <b_epik_Metal_Only>
0

> <s_lp_Force_Field>
OPLS_2005

> <r_lp_Energy>
32.3253

> <b_lp_Chiralities_Consistent>
1

> <s_lp_Variant>
AV-unprocessed.smi:317-2

> <Gold.Version>
5.8.1

> <Gold.Id.Protein>
6NUR|6NUR_protein|mol2

> <Gold.PLP.Fitness>
41.1986

> <Gold.PLP.PLP>
-32.5915

> <Gold.PLP.part.hbond>
-4.0000

> <Gold.PLP.part.metal>
0.0000

> <Gold.PLP.part.buried>
-3.2613

> <Gold.PLP.part.nonpolar>
-25.6350

> <Gold.PLP.part.repulsive>
0.1286

> <Gold.PLP.ligand.clash>
0.0000

> <Gold.PLP.ligand.torsion>
0.9796

> <Gold.PLP.Chemscore.Hbond>
3.4121

> <Gold.PLP.Chemscore.CHOScore>
0.0000

> <Gold.PLP.Chemscore.Metal>
0.0000

> <Gold.Chemscore.Hbonds>
donor molecule, donor type, donor heavy atom, donor atom, acceptor molecule, acceptor atom, score
      L1  H     4    26       P1 10175  1.00
      L1  H     5    27       P1  8028  1.00
      L1  H     8    28       P1  8028  0.93
      P1  H  7997  8008       L1    13  0.46

> <Gold.PLP.Chemscore.Internal.Correction>
0.3300

> <Gold.Rescore>
     Score         DG    S(hbond)    S(metal)    S(lipo)     H(rot)  DE(clash)    DE(int)     intcor
     14.32     -19.60       2.98        0.00      81.21       2.08       0.49       4.79       ----

> <Gold.Chemscore.Fitness>
14.3201

> <Gold.Chemscore.DG>
-19.6028

> <Gold.Chemscore.ZeroCoef>
-5.4800

> <Gold.Chemscore.Hbond>
2.9759

> <Gold.Chemscore.Metal>
0.0000

> <Gold.Chemscore.Lipo>
81.2071

> <Gold.Chemscore.Internal_Hbond>
0.0000

> <Gold.Chemscore.DEClash>
0.4884

> <Gold.Chemscore.DEInternal>
4.7943

> <Gold.Chemscore.Rot>
2.0773

> <Gold.Chemscore.Internal.Correction>
   9.000000E+99

> <Gold.Chemscore.Hbonds>
donor molecule, donor type, donor heavy atom, donor atom, acceptor molecule, acceptor atom, score
      L1  H     4    26       P1 10175  0.72
      L1  H     5    27       P1  8028  0.98
      L1  H     8    28       P1  8028  0.84
      P1  H  7997  8008       L1    13  0.18

> <Gold.Chemscore.Hbond.Weighted>
-9.9394

> <Gold.Chemscore.Metal.Weighted>
-0.0000

> <Gold.Chemscore.Lipo.Weighted>
-9.5012

> <Gold.Chemscore.Internal_Hbond.Weighted>
0.0000

> <Gold.Chemscore.DEClash.Weighted>
0.4884

> <Gold.Chemscore.DEInternal.Weighted>
4.7943

> <Gold.Chemscore.Rot.Weighted>
5.3178

> <Gold.Chemscore.Internal.Correction.Weighted>
   9.000000E+99

> <Gold.Protein.RotatedTorsions>
[ 6907 6896 6895 6894 ] final  -22.38 input  -60.11 | X-H torsion
[ 7974 7965 7964 7962 ] final  -15.01 input  175.53 | X-H torsion
[ 8008 7997 7996 7995 ] final  -77.49 input   59.86 | X-H torsion
[ 10167 10162 10161 10158 ] final  153.26 input  -65.29 | X-H torsion
[ 10718 10713 10712 10709 ] final    8.81 input   66.30 | X-H torsion
[ 10763 10752 10751 10750 ] final   24.13 input  -60.55 | X-H torsion
[ 11005 11000 10999 10996 ] final    1.96 input  -57.11 | X-H torsion

> <Gold.Protein.ActiveResidues>
 VAL166  LYS551  ARG553  GLY616  TRP617  ASP618  TYR619  PRO620  LYS621  CYS622 
 ASP623  PHE694  ASN695  SER759  ASP760  ASP761  ALA762  ILE779  LEU786  VAL792 
 PHE793  MET794  SER795  GLU796  ALA797  LYS798  CYS799  TRP800  GLU811  SER814 

> <Gold.Protein.RotatedAtoms>
  151.2195  135.0513  159.8943 H   0  0  0  0  0  0  0  0  0  0  0  0  # atno 6907 bound_to 6896
  152.5417  134.0656  159.8181 H   0  0  0  0  0  0  0  0  0  0  0  0  # atno 6908 bound_to 6896
  151.0820  133.5334  159.2652 H   0  0  0  0  0  0  0  0  0  0  0  0  # atno 6909 bound_to 6896
  146.2050  140.3432  142.8410 H   0  0  0  0  0  0  0  0  0  0  0  0  # atno 7974 bound_to 7965
  154.5601  140.0709  156.8806 H   0  0  0  0  0  0  0  0  0  0  0  0  # atno 8008 bound_to 7997
  155.2827  140.3373  155.4239 H   0  0  0  0  0  0  0  0  0  0  0  0  # atno 8009 bound_to 7997
  156.2035  140.1731  156.7835 H   0  0  0  0  0  0  0  0  0  0  0  0  # atno 8010 bound_to 7997
  139.4828  144.5288  151.7757 H   0  0  0  0  0  0  0  0  0  0  0  0  # atno 10167 bound_to 10162
  156.9571  130.5918  149.5660 H   0  0  0  0  0  0  0  0  0  0  0  0  # atno 10718 bound_to 10713
  153.0786  135.6612  154.0092 H   0  0  0  0  0  0  0  0  0  0  0  0  # atno 10763 bound_to 10752
  153.9719  135.2963  155.3428 H   0  0  0  0  0  0  0  0  0  0  0  0  # atno 10764 bound_to 10752
  154.7181  135.5176  153.8840 H   0  0  0  0  0  0  0  0  0  0  0  0  # atno 10765 bound_to 10752
  140.6096  133.9760  155.8171 H   0  0  0  0  0  0  0  0  0  0  0  0  # atno 11005 bound_to 11000
  144.8771  140.7351  143.6010 LP  0  0  0  0  0  0  0  0  0  0  0  0  # atno 17320 bound_to 7965
  145.3351  139.1748  143.4516 LP  0  0  0  0  0  0  0  0  0  0  0  0  # atno 17321 bound_to 7965
  140.4811  144.1448  150.5933 LP  0  0  0  0  0  0  0  0  0  0  0  0  # atno 17342 bound_to 10162
  140.4276  143.2583  151.9636 LP  0  0  0  0  0  0  0  0  0  0  0  0  # atno 17343 bound_to 10162
  156.0338  130.5427  150.8602 LP  0  0  0  0  0  0  0  0  0  0  0  0  # atno 17370 bound_to 10713
  157.5683  131.0946  150.9456 LP  0  0  0  0  0  0  0  0  0  0  0  0  # atno 17371 bound_to 10713
  141.0817  134.0053  157.3376 LP  0  0  0  0  0  0  0  0  0  0  0  0  # atno 17394 bound_to 11000
  139.9197  135.0199  156.8019 LP  0  0  0  0  0  0  0  0  0  0  0  0  # atno 17395 bound_to 11000

$$$$
