AV-unprocessed.smi:1295|AV-procd|sdf|5411|dock7
  -GOLD-   22720 4573D 1   1.00000     0.00000
 Structure written by MMmdl.
 42 43  0  0  0  0  0  0  0  0  2 V2000
  150.0758  135.0787  154.8352 C   0  0  0  0  0  0  0  0  0  0  0  0
  150.0941  136.3605  155.6402 C   0  0  0  0  0  0  0  0  0  0  0  0
  149.7125  136.3380  156.8601 N   0  0  0  0  0  0  0  0  0  0  0  0
  149.7262  137.5254  157.6111 C   0  0  0  0  0  0  0  0  0  0  0  0
  149.2780  137.4022  159.0567 C   0  0  0  0  0  0  0  0  0  0  0  0
  150.1318  138.7047  157.0593 C   0  0  0  0  0  0  0  0  0  0  0  0
  150.1850  140.0200  157.8399 C   0  0  0  0  0  0  0  0  0  0  0  0
  151.5737  140.6450  157.9967 C   0  0  0  0  0  0  0  0  0  0  0  0
  152.5311  140.1844  157.3756 O   0  0  0  0  0  0  0  0  0  0  0  0
  151.6631  141.6932  158.8286 N   0  0  0  0  0  0  0  0  0  0  0  0
  152.8503  142.5030  159.0892 C   0  0  2  0  0  0  0  0  0  0  0  0
  153.4320  142.1712  160.4787 C   0  0  0  0  0  0  0  0  0  0  0  0
  152.5174  142.6516  161.6191 C   0  0  0  0  0  0  0  0  0  0  0  0
  152.2076  144.1502  161.4895 C   0  0  0  0  0  0  0  0  0  0  0  0
  151.6039  144.4810  160.1151 C   0  0  0  0  0  0  0  0  0  0  0  0
  152.5188  144.0110  158.9643 C   0  0  2  0  0  0  0  0  0  0  0  0
  151.9288  144.3783  157.5908 C   0  0  0  0  0  0  0  0  0  0  0  0
  150.5706  138.6862  155.6523 C   0  0  0  0  0  0  0  0  0  0  0  0
  150.9723  139.7173  155.1143 O   0  0  0  0  0  0  0  0  0  0  0  0
  150.5285  137.4945  154.9917 N   0  5  0  0  0  0  0  0  0  0  0  0
  149.8603  134.2187  155.4707 H   0  0  0  0  0  0  0  0  0  0  0  0
  151.0423  134.9149  154.3575 H   0  0  0  0  0  0  0  0  0  0  0  0
  149.3107  135.1321  154.0601 H   0  0  0  0  0  0  0  0  0  0  0  0
  148.3829  137.9992  159.2317 H   0  0  0  0  0  0  0  0  0  0  0  0
  150.0628  137.7445  159.7315 H   0  0  0  0  0  0  0  0  0  0  0  0
  149.0467  136.3675  159.3118 H   0  0  0  0  0  0  0  0  0  0  0  0
  149.5222  140.7618  157.3934 H   0  0  0  0  0  0  0  0  0  0  0  0
  149.7759  139.8481  158.8358 H   0  0  0  0  0  0  0  0  0  0  0  0
  150.8162  141.9815  159.2982 H   0  0  0  0  0  0  0  0  0  0  0  0
  153.6087  142.2675  158.3405 H   0  0  0  0  0  0  0  0  0  0  0  0
  153.6086  141.0987  160.5682 H   0  0  0  0  0  0  0  0  0  0  0  0
  154.4078  142.6473  160.5807 H   0  0  0  0  0  0  0  0  0  0  0  0
  151.5864  142.0834  161.6107 H   0  0  0  0  0  0  0  0  0  0  0  0
  152.9896  142.4523  162.5814 H   0  0  0  0  0  0  0  0  0  0  0  0
  151.5215  144.4569  162.2795 H   0  0  0  0  0  0  0  0  0  0  0  0
  153.1229  144.7256  161.6338 H   0  0  0  0  0  0  0  0  0  0  0  0
  150.6215  144.0144  160.0263 H   0  0  0  0  0  0  0  0  0  0  0  0
  151.4380  145.5562  160.0420 H   0  0  0  0  0  0  0  0  0  0  0  0
  153.4603  144.5544  159.0577 H   0  0  0  0  0  0  0  0  0  0  0  0
  150.9504  143.9223  157.4341 H   0  0  0  0  0  0  0  0  0  0  0  0
  152.5824  144.0486  156.7829 H   0  0  0  0  0  0  0  0  0  0  0  0
  151.8053  145.4573  157.4953 H   0  0  0  0  0  0  0  0  0  0  0  0
  1  2  1  0  0  0  0
  1 21  1  0  0  0  0
  1 22  1  0  0  0  0
  1 23  1  0  0  0  0
  2 20  1  0  0  0  0
  2  3  2  0  0  0  0
  3  4  1  0  0  0  0
  4  5  1  0  0  0  0
  4  6  2  0  0  0  0
  5 24  1  0  0  0  0
  5 25  1  0  0  0  0
  5 26  1  0  0  0  0
  6  7  1  0  0  0  0
  6 18  1  0  0  0  0
  7  8  1  0  0  0  0
  7 27  1  0  0  0  0
  7 28  1  0  0  0  0
  8  9  2  0  0  0  0
  8 10  1  0  0  0  0
 10 11  1  0  0  0  0
 10 29  1  0  0  0  0
 11 16  1  0  0  0  0
 11 12  1  0  0  0  0
 11 30  1  0  0  0  0
 12 13  1  0  0  0  0
 12 31  1  0  0  0  0
 12 32  1  0  0  0  0
 13 14  1  0  0  0  0
 13 33  1  0  0  0  0
 13 34  1  0  0  0  0
 14 15  1  0  0  0  0
 14 35  1  0  0  0  0
 14 36  1  0  0  0  0
 15 16  1  0  0  0  0
 15 37  1  0  0  0  0
 15 38  1  0  0  0  0
 16 17  1  0  0  0  0
 16 39  1  0  0  0  0
 17 40  1  0  0  0  0
 17 41  1  0  0  0  0
 17 42  1  0  0  0  0
 18 19  2  0  0  0  0
 18 20  1  0  0  0  0
M  CHG  1  20  -1
M  END
> <s_m_source_file>
AV-unprocessed.smi

> <i_m_source_file_index>
1295

> <i_lp_mmshare_version>
43012

> <i_f3d_flags>
0

> <s_epik_input>
W0NIM11jMW5jKFtDSDNdKWMoYyg9TylbbkhdMSlbQ0gyXUMoPU8pW05IXVtDQEBIXTJbQ0gyXVtDSDJdW0NIMl1bQ0gyXVtDQEhdMltDSDNd

> <s_epik_cmdline>
J2VwaWtfcHl0aG9uJywgJy1waCcsICc3LjAnLCAnLXRuJywgJzgnLCAnLW1hJywgJzIwMCcsICctbWV0YWxfYmluZGluZycsICctaW1hZScsICc8aW5maWxlLm1hZT4nLCAnLW9tYWUnLCAnPG91dGZpbGUubWFlPic=

> <r_lp_tautomer_probability>
0.839158

> <r_epik_Ionization_Penalty>
6.67742

> <r_epik_Ionization_Penalty_Charging>
7.78154e-08

> <r_epik_Ionization_Penalty_Neutral>
6.67742

> <r_epik_State_Penalty>
4.51991

> <r_epik_Charging_Adjusted_Penalty>
4.51991

> <i_epik_Tot_Q>
-1

> <i_epik_Tot_abs_Q>
1

> <r_epik_Metal_State_Penalty>
0.853272

> <b_epik_Metal_Only>
1

> <s_lp_Force_Field>
OPLS_2005

> <r_lp_Energy>
12.2009

> <b_lp_Chiralities_Consistent>
1

> <s_lp_Variant>
AV-unprocessed.smi:1295-11

> <Gold.Version>
5.8.1

> <Gold.Id.Protein>
6NUR|6NUR_protein|mol2

> <Gold.PLP.Fitness>
47.0947

> <Gold.PLP.PLP>
-41.5146

> <Gold.PLP.part.hbond>
-2.0000

> <Gold.PLP.part.metal>
0.0000

> <Gold.PLP.part.buried>
-5.0687

> <Gold.PLP.part.nonpolar>
-34.5210

> <Gold.PLP.part.repulsive>
0.2965

> <Gold.PLP.ligand.clash>
0.0000

> <Gold.PLP.ligand.torsion>
0.2145

> <Gold.PLP.Chemscore.Hbond>
2.0000

> <Gold.PLP.Chemscore.CHOScore>
0.0000

> <Gold.PLP.Chemscore.Metal>
0.0000

> <Gold.Chemscore.Hbonds>
donor molecule, donor type, donor heavy atom, donor atom, acceptor molecule, acceptor atom, score
      P1  H  7989  7998       L1    19  0.84
      P1  H  7997  8010       L1     9  1.00

> <Gold.PLP.Chemscore.Internal.Correction>
0.0089

> <Gold.Rescore>
     Score         DG    S(hbond)    S(metal)    S(lipo)     H(rot)  DE(clash)    DE(int)     intcor
     19.04     -20.84       1.93        0.00     107.77       1.45       1.43       0.37       ----

> <Gold.Chemscore.Fitness>
19.0446

> <Gold.Chemscore.DG>
-20.8436

> <Gold.Chemscore.ZeroCoef>
-5.4800

> <Gold.Chemscore.Hbond>
1.9321

> <Gold.Chemscore.Metal>
0.0000

> <Gold.Chemscore.Lipo>
107.7728

> <Gold.Chemscore.Internal_Hbond>
0.0000

> <Gold.Chemscore.DEClash>
1.4302

> <Gold.Chemscore.DEInternal>
0.3688

> <Gold.Chemscore.Rot>
1.4450

> <Gold.Chemscore.Internal.Correction>
   9.000000E+99

> <Gold.Chemscore.Hbonds>
donor molecule, donor type, donor heavy atom, donor atom, acceptor molecule, acceptor atom, score
      P1  H  7989  7998       L1    19  0.82
      P1  H  7997  8010       L1     9  0.93

> <Gold.Chemscore.Hbond.Weighted>
-6.4534

> <Gold.Chemscore.Metal.Weighted>
-0.0000

> <Gold.Chemscore.Lipo.Weighted>
-12.6094

> <Gold.Chemscore.Internal_Hbond.Weighted>
0.0000

> <Gold.Chemscore.DEClash.Weighted>
1.4302

> <Gold.Chemscore.DEInternal.Weighted>
0.3688

> <Gold.Chemscore.Rot.Weighted>
3.6992

> <Gold.Chemscore.Internal.Correction.Weighted>
   9.000000E+99

> <Gold.Protein.RotatedTorsions>
[ 6907 6896 6895 6894 ] final  135.10 input  -60.11 | X-H torsion
[ 7974 7965 7964 7962 ] final   40.16 input  175.53 | X-H torsion
[ 8008 7997 7996 7995 ] final   60.82 input   59.86 | X-H torsion
[ 10167 10162 10161 10158 ] final  120.38 input  -65.29 | X-H torsion
[ 10718 10713 10712 10709 ] final  -94.68 input   66.30 | X-H torsion
[ 10763 10752 10751 10750 ] final  170.57 input  -60.55 | X-H torsion
[ 11005 11000 10999 10996 ] final  -16.10 input  -57.11 | X-H torsion

> <Gold.Protein.ActiveResidues>
 VAL166  LYS551  ARG553  GLY616  TRP617  ASP618  TYR619  PRO620  LYS621  CYS622 
 ASP623  PHE694  ASN695  SER759  ASP760  ASP761  ALA762  ILE779  LEU786  VAL792 
 PHE793  MET794  SER795  GLU796  ALA797  LYS798  CYS799  TRP800  GLU811  SER814 

> <Gold.Protein.RotatedAtoms>
  152.3041  133.5685  159.5637 H   0  0  0  0  0  0  0  0  0  0  0  0  # atno 6907 bound_to 6896
  150.7291  134.0249  159.3722 H   0  0  0  0  0  0  0  0  0  0  0  0  # atno 6908 bound_to 6896
  151.8147  135.0670  160.0468 H   0  0  0  0  0  0  0  0  0  0  0  0  # atno 6909 bound_to 6896
  146.0927  139.5566  142.9465 H   0  0  0  0  0  0  0  0  0  0  0  0  # atno 7974 bound_to 7965
  155.5884  140.3492  155.4559 H   0  0  0  0  0  0  0  0  0  0  0  0  # atno 8008 bound_to 7997
  156.0320  140.1276  157.0273 H   0  0  0  0  0  0  0  0  0  0  0  0  # atno 8009 bound_to 7997
  154.4356  140.1041  156.6099 H   0  0  0  0  0  0  0  0  0  0  0  0  # atno 8010 bound_to 7997
  139.5986  144.7049  151.3117 H   0  0  0  0  0  0  0  0  0  0  0  0  # atno 10167 bound_to 10162
  156.0031  130.5077  150.5963 H   0  0  0  0  0  0  0  0  0  0  0  0  # atno 10718 bound_to 10713
  154.3994  135.2755  155.2106 H   0  0  0  0  0  0  0  0  0  0  0  0  # atno 10763 bound_to 10752
  154.4138  135.6016  153.5972 H   0  0  0  0  0  0  0  0  0  0  0  0  # atno 10764 bound_to 10752
  152.9831  135.5956  154.4260 H   0  0  0  0  0  0  0  0  0  0  0  0  # atno 10765 bound_to 10752
  140.8034  133.8196  155.9492 H   0  0  0  0  0  0  0  0  0  0  0  0  # atno 11005 bound_to 11000
  145.6008  141.0355  143.2019 LP  0  0  0  0  0  0  0  0  0  0  0  0  # atno 17320 bound_to 7965
  144.7372  139.7552  143.7325 LP  0  0  0  0  0  0  0  0  0  0  0  0  # atno 17321 bound_to 7965
  140.7231  143.7079  150.7793 LP  0  0  0  0  0  0  0  0  0  0  0  0  # atno 17342 bound_to 10162
  140.0650  143.5117  152.2608 LP  0  0  0  0  0  0  0  0  0  0  0  0  # atno 17343 bound_to 10162
  157.3819  131.0782  151.1469 LP  0  0  0  0  0  0  0  0  0  0  0  0  # atno 17370 bound_to 10713
  157.2189  130.6472  149.5803 LP  0  0  0  0  0  0  0  0  0  0  0  0  # atno 17371 bound_to 10713
  140.9272  134.2068  157.4888 LP  0  0  0  0  0  0  0  0  0  0  0  0  # atno 17394 bound_to 11000
  139.8720  134.9817  156.5128 LP  0  0  0  0  0  0  0  0  0  0  0  0  # atno 17395 bound_to 11000

$$$$
