AV-unprocessed.smi:2473|AV-procd|sdf|9745|dock5
  -GOLD-   2272013383D 1   1.00000     0.00000
 Structure written by MMmdl.
 48 49  0  0  0  0  0  0  0  0  2 V2000
  153.6219  141.0947  160.6987 C   0  0  0  0  0  0  0  0  0  0  0  0
  152.5775  141.6256  159.7061 C   0  0  2  0  0  0  0  0  0  0  0  0
  152.5286  140.7621  158.4330 C   0  0  0  0  0  0  0  0  0  0  0  0
  151.4775  141.2893  157.4367 C   0  0  2  0  0  0  0  0  0  0  0  0
  151.4344  140.4377  156.1614 C   0  0  0  0  0  0  0  0  0  0  0  0
  152.4575  140.2427  155.5045 O   0  0  0  0  0  0  0  0  0  0  0  0
  150.2328  139.9594  155.8059 N   0  0  0  0  0  0  0  0  0  0  0  0
  149.9542  139.2086  154.5855 C   0  0  0  0  0  0  0  0  0  0  0  0
  151.0176  138.1312  154.2893 C   0  0  0  0  0  0  0  0  0  0  0  0
  150.6813  136.7745  154.8384 C   0  0  0  0  0  0  0  0  0  0  0  0
  149.7908  135.9292  154.3057 N   0  3  0  0  0  0  0  0  0  0  0  0
  149.7294  134.7748  155.0370 C   0  0  0  0  0  0  0  0  0  0  0  0
  150.6206  134.9220  156.0670 C   0  0  0  0  0  0  0  0  0  0  0  0
  151.1895  136.1616  155.9222 N   0  0  0  0  0  0  0  0  0  0  0  0
  152.1979  136.7585  156.8006 C   0  0  0  0  0  0  0  0  0  0  0  0
  151.7660  142.7652  157.0847 C   0  0  0  0  0  0  0  0  0  0  0  0
  151.8451  143.6918  158.3224 C   0  0  0  0  0  0  0  0  0  0  0  0
  152.3510  145.0762  157.8722 C   0  0  0  0  0  0  0  0  0  0  0  0
  150.4506  143.8847  158.9580 C   0  0  0  0  0  0  0  0  0  0  0  0
  152.8473  143.1022  159.3465 C   0  0  0  0  0  0  0  0  0  0  0  0
  154.6249  141.1206  160.2716 H   0  0  0  0  0  0  0  0  0  0  0  0
  153.4071  140.0638  160.9811 H   0  0  0  0  0  0  0  0  0  0  0  0
  153.6340  141.6898  161.6122 H   0  0  0  0  0  0  0  0  0  0  0  0
  151.6075  141.5593  160.1987 H   0  0  0  0  0  0  0  0  0  0  0  0
  153.5161  140.7505  157.9678 H   0  0  0  0  0  0  0  0  0  0  0  0
  152.3012  139.7286  158.6989 H   0  0  0  0  0  0  0  0  0  0  0  0
  150.4982  141.2229  157.9124 H   0  0  0  0  0  0  0  0  0  0  0  0
  149.4485  140.1569  156.4109 H   0  0  0  0  0  0  0  0  0  0  0  0
  148.9600  138.7621  154.6326 H   0  0  0  0  0  0  0  0  0  0  0  0
  149.9305  139.9270  153.7656 H   0  0  0  0  0  0  0  0  0  0  0  0
  151.1721  138.0343  153.2151 H   0  0  0  0  0  0  0  0  0  0  0  0
  151.9782  138.4161  154.7190 H   0  0  0  0  0  0  0  0  0  0  0  0
  149.0725  133.9574  154.7771 H   0  0  0  0  0  0  0  0  0  0  0  0
  150.8834  134.2531  156.8740 H   0  0  0  0  0  0  0  0  0  0  0  0
  152.4855  136.0397  157.5684 H   0  0  0  0  0  0  0  0  0  0  0  0
  151.7821  137.6476  157.2753 H   0  0  0  0  0  0  0  0  0  0  0  0
  153.0776  137.0285  156.2175 H   0  0  0  0  0  0  0  0  0  0  0  0
  152.7108  142.8195  156.5407 H   0  0  0  0  0  0  0  0  0  0  0  0
  151.0051  143.1377  156.3967 H   0  0  0  0  0  0  0  0  0  0  0  0
  152.4297  145.7639  158.7149 H   0  0  0  0  0  0  0  0  0  0  0  0
  151.6784  145.5271  157.1417 H   0  0  0  0  0  0  0  0  0  0  0  0
  153.3374  145.0119  157.4113 H   0  0  0  0  0  0  0  0  0  0  0  0
  150.4983  144.5569  159.8153 H   0  0  0  0  0  0  0  0  0  0  0  0
  150.0142  142.9507  159.3085 H   0  0  0  0  0  0  0  0  0  0  0  0
  149.7497  144.3186  158.2441 H   0  0  0  0  0  0  0  0  0  0  0  0
  152.8456  143.7074  160.2541 H   0  0  0  0  0  0  0  0  0  0  0  0
  153.8577  143.1783  158.9412 H   0  0  0  0  0  0  0  0  0  0  0  0
  149.2419  136.1196  153.4767 H   0  0  0  0  0  0  0  0  0  0  0  0
  1  2  1  0  0  0  0
  1 21  1  0  0  0  0
  1 22  1  0  0  0  0
  1 23  1  0  0  0  0
  2 20  1  0  0  0  0
  2  3  1  0  0  0  0
  2 24  1  0  0  0  0
  3  4  1  0  0  0  0
  3 25  1  0  0  0  0
  3 26  1  0  0  0  0
  4  5  1  0  0  0  0
  4 16  1  0  0  0  0
  4 27  1  0  0  0  0
  5  6  2  0  0  0  0
  5  7  1  0  0  0  0
  7  8  1  0  0  0  0
  7 28  1  0  0  0  0
  8  9  1  0  0  0  0
  8 29  1  0  0  0  0
  8 30  1  0  0  0  0
  9 10  1  0  0  0  0
  9 31  1  0  0  0  0
  9 32  1  0  0  0  0
 10 14  1  0  0  0  0
 10 11  2  0  0  0  0
 11 12  1  0  0  0  0
 11 48  1  0  0  0  0
 12 13  2  0  0  0  0
 12 33  1  0  0  0  0
 13 14  1  0  0  0  0
 13 34  1  0  0  0  0
 14 15  1  0  0  0  0
 15 35  1  0  0  0  0
 15 36  1  0  0  0  0
 15 37  1  0  0  0  0
 16 17  1  0  0  0  0
 16 38  1  0  0  0  0
 16 39  1  0  0  0  0
 17 18  1  0  0  0  0
 17 19  1  0  0  0  0
 17 20  1  0  0  0  0
 18 40  1  0  0  0  0
 18 41  1  0  0  0  0
 18 42  1  0  0  0  0
 19 43  1  0  0  0  0
 19 44  1  0  0  0  0
 19 45  1  0  0  0  0
 20 46  1  0  0  0  0
 20 47  1  0  0  0  0
M  CHG  1  11   1
M  END
> <s_m_source_file>
AV-unprocessed.smi

> <i_m_source_file_index>
2473

> <i_lp_mmshare_version>
43012

> <i_f3d_flags>
0

> <s_epik_input>
W0NIM11bQ0BASF0oW0NIMl0xKVtDSDJdW0NASF0oW0NIMl1DMShbQ0gzXSlbQ0gzXSlDKD1PKVtOSF1bQ0gyXVtDSDJdYzJuW2NIXVtjSF1uMltDSDNd

> <s_epik_cmdline>
J2VwaWtfcHl0aG9uJywgJy1waCcsICc3LjAnLCAnLXRuJywgJzgnLCAnLW1hJywgJzIwMCcsICctbWV0YWxfYmluZGluZycsICctaW1hZScsICc8aW5maWxlLm1hZT4nLCAnLW9tYWUnLCAnPG91dGZpbGUubWFlPic=

> <r_lp_tautomer_probability>
1

> <r_epik_Ionization_Penalty>
0.0796112

> <r_epik_Ionization_Penalty_Charging>
0

> <r_epik_Ionization_Penalty_Neutral>
0.0796112

> <r_epik_State_Penalty>
0.0704541

> <r_epik_Charging_Adjusted_Penalty>
0.0704541

> <i_epik_Tot_Q>
1

> <i_epik_Tot_abs_Q>
1

> <r_epik_Metal_State_Penalty>
0.409899

> <b_epik_Metal_Only>
0

> <s_lp_Force_Field>
OPLS_2005

> <r_lp_Energy>
16.1806

> <b_lp_Chiralities_Consistent>
1

> <s_lp_Variant>
AV-unprocessed.smi:2473-3

> <Gold.Version>
5.8.1

> <Gold.Id.Protein>
6NUR|6NUR_protein|mol2

> <Gold.PLP.Fitness>
48.0315

> <Gold.PLP.PLP>
-39.4809

> <Gold.PLP.part.hbond>
-3.2797

> <Gold.PLP.part.metal>
0.0000

> <Gold.PLP.part.buried>
-3.7775

> <Gold.PLP.part.nonpolar>
-32.7829

> <Gold.PLP.part.repulsive>
0.1004

> <Gold.PLP.ligand.clash>
0.0000

> <Gold.PLP.ligand.torsion>
0.6402

> <Gold.PLP.Chemscore.Hbond>
3.2694

> <Gold.PLP.Chemscore.CHOScore>
0.0000

> <Gold.PLP.Chemscore.Metal>
0.0000

> <Gold.Chemscore.Hbonds>
donor molecule, donor type, donor heavy atom, donor atom, acceptor molecule, acceptor atom, score
      L1  H    11    48       P1  7948  2.00
      P1  H  7989  7998       L1     6  0.25
      P1  H  7997  8009       L1     6  1.00

> <Gold.PLP.Chemscore.Internal.Correction>
0.0228

> <Gold.Rescore>
     Score         DG    S(hbond)    S(metal)    S(lipo)     H(rot)  DE(clash)    DE(int)     intcor
     17.92     -21.73       1.97        0.00     117.36       1.58       1.70       2.10       ----

> <Gold.Chemscore.Fitness>
17.9245

> <Gold.Chemscore.DG>
-21.7275

> <Gold.Chemscore.ZeroCoef>
-5.4800

> <Gold.Chemscore.Hbond>
1.9660

> <Gold.Chemscore.Metal>
0.0000

> <Gold.Chemscore.Lipo>
117.3559

> <Gold.Chemscore.Internal_Hbond>
0.0000

> <Gold.Chemscore.DEClash>
1.7041

> <Gold.Chemscore.DEInternal>
2.0988

> <Gold.Chemscore.Rot>
1.5818

> <Gold.Chemscore.Internal.Correction>
   9.000000E+99

> <Gold.Chemscore.Hbonds>
donor molecule, donor type, donor heavy atom, donor atom, acceptor molecule, acceptor atom, score
      L1  H    11    48       P1  7948  0.79
      P1  H  7989  7998       L1     6  0.05
      P1  H  7997  8009       L1     6  0.96

> <Gold.Chemscore.Hbond.Weighted>
-6.5663

> <Gold.Chemscore.Metal.Weighted>
-0.0000

> <Gold.Chemscore.Lipo.Weighted>
-13.7306

> <Gold.Chemscore.Internal_Hbond.Weighted>
0.0000

> <Gold.Chemscore.DEClash.Weighted>
1.7041

> <Gold.Chemscore.DEInternal.Weighted>
2.0988

> <Gold.Chemscore.Rot.Weighted>
4.0495

> <Gold.Chemscore.Internal.Correction.Weighted>
   9.000000E+99

> <Gold.Protein.RotatedTorsions>
[ 6907 6896 6895 6894 ] final   17.82 input  -60.11 | X-H torsion
[ 7974 7965 7964 7962 ] final  100.85 input  175.53 | X-H torsion
[ 8008 7997 7996 7995 ] final -146.83 input   59.86 | X-H torsion
[ 10167 10162 10161 10158 ] final  130.92 input  -65.29 | X-H torsion
[ 10718 10713 10712 10709 ] final   29.80 input   66.30 | X-H torsion
[ 10763 10752 10751 10750 ] final  111.15 input  -60.55 | X-H torsion
[ 11005 11000 10999 10996 ] final   48.92 input  -57.11 | X-H torsion

> <Gold.Protein.ActiveResidues>
 VAL166  LYS551  ARG553  GLY616  TRP617  ASP618  TYR619  PRO620  LYS621  CYS622 
 ASP623  PHE694  ASN695  SER759  ASP760  ASP761  ALA762  ILE779  LEU786  VAL792 
 PHE793  MET794  SER795  GLU796  ALA797  LYS798  CYS799  TRP800  GLU811  SER814 

> <Gold.Protein.RotatedAtoms>
  151.8556  135.0542  160.0463 H   0  0  0  0  0  0  0  0  0  0  0  0  # atno 6907 bound_to 6896
  152.2703  133.5372  159.5443 H   0  0  0  0  0  0  0  0  0  0  0  0  # atno 6908 bound_to 6896
  150.7149  134.0623  159.3878 H   0  0  0  0  0  0  0  0  0  0  0  0  # atno 6909 bound_to 6896
  145.3802  139.2381  143.3408 H   0  0  0  0  0  0  0  0  0  0  0  0  # atno 7974 bound_to 7965
  155.5658  140.0629  157.2818 H   0  0  0  0  0  0  0  0  0  0  0  0  # atno 8008 bound_to 7997
  154.4376  140.1877  156.0874 H   0  0  0  0  0  0  0  0  0  0  0  0  # atno 8009 bound_to 7997
  156.0413  140.3295  155.7251 H   0  0  0  0  0  0  0  0  0  0  0  0  # atno 8010 bound_to 7997
  139.5407  144.6728  151.4633 H   0  0  0  0  0  0  0  0  0  0  0  0  # atno 10167 bound_to 10162
  157.2513  130.7116  149.6406 H   0  0  0  0  0  0  0  0  0  0  0  0  # atno 10718 bound_to 10713
  153.4592  135.3726  155.2328 H   0  0  0  0  0  0  0  0  0  0  0  0  # atno 10763 bound_to 10752
  154.8757  135.3904  154.3945 H   0  0  0  0  0  0  0  0  0  0  0  0  # atno 10764 bound_to 10752
  153.4516  135.7085  153.6170 H   0  0  0  0  0  0  0  0  0  0  0  0  # atno 10765 bound_to 10752
  140.1148  134.4906  155.8646 H   0  0  0  0  0  0  0  0  0  0  0  0  # atno 11005 bound_to 11000
  146.2846  140.4468  142.8763 LP  0  0  0  0  0  0  0  0  0  0  0  0  # atno 17320 bound_to 7965
  144.8513  140.7005  143.6166 LP  0  0  0  0  0  0  0  0  0  0  0  0  # atno 17321 bound_to 7965
  140.6636  143.8446  150.6916 LP  0  0  0  0  0  0  0  0  0  0  0  0  # atno 17342 bound_to 10162
  140.1848  143.4085  152.1906 LP  0  0  0  0  0  0  0  0  0  0  0  0  # atno 17343 bound_to 10162
  155.9666  130.4427  150.5390 LP  0  0  0  0  0  0  0  0  0  0  0  0  # atno 17370 bound_to 10713
  157.3275  131.0693  151.1886 LP  0  0  0  0  0  0  0  0  0  0  0  0  # atno 17371 bound_to 10713
  141.2139  133.6740  156.6776 LP  0  0  0  0  0  0  0  0  0  0  0  0  # atno 17394 bound_to 11000
  140.3042  134.8139  157.4123 LP  0  0  0  0  0  0  0  0  0  0  0  0  # atno 17395 bound_to 11000

$$$$
