AV-unprocessed.smi:1232|AV-procd|sdf|5167|dock6
  -GOLD-   22720 4243D 1   1.00000     0.00000
 Structure written by MMmdl.
 53 54  0  0  0  0  0  0  0  0  1 V2000
  145.9517  136.3880  153.3002 C   0  0  0  0  0  0  0  0  0  0  0  0
  146.7463  135.9705  154.5325 C   0  0  0  0  0  0  0  0  0  0  0  0
  146.2212  135.9993  155.6453 O   0  0  0  0  0  0  0  0  0  0  0  0
  148.0161  135.5886  154.3198 N   0  0  0  0  0  0  0  0  0  0  0  0
  148.9666  135.1789  155.3562 C   0  0  2  0  0  0  0  0  0  0  0  0
  150.1756  136.1317  155.3090 C   0  0  0  0  0  0  0  0  0  0  0  0
  151.0474  136.0791  156.1782 O   0  0  0  0  0  0  0  0  0  0  0  0
  150.2126  136.9939  154.2813 N   0  0  0  0  0  0  0  0  0  0  0  0
  151.3001  137.9303  154.0175 C   0  0  0  0  0  0  0  0  0  0  0  0
  151.4590  139.0136  155.0759 C   0  0  0  0  0  0  0  0  0  0  0  0
  150.5129  140.0478  155.2377 C   0  0  0  0  0  0  0  0  0  0  0  0
  150.7299  141.0244  156.2275 C   0  0  0  0  0  0  0  0  0  0  0  0
  151.8861  140.9402  157.0382 C   0  0  0  0  0  0  0  0  0  0  0  0
  152.1267  141.9168  158.0279 N   0  0  0  0  0  0  0  0  0  0  0  0
  151.1328  142.9727  158.2056 C   0  0  0  0  0  0  0  0  0  0  0  0
  151.6929  144.0838  159.1085 C   0  0  0  0  0  0  0  0  0  0  0  0
  152.1297  143.5238  160.3429 O   0  0  0  0  0  0  0  0  0  0  0  0
  153.1750  142.5721  160.1611 C   0  0  1  0  0  0  0  0  0  0  0  0
  153.6369  142.0948  161.5420 C   0  0  0  0  0  0  0  0  0  0  0  0
  152.6599  141.4103  159.2896 C   0  0  0  0  0  0  0  0  0  0  0  0
  152.7825  139.9328  156.8947 N   0  0  0  0  0  0  0  0  0  0  0  0
  152.5714  139.0016  155.9407 C   0  0  0  0  0  0  0  0  0  0  0  0
  149.4179  133.7150  155.0783 C   0  0  0  0  0  0  0  0  0  0  0  0
  150.6053  133.3037  155.9710 C   0  0  0  0  0  0  0  0  0  0  0  0
  149.7876  133.4651  153.6012 C   0  0  0  0  0  0  0  0  0  0  0  0
  146.2929  137.3602  152.9437 H   0  0  0  0  0  0  0  0  0  0  0  0
  144.8885  136.4620  153.5316 H   0  0  0  0  0  0  0  0  0  0  0  0
  146.0759  135.6616  152.4966 H   0  0  0  0  0  0  0  0  0  0  0  0
  148.3611  135.6030  153.3711 H   0  0  0  0  0  0  0  0  0  0  0  0
  148.4860  135.2316  156.3358 H   0  0  0  0  0  0  0  0  0  0  0  0
  149.4536  136.9740  153.6157 H   0  0  0  0  0  0  0  0  0  0  0  0
  152.2307  137.3651  153.9639 H   0  0  0  0  0  0  0  0  0  0  0  0
  151.1581  138.3877  153.0367 H   0  0  0  0  0  0  0  0  0  0  0  0
  149.6316  140.1008  154.6160 H   0  0  0  0  0  0  0  0  0  0  0  0
  150.0066  141.8150  156.3607 H   0  0  0  0  0  0  0  0  0  0  0  0
  150.8546  143.3958  157.2396 H   0  0  0  0  0  0  0  0  0  0  0  0
  150.2309  142.5495  158.6501 H   0  0  0  0  0  0  0  0  0  0  0  0
  152.5187  144.6033  158.6196 H   0  0  0  0  0  0  0  0  0  0  0  0
  150.9228  144.8285  159.3087 H   0  0  0  0  0  0  0  0  0  0  0  0
  154.0166  143.0573  159.6633 H   0  0  0  0  0  0  0  0  0  0  0  0
  154.4466  141.3700  161.4558 H   0  0  0  0  0  0  0  0  0  0  0  0
  152.8212  141.6226  162.0902 H   0  0  0  0  0  0  0  0  0  0  0  0
  154.0011  142.9301  162.1405 H   0  0  0  0  0  0  0  0  0  0  0  0
  151.8677  140.8713  159.8113 H   0  0  0  0  0  0  0  0  0  0  0  0
  153.4697  140.7005  159.1259 H   0  0  0  0  0  0  0  0  0  0  0  0
  153.3192  138.2260  155.8633 H   0  0  0  0  0  0  0  0  0  0  0  0
  148.5902  133.0458  155.3213 H   0  0  0  0  0  0  0  0  0  0  0  0
  151.4689  133.9471  155.7992 H   0  0  0  0  0  0  0  0  0  0  0  0
  150.9123  132.2772  155.7679 H   0  0  0  0  0  0  0  0  0  0  0  0
  150.3578  133.3556  157.0313 H   0  0  0  0  0  0  0  0  0  0  0  0
  150.5816  134.1370  153.2739 H   0  0  0  0  0  0  0  0  0  0  0  0
  148.9367  133.6033  152.9341 H   0  0  0  0  0  0  0  0  0  0  0  0
  150.1381  132.4433  153.4531 H   0  0  0  0  0  0  0  0  0  0  0  0
  1  2  1  0  0  0  0
  1 26  1  0  0  0  0
  1 27  1  0  0  0  0
  1 28  1  0  0  0  0
  2  3  2  0  0  0  0
  2  4  1  0  0  0  0
  4  5  1  0  0  0  0
  4 29  1  0  0  0  0
  5  6  1  0  0  0  0
  5 23  1  0  0  0  0
  5 30  1  0  0  0  0
  6  7  2  0  0  0  0
  6  8  1  0  0  0  0
  8  9  1  0  0  0  0
  8 31  1  0  0  0  0
  9 10  1  0  0  0  0
  9 32  1  0  0  0  0
  9 33  1  0  0  0  0
 10 22  1  0  0  0  0
 10 11  2  0  0  0  0
 11 12  1  0  0  0  0
 11 34  1  0  0  0  0
 12 13  2  0  0  0  0
 12 35  1  0  0  0  0
 13 14  1  0  0  0  0
 13 21  1  0  0  0  0
 14 20  1  0  0  0  0
 14 15  1  0  0  0  0
 15 16  1  0  0  0  0
 15 36  1  0  0  0  0
 15 37  1  0  0  0  0
 16 17  1  0  0  0  0
 16 38  1  0  0  0  0
 16 39  1  0  0  0  0
 17 18  1  0  0  0  0
 18 19  1  0  0  0  0
 18 20  1  0  0  0  0
 18 40  1  0  0  0  0
 19 41  1  0  0  0  0
 19 42  1  0  0  0  0
 19 43  1  0  0  0  0
 20 44  1  0  0  0  0
 20 45  1  0  0  0  0
 21 22  2  0  0  0  0
 22 46  1  0  0  0  0
 23 24  1  0  0  0  0
 23 25  1  0  0  0  0
 23 47  1  0  0  0  0
 24 48  1  0  0  0  0
 24 49  1  0  0  0  0
 24 50  1  0  0  0  0
 25 51  1  0  0  0  0
 25 52  1  0  0  0  0
 25 53  1  0  0  0  0
M  END
> <s_m_source_file>
AV-unprocessed.smi

> <i_m_source_file_index>
1232

> <i_lp_mmshare_version>
43012

> <i_f3d_flags>
0

> <s_epik_input>
W0NIM11DKD1PKVtOSF1bQ0BASF0oW0NIXShbQ0gzXSlbQ0gzXSlDKD1PKVtOSF1bQ0gyXWMxW2NIXVtjSF1jKG5bY0hdMSlOMltDSDJdW0NIMl1PW0NAQEhdKFtDSDNdKVtDSDJdMg==

> <s_epik_cmdline>
J2VwaWtfcHl0aG9uJywgJy1waCcsICc3LjAnLCAnLXRuJywgJzgnLCAnLW1hJywgJzIwMCcsICctbWV0YWxfYmluZGluZycsICctaW1hZScsICc8aW5maWxlLm1hZT4nLCAnLW9tYWUnLCAnPG91dGZpbGUubWFlPic=

> <r_lp_tautomer_probability>
1

> <r_epik_Ionization_Penalty>
0.00557618

> <r_epik_Ionization_Penalty_Charging>
0

> <r_epik_Ionization_Penalty_Neutral>
0.00557618

> <r_epik_State_Penalty>
0.00408363

> <r_epik_Charging_Adjusted_Penalty>
0.00408363

> <i_epik_Tot_Q>
0

> <i_epik_Tot_abs_Q>
0

> <r_epik_Metal_State_Penalty>
-0

> <b_epik_Metal_Only>
0

> <s_lp_Force_Field>
OPLS_2005

> <r_lp_Energy>
17.3881

> <b_lp_Chiralities_Consistent>
1

> <s_lp_Variant>
AV-unprocessed.smi:1232-1

> <Gold.Version>
5.8.1

> <Gold.Id.Protein>
6NUR|6NUR_protein|mol2

> <Gold.PLP.Fitness>
51.8826

> <Gold.PLP.PLP>
-44.2209

> <Gold.PLP.part.hbond>
-3.5300

> <Gold.PLP.part.metal>
0.0000

> <Gold.PLP.part.buried>
-3.6389

> <Gold.PLP.part.nonpolar>
-36.9886

> <Gold.PLP.part.repulsive>
0.1212

> <Gold.PLP.ligand.clash>
0.0000

> <Gold.PLP.ligand.torsion>
0.6681

> <Gold.PLP.Chemscore.Hbond>
2.8800

> <Gold.PLP.Chemscore.CHOScore>
0.0000

> <Gold.PLP.Chemscore.Metal>
0.0000

> <Gold.Chemscore.Hbonds>
donor molecule, donor type, donor heavy atom, donor atom, acceptor molecule, acceptor atom, score
      L1  H     4    29       P1  7948  1.00
      L1  H     8    31       P1  7948  0.80
      P1  H  7997  8010       L1    21  0.95

> <Gold.PLP.Chemscore.Internal.Correction>
0.3578

> <Gold.Rescore>
     Score         DG    S(hbond)    S(metal)    S(lipo)     H(rot)  DE(clash)    DE(int)     intcor
     18.76     -21.01       2.45        0.00     109.38       2.13       0.18       2.07       ----

> <Gold.Chemscore.Fitness>
18.7640

> <Gold.Chemscore.DG>
-21.0102

> <Gold.Chemscore.ZeroCoef>
-5.4800

> <Gold.Chemscore.Hbond>
2.4522

> <Gold.Chemscore.Metal>
0.0000

> <Gold.Chemscore.Lipo>
109.3766

> <Gold.Chemscore.Internal_Hbond>
0.0000

> <Gold.Chemscore.DEClash>
0.1766

> <Gold.Chemscore.DEInternal>
2.0696

> <Gold.Chemscore.Rot>
2.1317

> <Gold.Chemscore.Internal.Correction>
   9.000000E+99

> <Gold.Chemscore.Hbonds>
donor molecule, donor type, donor heavy atom, donor atom, acceptor molecule, acceptor atom, score
      L1  H     4    29       P1  7948  1.00
      L1  H     8    31       P1  7948  0.71
      P1  H  7997  8010       L1    21  0.21
      P1  H 10752 10764       L1     7  0.03

> <Gold.Chemscore.Hbond.Weighted>
-8.1903

> <Gold.Chemscore.Metal.Weighted>
-0.0000

> <Gold.Chemscore.Lipo.Weighted>
-12.7971

> <Gold.Chemscore.Internal_Hbond.Weighted>
0.0000

> <Gold.Chemscore.DEClash.Weighted>
0.1766

> <Gold.Chemscore.DEInternal.Weighted>
2.0696

> <Gold.Chemscore.Rot.Weighted>
5.4572

> <Gold.Chemscore.Internal.Correction.Weighted>
   9.000000E+99

> <Gold.Protein.RotatedTorsions>
[ 6907 6896 6895 6894 ] final  132.62 input  -60.11 | X-H torsion
[ 7974 7965 7964 7962 ] final -128.87 input  175.53 | X-H torsion
[ 8008 7997 7996 7995 ] final   51.47 input   59.86 | X-H torsion
[ 10167 10162 10161 10158 ] final  123.28 input  -65.29 | X-H torsion
[ 10718 10713 10712 10709 ] final  113.69 input   66.30 | X-H torsion
[ 10763 10752 10751 10750 ] final  -39.14 input  -60.55 | X-H torsion
[ 11005 11000 10999 10996 ] final  -28.68 input  -57.11 | X-H torsion

> <Gold.Protein.ActiveResidues>
 VAL166  LYS551  ARG553  GLY616  TRP617  ASP618  TYR619  PRO620  LYS621  CYS622 
 ASP623  PHE694  ASN695  SER759  ASP760  ASP761  ALA762  ILE779  LEU786  VAL792 
 PHE793  MET794  SER795  GLU796  ALA797  LYS798  CYS799  TRP800  GLU811  SER814 

> <Gold.Protein.RotatedAtoms>
  152.3305  133.5953  159.5805 H   0  0  0  0  0  0  0  0  0  0  0  0  # atno 6907 bound_to 6896
  150.7420  133.9875  159.3605 H   0  0  0  0  0  0  0  0  0  0  0  0  # atno 6908 bound_to 6896
  151.7751  135.0777  160.0416 H   0  0  0  0  0  0  0  0  0  0  0  0  # atno 6909 bound_to 6896
  144.9628  140.7465  143.4718 H   0  0  0  0  0  0  0  0  0  0  0  0  # atno 7974 bound_to 7965
  155.4358  140.3452  155.4285 H   0  0  0  0  0  0  0  0  0  0  0  0  # atno 8008 bound_to 7997
  156.1309  140.1514  156.9097 H   0  0  0  0  0  0  0  0  0  0  0  0  # atno 8009 bound_to 7997
  154.4894  140.0846  156.7540 H   0  0  0  0  0  0  0  0  0  0  0  0  # atno 8010 bound_to 7997
  139.5809  144.6985  151.3532 H   0  0  0  0  0  0  0  0  0  0  0  0  # atno 10167 bound_to 10162
  157.6324  131.0987  150.7077 H   0  0  0  0  0  0  0  0  0  0  0  0  # atno 10718 bound_to 10713
  153.9245  135.6778  153.4747 H   0  0  0  0  0  0  0  0  0  0  0  0  # atno 10763 bound_to 10752
  153.1011  135.4827  154.8866 H   0  0  0  0  0  0  0  0  0  0  0  0  # atno 10764 bound_to 10752
  154.7460  135.3172  154.8600 H   0  0  0  0  0  0  0  0  0  0  0  0  # atno 10765 bound_to 10752
  140.9230  133.7387  156.0828 H   0  0  0  0  0  0  0  0  0  0  0  0  # atno 11005 bound_to 11000
  145.2674  139.1968  143.4859 LP  0  0  0  0  0  0  0  0  0  0  0  0  # atno 17320 bound_to 7965
  146.3358  140.2615  142.8602 LP  0  0  0  0  0  0  0  0  0  0  0  0  # atno 17321 bound_to 7965
  140.7087  143.7447  150.7527 LP  0  0  0  0  0  0  0  0  0  0  0  0  # atno 17342 bound_to 10162
  140.0979  143.4815  152.2442 LP  0  0  0  0  0  0  0  0  0  0  0  0  # atno 17343 bound_to 10162
  156.7414  130.4740  149.5477 LP  0  0  0  0  0  0  0  0  0  0  0  0  # atno 17370 bound_to 10713
  156.1537  130.6327  151.0629 LP  0  0  0  0  0  0  0  0  0  0  0  0  # atno 17371 bound_to 10713
  140.7963  134.3560  157.5451 LP  0  0  0  0  0  0  0  0  0  0  0  0  # atno 17394 bound_to 11000
  139.8779  134.9171  156.3170 LP  0  0  0  0  0  0  0  0  0  0  0  0  # atno 17395 bound_to 11000

$$$$
