AV-unprocessed.smi:897|AV-procd|sdf|4079|dock5
  -GOLD-   22720 1563D 1   1.00000     0.00000
 Structure written by MMmdl.
 35 37  0  0  0  0  0  0  0  0  1 V2000
  151.2833  145.2873  159.0411 C   0  0  0  0  0  0  0  0  0  0  0  0
  151.8221  143.8943  159.2901 C   0  0  0  0  0  0  0  0  0  0  0  0
  152.4919  143.5792  160.4869 C   0  0  0  0  0  0  0  0  0  0  0  0
  152.9747  142.2672  160.6664 C   0  0  0  0  0  0  0  0  0  0  0  0
  153.7055  141.9168  161.9537 C   0  0  0  0  0  0  0  0  0  0  0  0
  152.7623  141.3148  159.6353 C   0  0  0  0  0  0  0  0  0  0  0  0
  153.2424  139.9420  159.7844 C   0  0  0  0  0  0  0  0  0  0  0  0
  153.6221  138.8554  159.9026 N   0  0  0  0  0  0  0  0  0  0  0  0
  152.0717  141.7311  158.4635 C   0  0  0  0  0  0  0  0  0  0  0  0
  151.8395  140.8250  157.4117 N   0  0  0  0  0  0  0  0  0  0  0  0
  150.5078  140.6279  156.8487 C   0  0  2  0  0  0  0  0  0  0  0  0
  150.1813  139.1536  156.5768 C   0  0  0  0  0  0  0  0  0  0  0  0
  149.8340  139.1752  155.0833 C   0  0  1  0  0  0  0  0  0  0  0  0
  148.5155  139.9089  154.8025 C   0  0  0  0  0  0  0  0  0  0  0  0
  148.9165  141.3673  155.0230 C   0  0  0  0  0  0  0  0  0  0  0  0
  150.3873  141.2313  155.4390 C   0  0  2  0  0  0  0  0  0  0  0  0
  150.7708  140.1339  154.6255 O   0  0  0  0  0  0  0  0  0  0  0  0
  151.6179  142.9976  158.3045 N   0  0  0  0  0  0  0  0  0  0  0  0
  151.5731  145.9724  159.8385 H   0  0  0  0  0  0  0  0  0  0  0  0
  150.1944  145.2675  158.9870 H   0  0  0  0  0  0  0  0  0  0  0  0
  151.6678  145.6814  158.0999 H   0  0  0  0  0  0  0  0  0  0  0  0
  152.6330  144.3295  161.2512 H   0  0  0  0  0  0  0  0  0  0  0  0
  153.1728  141.1346  162.4951 H   0  0  0  0  0  0  0  0  0  0  0  0
  153.7892  142.7824  162.6112 H   0  0  0  0  0  0  0  0  0  0  0  0
  154.7141  141.5640  161.7376 H   0  0  0  0  0  0  0  0  0  0  0  0
  152.5577  140.1560  157.1737 H   0  0  0  0  0  0  0  0  0  0  0  0
  149.7695  141.0866  157.5081 H   0  0  0  0  0  0  0  0  0  0  0  0
  151.0456  138.5105  156.7509 H   0  0  0  0  0  0  0  0  0  0  0  0
  149.3588  138.7863  157.1912 H   0  0  0  0  0  0  0  0  0  0  0  0
  149.9132  138.2024  154.5977 H   0  0  0  0  0  0  0  0  0  0  0  0
  148.1942  139.7530  153.7720 H   0  0  0  0  0  0  0  0  0  0  0  0
  147.7126  139.5842  155.4652 H   0  0  0  0  0  0  0  0  0  0  0  0
  148.8287  141.9322  154.0942 H   0  0  0  0  0  0  0  0  0  0  0  0
  148.3118  141.8643  155.7824 H   0  0  0  0  0  0  0  0  0  0  0  0
  150.9699  142.1400  155.2825 H   0  0  0  0  0  0  0  0  0  0  0  0
  1  2  1  0  0  0  0
  1 19  1  0  0  0  0
  1 20  1  0  0  0  0
  1 21  1  0  0  0  0
  2 18  1  0  0  0  0
  2  3  2  0  0  0  0
  3  4  1  0  0  0  0
  3 22  1  0  0  0  0
  4  5  1  0  0  0  0
  4  6  2  0  0  0  0
  5 23  1  0  0  0  0
  5 24  1  0  0  0  0
  5 25  1  0  0  0  0
  6  7  1  0  0  0  0
  6  9  1  0  0  0  0
  7  8  3  0  0  0  0
  9 10  1  0  0  0  0
  9 18  2  0  0  0  0
 10 11  1  0  0  0  0
 10 26  1  0  0  0  0
 11 16  1  0  0  0  0
 11 12  1  0  0  0  0
 11 27  1  0  0  0  0
 12 13  1  0  0  0  0
 12 28  1  0  0  0  0
 12 29  1  0  0  0  0
 13 17  1  0  0  0  0
 13 14  1  0  0  0  0
 13 30  1  0  0  0  0
 14 15  1  0  0  0  0
 14 31  1  0  0  0  0
 14 32  1  0  0  0  0
 15 16  1  0  0  0  0
 15 33  1  0  0  0  0
 15 34  1  0  0  0  0
 16 17  1  0  0  0  0
 16 35  1  0  0  0  0
M  END
> <s_m_source_file>
AV-unprocessed.smi

> <i_m_source_file_index>
897

> <i_lp_mmshare_version>
43012

> <i_f3d_flags>
0

> <s_epik_input>
W0NIM11jMVtjSF1jKFtDSDNdKWMoQyNOKWMobjEpW05IXVtDQEhdKFtDSDJdW0NAQEhdMjMpW0NAQEhdKE8zKVtDSDJdW0NIMl0y

> <s_epik_cmdline>
J2VwaWtfcHl0aG9uJywgJy1waCcsICc3LjAnLCAnLXRuJywgJzgnLCAnLW1hJywgJzIwMCcsICctbWV0YWxfYmluZGluZycsICctaW1hZScsICc8aW5maWxlLm1hZT4nLCAnLW9tYWUnLCAnPG91dGZpbGUubWFlPic=

> <r_lp_tautomer_probability>
1

> <r_epik_Ionization_Penalty>
0.000502654

> <r_epik_Ionization_Penalty_Charging>
0

> <r_epik_Ionization_Penalty_Neutral>
0.000502654

> <r_epik_State_Penalty>
-0

> <r_epik_Charging_Adjusted_Penalty>
0

> <i_epik_Tot_Q>
0

> <i_epik_Tot_abs_Q>
0

> <r_epik_Metal_State_Penalty>
-0

> <b_epik_Metal_Only>
0

> <s_lp_Force_Field>
OPLS_2005

> <r_lp_Energy>
43.6406

> <b_lp_Chiralities_Consistent>
1

> <s_lp_Variant>
AV-unprocessed.smi:897-1

> <Gold.Version>
5.8.1

> <Gold.Id.Protein>
6NUR|6NUR_protein|mol2

> <Gold.PLP.Fitness>
39.2554

> <Gold.PLP.PLP>
-37.5235

> <Gold.PLP.part.hbond>
-1.0000

> <Gold.PLP.part.metal>
0.0000

> <Gold.PLP.part.buried>
-4.8168

> <Gold.PLP.part.nonpolar>
-31.6134

> <Gold.PLP.part.repulsive>
0.2281

> <Gold.PLP.ligand.clash>
0.0000

> <Gold.PLP.ligand.torsion>
0.6441

> <Gold.PLP.Chemscore.Hbond>
1.0000

> <Gold.PLP.Chemscore.CHOScore>
0.0000

> <Gold.PLP.Chemscore.Metal>
0.0000

> <Gold.Chemscore.Hbonds>
donor molecule, donor type, donor heavy atom, donor atom, acceptor molecule, acceptor atom, score
      P1  H  7989  7998       L1    17  1.00

> <Gold.PLP.Chemscore.Internal.Correction>
0.0202

> <Gold.Rescore>
     Score         DG    S(hbond)    S(metal)    S(lipo)     H(rot)  DE(clash)    DE(int)     intcor
     16.81     -17.58       0.91        0.00      99.19       1.00       0.02       0.75       ----

> <Gold.Chemscore.Fitness>
16.8117

> <Gold.Chemscore.DG>
-17.5762

> <Gold.Chemscore.ZeroCoef>
-5.4800

> <Gold.Chemscore.Hbond>
0.9135

> <Gold.Chemscore.Metal>
0.0000

> <Gold.Chemscore.Lipo>
99.1874

> <Gold.Chemscore.Internal_Hbond>
0.0000

> <Gold.Chemscore.DEClash>
0.0153

> <Gold.Chemscore.DEInternal>
0.7492

> <Gold.Chemscore.Rot>
1.0000

> <Gold.Chemscore.Internal.Correction>
   9.000000E+99

> <Gold.Chemscore.Hbonds>
donor molecule, donor type, donor heavy atom, donor atom, acceptor molecule, acceptor atom, score
      P1  H  7989  7998       L1    17  0.29

> <Gold.Chemscore.Hbond.Weighted>
-3.0512

> <Gold.Chemscore.Metal.Weighted>
-0.0000

> <Gold.Chemscore.Lipo.Weighted>
-11.6049

> <Gold.Chemscore.Internal_Hbond.Weighted>
0.0000

> <Gold.Chemscore.DEClash.Weighted>
0.0153

> <Gold.Chemscore.DEInternal.Weighted>
0.7492

> <Gold.Chemscore.Rot.Weighted>
2.5600

> <Gold.Chemscore.Internal.Correction.Weighted>
   9.000000E+99

> <Gold.Protein.RotatedTorsions>
[ 6907 6896 6895 6894 ] final   31.54 input  -60.11 | X-H torsion
[ 7974 7965 7964 7962 ] final  143.97 input  175.53 | X-H torsion
[ 8008 7997 7996 7995 ] final -100.87 input   59.86 | X-H torsion
[ 10167 10162 10161 10158 ] final -147.69 input  -65.29 | X-H torsion
[ 10718 10713 10712 10709 ] final -145.21 input   66.30 | X-H torsion
[ 10763 10752 10751 10750 ] final   -6.56 input  -60.55 | X-H torsion
[ 11005 11000 10999 10996 ] final  -76.70 input  -57.11 | X-H torsion

> <Gold.Protein.ActiveResidues>
 VAL166  LYS551  ARG553  GLY616  TRP617  ASP618  TYR619  PRO620  LYS621  CYS622 
 ASP623  PHE694  ASN695  SER759  ASP760  ASP761  ALA762  ILE779  LEU786  VAL792 
 PHE793  MET794  SER795  GLU796  ALA797  LYS798  CYS799  TRP800  GLU811  SER814 

> <Gold.Protein.RotatedAtoms>
  152.0617  134.9590  160.0574 H   0  0  0  0  0  0  0  0  0  0  0  0  # atno 6907 bound_to 6896
  152.0951  133.4215  159.4569 H   0  0  0  0  0  0  0  0  0  0  0  0  # atno 6908 bound_to 6896
  150.6838  134.2746  159.4645 H   0  0  0  0  0  0  0  0  0  0  0  0  # atno 6909 bound_to 6896
  144.8875  139.5607  143.5814 H   0  0  0  0  0  0  0  0  0  0  0  0  # atno 7974 bound_to 7965
  154.8346  140.0438  157.1500 H   0  0  0  0  0  0  0  0  0  0  0  0  # atno 8008 bound_to 7997
  154.9114  140.3014  155.5244 H   0  0  0  0  0  0  0  0  0  0  0  0  # atno 8009 bound_to 7997
  156.2989  140.2357  156.4154 H   0  0  0  0  0  0  0  0  0  0  0  0  # atno 8010 bound_to 7997
  139.7599  143.8392  152.2605 H   0  0  0  0  0  0  0  0  0  0  0  0  # atno 10167 bound_to 10162
  156.3796  130.7830  151.2021 H   0  0  0  0  0  0  0  0  0  0  0  0  # atno 10718 bound_to 10713
  153.4141  135.7008  153.6339 H   0  0  0  0  0  0  0  0  0  0  0  0  # atno 10763 bound_to 10752
  153.4821  135.3691  155.2448 H   0  0  0  0  0  0  0  0  0  0  0  0  # atno 10764 bound_to 10752
  154.8718  135.4068  154.3498 H   0  0  0  0  0  0  0  0  0  0  0  0  # atno 10765 bound_to 10752
  141.1655  133.6993  156.7708 H   0  0  0  0  0  0  0  0  0  0  0  0  # atno 11005 bound_to 11000
  146.3033  139.7498  142.9075 LP  0  0  0  0  0  0  0  0  0  0  0  0  # atno 17320 bound_to 7965
  145.3842  141.0363  143.3160 LP  0  0  0  0  0  0  0  0  0  0  0  0  # atno 17321 bound_to 7965
  139.8395  144.7216  150.9348 LP  0  0  0  0  0  0  0  0  0  0  0  0  # atno 17342 bound_to 10162
  140.7806  143.3996  151.1171 LP  0  0  0  0  0  0  0  0  0  0  0  0  # atno 17343 bound_to 10162
  157.7491  131.0348  150.4334 LP  0  0  0  0  0  0  0  0  0  0  0  0  # atno 17370 bound_to 10713
  156.4575  130.4025  149.6597 LP  0  0  0  0  0  0  0  0  0  0  0  0  # atno 17371 bound_to 10713
  140.2465  134.8573  157.3625 LP  0  0  0  0  0  0  0  0  0  0  0  0  # atno 17394 bound_to 11000
  140.1744  134.4568  155.7811 LP  0  0  0  0  0  0  0  0  0  0  0  0  # atno 17395 bound_to 11000

$$$$
