AV-unprocessed.smi:1550|AV-procd|sdf|6231|dock2
  -GOLD-   22720 6413D 1   1.00000     0.00000
 Structure written by MMmdl.
 42 43  0  0  0  0  0  0  0  0  2 V2000
  150.3096  137.1070  155.6936 C   0  0  0  0  0  0  0  0  0  0  0  0
  150.1253  138.4897  155.0511 C   0  0  1  0  0  0  0  0  0  0  0  0
  148.7564  138.8549  155.2038 O   0  0  0  0  0  0  0  0  0  0  0  0
  148.1824  139.5465  154.0999 C   0  0  0  0  0  0  0  0  0  0  0  0
  147.5937  140.8726  154.5977 C   0  0  1  0  0  0  0  0  0  0  0  0
  147.0475  141.7374  153.4441 C   0  0  0  0  0  0  0  0  0  0  0  0
  146.3879  143.0095  153.9878 C   0  0  0  0  0  0  0  0  0  0  0  0
  145.3456  142.6372  155.0472 C   0  0  0  0  0  0  0  0  0  0  0  0
  145.9747  141.7338  156.1199 C   0  0  0  0  0  0  0  0  0  0  0  0
  146.5389  140.5762  155.5108 O   0  0  0  0  0  0  0  0  0  0  0  0
  151.0323  139.5386  155.7148 C   0  0  0  0  0  0  0  0  0  0  0  0
  151.8741  140.1248  155.0345 O   0  0  0  0  0  0  0  0  0  0  0  0
  150.8418  139.7088  157.0379 N   0  0  0  0  0  0  0  0  0  0  0  0
  151.4889  140.5740  157.9368 C   0  0  0  0  0  0  0  0  0  0  0  0
  151.2969  141.9210  158.0013 C   0  0  0  0  0  0  0  0  0  0  0  0
  151.9928  142.7634  158.9662 C   0  0  0  0  0  0  0  0  0  0  0  0
  151.8814  144.2775  158.9982 C   0  0  0  0  0  0  0  0  0  0  0  0
  152.8346  144.8186  158.2407 F   0  0  0  0  0  0  0  0  0  0  0  0
  150.6997  144.6816  158.5310 F   0  0  0  0  0  0  0  0  0  0  0  0
  152.0236  144.7411  160.2399 F   0  0  0  0  0  0  0  0  0  0  0  0
  152.8490  142.0390  159.7727 C   0  0  0  0  0  0  0  0  0  0  0  0
  153.0747  140.7073  159.7941 N   0  5  0  0  0  0  0  0  0  0  0  0
  152.4187  139.9295  158.8876 C   0  0  0  0  0  0  0  0  0  0  0  0
  152.5835  138.7096  158.8470 O   0  0  0  0  0  0  0  0  0  0  0  0
  151.3457  136.7734  155.6248 H   0  0  0  0  0  0  0  0  0  0  0  0
  149.6909  136.3629  155.1915 H   0  0  0  0  0  0  0  0  0  0  0  0
  150.0273  137.1122  156.7472 H   0  0  0  0  0  0  0  0  0  0  0  0
  150.3624  138.4075  153.9882 H   0  0  0  0  0  0  0  0  0  0  0  0
  148.9124  139.7353  153.3118 H   0  0  0  0  0  0  0  0  0  0  0  0
  147.3912  138.9317  153.6686 H   0  0  0  0  0  0  0  0  0  0  0  0
  148.3712  141.4188  155.1347 H   0  0  0  0  0  0  0  0  0  0  0  0
  147.8496  142.0003  152.7536 H   0  0  0  0  0  0  0  0  0  0  0  0
  146.3168  141.1658  152.8702 H   0  0  0  0  0  0  0  0  0  0  0  0
  147.1464  143.6565  154.4298 H   0  0  0  0  0  0  0  0  0  0  0  0
  145.9247  143.5742  153.1785 H   0  0  0  0  0  0  0  0  0  0  0  0
  144.9330  143.5371  155.5039 H   0  0  0  0  0  0  0  0  0  0  0  0
  144.5126  142.1151  154.5744 H   0  0  0  0  0  0  0  0  0  0  0  0
  146.7398  142.2717  156.6820 H   0  0  0  0  0  0  0  0  0  0  0  0
  145.2163  141.4198  156.8372 H   0  0  0  0  0  0  0  0  0  0  0  0
  150.1555  139.1059  157.4685 H   0  0  0  0  0  0  0  0  0  0  0  0
  150.6010  142.4150  157.3443 H   0  0  0  0  0  0  0  0  0  0  0  0
  153.4471  142.6178  160.5084 H   0  0  0  0  0  0  0  0  0  0  0  0
  1  2  1  0  0  0  0
  1 25  1  0  0  0  0
  1 26  1  0  0  0  0
  1 27  1  0  0  0  0
  2  3  1  0  0  0  0
  2 11  1  0  0  0  0
  2 28  1  0  0  0  0
  3  4  1  0  0  0  0
  4  5  1  0  0  0  0
  4 29  1  0  0  0  0
  4 30  1  0  0  0  0
  5 10  1  0  0  0  0
  5  6  1  0  0  0  0
  5 31  1  0  0  0  0
  6  7  1  0  0  0  0
  6 32  1  0  0  0  0
  6 33  1  0  0  0  0
  7  8  1  0  0  0  0
  7 34  1  0  0  0  0
  7 35  1  0  0  0  0
  8  9  1  0  0  0  0
  8 36  1  0  0  0  0
  8 37  1  0  0  0  0
  9 10  1  0  0  0  0
  9 38  1  0  0  0  0
  9 39  1  0  0  0  0
 11 12  2  0  0  0  0
 11 13  1  0  0  0  0
 13 14  1  0  0  0  0
 13 40  1  0  0  0  0
 14 23  1  0  0  0  0
 14 15  2  0  0  0  0
 15 16  1  0  0  0  0
 15 41  1  0  0  0  0
 16 17  1  0  0  0  0
 16 21  2  0  0  0  0
 17 18  1  0  0  0  0
 17 19  1  0  0  0  0
 17 20  1  0  0  0  0
 21 22  1  0  0  0  0
 21 42  1  0  0  0  0
 22 23  1  0  0  0  0
 23 24  2  0  0  0  0
M  CHG  1  22  -1
M  END
> <s_m_source_file>
AV-unprocessed.smi

> <i_m_source_file_index>
1550

> <i_lp_mmshare_version>
43012

> <i_f3d_flags>
0

> <s_epik_input>
TzFbQ0gyXVtDSDJdW0NIMl1bQ0gyXVtDQEhdMVtDSDJdT1tDQEBIXShbQ0gzXSlDKD1PKVtOSF1jMltjSF1jKEMoRikoRilGKVtjSF1bbkhdYzI9Tw==

> <s_epik_cmdline>
J2VwaWtfcHl0aG9uJywgJy1waCcsICc3LjAnLCAnLXRuJywgJzgnLCAnLW1hJywgJzIwMCcsICctbWV0YWxfYmluZGluZycsICctaW1hZScsICc8aW5maWxlLm1hZT4nLCAnLW9tYWUnLCAnPG91dGZpbGUubWFlPic=

> <r_epik_Ionization_Penalty>
2.54933

> <r_epik_Ionization_Penalty_Charging>
0.0583423

> <r_epik_Ionization_Penalty_Neutral>
2.49099

> <r_epik_State_Penalty>
2.65532

> <r_epik_Charging_Adjusted_Penalty>
2.71366

> <i_epik_Tot_Q>
-1

> <i_epik_Tot_abs_Q>
1

> <r_epik_Metal_State_Penalty>
0.516364

> <b_epik_Metal_Only>
0

> <s_lp_Force_Field>
OPLS_2005

> <r_lp_Energy>
27.8976

> <b_lp_Chiralities_Consistent>
1

> <s_lp_Variant>
AV-unprocessed.smi:1550-8

> <Gold.Version>
5.8.1

> <Gold.Id.Protein>
6NUR|6NUR_protein|mol2

> <Gold.PLP.Fitness>
44.5910

> <Gold.PLP.PLP>
-46.9969

> <Gold.PLP.part.hbond>
-1.0000

> <Gold.PLP.part.metal>
0.0000

> <Gold.PLP.part.buried>
-8.3464

> <Gold.PLP.part.nonpolar>
-38.9030

> <Gold.PLP.part.repulsive>
0.2069

> <Gold.PLP.ligand.clash>
0.0000

> <Gold.PLP.ligand.torsion>
2.6335

> <Gold.PLP.Chemscore.Hbond>
0.8640

> <Gold.PLP.Chemscore.CHOScore>
0.0000

> <Gold.PLP.Chemscore.Metal>
0.0000

> <Gold.Chemscore.Hbonds>
donor molecule, donor type, donor heavy atom, donor atom, acceptor molecule, acceptor atom, score
      P1  H  7989  7998       L1    12  0.86

> <Gold.PLP.Chemscore.Internal.Correction>
0.2692

> <Gold.Rescore>
     Score         DG    S(hbond)    S(metal)    S(lipo)     H(rot)  DE(clash)    DE(int)     intcor
     12.02     -14.11       0.97        0.00      86.01       1.82       0.04       2.05       ----

> <Gold.Chemscore.Fitness>
12.0178

> <Gold.Chemscore.DG>
-14.1082

> <Gold.Chemscore.ZeroCoef>
-5.4800

> <Gold.Chemscore.Hbond>
0.9681

> <Gold.Chemscore.Metal>
0.0000

> <Gold.Chemscore.Lipo>
86.0091

> <Gold.Chemscore.Internal_Hbond>
0.0000

> <Gold.Chemscore.DEClash>
0.0421

> <Gold.Chemscore.DEInternal>
2.0483

> <Gold.Chemscore.Rot>
1.8236

> <Gold.Chemscore.Internal.Correction>
   9.000000E+99

> <Gold.Chemscore.Hbonds>
donor molecule, donor type, donor heavy atom, donor atom, acceptor molecule, acceptor atom, score
      P1  H  7989  7998       L1    12  0.86

> <Gold.Chemscore.Hbond.Weighted>
-3.2335

> <Gold.Chemscore.Metal.Weighted>
-0.0000

> <Gold.Chemscore.Lipo.Weighted>
-10.0631

> <Gold.Chemscore.Internal_Hbond.Weighted>
0.0000

> <Gold.Chemscore.DEClash.Weighted>
0.0421

> <Gold.Chemscore.DEInternal.Weighted>
2.0483

> <Gold.Chemscore.Rot.Weighted>
4.6684

> <Gold.Chemscore.Internal.Correction.Weighted>
   9.000000E+99

> <Gold.Protein.RotatedTorsions>
[ 6907 6896 6895 6894 ] final   59.29 input  -60.11 | X-H torsion
[ 7974 7965 7964 7962 ] final   -4.90 input  175.53 | X-H torsion
[ 8008 7997 7996 7995 ] final  101.12 input   59.86 | X-H torsion
[ 10167 10162 10161 10158 ] final -134.13 input  -65.29 | X-H torsion
[ 10718 10713 10712 10709 ] final -126.72 input   66.30 | X-H torsion
[ 10763 10752 10751 10750 ] final -162.07 input  -60.55 | X-H torsion
[ 11005 11000 10999 10996 ] final   65.56 input  -57.11 | X-H torsion

> <Gold.Protein.ActiveResidues>
 VAL166  LYS551  ARG553  GLY616  TRP617  ASP618  TYR619  PRO620  LYS621  CYS622 
 ASP623  PHE694  ASN695  SER759  ASP760  ASP761  ALA762  ILE779  LEU786  VAL792 
 PHE793  MET794  SER795  GLU796  ALA797  LYS798  CYS799  TRP800  GLU811  SER814 

> <Gold.Protein.RotatedAtoms>
  152.3902  134.6454  160.0110 H   0  0  0  0  0  0  0  0  0  0  0  0  # atno 6907 bound_to 6896
  151.6690  133.3309  159.3200 H   0  0  0  0  0  0  0  0  0  0  0  0  # atno 6908 bound_to 6896
  150.7819  134.6815  159.6491 H   0  0  0  0  0  0  0  0  0  0  0  0  # atno 6909 bound_to 6896
  146.2363  140.1940  142.8333 H   0  0  0  0  0  0  0  0  0  0  0  0  # atno 7974 bound_to 7965
  156.1269  140.3202  155.8290 H   0  0  0  0  0  0  0  0  0  0  0  0  # atno 8008 bound_to 7997
  155.4403  140.0525  157.3028 H   0  0  0  0  0  0  0  0  0  0  0  0  # atno 8009 bound_to 7997
  154.4869  140.2076  155.9648 H   0  0  0  0  0  0  0  0  0  0  0  0  # atno 8010 bound_to 7997
  139.8911  143.6721  152.2612 H   0  0  0  0  0  0  0  0  0  0  0  0  # atno 10167 bound_to 10162
  156.1791  130.6720  151.0281 H   0  0  0  0  0  0  0  0  0  0  0  0  # atno 10718 bound_to 10713
  154.7247  135.3033  154.8990 H   0  0  0  0  0  0  0  0  0  0  0  0  # atno 10763 bound_to 10752
  153.9850  135.6725  153.4755 H   0  0  0  0  0  0  0  0  0  0  0  0  # atno 10764 bound_to 10752
  153.0865  135.4981  154.8525 H   0  0  0  0  0  0  0  0  0  0  0  0  # atno 10765 bound_to 10752
  139.9887  134.6626  156.0130 H   0  0  0  0  0  0  0  0  0  0  0  0  # atno 11005 bound_to 11000
  144.9835  140.8481  143.5383 LP  0  0  0  0  0  0  0  0  0  0  0  0  # atno 17320 bound_to 7965
  145.1936  139.2288  143.5229 LP  0  0  0  0  0  0  0  0  0  0  0  0  # atno 17321 bound_to 7965
  139.7109  144.7620  151.1115 LP  0  0  0  0  0  0  0  0  0  0  0  0  # atno 17342 bound_to 10162
  140.7726  143.5333  150.9398 LP  0  0  0  0  0  0  0  0  0  0  0  0  # atno 17343 bound_to 10162
  157.6856  131.0826  150.7252 LP  0  0  0  0  0  0  0  0  0  0  0  0  # atno 17370 bound_to 10713
  156.7309  130.4709  149.5500 LP  0  0  0  0  0  0  0  0  0  0  0  0  # atno 17371 bound_to 10713
  141.1547  133.6544  156.4124 LP  0  0  0  0  0  0  0  0  0  0  0  0  # atno 17394 bound_to 11000
  140.4951  134.6538  157.5226 LP  0  0  0  0  0  0  0  0  0  0  0  0  # atno 17395 bound_to 11000

$$$$
