AV-unprocessed.smi:249|AV-procd|sdf|1914|dock10
  -GOLD-   2262021 13D 1   1.00000     0.00000
 Structure written by MMmdl.
 64 67  0  0  0  0  0  0  0  0  2 V2000
  145.4163  132.1854  151.9891 C   0  0  0  0  0  0  0  0  0  0  0  0
  146.0897  133.5330  151.6952 C   0  0  0  0  0  0  0  0  0  0  0  0
  147.1678  133.8518  152.6671 N   0  3  2  0  0  0  0  0  0  0  0  0
  148.1303  132.7359  152.8756 C   0  0  0  0  0  0  0  0  0  0  0  0
  149.3250  133.1893  153.7285 C   0  0  0  0  0  0  0  0  0  0  0  0
  148.8553  133.7494  155.0855 C   0  0  1  0  0  0  0  0  0  0  0  0
  149.9532  134.1299  155.9838 N   0  0  0  0  0  0  0  0  0  0  0  0
  150.7362  133.0540  156.5804 C   0  0  0  0  0  0  0  0  0  0  0  0
  149.7612  135.1933  156.8003 C   0  0  0  0  0  0  0  0  0  0  0  0
  148.6073  135.2349  157.5124 N   0  0  0  0  0  0  0  0  0  0  0  0
  148.3577  136.2653  158.3258 C   0  0  0  0  0  0  0  0  0  0  0  0
  149.1125  137.3386  158.5684 N   0  0  0  0  0  0  0  0  0  0  0  0
  150.2720  137.3031  157.8514 C   0  0  0  0  0  0  0  0  0  0  0  0
  150.6733  136.2772  156.9496 C   0  0  0  0  0  0  0  0  0  0  0  0
  151.9174  136.5828  156.4096 N   0  0  0  0  0  0  0  0  0  0  0  0
  152.2307  137.7256  156.9562 C   0  0  0  0  0  0  0  0  0  0  0  0
  151.3023  138.2270  157.8394 N   0  0  0  0  0  0  0  0  0  0  0  0
  151.4009  139.4715  158.5824 C   0  0  0  0  0  0  0  0  0  0  0  0
  151.1195  140.7236  157.7149 C   0  0  2  0  0  0  0  0  0  0  0  0
  151.7779  140.6403  156.3161 C   0  0  0  0  0  0  0  0  0  0  0  0
  150.8186  140.4006  155.3070 O   0  0  0  0  0  0  0  0  0  0  0  0
  151.4894  142.0312  158.4608 C   0  0  2  0  0  0  0  0  0  0  0  0
  151.4690  143.2833  157.6013 C   0  0  0  0  0  0  0  0  0  0  0  0
  152.2935  144.2587  158.4335 C   0  0  0  0  0  0  0  0  0  0  0  0
  153.2613  143.4638  159.1088 O   0  0  0  0  0  0  0  0  0  0  0  0
  152.9261  142.0844  158.9913 C   0  0  0  0  0  0  0  0  0  0  0  0
  147.8457  134.8902  154.8338 C   0  0  0  0  0  0  0  0  0  0  0  0
  146.6668  134.4363  153.9470 C   0  0  2  0  0  0  0  0  0  0  0  0
  145.6857  133.5125  154.7015 C   0  0  0  0  0  0  0  0  0  0  0  0
  144.6850  131.9476  151.2164 H   0  0  0  0  0  0  0  0  0  0  0  0
  144.8884  132.1888  152.9422 H   0  0  0  0  0  0  0  0  0  0  0  0
  146.1472  131.3768  152.0112 H   0  0  0  0  0  0  0  0  0  0  0  0
  146.5127  133.4790  150.6911 H   0  0  0  0  0  0  0  0  0  0  0  0
  145.3492  134.3336  151.6776 H   0  0  0  0  0  0  0  0  0  0  0  0
  147.6295  131.8877  153.3431 H   0  0  0  0  0  0  0  0  0  0  0  0
  148.5053  132.3804  151.9167 H   0  0  0  0  0  0  0  0  0  0  0  0
  150.0041  132.3504  153.8850 H   0  0  0  0  0  0  0  0  0  0  0  0
  149.8821  133.9446  153.1730 H   0  0  0  0  0  0  0  0  0  0  0  0
  148.3296  132.9440  155.5994 H   0  0  0  0  0  0  0  0  0  0  0  0
  151.5574  133.4516  157.1786 H   0  0  0  0  0  0  0  0  0  0  0  0
  151.1689  132.4291  155.7989 H   0  0  0  0  0  0  0  0  0  0  0  0
  150.1237  132.4186  157.2197 H   0  0  0  0  0  0  0  0  0  0  0  0
  147.4184  136.2250  158.8575 H   0  0  0  0  0  0  0  0  0  0  0  0
  153.1558  138.2368  156.7320 H   0  0  0  0  0  0  0  0  0  0  0  0
  150.6949  139.4122  159.4106 H   0  0  0  0  0  0  0  0  0  0  0  0
  152.3929  139.5350  159.0308 H   0  0  0  0  0  0  0  0  0  0  0  0
  150.0424  140.7494  157.5424 H   0  0  0  0  0  0  0  0  0  0  0  0
  152.3136  141.5593  156.0783 H   0  0  0  0  0  0  0  0  0  0  0  0
  152.5220  139.8448  156.2848 H   0  0  0  0  0  0  0  0  0  0  0  0
  150.1038  139.9078  155.6798 H   0  0  0  0  0  0  0  0  0  0  0  0
  150.8052  142.1811  159.2979 H   0  0  0  0  0  0  0  0  0  0  0  0
  151.9610  143.0989  156.6452 H   0  0  0  0  0  0  0  0  0  0  0  0
  150.4636  143.6557  157.4028 H   0  0  0  0  0  0  0  0  0  0  0  0
  152.7643  145.0326  157.8266 H   0  0  0  0  0  0  0  0  0  0  0  0
  151.6651  144.7475  159.1791 H   0  0  0  0  0  0  0  0  0  0  0  0
  153.0361  141.5738  159.9484 H   0  0  0  0  0  0  0  0  0  0  0  0
  153.6179  141.6261  158.2830 H   0  0  0  0  0  0  0  0  0  0  0  0
  147.4635  135.2831  155.7762 H   0  0  0  0  0  0  0  0  0  0  0  0
  148.3502  135.7224  154.3415 H   0  0  0  0  0  0  0  0  0  0  0  0
  146.1114  135.3384  153.6860 H   0  0  0  0  0  0  0  0  0  0  0  0
  145.3382  133.9889  155.6186 H   0  0  0  0  0  0  0  0  0  0  0  0
  146.1394  132.5628  154.9824 H   0  0  0  0  0  0  0  0  0  0  0  0
  144.8000  133.2916  154.1062 H   0  0  0  0  0  0  0  0  0  0  0  0
  147.7013  134.5942  152.2376 H   0  0  0  0  0  0  0  0  0  0  0  0
  1  2  1  0  0  0  0
  1 30  1  0  0  0  0
  1 31  1  0  0  0  0
  1 32  1  0  0  0  0
  2  3  1  0  0  0  0
  2 33  1  0  0  0  0
  2 34  1  0  0  0  0
  3 28  1  0  0  0  0
  3  4  1  0  0  0  0
  3 64  1  0  0  0  0
  4  5  1  0  0  0  0
  4 35  1  0  0  0  0
  4 36  1  0  0  0  0
  5  6  1  0  0  0  0
  5 37  1  0  0  0  0
  5 38  1  0  0  0  0
  6  7  1  0  0  0  0
  6 27  1  0  0  0  0
  6 39  1  0  0  0  0
  7  8  1  0  0  0  0
  7  9  1  0  0  0  0
  8 40  1  0  0  0  0
  8 41  1  0  0  0  0
  8 42  1  0  0  0  0
  9 14  1  0  0  0  0
  9 10  2  0  0  0  0
 10 11  1  0  0  0  0
 11 12  2  0  0  0  0
 11 43  1  0  0  0  0
 12 13  1  0  0  0  0
 13 17  1  0  0  0  0
 13 14  2  0  0  0  0
 14 15  1  0  0  0  0
 15 16  2  0  0  0  0
 16 17  1  0  0  0  0
 16 44  1  0  0  0  0
 17 18  1  0  0  0  0
 18 19  1  0  0  0  0
 18 45  1  0  0  0  0
 18 46  1  0  0  0  0
 19 20  1  0  0  0  0
 19 22  1  0  0  0  0
 19 47  1  0  0  0  0
 20 21  1  0  0  0  0
 20 48  1  0  0  0  0
 20 49  1  0  0  0  0
 21 50  1  0  0  0  0
 22 26  1  0  0  0  0
 22 23  1  0  0  0  0
 22 51  1  0  0  0  0
 23 24  1  0  0  0  0
 23 52  1  0  0  0  0
 23 53  1  0  0  0  0
 24 25  1  0  0  0  0
 24 54  1  0  0  0  0
 24 55  1  0  0  0  0
 25 26  1  0  0  0  0
 26 56  1  0  0  0  0
 26 57  1  0  0  0  0
 27 28  1  0  0  0  0
 27 58  1  0  0  0  0
 27 59  1  0  0  0  0
 28 29  1  0  0  0  0
 28 60  1  0  0  0  0
 29 61  1  0  0  0  0
 29 62  1  0  0  0  0
 29 63  1  0  0  0  0
M  CHG  1   3   1
M  END
> <s_m_source_file>
AV-unprocessed.smi

> <i_m_source_file_index>
249

> <i_lp_mmshare_version>
43012

> <i_f3d_flags>
0

> <s_epik_input>
W0NIM11bQ0gyXU4xW0NIMl1bQ0gyXVtDQEhdKFtDSDJdW0NASF0xW0NIM10pTihbQ0gzXSljKG5bY0hdbjIpYyhjMjMpbltjSF1uM1tDSDJdW0NASF0oW0NIMl1bT0hdKVtDQEBIXTRbQ0gyXVtDSDJdT1tDSDJdNA==

> <s_epik_cmdline>
J2VwaWtfcHl0aG9uJywgJy1waCcsICc3LjAnLCAnLXRuJywgJzgnLCAnLW1hJywgJzIwMCcsICctbWV0YWxfYmluZGluZycsICctaW1hZScsICc8aW5maWxlLm1hZT4nLCAnLW9tYWUnLCAnPG91dGZpbGUubWFlPic=

> <r_lp_tautomer_probability>
1

> <r_epik_Ionization_Penalty>
0.00294688

> <r_epik_Ionization_Penalty_Charging>
0.00169971

> <r_epik_Ionization_Penalty_Neutral>
0.00124717

> <r_epik_State_Penalty>
-0

> <r_epik_Charging_Adjusted_Penalty>
0.00169971

> <i_epik_Tot_Q>
1

> <i_epik_Tot_abs_Q>
1

> <r_epik_Metal_State_Penalty>
-0

> <b_epik_Metal_Only>
0

> <s_lp_Force_Field>
OPLS_2005

> <r_lp_Energy>
54.2474

> <b_lp_Chiralities_Consistent>
1

> <s_lp_Variant>
AV-unprocessed.smi:249-17

> <Gold.Version>
5.8.1

> <Gold.Id.Protein>
6NUR|6NUR_protein|mol2

> <Gold.PLP.Fitness>
49.7285

> <Gold.PLP.PLP>
-41.4849

> <Gold.PLP.part.hbond>
-3.0000

> <Gold.PLP.part.metal>
0.0000

> <Gold.PLP.part.buried>
-7.2246

> <Gold.PLP.part.nonpolar>
-30.3964

> <Gold.PLP.part.repulsive>
0.0473

> <Gold.PLP.ligand.clash>
0.0000

> <Gold.PLP.ligand.torsion>
2.3705

> <Gold.PLP.Chemscore.Hbond>
3.9833

> <Gold.PLP.Chemscore.CHOScore>
0.0000

> <Gold.PLP.Chemscore.Metal>
0.0000

> <Gold.Chemscore.Hbonds>
donor molecule, donor type, donor heavy atom, donor atom, acceptor molecule, acceptor atom, score
      L1  H     3    64       P1  7948  1.92
      P1  H  7989  7998       L1    21  0.99
      P1  H 10752 10765       L1    15  0.75

> <Gold.PLP.Chemscore.Internal.Correction>
1.0347

> <Gold.Rescore>
     Score         DG    S(hbond)    S(metal)    S(lipo)     H(rot)  DE(clash)    DE(int)     intcor
     14.06     -19.33       2.72        0.00     104.31       2.90       0.10       5.18       ----

> <Gold.Chemscore.Fitness>
14.0574

> <Gold.Chemscore.DG>
-19.3339

> <Gold.Chemscore.ZeroCoef>
-5.4800

> <Gold.Chemscore.Hbond>
2.7172

> <Gold.Chemscore.Metal>
0.0000

> <Gold.Chemscore.Lipo>
104.3081

> <Gold.Chemscore.Internal_Hbond>
0.0000

> <Gold.Chemscore.DEClash>
0.0988

> <Gold.Chemscore.DEInternal>
5.1778

> <Gold.Chemscore.Rot>
2.9006

> <Gold.Chemscore.Internal.Correction>
   9.000000E+99

> <Gold.Chemscore.Hbonds>
donor molecule, donor type, donor heavy atom, donor atom, acceptor molecule, acceptor atom, score
      L1  H     3    64       P1  7948  0.54
      P1  H  7989  7998       L1    21  0.62
      P1  H 10752 10765       L1    15  0.73

> <Gold.Chemscore.Hbond.Weighted>
-9.0755

> <Gold.Chemscore.Metal.Weighted>
-0.0000

> <Gold.Chemscore.Lipo.Weighted>
-12.2040

> <Gold.Chemscore.Internal_Hbond.Weighted>
0.0000

> <Gold.Chemscore.DEClash.Weighted>
0.0988

> <Gold.Chemscore.DEInternal.Weighted>
5.1778

> <Gold.Chemscore.Rot.Weighted>
7.4256

> <Gold.Chemscore.Internal.Correction.Weighted>
   9.000000E+99

> <Gold.Protein.RotatedTorsions>
[ 6907 6896 6895 6894 ] final -165.40 input  -60.11 | X-H torsion
[ 7974 7965 7964 7962 ] final  163.92 input  175.53 | X-H torsion
[ 8008 7997 7996 7995 ] final   99.56 input   59.86 | X-H torsion
[ 10167 10162 10161 10158 ] final -121.04 input  -65.29 | X-H torsion
[ 10718 10713 10712 10709 ] final  133.64 input   66.30 | X-H torsion
[ 10763 10752 10751 10750 ] final -151.74 input  -60.55 | X-H torsion
[ 11005 11000 10999 10996 ] final  -86.99 input  -57.11 | X-H torsion

> <Gold.Protein.ActiveResidues>
 VAL166  LYS551  ARG553  GLY616  TRP617  ASP618  TYR619  PRO620  LYS621  CYS622 
 ASP623  PHE694  ASN695  SER759  ASP760  ASP761  ALA762  ILE779  LEU786  VAL792 
 PHE793  MET794  SER795  GLU796  ALA797  LYS798  CYS799  TRP800  GLU811  SER814 

> <Gold.Protein.RotatedAtoms>
  151.4271  133.3681  159.2763 H   0  0  0  0  0  0  0  0  0  0  0  0  # atno 6907 bound_to 6896
  150.9252  134.8670  159.7526 H   0  0  0  0  0  0  0  0  0  0  0  0  # atno 6908 bound_to 6896
  152.5001  134.4211  159.9533 H   0  0  0  0  0  0  0  0  0  0  0  0  # atno 6909 bound_to 6896
  144.7568  139.8252  143.6347 H   0  0  0  0  0  0  0  0  0  0  0  0  # atno 7974 bound_to 7965
  156.1117  140.3227  155.8081 H   0  0  0  0  0  0  0  0  0  0  0  0  # atno 8008 bound_to 7997
  155.4662  140.0543  157.3002 H   0  0  0  0  0  0  0  0  0  0  0  0  # atno 8009 bound_to 7997
  154.4764  140.2034  155.9882 H   0  0  0  0  0  0  0  0  0  0  0  0  # atno 8010 bound_to 7997
  140.0293  143.5265  152.2184 H   0  0  0  0  0  0  0  0  0  0  0  0  # atno 10167 bound_to 10162
  157.4752  131.1082  150.9752 H   0  0  0  0  0  0  0  0  0  0  0  0  # atno 10718 bound_to 10713
  154.8038  135.3253  154.7482 H   0  0  0  0  0  0  0  0  0  0  0  0  # atno 10763 bound_to 10752
  153.8144  135.6893  153.4840 H   0  0  0  0  0  0  0  0  0  0  0  0  # atno 10764 bound_to 10752
  153.1771  135.4600  154.9924 H   0  0  0  0  0  0  0  0  0  0  0  0  # atno 10765 bound_to 10752
  141.1623  133.7486  156.9242 H   0  0  0  0  0  0  0  0  0  0  0  0  # atno 11005 bound_to 11000
  146.1587  139.4693  143.0002 LP  0  0  0  0  0  0  0  0  0  0  0  0  # atno 17320 bound_to 7965
  145.6753  141.0205  143.1635 LP  0  0  0  0  0  0  0  0  0  0  0  0  # atno 17321 bound_to 7965
  139.6087  144.7603  151.3002 LP  0  0  0  0  0  0  0  0  0  0  0  0  # atno 17342 bound_to 10162
  140.7309  143.6867  150.7956 LP  0  0  0  0  0  0  0  0  0  0  0  0  # atno 17343 bound_to 10162
  157.0503  130.5784  149.5369 LP  0  0  0  0  0  0  0  0  0  0  0  0  # atno 17370 bound_to 10713
  156.0093  130.5183  150.7936 LP  0  0  0  0  0  0  0  0  0  0  0  0  # atno 17371 bound_to 10713
  140.1430  134.9281  157.2493 LP  0  0  0  0  0  0  0  0  0  0  0  0  # atno 17394 bound_to 11000
  140.2813  134.3346  155.7342 LP  0  0  0  0  0  0  0  0  0  0  0  0  # atno 17395 bound_to 11000

$$$$
