#       Name:                AV-unprocessed.smi:1834
#       Creating user name   scv26
#       Creation time:       Fri Mar 27 09:16:40 2020


#       File generated by GOLD software.
#

@<TRIPOS>MOLECULE
AV-unprocessed.smi:1834
    49    50     1
SMALL
NO_CHARGES


@<TRIPOS>ATOM
      1 ****        -0.6041   0.7694   2.5490 C.3            1 S1                 0.0000
      2 ****        -1.9686   1.3736   2.1878 C.3            1 S1                 0.0000
      3 ****        -2.4429   0.9581   0.8427 N.4            1 S1                 1.0000
      4 ****        -3.9199   1.0667   0.7167 C.3            1 S1                 0.0000
      5 ****        -4.4126   0.5277  -0.6363 C.3            1 S1                 0.0000
      6 ****        -3.6950   1.2193  -1.8053 C.3            1 S1                 0.0000
      7 ****        -2.1651   1.1290  -1.6522 C.3            1 S1                 0.0000
      8 ****        -1.6361  -0.2911  -1.9678 C.3            1 S1                 0.0000
      9 ****        -0.1787  -0.3721  -1.9216 N.am           1 S1                 0.0000
     10 ****         0.5328  -0.8830  -0.9062 C.2            1 S1                 0.0000
     11 ****         0.0182  -1.3559   0.1073 O.2            1 S1                 0.0000
     12 ****         1.8531  -0.7982  -1.1428 N.am           1 S1                 0.0000
     13 ****         2.8834  -1.1391  -0.3237 C.2            1 S1                 0.0000
     14 ****         2.8428  -1.5820   0.9702 C.2            1 S1                 0.0000
     15 ****         4.2220  -1.7555   1.2854 C.2            1 S1                 0.0000
     16 ****         4.8225  -2.2303   2.5757 C.3            1 S1                 0.0000
     17 ****         5.0223  -1.4409   0.2732 N.2            1 S1                 0.0000
     18 ****         4.1980  -1.0564  -0.7251 N.pl3          1 S1                 0.0000
     19 ****         4.7474  -0.6361  -1.9996 C.3            1 S1                 0.0000
     20 ****        -1.7510   1.6729  -0.2640 C.3            1 S1                 0.0000
     21 ****        -0.3089   1.0674   3.5552 H              1 S1                 0.0000
     22 ****         0.1853   1.0937   1.8718 H              1 S1                 0.0000
     23 ****        -0.6396  -0.3198   2.5295 H              1 S1                 0.0000
     24 ****        -2.6837   1.0417   2.9417 H              1 S1                 0.0000
     25 ****        -1.9369   2.4620   2.2531 H              1 S1                 0.0000
     26 ****        -4.4017   0.5069   1.5192 H              1 S1                 0.0000
     27 ****        -4.2181   2.1098   0.8347 H              1 S1                 0.0000
     28 ****        -4.2548  -0.5501  -0.6826 H              1 S1                 0.0000
     29 ****        -5.4890   0.6786  -0.7237 H              1 S1                 0.0000
     30 ****        -4.0129   0.7868  -2.7546 H              1 S1                 0.0000
     31 ****        -3.9922   2.2686  -1.8345 H              1 S1                 0.0000
     32 ****        -1.7289   1.7933  -2.3996 H              1 S1                 0.0000
     33 ****        -2.0826  -1.0311  -1.3027 H              1 S1                 0.0000
     34 ****        -1.9430  -0.5759  -2.9747 H              1 S1                 0.0000
     35 ****         0.3227  -0.0104  -2.7201 H              1 S1                 0.0000
     36 ****         2.1238  -0.4183  -2.0380 H              1 S1                 0.0000
     37 ****         1.9862  -1.7576   1.6030 H              1 S1                 0.0000
     38 ****         4.0525  -2.4103   3.3262 H              1 S1                 0.0000
     39 ****         5.5152  -1.4929   2.9822 H              1 S1                 0.0000
     40 ****         5.3707  -3.1618   2.4339 H              1 S1                 0.0000
     41 ****         4.4220   0.3807  -2.2212 H              1 S1                 0.0000
     42 ****         4.3963  -1.3032  -2.7874 H              1 S1                 0.0000
     43 ****         5.8378  -0.6605  -1.9752 H              1 S1                 0.0000
     44 ****        -1.9997   2.7336  -0.2032 H              1 S1                 0.0000
     45 ****        -0.6705   1.6176  -0.1448 H              1 S1                 0.0000
     46 ****        -2.2186  -0.0227   0.7492 H              1 S1                 0.0000
     47 ****        -0.9772  -1.3715   0.2020 LP             1 S1                 0.0000
     48 ****         0.5956  -1.7245   0.8358 LP             1 S1                 0.0000
     49 ****         6.0213  -1.4803   0.2543 LP             1 S1                 0.0000
@<TRIPOS>BOND
    1    1    2 1     
    2    1   21 1     
    3    1   22 1     
    4    1   23 1     
    5    2    3 1     
    6    2   24 1     
    7    2   25 1     
    8    3   20 1     
    9    3    4 1     
   10    3   46 1     
   11    4    5 1     
   12    4   26 1     
   13    4   27 1     
   14    5    6 1     
   15    5   28 1     
   16    5   29 1     
   17    6    7 1     
   18    6   30 1     
   19    6   31 1     
   20    7    8 1     
   21    7   20 1     
   22    7   32 1     
   23    8    9 1     
   24    8   33 1     
   25    8   34 1     
   26    9   10 am    
   27    9   35 1     
   28   10   11 2     
   29   10   12 am    
   30   12   13 1     
   31   12   36 1     
   32   13   18 1     
   33   13   14 2     
   34   14   15 1     
   35   14   37 1     
   36   15   16 1     
   37   15   17 2     
   38   16   38 1     
   39   16   39 1     
   40   16   40 1     
   41   17   18 1     
   42   18   19 1     
   43   19   41 1     
   44   19   42 1     
   45   19   43 1     
   46   20   44 1     
   47   20   45 1     
   48   11   47 1     
   49   11   48 1     
   50   17   49 1     
@<TRIPOS>SUBSTRUCTURE
      1 S1             1
@<TRIPOS>SET
LONE_PAIRS      STATIC     ATOMS    <user>   **** ""
3 47 48 49
DONOR_HYDROGENS      STATIC     ATOMS    <user>   **** ""
3 46 35 36
ATOM$BLUE        STATIC     ATOMS    COLORGROUP SYSTEM
3 47 48 49
ATOM$RED        STATIC     ATOMS    COLORGROUP SYSTEM
3 46 35 36
