#       Name:                AV-unprocessed.smi:3303
#       Creating user name   scv26
#       Creation time:       Fri Mar 27 18:59:31 2020


#       File generated by GOLD software.
#

@<TRIPOS>MOLECULE
AV-unprocessed.smi:3303
    46    47     1
SMALL
NO_CHARGES


@<TRIPOS>ATOM
      1 ****        -0.4449  -1.9652  -2.5920 C.3            1 S1                 0.0000
      2 ****        -0.9772  -0.5553  -2.2592 C.3            1 S1                 0.0000
      3 ****        -2.5147  -0.5014  -2.3488 C.3            1 S1                 0.0000
      4 ****        -3.1684  -1.2579  -1.2472 N.4            1 S1                 1.0000
      5 ****        -4.6375  -1.3121  -1.4445 C.3            1 S1                 0.0000
      6 ****        -2.7545  -0.7637   0.1015 C.3            1 S1                 0.0000
      7 ****        -3.3883  -1.5740   1.2496 C.3            1 S1                 0.0000
      8 ****        -1.2159  -0.7819   0.2462 C.3            1 S1                 0.0000
      9 ****        -0.5202  -0.0074  -0.8900 C.3            1 S1                 0.0000
     10 ****         0.9579  -0.0232  -0.7748 N.4            1 S1                 1.0000
     11 ****         1.5195   0.7811   0.3304 C.3            1 S1                 0.0000
     12 ****         3.0528   0.8076   0.2663 C.3            1 S1                 0.0000
     13 ****         3.6580   1.6244   1.3920 C.ar           1 S1                 0.0000
     14 ****         4.2418   0.9918   2.5102 C.ar           1 S1                 0.0000
     15 ****         4.7861   1.7990   3.5282 C.ar           1 S1                 0.0000
     16 ****         4.7240   3.1990   3.3899 C.ar           1 S1                 0.0000
     17 ****         4.1178   3.7325   2.2352 C.ar           1 S1                 0.0000
     18 ****         3.5927   2.9675   1.2533 N.ar           1 S1                 0.0000
     19 ****        -0.7940  -2.7158  -1.8829 H              1 S1                 0.0000
     20 ****         0.6448  -1.9944  -2.5958 H              1 S1                 0.0000
     21 ****        -0.7736  -2.2786  -3.5833 H              1 S1                 0.0000
     22 ****        -0.5857   0.1130  -3.0276 H              1 S1                 0.0000
     23 ****        -2.8523   0.5360  -2.3160 H              1 S1                 0.0000
     24 ****        -2.8365  -0.8988  -3.3126 H              1 S1                 0.0000
     25 ****        -5.0928  -0.3363  -1.2704 H              1 S1                 0.0000
     26 ****        -5.1053  -2.0377  -0.7798 H              1 S1                 0.0000
     27 ****        -4.8806  -1.6218  -2.4614 H              1 S1                 0.0000
     28 ****        -3.0920   0.2701   0.1946 H              1 S1                 0.0000
     29 ****        -2.9972  -1.2521   2.2151 H              1 S1                 0.0000
     30 ****        -3.1785  -2.6394   1.1493 H              1 S1                 0.0000
     31 ****        -4.4693  -1.4439   1.2968 H              1 S1                 0.0000
     32 ****        -0.9522  -0.3459   1.2097 H              1 S1                 0.0000
     33 ****        -0.8568  -1.8113   0.2738 H              1 S1                 0.0000
     34 ****        -0.8355   1.0362  -0.8347 H              1 S1                 0.0000
     35 ****         1.2719  -0.9787  -0.6808 H              1 S1                 0.0000
     36 ****         1.1294   1.7981   0.2703 H              1 S1                 0.0000
     37 ****         1.2026   0.3677   1.2879 H              1 S1                 0.0000
     38 ****         3.4461  -0.2091   0.3091 H              1 S1                 0.0000
     39 ****         3.3820   1.2242  -0.6870 H              1 S1                 0.0000
     40 ****         4.2754  -0.0850   2.5890 H              1 S1                 0.0000
     41 ****         5.2426   1.3524   4.3990 H              1 S1                 0.0000
     42 ****         5.1317   3.8488   4.1501 H              1 S1                 0.0000
     43 ****         4.0515   4.8015   2.0972 H              1 S1                 0.0000
     44 ****         1.3338   0.3513  -1.6346 H              1 S1                 0.0000
     45 ****        -2.8394  -2.2101  -1.3214 H              1 S1                 0.0000
     46 ****         3.1686   3.3822   0.4483 LP             1 S1                 0.0000
@<TRIPOS>BOND
    1    1    2 1     
    2    1   19 1     
    3    1   20 1     
    4    1   21 1     
    5    2    9 1     
    6    2    3 1     
    7    2   22 1     
    8    3    4 1     
    9    3   23 1     
   10    3   24 1     
   11    4    5 1     
   12    4    6 1     
   13    4   45 1     
   14    5   25 1     
   15    5   26 1     
   16    5   27 1     
   17    6    7 1     
   18    6    8 1     
   19    6   28 1     
   20    7   29 1     
   21    7   30 1     
   22    7   31 1     
   23    8    9 1     
   24    8   32 1     
   25    8   33 1     
   26    9   10 1     
   27    9   34 1     
   28   10   11 1     
   29   10   35 1     
   30   10   44 1     
   31   11   12 1     
   32   11   36 1     
   33   11   37 1     
   34   12   13 1     
   35   12   38 1     
   36   12   39 1     
   37   13   18 ar    
   38   13   14 ar    
   39   14   15 ar    
   40   14   40 1     
   41   15   16 ar    
   42   15   41 1     
   43   16   17 ar    
   44   16   42 1     
   45   17   18 ar    
   46   17   43 1     
   47   18   46 1     
@<TRIPOS>SUBSTRUCTURE
      1 S1             1
@<TRIPOS>SET
LONE_PAIRS      STATIC     ATOMS    <user>   **** ""
1 46
DONOR_HYDROGENS      STATIC     ATOMS    <user>   **** ""
3 45 35 44
ATOM$BLUE        STATIC     ATOMS    COLORGROUP SYSTEM
1 46
ATOM$RED        STATIC     ATOMS    COLORGROUP SYSTEM
3 45 35 44
