AV-unprocessed.smi:2329|AV-procd|sdf|9306|dock7
  -GOLD-   2272012523D 1   1.00000     0.00000
 Structure written by MMmdl.
 45 48  0  0  0  0  0  0  0  0  1 V2000
  151.5609  140.0721  155.6416 C   0  0  0  0  0  0  0  0  0  0  0  0
  150.1955  140.2147  155.0025 C   0  0  0  0  0  0  0  0  0  0  0  0
  149.5173  141.4493  155.0137 C   0  0  0  0  0  0  0  0  0  0  0  0
  148.2535  141.5167  154.4003 C   0  0  0  0  0  0  0  0  0  0  0  0
  147.7246  140.3558  153.8043 C   0  0  0  0  0  0  0  0  0  0  0  0
  148.4714  139.1568  153.8356 C   0  0  0  0  0  0  0  0  0  0  0  0
  147.8517  138.0486  153.2021 N   0  0  0  0  0  0  0  0  0  0  0  0
  146.5397  137.7504  153.1263 C   0  0  0  0  0  0  0  0  0  0  0  0
  145.6321  138.4543  153.5657 O   0  0  0  0  0  0  0  0  0  0  0  0
  146.2816  136.5795  152.5169 N   0  0  0  0  0  0  0  0  0  0  0  0
  144.9720  135.9706  152.2749 C   0  0  2  0  0  0  0  0  0  0  0  0
  144.3169  135.4772  153.5755 C   0  0  1  0  0  0  0  0  0  0  0  0
  143.0547  136.1289  154.0714 C   0  0  0  0  0  0  0  0  0  0  0  0
  141.9586  135.2144  153.5176 C   0  0  0  0  0  0  0  0  0  0  0  0
  142.5729  134.5370  152.4236 O   0  0  0  0  0  0  0  0  0  0  0  0
  143.9123  134.2306  152.8044 C   0  0  1  0  0  0  0  0  0  0  0  0
  145.0125  134.5106  151.7586 C   0  0  0  0  0  0  0  0  0  0  0  0
  144.6655  134.2312  150.2982 C   0  0  0  0  0  0  0  0  0  0  0  0
  145.0714  132.7832  150.0077 C   0  0  0  0  0  0  0  0  0  0  0  0
  146.1041  132.4176  151.0786 C   0  0  0  0  0  0  0  0  0  0  0  0
  146.2925  133.6846  151.9159 C   0  0  0  0  0  0  0  0  0  0  0  0
  149.6893  139.1013  154.4296 N   0  0  0  0  0  0  0  0  0  0  0  0
  151.7645  140.9002  156.3210 H   0  0  0  0  0  0  0  0  0  0  0  0
  152.3357  140.0592  154.8748 H   0  0  0  0  0  0  0  0  0  0  0  0
  151.6248  139.1442  156.2110 H   0  0  0  0  0  0  0  0  0  0  0  0
  149.9517  142.3225  155.4783 H   0  0  0  0  0  0  0  0  0  0  0  0
  147.6988  142.4433  154.3861 H   0  0  0  0  0  0  0  0  0  0  0  0
  146.7557  140.3905  153.3276 H   0  0  0  0  0  0  0  0  0  0  0  0
  148.4817  137.3809  152.7826 H   0  0  0  0  0  0  0  0  0  0  0  0
  147.0800  136.0513  152.1956 H   0  0  0  0  0  0  0  0  0  0  0  0
  144.2888  136.5946  151.6942 H   0  0  0  0  0  0  0  0  0  0  0  0
  145.0467  135.2442  154.3532 H   0  0  0  0  0  0  0  0  0  0  0  0
  143.0138  136.1915  155.1591 H   0  0  0  0  0  0  0  0  0  0  0  0
  142.9557  137.1393  153.6735 H   0  0  0  0  0  0  0  0  0  0  0  0
  141.6578  134.4801  154.2664 H   0  0  0  0  0  0  0  0  0  0  0  0
  141.0712  135.7637  153.2022 H   0  0  0  0  0  0  0  0  0  0  0  0
  144.0063  133.3031  153.3710 H   0  0  0  0  0  0  0  0  0  0  0  0
  143.6126  134.4013  150.0731 H   0  0  0  0  0  0  0  0  0  0  0  0
  145.2321  134.8969  149.6473 H   0  0  0  0  0  0  0  0  0  0  0  0
  144.2065  132.1239  150.0864 H   0  0  0  0  0  0  0  0  0  0  0  0
  145.4735  132.6794  148.9997 H   0  0  0  0  0  0  0  0  0  0  0  0
  145.7192  131.6098  151.7018 H   0  0  0  0  0  0  0  0  0  0  0  0
  147.0453  132.0789  150.6446 H   0  0  0  0  0  0  0  0  0  0  0  0
  147.1521  134.2308  151.5264 H   0  0  0  0  0  0  0  0  0  0  0  0
  146.5143  133.4470  152.9571 H   0  0  0  0  0  0  0  0  0  0  0  0
  1  2  1  0  0  0  0
  1 23  1  0  0  0  0
  1 24  1  0  0  0  0
  1 25  1  0  0  0  0
  2 22  1  0  0  0  0
  2  3  2  0  0  0  0
  3  4  1  0  0  0  0
  3 26  1  0  0  0  0
  4  5  2  0  0  0  0
  4 27  1  0  0  0  0
  5  6  1  0  0  0  0
  5 28  1  0  0  0  0
  6  7  1  0  0  0  0
  6 22  2  0  0  0  0
  7  8  1  0  0  0  0
  7 29  1  0  0  0  0
  8  9  2  0  0  0  0
  8 10  1  0  0  0  0
 10 11  1  0  0  0  0
 10 30  1  0  0  0  0
 11 17  1  0  0  0  0
 11 12  1  0  0  0  0
 11 31  1  0  0  0  0
 12 16  1  0  0  0  0
 12 13  1  0  0  0  0
 12 32  1  0  0  0  0
 13 14  1  0  0  0  0
 13 33  1  0  0  0  0
 13 34  1  0  0  0  0
 14 15  1  0  0  0  0
 14 35  1  0  0  0  0
 14 36  1  0  0  0  0
 15 16  1  0  0  0  0
 16 17  1  0  0  0  0
 16 37  1  0  0  0  0
 17 21  1  0  0  0  0
 17 18  1  0  0  0  0
 18 19  1  0  0  0  0
 18 38  1  0  0  0  0
 18 39  1  0  0  0  0
 19 20  1  0  0  0  0
 19 40  1  0  0  0  0
 19 41  1  0  0  0  0
 20 21  1  0  0  0  0
 20 42  1  0  0  0  0
 20 43  1  0  0  0  0
 21 44  1  0  0  0  0
 21 45  1  0  0  0  0
M  END
> <s_m_source_file>
AV-unprocessed.smi

> <i_m_source_file_index>
2329

> <i_lp_mmshare_version>
43012

> <i_f3d_flags>
0

> <s_epik_input>
W0NIM11jMVtjSF1bY0hdW2NIXWMobjEpW05IXUMoPU8pW05IXVtDQEBIXTJbQ0BASF0oW0NIMl1bQ0gyXU8zKVtDQEhdM0MyNFtDSDJdW0NIMl1bQ0gyXVtDSDJdNA==

> <s_epik_cmdline>
J2VwaWtfcHl0aG9uJywgJy1waCcsICc3LjAnLCAnLXRuJywgJzgnLCAnLW1hJywgJzIwMCcsICctbWV0YWxfYmluZGluZycsICctaW1hZScsICc8aW5maWxlLm1hZT4nLCAnLW9tYWUnLCAnPG91dGZpbGUubWFlPic=

> <r_lp_tautomer_probability>
1

> <r_epik_Ionization_Penalty>
8.97002e-05

> <r_epik_Ionization_Penalty_Charging>
0

> <r_epik_Ionization_Penalty_Neutral>
8.97002e-05

> <r_epik_State_Penalty>
-0

> <r_epik_Charging_Adjusted_Penalty>
0

> <i_epik_Tot_Q>
0

> <i_epik_Tot_abs_Q>
0

> <r_epik_Metal_State_Penalty>
-0

> <b_epik_Metal_Only>
0

> <s_lp_Force_Field>
OPLS_2005

> <r_lp_Energy>
64.3151

> <b_lp_Chiralities_Consistent>
1

> <s_lp_Variant>
AV-unprocessed.smi:2329-5

> <Gold.Version>
5.8.1

> <Gold.Id.Protein>
6NUR|6NUR_protein|mol2

> <Gold.PLP.Fitness>
39.9853

> <Gold.PLP.PLP>
-34.8939

> <Gold.PLP.part.hbond>
-1.9194

> <Gold.PLP.part.metal>
0.0000

> <Gold.PLP.part.buried>
-2.1088

> <Gold.PLP.part.nonpolar>
-31.8493

> <Gold.PLP.part.repulsive>
1.4417

> <Gold.PLP.ligand.clash>
0.0000

> <Gold.PLP.ligand.torsion>
0.3180

> <Gold.PLP.Chemscore.Hbond>
1.8480

> <Gold.PLP.Chemscore.CHOScore>
0.0000

> <Gold.PLP.Chemscore.Metal>
0.0000

> <Gold.Chemscore.Hbonds>
donor molecule, donor type, donor heavy atom, donor atom, acceptor molecule, acceptor atom, score
      L1  H     7    29       P1  7948  1.00
      L1  H    10    30       P1  7948  0.85

> <Gold.PLP.Chemscore.Internal.Correction>
0.1834

> <Gold.Rescore>
     Score         DG    S(hbond)    S(metal)    S(lipo)     H(rot)  DE(clash)    DE(int)     intcor
     17.21     -19.12       1.85        0.00      85.72       1.00       0.24       1.67       ----

> <Gold.Chemscore.Fitness>
17.2142

> <Gold.Chemscore.DG>
-19.1234

> <Gold.Chemscore.ZeroCoef>
-5.4800

> <Gold.Chemscore.Hbond>
1.8487

> <Gold.Chemscore.Metal>
0.0000

> <Gold.Chemscore.Lipo>
85.7153

> <Gold.Chemscore.Internal_Hbond>
0.0000

> <Gold.Chemscore.DEClash>
0.2439

> <Gold.Chemscore.DEInternal>
1.6654

> <Gold.Chemscore.Rot>
1.0000

> <Gold.Chemscore.Internal.Correction>
   9.000000E+99

> <Gold.Chemscore.Hbonds>
donor molecule, donor type, donor heavy atom, donor atom, acceptor molecule, acceptor atom, score
      L1  H     7    29       P1  7948  0.93
      L1  H    10    30       P1  7948  0.83

> <Gold.Chemscore.Hbond.Weighted>
-6.1747

> <Gold.Chemscore.Metal.Weighted>
-0.0000

> <Gold.Chemscore.Lipo.Weighted>
-10.0287

> <Gold.Chemscore.Internal_Hbond.Weighted>
0.0000

> <Gold.Chemscore.DEClash.Weighted>
0.2439

> <Gold.Chemscore.DEInternal.Weighted>
1.6654

> <Gold.Chemscore.Rot.Weighted>
2.5600

> <Gold.Chemscore.Internal.Correction.Weighted>
   9.000000E+99

> <Gold.Protein.RotatedTorsions>
[ 6907 6896 6895 6894 ] final  -37.60 input  -60.11 | X-H torsion
[ 7974 7965 7964 7962 ] final -138.36 input  175.53 | X-H torsion
[ 8008 7997 7996 7995 ] final  -94.58 input   59.86 | X-H torsion
[ 10167 10162 10161 10158 ] final -162.11 input  -65.29 | X-H torsion
[ 10718 10713 10712 10709 ] final  -10.20 input   66.30 | X-H torsion
[ 10763 10752 10751 10750 ] final  -70.90 input  -60.55 | X-H torsion
[ 11005 11000 10999 10996 ] final  -90.26 input  -57.11 | X-H torsion

> <Gold.Protein.ActiveResidues>
 VAL166  LYS551  ARG553  GLY616  TRP617  ASP618  TYR619  PRO620  LYS621  CYS622 
 ASP623  PHE694  ASN695  SER759  ASP760  ASP761  ALA762  ILE779  LEU786  VAL792 
 PHE793  MET794  SER795  GLU796  ALA797  LYS798  CYS799  TRP800  GLU811  SER814 

> <Gold.Protein.RotatedAtoms>
  151.0126  134.9409  159.8015 H   0  0  0  0  0  0  0  0  0  0  0  0  # atno 6907 bound_to 6896
  152.5306  134.3008  159.9087 H   0  0  0  0  0  0  0  0  0  0  0  0  # atno 6908 bound_to 6896
  151.3014  133.4079  159.2674 H   0  0  0  0  0  0  0  0  0  0  0  0  # atno 6909 bound_to 6896
  144.8764  140.6444  143.5234 H   0  0  0  0  0  0  0  0  0  0  0  0  # atno 7974 bound_to 7965
  154.7502  140.0488  157.0887 H   0  0  0  0  0  0  0  0  0  0  0  0  # atno 8008 bound_to 7997
  155.0067  140.3131  155.4826 H   0  0  0  0  0  0  0  0  0  0  0  0  # atno 8009 bound_to 7997
  156.2883  140.2191  156.5179 H   0  0  0  0  0  0  0  0  0  0  0  0  # atno 8010 bound_to 7997
  139.6416  144.0250  152.2096 H   0  0  0  0  0  0  0  0  0  0  0  0  # atno 10167 bound_to 10162
  156.6769  130.5025  149.5983 H   0  0  0  0  0  0  0  0  0  0  0  0  # atno 10718 bound_to 10713
  154.4242  135.5979  153.6028 H   0  0  0  0  0  0  0  0  0  0  0  0  # atno 10763 bound_to 10752
  152.9795  135.5959  154.3918 H   0  0  0  0  0  0  0  0  0  0  0  0  # atno 10764 bound_to 10752
  154.3748  135.2841  155.2224 H   0  0  0  0  0  0  0  0  0  0  0  0  # atno 10765 bound_to 10752
  141.1569  133.7681  156.9712 H   0  0  0  0  0  0  0  0  0  0  0  0  # atno 11005 bound_to 11000
  145.4034  139.1593  143.4165 LP  0  0  0  0  0  0  0  0  0  0  0  0  # atno 17320 bound_to 7965
  146.2966  140.4132  142.8719 LP  0  0  0  0  0  0  0  0  0  0  0  0  # atno 17321 bound_to 7965
  139.9940  144.6341  150.7788 LP  0  0  0  0  0  0  0  0  0  0  0  0  # atno 17342 bound_to 10162
  140.7493  143.2937  151.3262 LP  0  0  0  0  0  0  0  0  0  0  0  0  # atno 17343 bound_to 10162
  156.1897  130.6552  151.1047 LP  0  0  0  0  0  0  0  0  0  0  0  0  # atno 17370 bound_to 10713
  157.7057  131.0757  150.6673 LP  0  0  0  0  0  0  0  0  0  0  0  0  # atno 17371 bound_to 10713
  140.1128  134.9466  157.2091 LP  0  0  0  0  0  0  0  0  0  0  0  0  # atno 17394 bound_to 11000
  140.3171  134.2958  155.7254 LP  0  0  0  0  0  0  0  0  0  0  0  0  # atno 17395 bound_to 11000

$$$$
