#       Name:                AV-unprocessed.smi:1856
#       Creating user name   scv26
#       Creation time:       Fri Mar 27 09:24:51 2020


#       File generated by GOLD software.
#

@<TRIPOS>MOLECULE
AV-unprocessed.smi:1856
    49    50     1
SMALL
NO_CHARGES


@<TRIPOS>ATOM
      1 ****        -3.5782   4.7849   0.8629 C.3            1 S1                 0.0000
      2 ****        -3.1077   3.3346   1.0185 C.3            1 S1                 0.0000
      3 ****        -2.1532   2.9024  -0.1090 C.3            1 S1                 0.0000
      4 ****        -1.6990   1.4454   0.0184 C.2            1 S1                 0.0000
      5 ****        -1.4344   0.9680   1.1219 O.2            1 S1                 0.0000
      6 ****        -1.5992   0.7526  -1.1272 N.am           1 S1                 0.0000
      7 ****        -1.1614  -0.6378  -1.2437 C.3            1 S1                 0.0000
      8 ****        -1.6622  -1.2368  -2.5641 C.3            1 S1                 0.0000
      9 ****         0.3433  -0.6911  -1.1389 C.2            1 S1                 0.0000
     10 ****         1.1317   0.1688  -1.7905 N.2            1 S1                 0.0000
     11 ****         2.3992  -0.2406  -1.4309 C.ar           1 S1                 0.0000
     12 ****         3.6655   0.2742  -1.7893 C.ar           1 S1                 0.0000
     13 ****         4.8438  -0.3192  -1.2919 C.ar           1 S1                 0.0000
     14 ****         4.7726  -1.4337  -0.4315 C.ar           1 S1                 0.0000
     15 ****         3.5206  -1.9630  -0.0637 C.ar           1 S1                 0.0000
     16 ****         2.3466  -1.3666  -0.5626 C.ar           1 S1                 0.0000
     17 ****         0.9891  -1.6318  -0.4014 N.pl3          1 S1                 0.0000
     18 ****         0.4174  -2.7115   0.3937 C.3            1 S1                 0.0000
     19 ****        -0.0276  -2.2645   1.8020 C.3            1 S1                 0.0000
     20 ****         1.0664  -1.5557   2.6154 C.3            1 S1                 0.0000
     21 ****        -0.4522  -3.4052   2.5167 O.3            1 S1                 0.0000
     22 ****        -4.2551   5.0618   1.6713 H              1 S1                 0.0000
     23 ****        -4.1086   4.9290  -0.0788 H              1 S1                 0.0000
     24 ****        -2.7355   5.4765   0.8835 H              1 S1                 0.0000
     25 ****        -2.6173   3.2254   1.9869 H              1 S1                 0.0000
     26 ****        -3.9782   2.6776   1.0368 H              1 S1                 0.0000
     27 ****        -2.6403   3.0474  -1.0746 H              1 S1                 0.0000
     28 ****        -1.2659   3.5366  -0.1091 H              1 S1                 0.0000
     29 ****        -1.8240   1.2292  -1.9885 H              1 S1                 0.0000
     30 ****        -1.6154  -1.2008  -0.4293 H              1 S1                 0.0000
     31 ****        -1.3588  -2.2799  -2.6573 H              1 S1                 0.0000
     32 ****        -1.2630  -0.6966  -3.4234 H              1 S1                 0.0000
     33 ****        -2.7503  -1.2024  -2.6238 H              1 S1                 0.0000
     34 ****         3.7297   1.1276  -2.4479 H              1 S1                 0.0000
     35 ****         5.8065   0.0830  -1.5716 H              1 S1                 0.0000
     36 ****         5.6799  -1.8820  -0.0536 H              1 S1                 0.0000
     37 ****         3.4645  -2.8153   0.5965 H              1 S1                 0.0000
     38 ****        -0.4175  -3.1509  -0.1533 H              1 S1                 0.0000
     39 ****         1.1635  -3.5027   0.4768 H              1 S1                 0.0000
     40 ****        -0.8852  -1.5983   1.7199 H              1 S1                 0.0000
     41 ****         1.3715  -0.6218   2.1426 H              1 S1                 0.0000
     42 ****         1.9519  -2.1835   2.7200 H              1 S1                 0.0000
     43 ****         0.7125  -1.3089   3.6166 H              1 S1                 0.0000
     44 ****        -0.7853  -3.1259   3.3560 H              1 S1                 0.0000
     45 ****        -1.5154   1.5325   1.9433 LP             1 S1                 0.0000
     46 ****        -1.1385   0.0158   1.1968 LP             1 S1                 0.0000
     47 ****         0.8678   0.9236  -2.3911 LP             1 S1                 0.0000
     48 ****         0.3198  -4.0266   2.6499 LP             1 S1                 0.0000
     49 ****        -1.1733  -3.8740   2.0065 LP             1 S1                 0.0000
@<TRIPOS>BOND
    1    1    2 1     
    2    1   22 1     
    3    1   23 1     
    4    1   24 1     
    5    2    3 1     
    6    2   25 1     
    7    2   26 1     
    8    3    4 1     
    9    3   27 1     
   10    3   28 1     
   11    4    5 2     
   12    4    6 am    
   13    6    7 1     
   14    6   29 1     
   15    7    8 1     
   16    7    9 1     
   17    7   30 1     
   18    8   31 1     
   19    8   32 1     
   20    8   33 1     
   21    9   17 1     
   22    9   10 2     
   23   10   11 1     
   24   11   16 ar    
   25   11   12 ar    
   26   12   13 ar    
   27   12   34 1     
   28   13   14 ar    
   29   13   35 1     
   30   14   15 ar    
   31   14   36 1     
   32   15   16 ar    
   33   15   37 1     
   34   16   17 1     
   35   17   18 1     
   36   18   19 1     
   37   18   38 1     
   38   18   39 1     
   39   19   20 1     
   40   19   21 1     
   41   19   40 1     
   42   20   41 1     
   43   20   42 1     
   44   20   43 1     
   45   21   44 1     
   46    5   45 1     
   47    5   46 1     
   48   10   47 1     
   49   21   48 1     
   50   21   49 1     
@<TRIPOS>SUBSTRUCTURE
      1 S1             1
@<TRIPOS>SET
LONE_PAIRS      STATIC     ATOMS    <user>   **** ""
5 45 46 47 48 49
DONOR_HYDROGENS      STATIC     ATOMS    <user>   **** ""
2 29 44
ATOM$BLUE        STATIC     ATOMS    COLORGROUP SYSTEM
5 45 46 47 48 49
ATOM$RED        STATIC     ATOMS    COLORGROUP SYSTEM
2 29 44
