AV-unprocessed.smi:2062|AV-procd|sdf|8405|dock7
  -GOLD-   2272011 93D 1   1.00000     0.00000
 Structure written by MMmdl.
 42 43  0  0  0  0  0  0  0  0  3 V2000
  152.6259  144.5872  158.1157 C   0  0  0  0  0  0  0  0  0  0  0  0
  151.6233  144.0739  159.1630 C   0  0  0  0  0  0  0  0  0  0  0  0
  151.7362  144.8914  160.4583 C   0  0  0  0  0  0  0  0  0  0  0  0
  151.8130  142.5690  159.4528 C   0  0  0  0  0  0  0  0  0  0  0  0
  151.3992  141.7016  158.3203 N   0  3  2  0  0  0  0  0  0  0  0  0
  150.2319  142.2206  157.5653 C   0  0  0  0  0  0  0  0  0  0  0  0
  149.9005  141.2895  156.3878 C   0  0  0  0  0  0  0  0  0  0  0  0
  149.6704  139.9744  156.8746 O   0  0  0  0  0  0  0  0  0  0  0  0
  150.8186  139.4253  157.5140 C   0  0  2  0  0  0  0  0  0  0  0  0
  150.5051  137.9760  157.9090 C   0  0  0  0  0  0  0  0  0  0  0  0
  149.4022  137.9415  158.8625 N   0  0  0  0  0  0  0  0  0  0  0  0
  148.8136  136.8442  159.3557 C   0  0  0  0  0  0  0  0  0  0  0  0
  149.1794  135.7257  158.9876 O   0  0  0  0  0  0  0  0  0  0  0  0
  147.8360  137.1154  160.2494 N   0  5  0  0  0  0  0  0  0  0  0  0
  147.2872  136.1225  160.9682 C   0  0  0  0  0  0  0  0  0  0  0  0
  147.6200  134.8368  160.8077 N   0  0  0  0  0  0  0  0  0  0  0  0
  146.9218  133.9729  161.6534 C   0  0  0  0  0  0  0  0  0  0  0  0
  146.0305  134.6152  162.4711 C   0  0  0  0  0  0  0  0  0  0  0  0
  146.0406  136.3347  162.2011 S   0  0  0  0  0  0  0  0  0  0  0  0
  151.1616  140.2989  158.7360 C   0  0  0  0  0  0  0  0  0  0  0  0
  153.6547  144.4409  158.4462 H   0  0  0  0  0  0  0  0  0  0  0  0
  152.4864  145.6525  157.9289 H   0  0  0  0  0  0  0  0  0  0  0  0
  152.5060  144.0736  157.1614 H   0  0  0  0  0  0  0  0  0  0  0  0
  150.6186  144.2401  158.7755 H   0  0  0  0  0  0  0  0  0  0  0  0
  152.7240  144.7884  160.9086 H   0  0  0  0  0  0  0  0  0  0  0  0
  150.9993  144.5676  161.1938 H   0  0  0  0  0  0  0  0  0  0  0  0
  151.5663  145.9521  160.2707 H   0  0  0  0  0  0  0  0  0  0  0  0
  152.8670  142.3951  159.6752 H   0  0  0  0  0  0  0  0  0  0  0  0
  151.2623  142.2766  160.3485 H   0  0  0  0  0  0  0  0  0  0  0  0
  149.3700  142.2984  158.2300 H   0  0  0  0  0  0  0  0  0  0  0  0
  150.4333  143.2211  157.1845 H   0  0  0  0  0  0  0  0  0  0  0  0
  149.0041  141.6372  155.8741 H   0  0  0  0  0  0  0  0  0  0  0  0
  150.7074  141.2845  155.6532 H   0  0  0  0  0  0  0  0  0  0  0  0
  151.6603  139.4282  156.8183 H   0  0  0  0  0  0  0  0  0  0  0  0
  150.2073  137.4026  157.0307 H   0  0  0  0  0  0  0  0  0  0  0  0
  151.4032  137.5013  158.3076 H   0  0  0  0  0  0  0  0  0  0  0  0
  149.0604  138.8310  159.1953 H   0  0  0  0  0  0  0  0  0  0  0  0
  147.1222  132.9131  161.6045 H   0  0  0  0  0  0  0  0  0  0  0  0
  145.3713  134.1857  163.2101 H   0  0  0  0  0  0  0  0  0  0  0  0
  152.0531  139.9061  159.2267 H   0  0  0  0  0  0  0  0  0  0  0  0
  150.3514  140.2659  159.4666 H   0  0  0  0  0  0  0  0  0  0  0  0
  152.1793  141.6753  157.6792 H   0  0  0  0  0  0  0  0  0  0  0  0
  1  2  1  0  0  0  0
  1 21  1  0  0  0  0
  1 22  1  0  0  0  0
  1 23  1  0  0  0  0
  2  3  1  0  0  0  0
  2  4  1  0  0  0  0
  2 24  1  0  0  0  0
  3 25  1  0  0  0  0
  3 26  1  0  0  0  0
  3 27  1  0  0  0  0
  4  5  1  0  0  0  0
  4 28  1  0  0  0  0
  4 29  1  0  0  0  0
  5 20  1  0  0  0  0
  5  6  1  0  0  0  0
  5 42  1  0  0  0  0
  6  7  1  0  0  0  0
  6 30  1  0  0  0  0
  6 31  1  0  0  0  0
  7  8  1  0  0  0  0
  7 32  1  0  0  0  0
  7 33  1  0  0  0  0
  8  9  1  0  0  0  0
  9 10  1  0  0  0  0
  9 20  1  0  0  0  0
  9 34  1  0  0  0  0
 10 11  1  0  0  0  0
 10 35  1  0  0  0  0
 10 36  1  0  0  0  0
 11 12  1  0  0  0  0
 11 37  1  0  0  0  0
 12 13  2  0  0  0  0
 12 14  1  0  0  0  0
 14 15  1  0  0  0  0
 15 19  1  0  0  0  0
 15 16  2  0  0  0  0
 16 17  1  0  0  0  0
 17 18  2  0  0  0  0
 17 38  1  0  0  0  0
 18 19  1  0  0  0  0
 18 39  1  0  0  0  0
 20 40  1  0  0  0  0
 20 41  1  0  0  0  0
M  CHG  1   5   1
M  CHG  1  14  -1
M  END
> <s_m_source_file>
AV-unprocessed.smi

> <i_m_source_file_index>
2062

> <i_lp_mmshare_version>
43012

> <i_f3d_flags>
0

> <s_epik_input>
W0NIM11bQ0hdKFtDSDNdKVtDSDJdTjFbQ0gyXVtDSDJdT1tDQEhdKFtDSDJdMSlbQ0gyXVtOSF1DKD1PKVtOSF1jMm5bY0hdW2NIXXMy

> <s_epik_cmdline>
J2VwaWtfcHl0aG9uJywgJy1waCcsICc3LjAnLCAnLXRuJywgJzgnLCAnLW1hJywgJzIwMCcsICctbWV0YWxfYmluZGluZycsICctaW1hZScsICc8aW5maWxlLm1hZT4nLCAnLW9tYWUnLCAnPG91dGZpbGUubWFlPic=

> <r_lp_tautomer_probability>
0.999

> <r_epik_Ionization_Penalty>
6.35835

> <r_epik_Ionization_Penalty_Charging>
5.49938

> <r_epik_Ionization_Penalty_Neutral>
0.858963

> <r_epik_State_Penalty>
5.49328

> <r_epik_Charging_Adjusted_Penalty>
10.9927

> <i_epik_Tot_Q>
0

> <i_epik_Tot_abs_Q>
2

> <r_epik_Metal_State_Penalty>
1.51523

> <b_epik_Metal_Only>
1

> <s_lp_Force_Field>
OPLS_2005

> <r_lp_Energy>
7.82162

> <b_lp_Chiralities_Consistent>
1

> <s_lp_Variant>
AV-unprocessed.smi:2062-10

> <Gold.Version>
5.8.1

> <Gold.Id.Protein>
6NUR|6NUR_protein|mol2

> <Gold.PLP.Fitness>
52.8081

> <Gold.PLP.PLP>
-41.5617

> <Gold.PLP.part.hbond>
-3.0000

> <Gold.PLP.part.metal>
0.0000

> <Gold.PLP.part.buried>
-6.2511

> <Gold.PLP.part.nonpolar>
-34.4883

> <Gold.PLP.part.repulsive>
0.3092

> <Gold.PLP.ligand.clash>
0.0000

> <Gold.PLP.ligand.torsion>
0.3295

> <Gold.PLP.Chemscore.Hbond>
3.9072

> <Gold.PLP.Chemscore.CHOScore>
0.0000

> <Gold.PLP.Chemscore.Metal>
0.0000

> <Gold.Chemscore.Hbonds>
donor molecule, donor type, donor heavy atom, donor atom, acceptor molecule, acceptor atom, score
      P1  H  6896  6909       L1    13  1.00
      P1  H  6931  6943       L1    14  0.37
      P1  H  6934  6947       L1    14  1.32

> <Gold.PLP.Chemscore.Internal.Correction>
0.1838

> <Gold.Rescore>
     Score         DG    S(hbond)    S(metal)    S(lipo)     H(rot)  DE(clash)    DE(int)     intcor
     16.89     -19.11       1.90        0.00      99.99       1.72       0.11       2.12       ----

> <Gold.Chemscore.Fitness>
16.8851

> <Gold.Chemscore.DG>
-19.1134

> <Gold.Chemscore.ZeroCoef>
-5.4800

> <Gold.Chemscore.Hbond>
1.8971

> <Gold.Chemscore.Metal>
0.0000

> <Gold.Chemscore.Lipo>
99.9890

> <Gold.Chemscore.Internal_Hbond>
0.0000

> <Gold.Chemscore.DEClash>
0.1092

> <Gold.Chemscore.DEInternal>
2.1190

> <Gold.Chemscore.Rot>
1.7194

> <Gold.Chemscore.Internal.Correction>
   9.000000E+99

> <Gold.Chemscore.Hbonds>
donor molecule, donor type, donor heavy atom, donor atom, acceptor molecule, acceptor atom, score
      P1  H  6896  6909       L1    13  0.99
      P1  H  6931  6943       L1    14  0.02
      P1  H  6934  6947       L1    14  0.52

> <Gold.Chemscore.Hbond.Weighted>
-6.3364

> <Gold.Chemscore.Metal.Weighted>
-0.0000

> <Gold.Chemscore.Lipo.Weighted>
-11.6987

> <Gold.Chemscore.Internal_Hbond.Weighted>
0.0000

> <Gold.Chemscore.DEClash.Weighted>
0.1092

> <Gold.Chemscore.DEInternal.Weighted>
2.1190

> <Gold.Chemscore.Rot.Weighted>
4.4017

> <Gold.Chemscore.Internal.Correction.Weighted>
   9.000000E+99

> <Gold.Protein.RotatedTorsions>
[ 6907 6896 6895 6894 ] final   53.68 input  -60.11 | X-H torsion
[ 7974 7965 7964 7962 ] final -108.56 input  175.53 | X-H torsion
[ 8008 7997 7996 7995 ] final    2.65 input   59.86 | X-H torsion
[ 10167 10162 10161 10158 ] final   71.53 input  -65.29 | X-H torsion
[ 10718 10713 10712 10709 ] final  -46.82 input   66.30 | X-H torsion
[ 10763 10752 10751 10750 ] final   65.50 input  -60.55 | X-H torsion
[ 11005 11000 10999 10996 ] final  -16.48 input  -57.11 | X-H torsion

> <Gold.Protein.ActiveResidues>
 VAL166  LYS551  ARG553  GLY616  TRP617  ASP618  TYR619  PRO620  LYS621  CYS622 
 ASP623  PHE694  ASN695  SER759  ASP760  ASP761  ALA762  ILE779  LEU786  VAL792 
 PHE793  MET794  SER795  GLU796  ALA797  LYS798  CYS799  TRP800  GLU811  SER814 

> <Gold.Protein.RotatedAtoms>
  152.3362  134.7195  160.0276 H   0  0  0  0  0  0  0  0  0  0  0  0  # atno 6907 bound_to 6896
  151.7595  133.3327  159.3422 H   0  0  0  0  0  0  0  0  0  0  0  0  # atno 6908 bound_to 6896
  150.7452  134.6051  159.6101 H   0  0  0  0  0  0  0  0  0  0  0  0  # atno 6909 bound_to 6896
  145.1914  140.9016  143.3422 H   0  0  0  0  0  0  0  0  0  0  0  0  # atno 7974 bound_to 7965
  154.6941  140.2659  155.6783 H   0  0  0  0  0  0  0  0  0  0  0  0  # atno 8008 bound_to 7997
  156.2742  140.2785  156.1453 H   0  0  0  0  0  0  0  0  0  0  0  0  # atno 8009 bound_to 7997
  155.0855  140.0373  157.2642 H   0  0  0  0  0  0  0  0  0  0  0  0  # atno 8010 bound_to 7997
  140.0451  144.5358  150.7405 H   0  0  0  0  0  0  0  0  0  0  0  0  # atno 10167 bound_to 10162
  156.2145  130.4162  149.9072 H   0  0  0  0  0  0  0  0  0  0  0  0  # atno 10718 bound_to 10713
  153.0099  135.5354  154.6677 H   0  0  0  0  0  0  0  0  0  0  0  0  # atno 10763 bound_to 10752
  154.5869  135.2855  155.0677 H   0  0  0  0  0  0  0  0  0  0  0  0  # atno 10764 bound_to 10752
  154.1785  135.6520  153.5080 H   0  0  0  0  0  0  0  0  0  0  0  0  # atno 10765 bound_to 10752
  140.8072  133.8169  155.9527 H   0  0  0  0  0  0  0  0  0  0  0  0  # atno 11005 bound_to 11000
  145.0037  139.3574  143.6154 LP  0  0  0  0  0  0  0  0  0  0  0  0  # atno 17320 bound_to 7965
  146.3435  139.9271  142.8758 LP  0  0  0  0  0  0  0  0  0  0  0  0  # atno 17321 bound_to 7965
  140.7242  143.2619  151.4175 LP  0  0  0  0  0  0  0  0  0  0  0  0  # atno 17342 bound_to 10162
  139.5989  144.1338  152.2175 LP  0  0  0  0  0  0  0  0  0  0  0  0  # atno 17343 bound_to 10162
  156.6739  130.8831  151.3566 LP  0  0  0  0  0  0  0  0  0  0  0  0  # atno 17370 bound_to 10713
  157.7056  130.9381  150.0920 LP  0  0  0  0  0  0  0  0  0  0  0  0  # atno 17371 bound_to 10713
  140.9235  134.2112  157.4911 LP  0  0  0  0  0  0  0  0  0  0  0  0  # atno 17394 bound_to 11000
  139.8717  134.9802  156.5068 LP  0  0  0  0  0  0  0  0  0  0  0  0  # atno 17395 bound_to 11000

$$$$
