AV-unprocessed.smi:2918|AV-procd|sdf|11191|dock4
  -GOLD-   2272016 83D 1   1.00000     0.00000
 Structure written by MMmdl.
 41 42  0  0  0  0  0  0  0  0  1 V2000
  150.3191  137.0167  155.1174 C   0  0  0  0  0  0  0  0  0  0  0  0
  150.8943  138.1874  154.3053 C   0  0  0  0  0  0  0  0  0  0  0  0
  152.2903  138.5989  154.8021 C   0  0  0  0  0  0  0  0  0  0  0  0
  149.9732  139.3201  154.3012 N   0  0  0  0  0  0  0  0  0  0  0  0
  150.3459  140.4997  154.8513 N   0  0  0  0  0  0  0  0  0  0  0  0
  149.2990  141.3002  154.7049 C   0  0  0  0  0  0  0  0  0  0  0  0
  148.1999  140.6658  154.0607 C   0  0  0  0  0  0  0  0  0  0  0  0
  148.6785  139.4051  153.8272 C   0  0  0  0  0  0  0  0  0  0  0  0
  148.0466  138.3529  153.2413 N   0  0  0  0  0  0  0  0  0  0  0  0
  146.7719  137.9490  153.3819 C   0  0  0  0  0  0  0  0  0  0  0  0
  145.9273  138.4969  154.0898 O   0  0  0  0  0  0  0  0  0  0  0  0
  146.5331  136.8578  152.6348 N   0  0  0  0  0  0  0  0  0  0  0  0
  145.2769  136.1072  152.4837 C   0  0  0  0  0  0  0  0  0  0  0  0
  144.0723  137.0578  152.6519 C   0  0  0  0  0  0  0  0  0  0  0  0
  145.2082  135.3695  151.1242 C   0  0  0  0  0  0  0  0  0  0  0  0
  146.2653  134.2558  151.0180 C   0  0  0  0  0  0  0  0  0  0  0  0
  146.1035  133.3313  152.0874 O   0  0  0  0  0  0  0  0  0  0  0  0
  146.2832  133.9261  153.3673 C   0  0  0  0  0  0  0  0  0  0  0  0
  145.2332  135.0313  153.5904 C   0  0  0  0  0  0  0  0  0  0  0  0
  150.9749  136.1470  155.0674 H   0  0  0  0  0  0  0  0  0  0  0  0
  149.3436  136.7160  154.7340 H   0  0  0  0  0  0  0  0  0  0  0  0
  150.1977  137.2802  156.1687 H   0  0  0  0  0  0  0  0  0  0  0  0
  151.0082  137.8467  153.2760 H   0  0  0  0  0  0  0  0  0  0  0  0
  152.9920  137.7680  154.7251 H   0  0  0  0  0  0  0  0  0  0  0  0
  152.2701  138.9169  155.8453 H   0  0  0  0  0  0  0  0  0  0  0  0
  152.6898  139.4225  154.2093 H   0  0  0  0  0  0  0  0  0  0  0  0
  149.3662  142.3134  155.0730 H   0  0  0  0  0  0  0  0  0  0  0  0
  147.2325  141.0828  153.8252 H   0  0  0  0  0  0  0  0  0  0  0  0
  148.6161  137.8093  152.6099 H   0  0  0  0  0  0  0  0  0  0  0  0
  147.3110  136.5025  152.0986 H   0  0  0  0  0  0  0  0  0  0  0  0
  143.1306  136.5084  152.6332 H   0  0  0  0  0  0  0  0  0  0  0  0
  144.0215  137.8002  151.8553 H   0  0  0  0  0  0  0  0  0  0  0  0
  144.1190  137.5935  153.6007 H   0  0  0  0  0  0  0  0  0  0  0  0
  144.2219  134.9173  151.0102 H   0  0  0  0  0  0  0  0  0  0  0  0
  145.3106  136.0614  150.2886 H   0  0  0  0  0  0  0  0  0  0  0  0
  146.1488  133.7213  150.0752 H   0  0  0  0  0  0  0  0  0  0  0  0
  147.2759  134.6669  151.0241 H   0  0  0  0  0  0  0  0  0  0  0  0
  146.1767  133.1531  154.1286 H   0  0  0  0  0  0  0  0  0  0  0  0
  147.2970  134.3189  153.4583 H   0  0  0  0  0  0  0  0  0  0  0  0
  145.3749  135.4856  154.5721 H   0  0  0  0  0  0  0  0  0  0  0  0
  144.2457  134.5680  153.6117 H   0  0  0  0  0  0  0  0  0  0  0  0
  1  2  1  0  0  0  0
  1 20  1  0  0  0  0
  1 21  1  0  0  0  0
  1 22  1  0  0  0  0
  2  3  1  0  0  0  0
  2  4  1  0  0  0  0
  2 23  1  0  0  0  0
  3 24  1  0  0  0  0
  3 25  1  0  0  0  0
  3 26  1  0  0  0  0
  4  8  1  0  0  0  0
  4  5  1  0  0  0  0
  5  6  2  0  0  0  0
  6  7  1  0  0  0  0
  6 27  1  0  0  0  0
  7  8  2  0  0  0  0
  7 28  1  0  0  0  0
  8  9  1  0  0  0  0
  9 10  1  0  0  0  0
  9 29  1  0  0  0  0
 10 11  2  0  0  0  0
 10 12  1  0  0  0  0
 12 13  1  0  0  0  0
 12 30  1  0  0  0  0
 13 19  1  0  0  0  0
 13 14  1  0  0  0  0
 13 15  1  0  0  0  0
 14 31  1  0  0  0  0
 14 32  1  0  0  0  0
 14 33  1  0  0  0  0
 15 16  1  0  0  0  0
 15 34  1  0  0  0  0
 15 35  1  0  0  0  0
 16 17  1  0  0  0  0
 16 36  1  0  0  0  0
 16 37  1  0  0  0  0
 17 18  1  0  0  0  0
 18 19  1  0  0  0  0
 18 38  1  0  0  0  0
 18 39  1  0  0  0  0
 19 40  1  0  0  0  0
 19 41  1  0  0  0  0
M  END
> <s_m_source_file>
AV-unprocessed.smi

> <i_m_source_file_index>
2918

> <i_lp_mmshare_version>
43012

> <i_f3d_flags>
0

> <s_epik_input>
W0NIM11bQ0hdKFtDSDNdKW4xbltjSF1bY0hdYzFbTkhdQyg9TylbTkhdQzIoW0NIM10pW0NIMl1bQ0gyXU9bQ0gyXVtDSDJdMg==

> <s_epik_cmdline>
J2VwaWtfcHl0aG9uJywgJy1waCcsICc3LjAnLCAnLXRuJywgJzgnLCAnLW1hJywgJzIwMCcsICctbWV0YWxfYmluZGluZycsICctaW1hZScsICc8aW5maWxlLm1hZT4nLCAnLW9tYWUnLCAnPG91dGZpbGUubWFlPic=

> <r_lp_tautomer_probability>
1

> <r_epik_Ionization_Penalty>
4.13243e-05

> <r_epik_Ionization_Penalty_Charging>
0

> <r_epik_Ionization_Penalty_Neutral>
4.13243e-05

> <r_epik_State_Penalty>
-0

> <r_epik_Charging_Adjusted_Penalty>
0

> <i_epik_Tot_Q>
0

> <i_epik_Tot_abs_Q>
0

> <r_epik_Metal_State_Penalty>
-0

> <b_epik_Metal_Only>
0

> <s_lp_Force_Field>
OPLS_2005

> <r_lp_Energy>
17.4718

> <b_lp_Chiralities_Consistent>
1

> <s_lp_Variant>
AV-unprocessed.smi:2918-1

> <Gold.Version>
5.8.1

> <Gold.Id.Protein>
6NUR|6NUR_protein|mol2

> <Gold.PLP.Fitness>
41.5360

> <Gold.PLP.PLP>
-32.1343

> <Gold.PLP.part.hbond>
-3.8123

> <Gold.PLP.part.metal>
0.0000

> <Gold.PLP.part.buried>
-2.6845

> <Gold.PLP.part.nonpolar>
-26.9837

> <Gold.PLP.part.repulsive>
0.4013

> <Gold.PLP.ligand.clash>
0.0000

> <Gold.PLP.ligand.torsion>
0.9209

> <Gold.PLP.Chemscore.Hbond>
2.7420

> <Gold.PLP.Chemscore.CHOScore>
0.9920

> <Gold.PLP.Chemscore.Metal>
0.0000

> <Gold.Chemscore.Hbonds>
donor molecule, donor type, donor heavy atom, donor atom, acceptor molecule, acceptor atom, score
      L1  H     9    29       P1  7948  0.99
      L1  H    12    30       P1  7948  1.00
      P1  H  7989  7998       L1     5  0.69
      L1  C     6    27       P1  8028  1.00

> <Gold.PLP.Chemscore.Internal.Correction>
0.0415

> <Gold.Rescore>
     Score         DG    S(hbond)    S(metal)    S(lipo)     H(rot)  DE(clash)    DE(int)     intcor
     14.10     -16.06       2.02        0.00      58.78       1.19       0.10       1.87       ----

> <Gold.Chemscore.Fitness>
14.0958

> <Gold.Chemscore.DG>
-16.0602

> <Gold.Chemscore.ZeroCoef>
-5.4800

> <Gold.Chemscore.Hbond>
2.0226

> <Gold.Chemscore.Metal>
0.0000

> <Gold.Chemscore.Lipo>
58.7777

> <Gold.Chemscore.Internal_Hbond>
0.0000

> <Gold.Chemscore.DEClash>
0.0959

> <Gold.Chemscore.DEInternal>
1.8684

> <Gold.Chemscore.Rot>
1.1924

> <Gold.Chemscore.Internal.Correction>
   9.000000E+99

> <Gold.Chemscore.Hbonds>
donor molecule, donor type, donor heavy atom, donor atom, acceptor molecule, acceptor atom, score
      L1  H     9    29       P1  7948  0.94
      L1  H    12    30       P1  7948  0.97
      P1  H  7989  7998       L1     5  0.05

> <Gold.Chemscore.Hbond.Weighted>
-6.7556

> <Gold.Chemscore.Metal.Weighted>
-0.0000

> <Gold.Chemscore.Lipo.Weighted>
-6.8770

> <Gold.Chemscore.Internal_Hbond.Weighted>
0.0000

> <Gold.Chemscore.DEClash.Weighted>
0.0959

> <Gold.Chemscore.DEInternal.Weighted>
1.8684

> <Gold.Chemscore.Rot.Weighted>
3.0524

> <Gold.Chemscore.Internal.Correction.Weighted>
   9.000000E+99

> <Gold.Protein.RotatedTorsions>
[ 6907 6896 6895 6894 ] final -150.46 input  -60.11 | X-H torsion
[ 7974 7965 7964 7962 ] final  145.32 input  175.53 | X-H torsion
[ 8008 7997 7996 7995 ] final -111.07 input   59.86 | X-H torsion
[ 10167 10162 10161 10158 ] final  174.68 input  -65.29 | X-H torsion
[ 10718 10713 10712 10709 ] final   29.98 input   66.30 | X-H torsion
[ 10763 10752 10751 10750 ] final   69.57 input  -60.55 | X-H torsion
[ 11005 11000 10999 10996 ] final   15.63 input  -57.11 | X-H torsion

> <Gold.Protein.ActiveResidues>
 VAL166  LYS551  ARG553  GLY616  TRP617  ASP618  TYR619  PRO620  LYS621  CYS622 
 ASP623  PHE694  ASN695  SER759  ASP760  ASP761  ALA762  ILE779  LEU786  VAL792 
 PHE793  MET794  SER795  GLU796  ALA797  LYS798  CYS799  TRP800  GLU811  SER814 

> <Gold.Protein.RotatedAtoms>
  151.1989  133.4622  159.2595 H   0  0  0  0  0  0  0  0  0  0  0  0  # atno 6907 bound_to 6896
  151.1089  135.0015  159.8494 H   0  0  0  0  0  0  0  0  0  0  0  0  # atno 6908 bound_to 6896
  152.5449  134.1910  159.8727 H   0  0  0  0  0  0  0  0  0  0  0  0  # atno 6909 bound_to 6896
  144.8762  139.5769  143.5864 H   0  0  0  0  0  0  0  0  0  0  0  0  # atno 7974 bound_to 7965
  154.9842  140.0396  157.2291 H   0  0  0  0  0  0  0  0  0  0  0  0  # atno 8008 bound_to 7997
  154.7686  140.2797  155.6133 H   0  0  0  0  0  0  0  0  0  0  0  0  # atno 8009 bound_to 7997
  156.2917  140.2614  156.2483 H   0  0  0  0  0  0  0  0  0  0  0  0  # atno 8010 bound_to 7997
  139.5150  144.3119  152.0284 H   0  0  0  0  0  0  0  0  0  0  0  0  # atno 10167 bound_to 10162
  157.2536  130.7127  149.6418 H   0  0  0  0  0  0  0  0  0  0  0  0  # atno 10718 bound_to 10713
  153.0294  135.5205  154.7309 H   0  0  0  0  0  0  0  0  0  0  0  0  # atno 10763 bound_to 10752
  154.6337  135.2903  155.0189 H   0  0  0  0  0  0  0  0  0  0  0  0  # atno 10764 bound_to 10752
  154.1131  135.6619  153.4941 H   0  0  0  0  0  0  0  0  0  0  0  0  # atno 10765 bound_to 10752
  140.4562  134.1174  155.7709 H   0  0  0  0  0  0  0  0  0  0  0  0  # atno 11005 bound_to 11000
  146.2964  139.7291  142.9123 LP  0  0  0  0  0  0  0  0  0  0  0  0  # atno 17320 bound_to 7965
  145.4039  141.0388  143.3055 LP  0  0  0  0  0  0  0  0  0  0  0  0  # atno 17321 bound_to 7965
  140.2563  144.4115  150.6202 LP  0  0  0  0  0  0  0  0  0  0  0  0  # atno 17342 bound_to 10162
  140.6189  143.2174  151.6735 LP  0  0  0  0  0  0  0  0  0  0  0  0  # atno 17343 bound_to 10162
  155.9665  130.4420  150.5362 LP  0  0  0  0  0  0  0  0  0  0  0  0  # atno 17370 bound_to 10713
  157.3251  131.0689  151.1903 LP  0  0  0  0  0  0  0  0  0  0  0  0  # atno 17371 bound_to 10713
  141.1642  133.8735  157.1762 LP  0  0  0  0  0  0  0  0  0  0  0  0  # atno 17394 bound_to 11000
  139.9975  135.0041  157.0115 LP  0  0  0  0  0  0  0  0  0  0  0  0  # atno 17395 bound_to 11000

$$$$
