AV-unprocessed.smi:1911|AV-procd|sdf|7743|dock7
  -GOLD-   22720 9483D 1   1.00000     0.00000
 Structure written by MMmdl.
 53 55  0  0  0  0  0  0  0  0  3 V2000
  144.1247  133.6353  148.6581 N   0  0  0  0  0  0  0  0  0  0  0  0
  144.4425  132.6828  149.5377 C   0  0  0  0  0  0  0  0  0  0  0  0
  143.6643  131.7777  149.8335 O   0  0  0  0  0  0  0  0  0  0  0  0
  145.8425  132.7529  150.1565 C   0  0  0  0  0  0  0  0  0  0  0  0
  145.8213  133.0232  151.6174 N   0  3  2  0  0  0  0  0  0  0  0  0
  145.4929  134.4366  151.9444 C   0  0  0  0  0  0  0  0  0  0  0  0
  145.3441  134.6347  153.4628 C   0  0  0  0  0  0  0  0  0  0  0  0
  146.6010  134.1791  154.2307 C   0  0  2  0  0  0  0  0  0  0  0  0
  147.7333  135.0783  154.0077 N   0  0  0  0  0  0  0  0  0  0  0  0
  148.4375  135.6911  154.9706 C   0  0  0  0  0  0  0  0  0  0  0  0
  148.1891  135.5751  156.1701 O   0  0  0  0  0  0  0  0  0  0  0  0
  149.4170  136.4500  154.4500 N   0  0  0  0  0  0  0  0  0  0  0  0
  150.3744  137.2469  155.1338 C   0  0  0  0  0  0  0  0  0  0  0  0
  151.4267  137.9473  154.4929 C   0  0  0  0  0  0  0  0  0  0  0  0
  152.3129  138.7270  155.2644 C   0  0  0  0  0  0  0  0  0  0  0  0
  152.1394  138.7981  156.6665 C   0  0  0  0  0  0  0  0  0  0  0  0
  152.9512  139.5606  157.5201 N   0  0  0  0  0  0  0  0  0  0  0  0
  152.3394  140.7332  158.1429 C   0  0  0  0  0  0  0  0  0  0  0  0
  152.8464  140.7689  159.5857 C   0  0  0  0  0  0  0  0  0  0  0  0
  153.1204  139.3018  159.8904 C   0  0  0  0  0  0  0  0  0  0  0  0
  153.6159  138.7670  158.5474 C   0  0  0  0  0  0  0  0  0  0  0  0
  151.1083  138.1340  157.2331 N   0  3  0  0  0  0  0  0  0  0  0  0
  150.2364  137.3786  156.5314 C   0  0  0  0  0  0  0  0  0  0  0  0
  146.9651  132.7417  153.8203 C   0  0  0  0  0  0  0  0  0  0  0  0
  147.0690  132.5824  152.2921 C   0  0  0  0  0  0  0  0  0  0  0  0
  143.2140  133.6291  148.2206 H   0  0  0  0  0  0  0  0  0  0  0  0
  144.7914  134.3578  148.4269 H   0  0  0  0  0  0  0  0  0  0  0  0
  146.3132  131.7868  149.9690 H   0  0  0  0  0  0  0  0  0  0  0  0
  146.4510  133.5016  149.6461 H   0  0  0  0  0  0  0  0  0  0  0  0
  146.2705  135.0940  151.5523 H   0  0  0  0  0  0  0  0  0  0  0  0
  144.5625  134.7284  151.4563 H   0  0  0  0  0  0  0  0  0  0  0  0
  145.1134  135.6775  153.6833 H   0  0  0  0  0  0  0  0  0  0  0  0
  144.4859  134.0591  153.8122 H   0  0  0  0  0  0  0  0  0  0  0  0
  146.3792  134.1786  155.2996 H   0  0  0  0  0  0  0  0  0  0  0  0
  148.0109  135.2313  153.0492 H   0  0  0  0  0  0  0  0  0  0  0  0
  149.4461  136.5086  153.4426 H   0  0  0  0  0  0  0  0  0  0  0  0
  151.5626  137.9186  153.4229 H   0  0  0  0  0  0  0  0  0  0  0  0
  153.1051  139.2730  154.7734 H   0  0  0  0  0  0  0  0  0  0  0  0
  152.6242  141.6386  157.6064 H   0  0  0  0  0  0  0  0  0  0  0  0
  151.2511  140.6819  158.1307 H   0  0  0  0  0  0  0  0  0  0  0  0
  153.7769  141.3361  159.6388 H   0  0  0  0  0  0  0  0  0  0  0  0
  152.1341  141.2233  160.2750 H   0  0  0  0  0  0  0  0  0  0  0  0
  153.8406  139.1584  160.6964 H   0  0  0  0  0  0  0  0  0  0  0  0
  152.1924  138.8018  160.1709 H   0  0  0  0  0  0  0  0  0  0  0  0
  153.4264  137.6967  158.4499 H   0  0  0  0  0  0  0  0  0  0  0  0
  154.6912  138.9198  158.4518 H   0  0  0  0  0  0  0  0  0  0  0  0
  149.4598  136.9007  157.1111 H   0  0  0  0  0  0  0  0  0  0  0  0
  147.8996  132.4372  154.2936 H   0  0  0  0  0  0  0  0  0  0  0  0
  146.2008  132.0597  154.1957 H   0  0  0  0  0  0  0  0  0  0  0  0
  147.2627  131.5348  152.0582 H   0  0  0  0  0  0  0  0  0  0  0  0
  147.9145  133.1534  151.9053 H   0  0  0  0  0  0  0  0  0  0  0  0
  145.0774  132.4530  151.9951 H   0  0  0  0  0  0  0  0  0  0  0  0
  150.9829  138.2059  158.2432 H   0  0  0  0  0  0  0  0  0  0  0  0
  1  2  1  0  0  0  0
  1 26  1  0  0  0  0
  1 27  1  0  0  0  0
  2  3  2  0  0  0  0
  2  4  1  0  0  0  0
  4  5  1  0  0  0  0
  4 28  1  0  0  0  0
  4 29  1  0  0  0  0
  5 25  1  0  0  0  0
  5  6  1  0  0  0  0
  5 52  1  0  0  0  0
  6  7  1  0  0  0  0
  6 30  1  0  0  0  0
  6 31  1  0  0  0  0
  7  8  1  0  0  0  0
  7 32  1  0  0  0  0
  7 33  1  0  0  0  0
  8  9  1  0  0  0  0
  8 24  1  0  0  0  0
  8 34  1  0  0  0  0
  9 10  1  0  0  0  0
  9 35  1  0  0  0  0
 10 11  2  0  0  0  0
 10 12  1  0  0  0  0
 12 13  1  0  0  0  0
 12 36  1  0  0  0  0
 13 23  1  0  0  0  0
 13 14  2  0  0  0  0
 14 15  1  0  0  0  0
 14 37  1  0  0  0  0
 15 16  2  0  0  0  0
 15 38  1  0  0  0  0
 16 17  1  0  0  0  0
 16 22  1  0  0  0  0
 17 21  1  0  0  0  0
 17 18  1  0  0  0  0
 18 19  1  0  0  0  0
 18 39  1  0  0  0  0
 18 40  1  0  0  0  0
 19 20  1  0  0  0  0
 19 41  1  0  0  0  0
 19 42  1  0  0  0  0
 20 21  1  0  0  0  0
 20 43  1  0  0  0  0
 20 44  1  0  0  0  0
 21 45  1  0  0  0  0
 21 46  1  0  0  0  0
 22 23  2  0  0  0  0
 22 53  1  0  0  0  0
 23 47  1  0  0  0  0
 24 25  1  0  0  0  0
 24 48  1  0  0  0  0
 24 49  1  0  0  0  0
 25 50  1  0  0  0  0
 25 51  1  0  0  0  0
M  CHG  1   5   1
M  CHG  1  22   1
M  END
> <s_m_source_file>
AV-unprocessed.smi

> <i_m_source_file_index>
1911

> <i_lp_mmshare_version>
43012

> <i_f3d_flags>
0

> <s_epik_input>
W05IMl1DKD1PKVtDSDJdTjFbQ0gyXVtDSDJdW0NIXShbQ0gyXVtDSDJdMSlbTkhdQyg9TylbTkhdYzJbY0hdW2NIXWMobltjSF0yKU4zW0NIMl1bQ0gyXVtDSDJdW0NIMl0z

> <s_epik_cmdline>
J2VwaWtfcHl0aG9uJywgJy1waCcsICc3LjAnLCAnLXRuJywgJzgnLCAnLW1hJywgJzIwMCcsICctbWV0YWxfYmluZGluZycsICctaW1hZScsICc8aW5maWxlLm1hZT4nLCAnLW9tYWUnLCAnPG91dGZpbGUubWFlPic=

> <r_lp_tautomer_probability>
0.999994

> <r_epik_Ionization_Penalty>
2.11361

> <r_epik_Ionization_Penalty_Charging>
2.11355

> <r_epik_Ionization_Penalty_Neutral>
5.99226e-05

> <r_epik_State_Penalty>
2.13444

> <r_epik_Charging_Adjusted_Penalty>
4.24799

> <i_epik_Tot_Q>
2

> <i_epik_Tot_abs_Q>
2

> <r_epik_Metal_State_Penalty>
2.23538

> <b_epik_Metal_Only>
0

> <s_lp_Force_Field>
OPLS_2005

> <r_lp_Energy>
50.1523

> <b_lp_Chiralities_Consistent>
1

> <s_lp_Variant>
AV-unprocessed.smi:1911-6

> <Gold.Version>
5.8.1

> <Gold.Id.Protein>
6NUR|6NUR_protein|mol2

> <Gold.PLP.Fitness>
48.5204

> <Gold.PLP.PLP>
-34.2944

> <Gold.PLP.part.hbond>
-4.9932

> <Gold.PLP.part.metal>
0.0000

> <Gold.PLP.part.buried>
-5.3827

> <Gold.PLP.part.nonpolar>
-24.2811

> <Gold.PLP.part.repulsive>
0.4510

> <Gold.PLP.ligand.clash>
0.0000

> <Gold.PLP.ligand.torsion>
0.3176

> <Gold.PLP.Chemscore.Hbond>
4.9120

> <Gold.PLP.Chemscore.CHOScore>
0.0000

> <Gold.PLP.Chemscore.Metal>
0.0000

> <Gold.Chemscore.Hbonds>
donor molecule, donor type, donor heavy atom, donor atom, acceptor molecule, acceptor atom, score
      L1  H     1    27       P1  7921  0.98
      L1  H     9    35       P1  7948  0.98
      L1  H    12    36       P1  7948  1.00
      P1  H  7997  8010       L1    17  1.00
      P1  H 10785 10796       L1     3  0.93

> <Gold.PLP.Chemscore.Internal.Correction>
0.1252

> <Gold.Rescore>
     Score         DG    S(hbond)    S(metal)    S(lipo)     H(rot)  DE(clash)    DE(int)     intcor
     19.46     -21.25       3.77        0.00      75.79       2.22       0.05       1.75       ----

> <Gold.Chemscore.Fitness>
19.4572

> <Gold.Chemscore.DG>
-21.2520

> <Gold.Chemscore.ZeroCoef>
-5.4800

> <Gold.Chemscore.Hbond>
3.7694

> <Gold.Chemscore.Metal>
0.0000

> <Gold.Chemscore.Lipo>
75.7866

> <Gold.Chemscore.Internal_Hbond>
0.0000

> <Gold.Chemscore.DEClash>
0.0485

> <Gold.Chemscore.DEInternal>
1.7462

> <Gold.Chemscore.Rot>
2.2207

> <Gold.Chemscore.Internal.Correction>
   9.000000E+99

> <Gold.Chemscore.Hbonds>
donor molecule, donor type, donor heavy atom, donor atom, acceptor molecule, acceptor atom, score
      L1  H     1    27       P1  7921  0.93
      L1  H     9    35       P1  7948  0.93
      L1  H    12    36       P1  7948  0.78
      P1  H  7997  8010       L1    17  0.11
      P1  H 10785 10796       L1     3  0.85

> <Gold.Chemscore.Hbond.Weighted>
-12.5898

> <Gold.Chemscore.Metal.Weighted>
-0.0000

> <Gold.Chemscore.Lipo.Weighted>
-8.8670

> <Gold.Chemscore.Internal_Hbond.Weighted>
0.0000

> <Gold.Chemscore.DEClash.Weighted>
0.0485

> <Gold.Chemscore.DEInternal.Weighted>
1.7462

> <Gold.Chemscore.Rot.Weighted>
5.6849

> <Gold.Chemscore.Internal.Correction.Weighted>
   9.000000E+99

> <Gold.Protein.RotatedTorsions>
[ 6907 6896 6895 6894 ] final -115.32 input  -60.11 | X-H torsion
[ 7974 7965 7964 7962 ] final  -55.20 input  175.53 | X-H torsion
[ 8008 7997 7996 7995 ] final   67.89 input   59.86 | X-H torsion
[ 10167 10162 10161 10158 ] final  -86.17 input  -65.29 | X-H torsion
[ 10718 10713 10712 10709 ] final -142.24 input   66.30 | X-H torsion
[ 10763 10752 10751 10750 ] final -153.93 input  -60.55 | X-H torsion
[ 11005 11000 10999 10996 ] final  -21.63 input  -57.11 | X-H torsion

> <Gold.Protein.ActiveResidues>
 VAL166  LYS551  ARG553  GLY616  TRP617  ASP618  TYR619  PRO620  LYS621  CYS622 
 ASP623  PHE694  ASN695  SER759  ASP760  ASP761  ALA762  ILE779  LEU786  VAL792 
 PHE793  MET794  SER795  GLU796  ALA797  LYS798  CYS799  TRP800  GLU811  SER814 

> <Gold.Protein.RotatedAtoms>
  150.7969  133.8675  159.3249 H   0  0  0  0  0  0  0  0  0  0  0  0  # atno 6907 bound_to 6896
  151.6498  135.1001  160.0168 H   0  0  0  0  0  0  0  0  0  0  0  0  # atno 6908 bound_to 6896
  152.4051  133.6838  159.6385 H   0  0  0  0  0  0  0  0  0  0  0  0  # atno 6909 bound_to 6896
  145.8769  140.8174  142.9860 H   0  0  0  0  0  0  0  0  0  0  0  0  # atno 7974 bound_to 7965
  155.6999  140.3495  155.4928 H   0  0  0  0  0  0  0  0  0  0  0  0  # atno 8008 bound_to 7997
  155.9450  140.1108  157.1046 H   0  0  0  0  0  0  0  0  0  0  0  0  # atno 8009 bound_to 7997
  154.4110  140.1205  156.4963 H   0  0  0  0  0  0  0  0  0  0  0  0  # atno 8010 bound_to 7997
  140.3967  143.2680  151.9195 H   0  0  0  0  0  0  0  0  0  0  0  0  # atno 10167 bound_to 10162
  156.3435  130.7650  151.1790 H   0  0  0  0  0  0  0  0  0  0  0  0  # atno 10718 bound_to 10713
  154.7894  135.3201  154.7811 H   0  0  0  0  0  0  0  0  0  0  0  0  # atno 10763 bound_to 10752
  153.8504  135.6863  153.4797 H   0  0  0  0  0  0  0  0  0  0  0  0  # atno 10764 bound_to 10752
  153.1558  135.4680  154.9642 H   0  0  0  0  0  0  0  0  0  0  0  0  # atno 10765 bound_to 10752
  140.8579  133.7809  156.0041 H   0  0  0  0  0  0  0  0  0  0  0  0  # atno 11005 bound_to 11000
  144.6726  140.1324  143.7443 LP  0  0  0  0  0  0  0  0  0  0  0  0  # atno 17320 bound_to 7965
  145.9070  139.2464  143.1460 LP  0  0  0  0  0  0  0  0  0  0  0  0  # atno 17321 bound_to 7965
  139.4786  144.5674  151.8143 LP  0  0  0  0  0  0  0  0  0  0  0  0  # atno 17342 bound_to 10162
  140.4783  144.1487  150.5928 LP  0  0  0  0  0  0  0  0  0  0  0  0  # atno 17343 bound_to 10162
  157.7450  131.0448  150.4810 LP  0  0  0  0  0  0  0  0  0  0  0  0  # atno 17370 bound_to 10713
  156.4993  130.4113  149.6362 LP  0  0  0  0  0  0  0  0  0  0  0  0  # atno 17371 bound_to 10713
  140.8716  134.2720  157.5188 LP  0  0  0  0  0  0  0  0  0  0  0  0  # atno 17394 bound_to 11000
  139.8706  134.9570  156.4255 LP  0  0  0  0  0  0  0  0  0  0  0  0  # atno 17395 bound_to 11000

$$$$
