AV-unprocessed.smi:1047|AV-procd|sdf|4571|dock9
  -GOLD-   22720 3 23D 1   1.00000     0.00000
 Structure written by MMmdl.
 56 58  0  0  0  0  0  0  0  0  2 V2000
  141.1984  146.2973  155.6082 C   0  0  0  0  0  0  0  0  0  0  0  0
  142.4313  145.9665  154.7547 C   0  0  0  0  0  0  0  0  0  0  0  0
  143.1248  144.7337  155.1246 N   0  0  0  0  0  0  0  0  0  0  0  0
  143.5416  144.7681  156.5221 C   0  0  0  0  0  0  0  0  0  0  0  0
  144.2765  143.4814  156.9335 C   0  0  0  0  0  0  0  0  0  0  0  0
  145.3909  143.2758  156.0712 O   0  0  0  0  0  0  0  0  0  0  0  0
  145.0212  143.1777  154.6977 C   0  0  2  0  0  0  0  0  0  0  0  0
  146.2942  142.9475  153.8724 C   0  0  0  0  0  0  0  0  0  0  0  0
  147.3162  142.2331  154.6620 N   0  3  0  0  0  0  0  0  0  0  0  0
  147.9316  141.0916  153.9571 C   0  0  0  0  0  0  0  0  0  0  0  0
  149.1765  140.5777  154.7040 C   0  0  1  0  0  0  0  0  0  0  0  0
  149.9654  139.8221  153.8049 O   0  0  0  0  0  0  0  0  0  0  0  0
  150.0404  141.7028  155.3149 C   0  0  0  0  0  0  0  0  0  0  0  0
  150.9879  141.2318  156.3127 N   0  0  0  0  0  0  0  0  0  0  0  0
  151.7302  140.1088  156.2586 C   0  0  0  0  0  0  0  0  0  0  0  0
  152.5484  139.8693  157.2785 N   0  0  0  0  0  0  0  0  0  0  0  0
  152.2988  140.9564  158.0979 C   0  0  0  0  0  0  0  0  0  0  0  0
  152.8499  141.3059  159.3500 C   0  0  0  0  0  0  0  0  0  0  0  0
  152.4421  142.4819  160.0186 C   0  0  0  0  0  0  0  0  0  0  0  0
  153.0625  142.8194  161.3631 C   0  0  0  0  0  0  0  0  0  0  0  0
  151.4660  143.3288  159.4350 C   0  0  0  0  0  0  0  0  0  0  0  0
  151.0087  144.5947  160.1384 C   0  0  0  0  0  0  0  0  0  0  0  0
  150.9058  142.9954  158.1841 C   0  0  0  0  0  0  0  0  0  0  0  0
  151.3228  141.8244  157.5263 C   0  0  0  0  0  0  0  0  0  0  0  0
  144.2936  144.4740  154.2875 C   0  0  0  0  0  0  0  0  0  0  0  0
  140.8045  147.2795  155.3468 H   0  0  0  0  0  0  0  0  0  0  0  0
  141.4477  146.3137  156.6695 H   0  0  0  0  0  0  0  0  0  0  0  0
  140.3936  145.5779  155.4598 H   0  0  0  0  0  0  0  0  0  0  0  0
  142.1470  145.9321  153.7018 H   0  0  0  0  0  0  0  0  0  0  0  0
  143.1265  146.8018  154.8494 H   0  0  0  0  0  0  0  0  0  0  0  0
  144.1950  145.6254  156.6925 H   0  0  0  0  0  0  0  0  0  0  0  0
  142.6719  144.9066  157.1654 H   0  0  0  0  0  0  0  0  0  0  0  0
  144.6301  143.5584  157.9617 H   0  0  0  0  0  0  0  0  0  0  0  0
  143.6067  142.6211  156.8877 H   0  0  0  0  0  0  0  0  0  0  0  0
  144.3472  142.3291  154.5643 H   0  0  0  0  0  0  0  0  0  0  0  0
  146.0579  142.3525  152.9891 H   0  0  0  0  0  0  0  0  0  0  0  0
  146.6966  143.8992  153.5219 H   0  0  0  0  0  0  0  0  0  0  0  0
  148.0434  142.8884  154.9115 H   0  0  0  0  0  0  0  0  0  0  0  0
  147.1937  140.2970  153.8363 H   0  0  0  0  0  0  0  0  0  0  0  0
  148.2152  141.4214  152.9568 H   0  0  0  0  0  0  0  0  0  0  0  0
  148.8622  139.9142  155.5108 H   0  0  0  0  0  0  0  0  0  0  0  0
  149.5420  139.8199  152.9596 H   0  0  0  0  0  0  0  0  0  0  0  0
  150.5973  142.2119  154.5274 H   0  0  0  0  0  0  0  0  0  0  0  0
  149.4035  142.4600  155.7744 H   0  0  0  0  0  0  0  0  0  0  0  0
  151.6730  139.4331  155.4174 H   0  0  0  0  0  0  0  0  0  0  0  0
  153.5919  140.6593  159.7955 H   0  0  0  0  0  0  0  0  0  0  0  0
  152.2933  142.8952  162.1319 H   0  0  0  0  0  0  0  0  0  0  0  0
  153.5943  143.7699  161.3097 H   0  0  0  0  0  0  0  0  0  0  0  0
  153.7745  142.0555  161.6766 H   0  0  0  0  0  0  0  0  0  0  0  0
  150.2906  145.1496  159.5338 H   0  0  0  0  0  0  0  0  0  0  0  0
  151.8562  145.2513  160.3364 H   0  0  0  0  0  0  0  0  0  0  0  0
  150.5304  144.3508  161.0871 H   0  0  0  0  0  0  0  0  0  0  0  0
  150.1604  143.6324  157.7316 H   0  0  0  0  0  0  0  0  0  0  0  0
  143.9959  144.3907  153.2427 H   0  0  0  0  0  0  0  0  0  0  0  0
  144.9850  145.3159  154.3491 H   0  0  0  0  0  0  0  0  0  0  0  0
  146.8889  141.8894  155.5104 H   0  0  0  0  0  0  0  0  0  0  0  0
  1  2  1  0  0  0  0
  1 26  1  0  0  0  0
  1 27  1  0  0  0  0
  1 28  1  0  0  0  0
  2  3  1  0  0  0  0
  2 29  1  0  0  0  0
  2 30  1  0  0  0  0
  3 25  1  0  0  0  0
  3  4  1  0  0  0  0
  4  5  1  0  0  0  0
  4 31  1  0  0  0  0
  4 32  1  0  0  0  0
  5  6  1  0  0  0  0
  5 33  1  0  0  0  0
  5 34  1  0  0  0  0
  6  7  1  0  0  0  0
  7  8  1  0  0  0  0
  7 25  1  0  0  0  0
  7 35  1  0  0  0  0
  8  9  1  0  0  0  0
  8 36  1  0  0  0  0
  8 37  1  0  0  0  0
  9 10  1  0  0  0  0
  9 38  1  0  0  0  0
  9 56  1  0  0  0  0
 10 11  1  0  0  0  0
 10 39  1  0  0  0  0
 10 40  1  0  0  0  0
 11 12  1  0  0  0  0
 11 13  1  0  0  0  0
 11 41  1  0  0  0  0
 12 42  1  0  0  0  0
 13 14  1  0  0  0  0
 13 43  1  0  0  0  0
 13 44  1  0  0  0  0
 14 24  1  0  0  0  0
 14 15  1  0  0  0  0
 15 16  2  0  0  0  0
 15 45  1  0  0  0  0
 16 17  1  0  0  0  0
 17 24  2  0  0  0  0
 17 18  1  0  0  0  0
 18 19  2  0  0  0  0
 18 46  1  0  0  0  0
 19 20  1  0  0  0  0
 19 21  1  0  0  0  0
 20 47  1  0  0  0  0
 20 48  1  0  0  0  0
 20 49  1  0  0  0  0
 21 22  1  0  0  0  0
 21 23  2  0  0  0  0
 22 50  1  0  0  0  0
 22 51  1  0  0  0  0
 22 52  1  0  0  0  0
 23 24  1  0  0  0  0
 23 53  1  0  0  0  0
 25 54  1  0  0  0  0
 25 55  1  0  0  0  0
M  CHG  1   9   1
M  END
> <s_m_source_file>
AV-unprocessed.smi

> <i_m_source_file_index>
1047

> <i_lp_mmshare_version>
43012

> <i_f3d_flags>
0

> <s_epik_input>
W0NIM11bQ0gyXU4xW0NIMl1bQ0gyXU9bQ0BIXShbQ0gyXTEpW0NIMl1bTkhdW0NIMl1bQ0BIXShbT0hdKVtDSDJdbihbY0hdbjIpYyhjMjMpW2NIXWMoW0NIM10pYyhbY0hdMylbQ0gzXQ==

> <s_epik_cmdline>
J2VwaWtfcHl0aG9uJywgJy1waCcsICc3LjAnLCAnLXRuJywgJzgnLCAnLW1hJywgJzIwMCcsICctbWV0YWxfYmluZGluZycsICctaW1hZScsICc8aW5maWxlLm1hZT4nLCAnLW9tYWUnLCAnPG91dGZpbGUubWFlPic=

> <r_epik_Ionization_Penalty>
0.692425

> <r_epik_Ionization_Penalty_Charging>
0.0243549

> <r_epik_Ionization_Penalty_Neutral>
0.66807

> <r_epik_State_Penalty>
0.592789

> <r_epik_Charging_Adjusted_Penalty>
0.617144

> <i_epik_Tot_Q>
1

> <i_epik_Tot_abs_Q>
1

> <r_epik_Metal_State_Penalty>
0.508021

> <b_epik_Metal_Only>
0

> <s_lp_Force_Field>
OPLS_2005

> <r_lp_Energy>
28.1656

> <b_lp_Chiralities_Consistent>
1

> <s_lp_Variant>
AV-unprocessed.smi:1047-12

> <Gold.Version>
5.8.1

> <Gold.Id.Protein>
6NUR|6NUR_protein|mol2

> <Gold.PLP.Fitness>
66.8981

> <Gold.PLP.PLP>
-54.6307

> <Gold.PLP.part.hbond>
-4.0000

> <Gold.PLP.part.metal>
0.0000

> <Gold.PLP.part.buried>
-7.6880

> <Gold.PLP.part.nonpolar>
-42.4455

> <Gold.PLP.part.repulsive>
0.3504

> <Gold.PLP.ligand.clash>
0.0000

> <Gold.PLP.ligand.torsion>
1.3388

> <Gold.PLP.Chemscore.Hbond>
4.8960

> <Gold.PLP.Chemscore.CHOScore>
0.0000

> <Gold.PLP.Chemscore.Metal>
0.0000

> <Gold.Chemscore.Hbonds>
donor molecule, donor type, donor heavy atom, donor atom, acceptor molecule, acceptor atom, score
      L1  H     9    38       P1  8028  1.56
      L1  H    12    42       P1  7957  1.00
      P1  H  7989  7998       L1    12  0.86
      P1  H  7997  8009       L1    16  1.00

> <Gold.PLP.Chemscore.Internal.Correction>
0.2570

> <Gold.Rescore>
     Score         DG    S(hbond)    S(metal)    S(lipo)     H(rot)  DE(clash)    DE(int)     intcor
     22.12     -24.73       2.95        0.00     137.24       2.60       0.13       2.48       ----

> <Gold.Chemscore.Fitness>
22.1198

> <Gold.Chemscore.DG>
-24.7315

> <Gold.Chemscore.ZeroCoef>
-5.4800

> <Gold.Chemscore.Hbond>
2.9529

> <Gold.Chemscore.Metal>
0.0000

> <Gold.Chemscore.Lipo>
137.2413

> <Gold.Chemscore.Internal_Hbond>
0.0000

> <Gold.Chemscore.DEClash>
0.1347

> <Gold.Chemscore.DEInternal>
2.4771

> <Gold.Chemscore.Rot>
2.6049

> <Gold.Chemscore.Internal.Correction>
   9.000000E+99

> <Gold.Chemscore.Hbonds>
donor molecule, donor type, donor heavy atom, donor atom, acceptor molecule, acceptor atom, score
      L1  H     9    38       P1  8028  0.72
      L1  H    12    42       P1  7957  0.94
      P1  H  7989  7998       L1    12  0.20
      P1  H  7997  8009       L1    16  0.37

> <Gold.Chemscore.Hbond.Weighted>
-9.8627

> <Gold.Chemscore.Metal.Weighted>
-0.0000

> <Gold.Chemscore.Lipo.Weighted>
-16.0572

> <Gold.Chemscore.Internal_Hbond.Weighted>
0.0000

> <Gold.Chemscore.DEClash.Weighted>
0.1347

> <Gold.Chemscore.DEInternal.Weighted>
2.4771

> <Gold.Chemscore.Rot.Weighted>
6.6685

> <Gold.Chemscore.Internal.Correction.Weighted>
   9.000000E+99

> <Gold.Protein.RotatedTorsions>
[ 6907 6896 6895 6894 ] final  -17.01 input  -60.11 | X-H torsion
[ 7974 7965 7964 7962 ] final   65.83 input  175.53 | X-H torsion
[ 8008 7997 7996 7995 ] final  174.56 input   59.86 | X-H torsion
[ 10167 10162 10161 10158 ] final -167.14 input  -65.29 | X-H torsion
[ 10718 10713 10712 10709 ] final   78.47 input   66.30 | X-H torsion
[ 10763 10752 10751 10750 ] final  -15.29 input  -60.55 | X-H torsion
[ 11005 11000 10999 10996 ] final  144.26 input  -57.11 | X-H torsion

> <Gold.Protein.ActiveResidues>
 VAL166  LYS551  ARG553  GLY616  TRP617  ASP618  TYR619  PRO620  LYS621  CYS622 
 ASP623  PHE694  ASN695  SER759  ASP760  ASP761  ALA762  ILE779  LEU786  VAL792 
 PHE793  MET794  SER795  GLU796  ALA797  LYS798  CYS799  TRP800  GLU811  SER814 

> <Gold.Protein.RotatedAtoms>
  151.2998  135.0765  159.9234 H   0  0  0  0  0  0  0  0  0  0  0  0  # atno 6907 bound_to 6896
  152.5300  133.9845  159.7832 H   0  0  0  0  0  0  0  0  0  0  0  0  # atno 6908 bound_to 6896
  151.0130  133.5896  159.2711 H   0  0  0  0  0  0  0  0  0  0  0  0  # atno 6909 bound_to 6896
  145.8338  139.3154  143.0972 H   0  0  0  0  0  0  0  0  0  0  0  0  # atno 7974 bound_to 7965
  156.0961  140.1431  156.9529 H   0  0  0  0  0  0  0  0  0  0  0  0  # atno 8008 bound_to 7997
  154.4672  140.0922  156.7098 H   0  0  0  0  0  0  0  0  0  0  0  0  # atno 8009 bound_to 7997
  155.4838  140.3446  155.4346 H   0  0  0  0  0  0  0  0  0  0  0  0  # atno 8010 bound_to 7997
  139.6069  144.0894  152.1802 H   0  0  0  0  0  0  0  0  0  0  0  0  # atno 10167 bound_to 10162
  157.6746  130.9870  150.1792 H   0  0  0  0  0  0  0  0  0  0  0  0  # atno 10718 bound_to 10713
  153.5411  135.7013  153.5636 H   0  0  0  0  0  0  0  0  0  0  0  0  # atno 10763 bound_to 10752
  153.3602  135.3972  155.1712 H   0  0  0  0  0  0  0  0  0  0  0  0  # atno 10764 bound_to 10752
  154.8673  135.3786  154.4915 H   0  0  0  0  0  0  0  0  0  0  0  0  # atno 10765 bound_to 10752
  140.0618  134.9200  157.1197 H   0  0  0  0  0  0  0  0  0  0  0  0  # atno 11005 bound_to 11000
  145.9542  140.8886  143.0244 LP  0  0  0  0  0  0  0  0  0  0  0  0  # atno 17320 bound_to 7965
  144.6738  140.1722  143.7413 LP  0  0  0  0  0  0  0  0  0  0  0  0  # atno 17321 bound_to 7965
  140.0504  144.5937  150.7341 LP  0  0  0  0  0  0  0  0  0  0  0  0  # atno 17342 bound_to 10162
  140.7291  143.2669  151.4015 LP  0  0  0  0  0  0  0  0  0  0  0  0  # atno 17343 bound_to 10162
  156.2528  130.3702  149.8214 LP  0  0  0  0  0  0  0  0  0  0  0  0  # atno 17370 bound_to 10713
  156.5982  130.8535  151.3425 LP  0  0  0  0  0  0  0  0  0  0  0  0  # atno 17371 bound_to 10713
  140.3758  134.2340  155.7174 LP  0  0  0  0  0  0  0  0  0  0  0  0  # atno 17394 bound_to 11000
  141.1976  133.8055  157.0619 LP  0  0  0  0  0  0  0  0  0  0  0  0  # atno 17395 bound_to 11000

$$$$
