AV-unprocessed.smi:651|AV-procd|sdf|3188|dock9
  -GOLD-   22720 0113D 1   1.00000     0.00000
 Structure written by MMmdl.
 39 40  0  0  0  0  0  0  0  0  2 V2000
  153.5154  143.4174  163.4138 C   0  0  0  0  0  0  0  0  0  0  0  0
  153.0315  143.4400  161.9795 C   0  0  0  0  0  0  0  0  0  0  0  0
  153.3351  142.4073  161.0667 C   0  0  0  0  0  0  0  0  0  0  0  0
  152.8434  142.4877  159.7475 C   0  0  0  0  0  0  0  0  0  0  0  0
  152.0549  143.5967  159.3674 C   0  0  0  0  0  0  0  0  0  0  0  0
  151.4905  143.7014  157.9612 C   0  0  0  0  0  0  0  0  0  0  0  0
  150.5703  142.5149  157.6722 C   0  0  0  0  0  0  0  0  0  0  0  0
  150.4395  141.6204  158.5067 O   0  0  0  0  0  0  0  0  0  0  0  0
  149.9529  142.5141  156.4807 N   0  0  0  0  0  0  0  0  0  0  0  0
  149.0799  141.4544  155.9833 C   0  0  2  0  0  0  0  0  0  0  0  0
  149.5578  140.8946  154.6312 C   0  0  0  0  0  0  0  0  0  0  0  0
  148.2830  140.5875  153.8522 C   0  0  0  0  0  0  0  0  0  0  0  0
  147.3202  141.6947  154.2720 C   0  0  0  0  0  0  0  0  0  0  0  0
  147.6421  141.9912  155.7496 C   0  0  1  0  0  0  0  0  0  0  0  0
  146.6214  141.3517  156.7058 C   0  0  0  0  0  0  0  0  0  0  0  0
  145.3438  141.7140  156.5640 N   0  0  0  0  0  0  0  0  0  0  0  0
  146.9788  140.5399  157.5576 O   0  0  0  0  0  0  0  0  0  0  0  0
  151.7880  144.6017  160.3226 C   0  0  0  0  0  0  0  0  0  0  0  0
  152.2779  144.4877  161.5764 N   0  3  0  0  0  0  0  0  0  0  0  0
  154.3352  142.7090  163.5378 H   0  0  0  0  0  0  0  0  0  0  0  0
  152.7050  143.1223  164.0808 H   0  0  0  0  0  0  0  0  0  0  0  0
  153.8705  144.4027  163.7168 H   0  0  0  0  0  0  0  0  0  0  0  0
  153.9337  141.5613  161.3719 H   0  0  0  0  0  0  0  0  0  0  0  0
  153.0636  141.7017  159.0400 H   0  0  0  0  0  0  0  0  0  0  0  0
  150.9367  144.6357  157.8575 H   0  0  0  0  0  0  0  0  0  0  0  0
  152.2977  143.7288  157.2278 H   0  0  0  0  0  0  0  0  0  0  0  0
  150.1152  143.2949  155.8620 H   0  0  0  0  0  0  0  0  0  0  0  0
  149.0712  140.6406  156.7121 H   0  0  0  0  0  0  0  0  0  0  0  0
  150.1310  141.6480  154.0883 H   0  0  0  0  0  0  0  0  0  0  0  0
  150.1961  140.0178  154.7458 H   0  0  0  0  0  0  0  0  0  0  0  0
  148.4458  140.5574  152.7744 H   0  0  0  0  0  0  0  0  0  0  0  0
  147.8882  139.6178  154.1584 H   0  0  0  0  0  0  0  0  0  0  0  0
  147.5112  142.5874  153.6752 H   0  0  0  0  0  0  0  0  0  0  0  0
  146.2803  141.4135  154.0990 H   0  0  0  0  0  0  0  0  0  0  0  0
  147.6070  143.0735  155.8908 H   0  0  0  0  0  0  0  0  0  0  0  0
  144.6363  141.3249  157.1700 H   0  0  0  0  0  0  0  0  0  0  0  0
  145.0906  142.3816  155.8499 H   0  0  0  0  0  0  0  0  0  0  0  0
  151.1933  145.4821  160.1254 H   0  0  0  0  0  0  0  0  0  0  0  0
  152.0669  145.2242  162.2504 H   0  0  0  0  0  0  0  0  0  0  0  0
  1  2  1  0  0  0  0
  1 20  1  0  0  0  0
  1 21  1  0  0  0  0
  1 22  1  0  0  0  0
  2 19  1  0  0  0  0
  2  3  2  0  0  0  0
  3  4  1  0  0  0  0
  3 23  1  0  0  0  0
  4  5  2  0  0  0  0
  4 24  1  0  0  0  0
  5  6  1  0  0  0  0
  5 18  1  0  0  0  0
  6  7  1  0  0  0  0
  6 25  1  0  0  0  0
  6 26  1  0  0  0  0
  7  8  2  0  0  0  0
  7  9  1  0  0  0  0
  9 10  1  0  0  0  0
  9 27  1  0  0  0  0
 10 14  1  0  0  0  0
 10 11  1  0  0  0  0
 10 28  1  0  0  0  0
 11 12  1  0  0  0  0
 11 29  1  0  0  0  0
 11 30  1  0  0  0  0
 12 13  1  0  0  0  0
 12 31  1  0  0  0  0
 12 32  1  0  0  0  0
 13 14  1  0  0  0  0
 13 33  1  0  0  0  0
 13 34  1  0  0  0  0
 14 15  1  0  0  0  0
 14 35  1  0  0  0  0
 15 16  1  0  0  0  0
 15 17  2  0  0  0  0
 16 36  1  0  0  0  0
 16 37  1  0  0  0  0
 18 19  2  0  0  0  0
 18 38  1  0  0  0  0
 19 39  1  0  0  0  0
M  CHG  1  19   1
M  END
> <s_m_source_file>
AV-unprocessed.smi

> <i_m_source_file_index>
651

> <i_lp_mmshare_version>
43012

> <i_f3d_flags>
0

> <s_epik_input>
W0NIM11jMVtjSF1bY0hdYyhbY0hdbjEpW0NIMl1DKD1PKVtOSF1bQ0BASF0yW0NIMl1bQ0gyXVtDSDJdW0NASF0yQyg9TylbTkgyXQ==

> <s_epik_cmdline>
J2VwaWtfcHl0aG9uJywgJy1waCcsICc3LjAnLCAnLXRuJywgJzgnLCAnLW1hJywgJzIwMCcsICctbWV0YWxfYmluZGluZycsICctaW1hZScsICc8aW5maWxlLm1hZT4nLCAnLW9tYWUnLCAnPG91dGZpbGUubWFlPic=

> <r_epik_Ionization_Penalty>
2.14971

> <r_epik_Ionization_Penalty_Charging>
2.14971

> <r_epik_Ionization_Penalty_Neutral>
1.65229e-07

> <r_epik_State_Penalty>
2.28946

> <r_epik_Charging_Adjusted_Penalty>
4.43917

> <i_epik_Tot_Q>
1

> <i_epik_Tot_abs_Q>
1

> <r_epik_Metal_State_Penalty>
2.30508

> <b_epik_Metal_Only>
0

> <s_lp_Force_Field>
OPLS_2005

> <r_lp_Energy>
20.422

> <b_lp_Chiralities_Consistent>
1

> <s_lp_Variant>
AV-unprocessed.smi:651-5

> <Gold.Version>
5.8.1

> <Gold.Id.Protein>
6NUR|6NUR_protein|mol2

> <Gold.PLP.Fitness>
44.8862

> <Gold.PLP.PLP>
-42.1472

> <Gold.PLP.part.hbond>
-2.3228

> <Gold.PLP.part.metal>
0.0000

> <Gold.PLP.part.buried>
-4.8865

> <Gold.PLP.part.nonpolar>
-35.5686

> <Gold.PLP.part.repulsive>
0.1192

> <Gold.PLP.ligand.clash>
0.0000

> <Gold.PLP.ligand.torsion>
0.0252

> <Gold.PLP.Chemscore.Hbond>
0.9280

> <Gold.PLP.Chemscore.CHOScore>
0.0000

> <Gold.PLP.Chemscore.Metal>
0.0000

> <Gold.Chemscore.Hbonds>
donor molecule, donor type, donor heavy atom, donor atom, acceptor molecule, acceptor atom, score
      L1  H     9    27       P1  8028  0.48

> <Gold.PLP.Chemscore.Internal.Correction>
0.0054

> <Gold.Rescore>
     Score         DG    S(hbond)    S(metal)    S(lipo)     H(rot)  DE(clash)    DE(int)     intcor
     14.97     -15.96       0.90        0.00     108.63       2.04       0.03       0.96       ----

> <Gold.Chemscore.Fitness>
14.9659

> <Gold.Chemscore.DG>
-15.9619

> <Gold.Chemscore.ZeroCoef>
-5.4800

> <Gold.Chemscore.Hbond>
0.8953

> <Gold.Chemscore.Metal>
0.0000

> <Gold.Chemscore.Lipo>
108.6342

> <Gold.Chemscore.Internal_Hbond>
0.0000

> <Gold.Chemscore.DEClash>
0.0318

> <Gold.Chemscore.DEInternal>
0.9642

> <Gold.Chemscore.Rot>
2.0386

> <Gold.Chemscore.Internal.Correction>
   9.000000E+99

> <Gold.Chemscore.Hbonds>
donor molecule, donor type, donor heavy atom, donor atom, acceptor molecule, acceptor atom, score
      L1  H     9    27       P1  8028  0.48

> <Gold.Chemscore.Hbond.Weighted>
-2.9905

> <Gold.Chemscore.Metal.Weighted>
-0.0000

> <Gold.Chemscore.Lipo.Weighted>
-12.7102

> <Gold.Chemscore.Internal_Hbond.Weighted>
0.0000

> <Gold.Chemscore.DEClash.Weighted>
0.0318

> <Gold.Chemscore.DEInternal.Weighted>
0.9642

> <Gold.Chemscore.Rot.Weighted>
5.2188

> <Gold.Chemscore.Internal.Correction.Weighted>
   9.000000E+99

> <Gold.Protein.RotatedTorsions>
[ 6907 6896 6895 6894 ] final  141.18 input  -60.11 | X-H torsion
[ 7974 7965 7964 7962 ] final -164.72 input  175.53 | X-H torsion
[ 8008 7997 7996 7995 ] final  -15.38 input   59.86 | X-H torsion
[ 10167 10162 10161 10158 ] final  157.87 input  -65.29 | X-H torsion
[ 10718 10713 10712 10709 ] final  -96.96 input   66.30 | X-H torsion
[ 10763 10752 10751 10750 ] final  -64.45 input  -60.55 | X-H torsion
[ 11005 11000 10999 10996 ] final  159.75 input  -57.11 | X-H torsion

> <Gold.Protein.ActiveResidues>
 VAL166  LYS551  ARG553  GLY616  TRP617  ASP618  TYR619  PRO620  LYS621  CYS622 
 ASP623  PHE694  ASN695  SER759  ASP760  ASP761  ALA762  ILE779  LEU786  VAL792 
 PHE793  MET794  SER795  GLU796  ALA797  LYS798  CYS799  TRP800  GLU811  SER814 

> <Gold.Protein.RotatedAtoms>
  152.2341  133.5081  159.5231 H   0  0  0  0  0  0  0  0  0  0  0  0  # atno 6907 bound_to 6896
  150.7045  134.1177  159.4032 H   0  0  0  0  0  0  0  0  0  0  0  0  # atno 6908 bound_to 6896
  151.9099  135.0343  160.0564 H   0  0  0  0  0  0  0  0  0  0  0  0  # atno 6909 bound_to 6896
  144.7289  140.2920  143.6219 H   0  0  0  0  0  0  0  0  0  0  0  0  # atno 7974 bound_to 7965
  154.5135  140.2198  155.9111 H   0  0  0  0  0  0  0  0  0  0  0  0  # atno 8008 bound_to 7997
  156.1580  140.3148  155.8724 H   0  0  0  0  0  0  0  0  0  0  0  0  # atno 8009 bound_to 7997
  155.3808  140.0472  157.3034 H   0  0  0  0  0  0  0  0  0  0  0  0  # atno 8010 bound_to 7997
  139.4824  144.4877  151.8353 H   0  0  0  0  0  0  0  0  0  0  0  0  # atno 10167 bound_to 10162
  156.0073  130.5174  150.6304 H   0  0  0  0  0  0  0  0  0  0  0  0  # atno 10718 bound_to 10713
  154.3303  135.6178  153.5548 H   0  0  0  0  0  0  0  0  0  0  0  0  # atno 10763 bound_to 10752
  152.9812  135.5745  154.4969 H   0  0  0  0  0  0  0  0  0  0  0  0  # atno 10764 bound_to 10752
  154.4654  135.2857  155.1659 H   0  0  0  0  0  0  0  0  0  0  0  0  # atno 10765 bound_to 10752
  140.1992  134.8350  157.2999 H   0  0  0  0  0  0  0  0  0  0  0  0  # atno 11005 bound_to 11000
  145.7846  139.1904  143.2138 LP  0  0  0  0  0  0  0  0  0  0  0  0  # atno 17320 bound_to 7965
  146.0806  140.7768  142.9643 LP  0  0  0  0  0  0  0  0  0  0  0  0  # atno 17321 bound_to 7965
  140.4358  144.2053  150.5889 LP  0  0  0  0  0  0  0  0  0  0  0  0  # atno 17342 bound_to 10162
  140.4733  143.2405  151.9059 LP  0  0  0  0  0  0  0  0  0  0  0  0  # atno 17343 bound_to 10162
  157.4103  131.0822  151.1227 LP  0  0  0  0  0  0  0  0  0  0  0  0  # atno 17370 bound_to 10713
  157.1861  130.6331  149.5688 LP  0  0  0  0  0  0  0  0  0  0  0  0  # atno 17371 bound_to 10713
  140.2073  134.4182  155.7631 LP  0  0  0  0  0  0  0  0  0  0  0  0  # atno 17394 bound_to 11000
  141.2227  133.7101  156.8280 LP  0  0  0  0  0  0  0  0  0  0  0  0  # atno 17395 bound_to 11000

$$$$
