AV-unprocessed.smi:701|AV-procd|sdf|3414|dock2
  -GOLD-   22720 0393D 1   1.00000     0.00000
 Structure written by MMmdl.
 48 50  0  0  0  0  0  0  0  0  2 V2000
  146.8193  138.9982  153.4895 C   0  0  0  0  0  0  0  0  0  0  0  0
  147.0065  137.6278  154.1439 C   0  0  0  0  0  0  0  0  0  0  0  0
  147.8287  137.7823  155.2876 O   0  0  0  0  0  0  0  0  0  0  0  0
  149.2078  137.5544  155.0269 C   0  0  2  0  0  0  0  0  0  0  0  0
  149.5470  136.0589  155.0035 C   0  0  0  0  0  0  0  0  0  0  0  0
  149.9030  136.1684  156.4899 C   0  0  2  0  0  0  0  0  0  0  0  0
  148.7626  135.7986  157.3276 N   0  0  0  0  0  0  0  0  0  0  0  0
  148.6823  134.6773  158.0575 C   0  0  0  0  0  0  0  0  0  0  0  0
  149.5589  133.8122  158.0650 O   0  0  0  0  0  0  0  0  0  0  0  0
  147.4076  134.5022  158.8915 C   0  0  0  0  0  0  0  0  0  0  0  0
  147.4763  135.2219  160.1726 N   0  0  0  0  0  0  0  0  0  0  0  0
  147.3298  134.4734  161.3537 C   0  0  0  0  0  0  0  0  0  0  0  0
  147.3854  135.0482  162.5702 C   0  0  0  0  0  0  0  0  0  0  0  0
  147.6038  136.4877  162.6443 C   0  0  0  0  0  0  0  0  0  0  0  0
  147.6513  137.0303  163.7465 O   0  0  0  0  0  0  0  0  0  0  0  0
  147.7459  137.1693  161.4700 N   0  5  0  0  0  0  0  0  0  0  0  0
  147.6901  136.5708  160.2397 C   0  0  0  0  0  0  0  0  0  0  0  0
  147.8235  137.2046  159.1922 O   0  0  0  0  0  0  0  0  0  0  0  0
  150.0844  137.7021  156.2989 C   0  0  0  0  0  0  0  0  0  0  0  0
  151.5456  138.1209  156.0314 C   0  0  0  0  0  0  0  0  0  0  0  0
  151.6944  139.5990  155.6293 C   0  0  0  0  0  0  0  0  0  0  0  0
  151.0931  140.5288  156.6898 C   0  0  0  0  0  0  0  0  0  0  0  0
  149.6494  140.1307  157.0171 C   0  0  0  0  0  0  0  0  0  0  0  0
  149.5576  138.6459  157.4040 C   0  0  0  0  0  0  0  0  0  0  0  0
  146.2001  138.9230  152.5955 H   0  0  0  0  0  0  0  0  0  0  0  0
  147.7786  139.4267  153.1977 H   0  0  0  0  0  0  0  0  0  0  0  0
  146.3359  139.6955  154.1744 H   0  0  0  0  0  0  0  0  0  0  0  0
  146.0366  137.2124  154.4197 H   0  0  0  0  0  0  0  0  0  0  0  0
  147.4734  136.9378  153.4397 H   0  0  0  0  0  0  0  0  0  0  0  0
  149.5803  138.1132  154.1675 H   0  0  0  0  0  0  0  0  0  0  0  0
  148.7145  135.3929  154.7735 H   0  0  0  0  0  0  0  0  0  0  0  0
  150.4136  135.8362  154.3797 H   0  0  0  0  0  0  0  0  0  0  0  0
  150.8256  135.6425  156.7413 H   0  0  0  0  0  0  0  0  0  0  0  0
  148.0032  136.4614  157.3880 H   0  0  0  0  0  0  0  0  0  0  0  0
  146.5351  134.8286  158.3218 H   0  0  0  0  0  0  0  0  0  0  0  0
  147.2560  133.4353  159.0600 H   0  0  0  0  0  0  0  0  0  0  0  0
  147.1787  133.4135  161.2106 H   0  0  0  0  0  0  0  0  0  0  0  0
  147.2751  134.4583  163.4681 H   0  0  0  0  0  0  0  0  0  0  0  0
  152.1502  137.9334  156.9200 H   0  0  0  0  0  0  0  0  0  0  0  0
  151.9848  137.5026  155.2480 H   0  0  0  0  0  0  0  0  0  0  0  0
  152.7476  139.8395  155.4816 H   0  0  0  0  0  0  0  0  0  0  0  0
  151.2036  139.7731  154.6715 H   0  0  0  0  0  0  0  0  0  0  0  0
  151.6958  140.4806  157.5976 H   0  0  0  0  0  0  0  0  0  0  0  0
  151.1301  141.5633  156.3475 H   0  0  0  0  0  0  0  0  0  0  0  0
  149.2688  140.7503  157.8296 H   0  0  0  0  0  0  0  0  0  0  0  0
  149.0097  140.3238  156.1550 H   0  0  0  0  0  0  0  0  0  0  0  0
  148.5185  138.4259  157.6485 H   0  0  0  0  0  0  0  0  0  0  0  0
  150.1121  138.4817  158.3290 H   0  0  0  0  0  0  0  0  0  0  0  0
  1  2  1  0  0  0  0
  1 25  1  0  0  0  0
  1 26  1  0  0  0  0
  1 27  1  0  0  0  0
  2  3  1  0  0  0  0
  2 28  1  0  0  0  0
  2 29  1  0  0  0  0
  3  4  1  0  0  0  0
  4 19  1  0  0  0  0
  4  5  1  0  0  0  0
  4 30  1  0  0  0  0
  5  6  1  0  0  0  0
  5 31  1  0  0  0  0
  5 32  1  0  0  0  0
  6  7  1  0  0  0  0
  6 19  1  0  0  0  0
  6 33  1  0  0  0  0
  7  8  1  0  0  0  0
  7 34  1  0  0  0  0
  8  9  2  0  0  0  0
  8 10  1  0  0  0  0
 10 11  1  0  0  0  0
 10 35  1  0  0  0  0
 10 36  1  0  0  0  0
 11 17  1  0  0  0  0
 11 12  1  0  0  0  0
 12 13  2  0  0  0  0
 12 37  1  0  0  0  0
 13 14  1  0  0  0  0
 13 38  1  0  0  0  0
 14 15  2  0  0  0  0
 14 16  1  0  0  0  0
 16 17  1  0  0  0  0
 17 18  2  0  0  0  0
 19 24  1  0  0  0  0
 19 20  1  0  0  0  0
 20 21  1  0  0  0  0
 20 39  1  0  0  0  0
 20 40  1  0  0  0  0
 21 22  1  0  0  0  0
 21 41  1  0  0  0  0
 21 42  1  0  0  0  0
 22 23  1  0  0  0  0
 22 43  1  0  0  0  0
 22 44  1  0  0  0  0
 23 24  1  0  0  0  0
 23 45  1  0  0  0  0
 23 46  1  0  0  0  0
 24 47  1  0  0  0  0
 24 48  1  0  0  0  0
M  CHG  1  16  -1
M  END
> <s_m_source_file>
AV-unprocessed.smi

> <i_m_source_file_index>
701

> <i_lp_mmshare_version>
43012

> <i_f3d_flags>
0

> <s_epik_input>
W0NIMl0xW0NIMl1bQ0gyXVtDSDJdW0NIMl1DMTJbQ0BIXShPW0NIMl1bQ0gzXSlbQ0gyXVtDQEhdMltOSF1DKD1PKVtDSDJdbjNbY0hdW2NIXWMoPU8pW25IXWMzPU8=

> <s_epik_cmdline>
J2VwaWtfcHl0aG9uJywgJy1waCcsICc3LjAnLCAnLXRuJywgJzgnLCAnLW1hJywgJzIwMCcsICctbWV0YWxfYmluZGluZycsICctaW1hZScsICc8aW5maWxlLm1hZT4nLCAnLW9tYWUnLCAnPG91dGZpbGUubWFlPic=

> <r_lp_tautomer_probability>
0.999537

> <r_epik_Ionization_Penalty>
3.12423

> <r_epik_Ionization_Penalty_Charging>
2.92877e-08

> <r_epik_Ionization_Penalty_Neutral>
3.12423

> <r_epik_State_Penalty>
3.12332

> <r_epik_Charging_Adjusted_Penalty>
3.12332

> <i_epik_Tot_Q>
-1

> <i_epik_Tot_abs_Q>
1

> <r_epik_Metal_State_Penalty>
0.463873

> <b_epik_Metal_Only>
1

> <s_lp_Force_Field>
OPLS_2005

> <r_lp_Energy>
38.2445

> <b_lp_Chiralities_Consistent>
1

> <s_lp_Variant>
AV-unprocessed.smi:701-7

> <Gold.Version>
5.8.1

> <Gold.Id.Protein>
6NUR|6NUR_protein|mol2

> <Gold.PLP.Fitness>
41.1102

> <Gold.PLP.PLP>
-28.9225

> <Gold.PLP.part.hbond>
-3.2803

> <Gold.PLP.part.metal>
0.0000

> <Gold.PLP.part.buried>
-2.4341

> <Gold.PLP.part.nonpolar>
-23.6882

> <Gold.PLP.part.repulsive>
0.1496

> <Gold.PLP.ligand.clash>
0.0000

> <Gold.PLP.ligand.torsion>
0.8838

> <Gold.PLP.Chemscore.Hbond>
4.5360

> <Gold.PLP.Chemscore.CHOScore>
0.0000

> <Gold.PLP.Chemscore.Metal>
0.0000

> <Gold.Chemscore.Hbonds>
donor molecule, donor type, donor heavy atom, donor atom, acceptor molecule, acceptor atom, score
      P1  H  6896  6907       L1     9  1.00
      P1  H  6931  6943       L1    16  2.00
      P1  H  6934  6947       L1    16  1.46

> <Gold.PLP.Chemscore.Internal.Correction>
0.3472

> <Gold.Rescore>
     Score         DG    S(hbond)    S(metal)    S(lipo)     H(rot)  DE(clash)    DE(int)     intcor
     11.61     -14.05       1.87        0.00      64.59       2.04       0.02       2.42       ----

> <Gold.Chemscore.Fitness>
11.6102

> <Gold.Chemscore.DG>
-14.0454

> <Gold.Chemscore.ZeroCoef>
-5.4800

> <Gold.Chemscore.Hbond>
1.8654

> <Gold.Chemscore.Metal>
0.0000

> <Gold.Chemscore.Lipo>
64.5903

> <Gold.Chemscore.Internal_Hbond>
0.0000

> <Gold.Chemscore.DEClash>
0.0178

> <Gold.Chemscore.DEInternal>
2.4174

> <Gold.Chemscore.Rot>
2.0399

> <Gold.Chemscore.Internal.Correction>
   9.000000E+99

> <Gold.Chemscore.Hbonds>
donor molecule, donor type, donor heavy atom, donor atom, acceptor molecule, acceptor atom, score
      P1  H  6896  6907       L1     9  0.96
      P1  H  6931  6943       L1    16  0.24
      P1  H  6934  6947       L1    16  0.16

> <Gold.Chemscore.Hbond.Weighted>
-6.2305

> <Gold.Chemscore.Metal.Weighted>
-0.0000

> <Gold.Chemscore.Lipo.Weighted>
-7.5571

> <Gold.Chemscore.Internal_Hbond.Weighted>
0.0000

> <Gold.Chemscore.DEClash.Weighted>
0.0178

> <Gold.Chemscore.DEInternal.Weighted>
2.4174

> <Gold.Chemscore.Rot.Weighted>
5.2222

> <Gold.Chemscore.Internal.Correction.Weighted>
   9.000000E+99

> <Gold.Protein.RotatedTorsions>
[ 6907 6896 6895 6894 ] final -128.44 input  -60.11 | X-H torsion
[ 7974 7965 7964 7962 ] final  -50.58 input  175.53 | X-H torsion
[ 8008 7997 7996 7995 ] final  -37.03 input   59.86 | X-H torsion
[ 10167 10162 10161 10158 ] final  138.32 input  -65.29 | X-H torsion
[ 10718 10713 10712 10709 ] final   42.79 input   66.30 | X-H torsion
[ 10763 10752 10751 10750 ] final   28.15 input  -60.55 | X-H torsion
[ 11005 11000 10999 10996 ] final  162.97 input  -57.11 | X-H torsion

> <Gold.Protein.ActiveResidues>
 VAL166  LYS551  ARG553  GLY616  TRP617  ASP618  TYR619  PRO620  LYS621  CYS622 
 ASP623  PHE694  ASN695  SER759  ASP760  ASP761  ALA762  ILE779  LEU786  VAL792 
 PHE793  MET794  SER795  GLU796  ALA797  LYS798  CYS799  TRP800  GLU811  SER814 

> <Gold.Protein.RotatedAtoms>
  150.9179  133.6916  159.2838 H   0  0  0  0  0  0  0  0  0  0  0  0  # atno 6907 bound_to 6896
  151.4381  135.1016  159.9671 H   0  0  0  0  0  0  0  0  0  0  0  0  # atno 6908 bound_to 6896
  152.4964  133.8594  159.7297 H   0  0  0  0  0  0  0  0  0  0  0  0  # atno 6909 bound_to 6896
  145.9283  140.7772  142.9612 H   0  0  0  0  0  0  0  0  0  0  0  0  # atno 7974 bound_to 7965
  154.4061  140.1615  156.2470 H   0  0  0  0  0  0  0  0  0  0  0  0  # atno 8008 bound_to 7997
  155.9152  140.3425  155.6107 H   0  0  0  0  0  0  0  0  0  0  0  0  # atno 8009 bound_to 7997
  155.7289  140.0778  157.2288 H   0  0  0  0  0  0  0  0  0  0  0  0  # atno 8010 bound_to 7997
  139.5114  144.6360  151.5696 H   0  0  0  0  0  0  0  0  0  0  0  0  # atno 10167 bound_to 10162
  157.4088  130.7902  149.7412 H   0  0  0  0  0  0  0  0  0  0  0  0  # atno 10718 bound_to 10713
  153.0510  135.6520  154.0694 H   0  0  0  0  0  0  0  0  0  0  0  0  # atno 10763 bound_to 10752
  154.0382  135.2906  155.3360 H   0  0  0  0  0  0  0  0  0  0  0  0  # atno 10764 bound_to 10752
  154.6798  135.5324  153.8315 H   0  0  0  0  0  0  0  0  0  0  0  0  # atno 10765 bound_to 10752
  140.2311  134.8123  157.3318 H   0  0  0  0  0  0  0  0  0  0  0  0  # atno 11005 bound_to 11000
  144.6761  140.2087  143.7379 LP  0  0  0  0  0  0  0  0  0  0  0  0  # atno 17320 bound_to 7965
  145.8459  139.2152  143.1800 LP  0  0  0  0  0  0  0  0  0  0  0  0  # atno 17321 bound_to 7965
  140.6109  143.9438  150.6452 LP  0  0  0  0  0  0  0  0  0  0  0  0  # atno 17342 bound_to 10162
  140.2680  143.3476  152.1263 LP  0  0  0  0  0  0  0  0  0  0  0  0  # atno 17343 bound_to 10162
  155.9844  130.3991  150.3312 LP  0  0  0  0  0  0  0  0  0  0  0  0  # atno 17370 bound_to 10713
  157.1448  131.0306  151.2911 LP  0  0  0  0  0  0  0  0  0  0  0  0  # atno 17371 bound_to 10713
  140.1749  134.4562  155.7808 LP  0  0  0  0  0  0  0  0  0  0  0  0  # atno 17394 bound_to 11000
  141.2217  133.6958  156.7771 LP  0  0  0  0  0  0  0  0  0  0  0  0  # atno 17395 bound_to 11000

$$$$
