AV-unprocessed.smi:1529|AV-procd|sdf|6152|dock8
  -GOLD-   22720 6303D 1   1.00000     0.00000
 Structure written by MMmdl.
 50 51  0  0  0  0  0  0  0  0  1 V2000
  151.5332  130.2806  157.2728 C   0  0  0  0  0  0  0  0  0  0  0  0
  150.8443  131.5485  156.7794 C   0  0  0  0  0  0  0  0  0  0  0  0
  150.7401  132.5243  157.5220 O   0  0  0  0  0  0  0  0  0  0  0  0
  150.3775  131.5189  155.5220 N   0  0  0  0  0  0  0  0  0  0  0  0
  149.6856  132.6187  154.8571 C   0  0  0  0  0  0  0  0  0  0  0  0
  150.2566  133.9962  155.2406 C   0  0  0  0  0  0  0  0  0  0  0  0
  149.2370  135.1430  155.1154 C   0  0  0  0  0  0  0  0  0  0  0  0
  149.7171  136.3573  155.7635 N   0  0  0  0  0  0  0  0  0  0  0  0
  150.7963  137.0600  155.3823 C   0  0  0  0  0  0  0  0  0  0  0  0
  151.5195  136.7363  154.4397 O   0  0  0  0  0  0  0  0  0  0  0  0
  151.1266  138.2547  156.2295 C   0  0  0  0  0  0  0  0  0  0  0  0
  150.2497  138.6768  157.2503 C   0  0  0  0  0  0  0  0  0  0  0  0
  150.5995  139.7884  158.0404 C   0  0  0  0  0  0  0  0  0  0  0  0
  151.8250  140.4522  157.7963 C   0  0  0  0  0  0  0  0  0  0  0  0
  152.1933  141.5724  158.5727 N   0  0  0  0  0  0  0  0  0  0  0  0
  151.4953  142.8332  158.3301 C   0  0  0  0  0  0  0  0  0  0  0  0
  152.2159  143.9937  159.0408 C   0  0  1  0  0  0  0  0  0  0  0  0
  151.4490  145.3137  158.9091 C   0  0  0  0  0  0  0  0  0  0  0  0
  152.3419  143.6856  160.4263 O   0  0  0  0  0  0  0  0  0  0  0  0
  153.1199  142.5138  160.6547 C   0  0  1  0  0  0  0  0  0  0  0  0
  153.2727  142.3262  162.1677 C   0  0  0  0  0  0  0  0  0  0  0  0
  152.4293  141.3082  159.9897 C   0  0  0  0  0  0  0  0  0  0  0  0
  152.6758  140.0332  156.8273 N   0  0  0  0  0  0  0  0  0  0  0  0
  152.3361  138.9674  156.0721 C   0  0  0  0  0  0  0  0  0  0  0  0
  150.8672  129.4224  157.1778 H   0  0  0  0  0  0  0  0  0  0  0  0
  151.8181  130.3768  158.3212 H   0  0  0  0  0  0  0  0  0  0  0  0
  152.4341  130.0862  156.6905 H   0  0  0  0  0  0  0  0  0  0  0  0
  150.5122  130.6739  154.9857 H   0  0  0  0  0  0  0  0  0  0  0  0
  149.7311  132.4832  153.7752 H   0  0  0  0  0  0  0  0  0  0  0  0
  148.6304  132.5692  155.1268 H   0  0  0  0  0  0  0  0  0  0  0  0
  150.6454  133.9624  156.2595 H   0  0  0  0  0  0  0  0  0  0  0  0
  151.1145  134.2031  154.5995 H   0  0  0  0  0  0  0  0  0  0  0  0
  149.0096  135.3401  154.0662 H   0  0  0  0  0  0  0  0  0  0  0  0
  148.2956  134.8650  155.5896 H   0  0  0  0  0  0  0  0  0  0  0  0
  149.1962  136.6829  156.5649 H   0  0  0  0  0  0  0  0  0  0  0  0
  149.3175  138.1611  157.4316 H   0  0  0  0  0  0  0  0  0  0  0  0
  149.9345  140.1066  158.8293 H   0  0  0  0  0  0  0  0  0  0  0  0
  151.4508  143.0375  157.2593 H   0  0  0  0  0  0  0  0  0  0  0  0
  150.4688  142.7505  158.6902 H   0  0  0  0  0  0  0  0  0  0  0  0
  153.2106  144.1264  158.6113 H   0  0  0  0  0  0  0  0  0  0  0  0
  151.3353  145.5988  157.8630 H   0  0  0  0  0  0  0  0  0  0  0  0
  151.9746  146.1218  159.4184 H   0  0  0  0  0  0  0  0  0  0  0  0
  150.4528  145.2368  159.3461 H   0  0  0  0  0  0  0  0  0  0  0  0
  154.1123  142.6529  160.2215 H   0  0  0  0  0  0  0  0  0  0  0  0
  153.8732  141.4451  162.3956 H   0  0  0  0  0  0  0  0  0  0  0  0
  152.3024  142.2046  162.6501 H   0  0  0  0  0  0  0  0  0  0  0  0
  153.7636  143.1885  162.6195 H   0  0  0  0  0  0  0  0  0  0  0  0
  151.4706  141.1111  160.4717 H   0  0  0  0  0  0  0  0  0  0  0  0
  153.0446  140.4217  160.1362 H   0  0  0  0  0  0  0  0  0  0  0  0
  153.0610  138.6808  155.3243 H   0  0  0  0  0  0  0  0  0  0  0  0
  1  2  1  0  0  0  0
  1 25  1  0  0  0  0
  1 26  1  0  0  0  0
  1 27  1  0  0  0  0
  2  3  2  0  0  0  0
  2  4  1  0  0  0  0
  4  5  1  0  0  0  0
  4 28  1  0  0  0  0
  5  6  1  0  0  0  0
  5 29  1  0  0  0  0
  5 30  1  0  0  0  0
  6  7  1  0  0  0  0
  6 31  1  0  0  0  0
  6 32  1  0  0  0  0
  7  8  1  0  0  0  0
  7 33  1  0  0  0  0
  7 34  1  0  0  0  0
  8  9  1  0  0  0  0
  8 35  1  0  0  0  0
  9 10  2  0  0  0  0
  9 11  1  0  0  0  0
 11 24  1  0  0  0  0
 11 12  2  0  0  0  0
 12 13  1  0  0  0  0
 12 36  1  0  0  0  0
 13 14  2  0  0  0  0
 13 37  1  0  0  0  0
 14 15  1  0  0  0  0
 14 23  1  0  0  0  0
 15 22  1  0  0  0  0
 15 16  1  0  0  0  0
 16 17  1  0  0  0  0
 16 38  1  0  0  0  0
 16 39  1  0  0  0  0
 17 18  1  0  0  0  0
 17 19  1  0  0  0  0
 17 40  1  0  0  0  0
 18 41  1  0  0  0  0
 18 42  1  0  0  0  0
 18 43  1  0  0  0  0
 19 20  1  0  0  0  0
 20 21  1  0  0  0  0
 20 22  1  0  0  0  0
 20 44  1  0  0  0  0
 21 45  1  0  0  0  0
 21 46  1  0  0  0  0
 21 47  1  0  0  0  0
 22 48  1  0  0  0  0
 22 49  1  0  0  0  0
 23 24  2  0  0  0  0
 24 50  1  0  0  0  0
M  END
> <s_m_source_file>
AV-unprocessed.smi

> <i_m_source_file_index>
1529

> <i_lp_mmshare_version>
43012

> <i_f3d_flags>
0

> <s_epik_input>
W0NIM11DKD1PKVtOSF1bQ0gyXVtDSDJdW0NIMl1bTkhdQyg9TyljMVtjSF1bY0hdYyhuW2NIXTEpTjJbQ0gyXVtDQEBIXShbQ0gzXSlPW0NAQEhdKFtDSDNdKVtDSDJdMg==

> <s_epik_cmdline>
J2VwaWtfcHl0aG9uJywgJy1waCcsICc3LjAnLCAnLXRuJywgJzgnLCAnLW1hJywgJzIwMCcsICctbWV0YWxfYmluZGluZycsICctaW1hZScsICc8aW5maWxlLm1hZT4nLCAnLW9tYWUnLCAnPG91dGZpbGUubWFlPic=

> <r_lp_tautomer_probability>
1

> <r_epik_Ionization_Penalty>
2.1474e-05

> <r_epik_Ionization_Penalty_Charging>
0

> <r_epik_Ionization_Penalty_Neutral>
2.1474e-05

> <r_epik_State_Penalty>
-0

> <r_epik_Charging_Adjusted_Penalty>
0

> <i_epik_Tot_Q>
0

> <i_epik_Tot_abs_Q>
0

> <r_epik_Metal_State_Penalty>
-0

> <b_epik_Metal_Only>
0

> <s_lp_Force_Field>
OPLS_2005

> <r_lp_Energy>
16.5769

> <b_lp_Chiralities_Consistent>
1

> <s_lp_Variant>
AV-unprocessed.smi:1529-1

> <Gold.Version>
5.8.1

> <Gold.Id.Protein>
6NUR|6NUR_protein|mol2

> <Gold.PLP.Fitness>
49.2197

> <Gold.PLP.PLP>
-40.9755

> <Gold.PLP.part.hbond>
-3.0000

> <Gold.PLP.part.metal>
0.0000

> <Gold.PLP.part.buried>
-5.4063

> <Gold.PLP.part.nonpolar>
-33.0934

> <Gold.PLP.part.repulsive>
0.9165

> <Gold.PLP.ligand.clash>
0.0000

> <Gold.PLP.ligand.torsion>
0.5725

> <Gold.PLP.Chemscore.Hbond>
3.0000

> <Gold.PLP.Chemscore.CHOScore>
0.0000

> <Gold.PLP.Chemscore.Metal>
0.0000

> <Gold.Chemscore.Hbonds>
donor molecule, donor type, donor heavy atom, donor atom, acceptor molecule, acceptor atom, score
      P1  H  6896  6909       L1     3  1.00
      P1  H  7997  8010       L1    23  1.00
      P1  H 10752 10764       L1    10  1.00

> <Gold.PLP.Chemscore.Internal.Correction>
0.3893

> <Gold.Rescore>
     Score         DG    S(hbond)    S(metal)    S(lipo)     H(rot)  DE(clash)    DE(int)     intcor
     19.87     -21.96       2.92        0.00     102.85       2.07       0.09       2.00       ----

> <Gold.Chemscore.Fitness>
19.8705

> <Gold.Chemscore.DG>
-21.9636

> <Gold.Chemscore.ZeroCoef>
-5.4800

> <Gold.Chemscore.Hbond>
2.9199

> <Gold.Chemscore.Metal>
0.0000

> <Gold.Chemscore.Lipo>
102.8525

> <Gold.Chemscore.Internal_Hbond>
0.0000

> <Gold.Chemscore.DEClash>
0.0931

> <Gold.Chemscore.DEInternal>
1.9999

> <Gold.Chemscore.Rot>
2.0713

> <Gold.Chemscore.Internal.Correction>
   9.000000E+99

> <Gold.Chemscore.Hbonds>
donor molecule, donor type, donor heavy atom, donor atom, acceptor molecule, acceptor atom, score
      P1  H  6896  6909       L1     3  0.98
      P1  H  7997  8010       L1    23  0.34
      P1  H 10752 10764       L1    10  1.00

> <Gold.Chemscore.Hbond.Weighted>
-9.7523

> <Gold.Chemscore.Metal.Weighted>
-0.0000

> <Gold.Chemscore.Lipo.Weighted>
-12.0337

> <Gold.Chemscore.Internal_Hbond.Weighted>
0.0000

> <Gold.Chemscore.DEClash.Weighted>
0.0931

> <Gold.Chemscore.DEInternal.Weighted>
1.9999

> <Gold.Chemscore.Rot.Weighted>
5.3025

> <Gold.Chemscore.Internal.Correction.Weighted>
   9.000000E+99

> <Gold.Protein.RotatedTorsions>
[ 6907 6896 6895 6894 ] final  -23.90 input  -60.11 | X-H torsion
[ 7974 7965 7964 7962 ] final  107.14 input  175.53 | X-H torsion
[ 8008 7997 7996 7995 ] final   59.94 input   59.86 | X-H torsion
[ 10167 10162 10161 10158 ] final -142.42 input  -65.29 | X-H torsion
[ 10718 10713 10712 10709 ] final   47.26 input   66.30 | X-H torsion
[ 10763 10752 10751 10750 ] final  -81.13 input  -60.55 | X-H torsion
[ 11005 11000 10999 10996 ] final -134.58 input  -57.11 | X-H torsion

> <Gold.Protein.ActiveResidues>
 VAL166  LYS551  ARG553  GLY616  TRP617  ASP618  TYR619  PRO620  LYS621  CYS622 
 ASP623  PHE694  ASN695  SER759  ASP760  ASP761  ALA762  ILE779  LEU786  VAL792 
 PHE793  MET794  SER795  GLU796  ALA797  LYS798  CYS799  TRP800  GLU811  SER814 

> <Gold.Protein.RotatedAtoms>
  151.1972  135.0427  159.8857 H   0  0  0  0  0  0  0  0  0  0  0  0  # atno 6907 bound_to 6896
  152.5435  134.0890  159.8278 H   0  0  0  0  0  0  0  0  0  0  0  0  # atno 6908 bound_to 6896
  151.1026  133.5185  159.2641 H   0  0  0  0  0  0  0  0  0  0  0  0  # atno 6909 bound_to 6896
  145.2975  139.2580  143.3831 H   0  0  0  0  0  0  0  0  0  0  0  0  # atno 7974 bound_to 7965
  155.5743  140.3490  155.4523 H   0  0  0  0  0  0  0  0  0  0  0  0  # atno 8008 bound_to 7997
  156.0421  140.1298  157.0170 H   0  0  0  0  0  0  0  0  0  0  0  0  # atno 8009 bound_to 7997
  154.4396  140.1022  156.6237 H   0  0  0  0  0  0  0  0  0  0  0  0  # atno 8010 bound_to 7997
  139.8090  143.7729  152.2662 H   0  0  0  0  0  0  0  0  0  0  0  0  # atno 10167 bound_to 10162
  157.4566  130.8171  149.7843 H   0  0  0  0  0  0  0  0  0  0  0  0  # atno 10718 bound_to 10713
  154.5597  135.5637  153.6996 H   0  0  0  0  0  0  0  0  0  0  0  0  # atno 10763 bound_to 10752
  153.0014  135.6271  154.2261 H   0  0  0  0  0  0  0  0  0  0  0  0  # atno 10764 bound_to 10752
  154.2199  135.2870  155.2908 H   0  0  0  0  0  0  0  0  0  0  0  0  # atno 10765 bound_to 10752
  140.8977  134.1731  157.4483 H   0  0  0  0  0  0  0  0  0  0  0  0  # atno 11005 bound_to 11000
  146.3163  140.3482  142.8654 LP  0  0  0  0  0  0  0  0  0  0  0  0  # atno 17320 bound_to 7965
  144.9121  140.7769  143.5801 LP  0  0  0  0  0  0  0  0  0  0  0  0  # atno 17321 bound_to 7965
  139.7872  144.7423  151.0005 LP  0  0  0  0  0  0  0  0  0  0  0  0  # atno 17342 bound_to 10162
  140.7818  143.4480  151.0454 LP  0  0  0  0  0  0  0  0  0  0  0  0  # atno 17343 bound_to 10162
  156.0010  130.3880  150.2606 LP  0  0  0  0  0  0  0  0  0  0  0  0  # atno 17370 bound_to 10713
  157.0781  131.0136  151.3166 LP  0  0  0  0  0  0  0  0  0  0  0  0  # atno 17371 bound_to 10713
  139.8738  134.9885  156.5415 LP  0  0  0  0  0  0  0  0  0  0  0  0  # atno 17394 bound_to 11000
  140.8269  133.8310  155.8947 LP  0  0  0  0  0  0  0  0  0  0  0  0  # atno 17395 bound_to 11000

$$$$
