#       Name:                AV-unprocessed.smi:1949
#       Creating user name   scv26
#       Creation time:       Fri Mar 27 10:02:59 2020


#       File generated by GOLD software.
#

@<TRIPOS>MOLECULE
AV-unprocessed.smi:1949
    33    34     1
SMALL
NO_CHARGES


@<TRIPOS>ATOM
      1 ****        -4.1204   2.7593  -0.5174 C.3            1 S1                 0.0000
      2 ****        -2.7172   2.6892  -0.0205 C.2            1 S1                 0.0000
      3 ****        -2.4156   2.4529   1.2586 N.2            1 S1                 0.0000
      4 ****        -1.0457   2.4345   1.4777 N.2            1 S1                 0.0000
      5 ****        -0.3319   2.6427   0.3620 C.2            1 S1                 0.0000
      6 ****         1.0141   2.6551   0.3541 N.pl3          1 S1                -1.0000
      7 ****         1.7542   1.5482   0.0807 C.2            1 S1                 0.0000
      8 ****         2.9840   1.5519   0.0413 O.2            1 S1                 0.0000
      9 ****         1.0983   0.3949  -0.1542 N.am           1 S1                 0.0000
     10 ****         1.7035  -0.8968  -0.4693 C.3            1 S1                 0.0000
     11 ****         0.6605  -1.8453  -1.0929 C.3            1 S1                 0.0000
     12 ****         0.7441  -3.1530  -0.3026 C.3            1 S1                 0.0000
     13 ****         1.2262  -2.7312   1.0815 C.3            1 S1                 0.0000
     14 ****         2.2185  -1.6036   0.8002 C.3            1 S1                 0.0000
     15 ****        -1.3267   2.9073  -1.0697 S.3            1 S1                 0.0000
     16 ****        -4.5619   1.7627  -0.5289 H              1 S1                 0.0000
     17 ****        -4.1447   3.1647  -1.5291 H              1 S1                 0.0000
     18 ****        -4.7176   3.4017   0.1299 H              1 S1                 0.0000
     19 ****         0.0904   0.4201  -0.1053 H              1 S1                 0.0000
     20 ****         2.5286  -0.7505  -1.1687 H              1 S1                 0.0000
     21 ****        -0.3451  -1.4329  -0.9925 H              1 S1                 0.0000
     22 ****         0.8357  -2.0041  -2.1575 H              1 S1                 0.0000
     23 ****        -0.2067  -3.6860  -0.2716 H              1 S1                 0.0000
     24 ****         1.4818  -3.8128  -0.7613 H              1 S1                 0.0000
     25 ****         0.3872  -2.3456   1.6622 H              1 S1                 0.0000
     26 ****         1.6721  -3.5536   1.6416 H              1 S1                 0.0000
     27 ****         3.1999  -2.0333   0.5958 H              1 S1                 0.0000
     28 ****         2.3344  -0.9364   1.6554 H              1 S1                 0.0000
     29 ****        -3.0976   2.3063   1.9751 LP             1 S1                 0.0000
     30 ****        -0.6330   2.2816   2.3757 LP             1 S1                 0.0000
     31 ****         1.4880   3.5119   0.5573 LP             1 S1                 0.0000
     32 ****         3.4873   2.3983   0.2154 LP             1 S1                 0.0000
     33 ****         3.4802   0.7085  -0.1648 LP             1 S1                 0.0000
@<TRIPOS>BOND
    1    1    2 1     
    2    1   16 1     
    3    1   17 1     
    4    1   18 1     
    5    2   15 1     
    6    2    3 2     
    7    3    4 1     
    8    4    5 2     
    9    5    6 1     
   10    5   15 1     
   11    6    7 1     
   12    7    8 2     
   13    7    9 am    
   14    9   10 1     
   15    9   19 1     
   16   10   14 1     
   17   10   11 1     
   18   10   20 1     
   19   11   12 1     
   20   11   21 1     
   21   11   22 1     
   22   12   13 1     
   23   12   23 1     
   24   12   24 1     
   25   13   14 1     
   26   13   25 1     
   27   13   26 1     
   28   14   27 1     
   29   14   28 1     
   30    3   29 1     
   31    4   30 1     
   32    6   31 1     
   33    8   32 1     
   34    8   33 1     
@<TRIPOS>SUBSTRUCTURE
      1 S1             1
@<TRIPOS>SET
LONE_PAIRS      STATIC     ATOMS    <user>   **** ""
5 29 30 31 32 33
DONOR_HYDROGENS      STATIC     ATOMS    <user>   **** ""
1 19
ATOM$BLUE        STATIC     ATOMS    COLORGROUP SYSTEM
5 29 30 31 32 33
ATOM$RED        STATIC     ATOMS    COLORGROUP SYSTEM
1 19
