#       Name:                AV-unprocessed.smi:65
#       Creating user name   scv26
#       Creation time:       Thu Mar 26 16:50:55 2020


#       File generated by GOLD software.
#

@<TRIPOS>MOLECULE
AV-unprocessed.smi:65
    29    30     1
SMALL
NO_CHARGES


@<TRIPOS>ATOM
      1 ****        -3.2153   2.2551  -1.1035 N.pl3          1 S1                 0.0000
      2 ****        -2.6737   1.3522  -0.2215 C.ar           1 S1                 0.0000
      3 ****        -3.4727   0.8067   0.6999 N.ar           1 S1                 0.0000
      4 ****        -2.9479  -0.0773   1.5696 C.ar           1 S1                 0.0000
      5 ****        -1.5902  -0.4349   1.5251 C.ar           1 S1                 0.0000
      6 ****        -0.7948   0.1700   0.5258 C.ar           1 S1                 0.0000
      7 ****         0.5787  -0.1042   0.3837 N.pl3          1 S1                 0.0000
      8 ****         1.1687  -1.3208   0.9277 C.3            1 S1                 0.0000
      9 ****         2.3721  -1.6340   0.0294 C.3            1 S1                 0.0000
     10 ****         2.7027  -0.2871  -0.6161 C.3            1 S1                 0.0000
     11 ****         3.3681  -0.4264  -1.8531 O.3            1 S1                 0.0000
     12 ****         1.3285   0.3618  -0.7722 C.3            1 S1                 0.0000
     13 ****        -1.3696   1.0611  -0.3263 N.pl3          1 S1                 1.0000
     14 ****        -2.6385   2.6858  -1.8120 H              1 S1                 0.0000
     15 ****        -4.1907   2.5100  -1.0469 H              1 S1                 0.0000
     16 ****        -3.6154  -0.5002   2.3059 H              1 S1                 0.0000
     17 ****        -1.1877  -1.1393   2.2379 H              1 S1                 0.0000
     18 ****         1.4897  -1.1283   1.9518 H              1 S1                 0.0000
     19 ****         0.4654  -2.1542   0.9389 H              1 S1                 0.0000
     20 ****         3.2114  -2.0634   0.5773 H              1 S1                 0.0000
     21 ****         2.0704  -2.3505  -0.7366 H              1 S1                 0.0000
     22 ****         3.3160   0.3060   0.0639 H              1 S1                 0.0000
     23 ****         4.2045  -0.8401  -1.7021 H              1 S1                 0.0000
     24 ****         0.8351   0.0185  -1.6830 H              1 S1                 0.0000
     25 ****         1.3961   1.4499  -0.8023 H              1 S1                 0.0000
     26 ****        -0.7996   1.5040  -1.0467 H              1 S1                 0.0000
     27 ****        -4.4416   1.0502   0.7429 LP             1 S1                 0.0000
     28 ****         3.5076   0.4748  -2.2636 LP             1 S1                 0.0000
     29 ****         2.8192  -0.9918  -2.4687 LP             1 S1                 0.0000
@<TRIPOS>BOND
    1    1    2 1     
    2    1   14 1     
    3    1   15 1     
    4    2   13 ar    
    5    2    3 ar    
    6    3    4 ar    
    7    4    5 ar    
    8    4   16 1     
    9    5    6 ar    
   10    5   17 1     
   11    6    7 1     
   12    6   13 ar    
   13    7   12 1     
   14    7    8 1     
   15    8    9 1     
   16    8   18 1     
   17    8   19 1     
   18    9   10 1     
   19    9   20 1     
   20    9   21 1     
   21   10   11 1     
   22   10   12 1     
   23   10   22 1     
   24   11   23 1     
   25   12   24 1     
   26   12   25 1     
   27   13   26 1     
   28    3   27 1     
   29   11   28 1     
   30   11   29 1     
@<TRIPOS>SUBSTRUCTURE
      1 S1             1
@<TRIPOS>SET
LONE_PAIRS      STATIC     ATOMS    <user>   **** ""
3 27 28 29
DONOR_HYDROGENS      STATIC     ATOMS    <user>   **** ""
4 14 15 23 26
ATOM$BLUE        STATIC     ATOMS    COLORGROUP SYSTEM
3 27 28 29
ATOM$RED        STATIC     ATOMS    COLORGROUP SYSTEM
4 14 15 23 26
