AV-unprocessed.smi:2642|AV-procd|sdf|10275|dock10
  -GOLD-   2272014283D 1   1.00000     0.00000
 Structure written by MMmdl.
 31 32  0  0  0  0  0  0  0  0  2 V2000
  144.7433  137.2984  151.6041 O   0  0  0  0  0  0  0  0  0  0  0  0
  145.8802  136.8563  151.7675 C   0  0  0  0  0  0  0  0  0  0  0  0
  146.9199  137.6104  152.1502 N   0  0  0  0  0  0  0  0  0  0  0  0
  146.8636  139.0417  152.4200 C   0  0  0  0  0  0  0  0  0  0  0  0
  147.1299  139.3429  153.9058 C   0  0  0  0  0  0  0  0  0  0  0  0
  148.5604  139.2687  154.2167 N   0  0  0  0  0  0  0  0  0  0  0  0
  149.1629  138.1959  154.7383 C   0  0  0  0  0  0  0  0  0  0  0  0
  148.6547  137.1184  155.0489 O   0  0  0  0  0  0  0  0  0  0  0  0
  150.6301  138.5258  154.8868 C   0  0  0  0  0  0  0  0  0  0  0  0
  150.6975  139.8753  154.3732 N   0  5  0  0  0  0  0  0  0  0  0  0
  149.4541  140.2512  153.9924 C   0  0  0  0  0  0  0  0  0  0  0  0
  149.1315  141.3311  153.4979 O   0  0  0  0  0  0  0  0  0  0  0  0
  146.2544  135.5802  151.5716 N   0  0  0  0  0  0  0  0  0  0  0  0
  145.4565  134.4720  151.1773 C   0  0  0  0  0  0  0  0  0  0  0  0
  145.9746  133.2506  150.6820 C   0  0  0  0  0  0  0  0  0  0  0  0
  145.0755  132.2340  150.3060 C   0  0  0  0  0  0  0  0  0  0  0  0
  143.6940  132.4763  150.4328 C   0  0  0  0  0  0  0  0  0  0  0  0
  143.1862  133.6400  150.8905 N   0  0  0  0  0  0  0  0  0  0  0  0
  144.0541  134.6106  151.2474 C   0  0  0  0  0  0  0  0  0  0  0  0
  147.8202  137.1656  152.2524 H   0  0  0  0  0  0  0  0  0  0  0  0
  147.5718  139.5767  151.7848 H   0  0  0  0  0  0  0  0  0  0  0  0
  145.8701  139.3928  152.1400 H   0  0  0  0  0  0  0  0  0  0  0  0
  146.7503  140.3339  154.1604 H   0  0  0  0  0  0  0  0  0  0  0  0
  146.5743  138.6457  154.5354 H   0  0  0  0  0  0  0  0  0  0  0  0
  150.9237  138.4484  155.9341 H   0  0  0  0  0  0  0  0  0  0  0  0
  151.2297  137.8174  154.3147 H   0  0  0  0  0  0  0  0  0  0  0  0
  147.2415  135.3899  151.6657 H   0  0  0  0  0  0  0  0  0  0  0  0
  147.0335  133.0776  150.5694 H   0  0  0  0  0  0  0  0  0  0  0  0
  145.4374  131.2905  149.9249 H   0  0  0  0  0  0  0  0  0  0  0  0
  142.9780  131.7175  150.1536 H   0  0  0  0  0  0  0  0  0  0  0  0
  143.6121  135.5289  151.6060 H   0  0  0  0  0  0  0  0  0  0  0  0
  1  2  2  0  0  0  0
  2  3  1  0  0  0  0
  2 13  1  0  0  0  0
  3  4  1  0  0  0  0
  3 20  1  0  0  0  0
  4  5  1  0  0  0  0
  4 21  1  0  0  0  0
  4 22  1  0  0  0  0
  5  6  1  0  0  0  0
  5 23  1  0  0  0  0
  5 24  1  0  0  0  0
  6 11  1  0  0  0  0
  6  7  1  0  0  0  0
  7  8  2  0  0  0  0
  7  9  1  0  0  0  0
  9 10  1  0  0  0  0
  9 25  1  0  0  0  0
  9 26  1  0  0  0  0
 10 11  1  0  0  0  0
 11 12  2  0  0  0  0
 13 14  1  0  0  0  0
 13 27  1  0  0  0  0
 14 19  1  0  0  0  0
 14 15  2  0  0  0  0
 15 16  1  0  0  0  0
 15 28  1  0  0  0  0
 16 17  2  0  0  0  0
 16 29  1  0  0  0  0
 17 18  1  0  0  0  0
 17 30  1  0  0  0  0
 18 19  2  0  0  0  0
 19 31  1  0  0  0  0
M  CHG  1  10  -1
M  END
> <s_m_source_file>
AV-unprocessed.smi

> <i_m_source_file_index>
2642

> <i_lp_mmshare_version>
43012

> <i_f3d_flags>
0

> <s_epik_input>
W2NIXTFuW2NIXVtjSF1bY0hdYzFbTkhdQyg9TylbTkhdW0NIMl1bQ0gyXU4yQyg9TylbQ0gyXVtOSF1DMj1P

> <s_epik_cmdline>
J2VwaWtfcHl0aG9uJywgJy1waCcsICc3LjAnLCAnLXRuJywgJzgnLCAnLW1hJywgJzIwMCcsICctbWV0YWxfYmluZGluZycsICctaW1hZScsICc8aW5maWxlLm1hZT4nLCAnLW9tYWUnLCAnPG91dGZpbGUubWFlPic=

> <r_lp_tautomer_probability>
1

> <r_epik_Ionization_Penalty>
5.82623

> <r_epik_Ionization_Penalty_Charging>
5.82164

> <r_epik_Ionization_Penalty_Neutral>
0.00459419

> <r_epik_State_Penalty>
5.8249

> <r_epik_Charging_Adjusted_Penalty>
11.6465

> <i_epik_Tot_Q>
-1

> <i_epik_Tot_abs_Q>
1

> <r_epik_Metal_State_Penalty>
1.79397

> <b_epik_Metal_Only>
1

> <s_lp_Force_Field>
OPLS_2005

> <r_lp_Energy>
16.7854

> <b_lp_Chiralities_Consistent>
1

> <s_lp_Variant>
AV-unprocessed.smi:2642-2

> <Gold.Version>
5.8.1

> <Gold.Id.Protein>
6NUR|6NUR_protein|mol2

> <Gold.PLP.Fitness>
41.5011

> <Gold.PLP.PLP>
-29.0711

> <Gold.PLP.part.hbond>
-4.4839

> <Gold.PLP.part.metal>
0.0000

> <Gold.PLP.part.buried>
-5.1789

> <Gold.PLP.part.nonpolar>
-22.5621

> <Gold.PLP.part.repulsive>
3.1905

> <Gold.PLP.ligand.clash>
0.0000

> <Gold.PLP.ligand.torsion>
0.4632

> <Gold.PLP.Chemscore.Hbond>
3.7847

> <Gold.PLP.Chemscore.CHOScore>
0.6638

> <Gold.PLP.Chemscore.Metal>
0.0000

> <Gold.Chemscore.Hbonds>
donor molecule, donor type, donor heavy atom, donor atom, acceptor molecule, acceptor atom, score
      L1  H     3    20       P1  7948  0.94
      L1  H    13    27       P1  7948  0.88
      P1  H  7989  7998       L1    10  1.00
      P1  H  8011  8017       L1    12  0.93
      L1  C    17    30       P1 10952  0.77

> <Gold.PLP.Chemscore.Internal.Correction>
0.0108

> <Gold.Rescore>
     Score         DG    S(hbond)    S(metal)    S(lipo)     H(rot)  DE(clash)    DE(int)     intcor
     15.93     -18.28       3.47        0.00      51.92       1.90       0.51       1.84       ----

> <Gold.Chemscore.Fitness>
15.9320

> <Gold.Chemscore.DG>
-18.2762

> <Gold.Chemscore.ZeroCoef>
-5.4800

> <Gold.Chemscore.Hbond>
3.4665

> <Gold.Chemscore.Metal>
0.0000

> <Gold.Chemscore.Lipo>
51.9164

> <Gold.Chemscore.Internal_Hbond>
0.0000

> <Gold.Chemscore.DEClash>
0.5088

> <Gold.Chemscore.DEInternal>
1.8353

> <Gold.Chemscore.Rot>
1.8969

> <Gold.Chemscore.Internal.Correction>
   9.000000E+99

> <Gold.Chemscore.Hbonds>
donor molecule, donor type, donor heavy atom, donor atom, acceptor molecule, acceptor atom, score
      L1  H     3    20       P1  7948  0.88
      L1  H    13    27       P1  7948  0.85
      P1  H  7989  7998       L1    10  0.34
      P1  H  8011  8017       L1    12  0.91

> <Gold.Chemscore.Hbond.Weighted>
-11.5781

> <Gold.Chemscore.Metal.Weighted>
-0.0000

> <Gold.Chemscore.Lipo.Weighted>
-6.0742

> <Gold.Chemscore.Internal_Hbond.Weighted>
0.0000

> <Gold.Chemscore.DEClash.Weighted>
0.5088

> <Gold.Chemscore.DEInternal.Weighted>
1.8353

> <Gold.Chemscore.Rot.Weighted>
4.8561

> <Gold.Chemscore.Internal.Correction.Weighted>
   9.000000E+99

> <Gold.Protein.RotatedTorsions>
[ 6907 6896 6895 6894 ] final   24.78 input  -60.11 | X-H torsion
[ 7974 7965 7964 7962 ] final  108.22 input  175.53 | X-H torsion
[ 8008 7997 7996 7995 ] final -150.74 input   59.86 | X-H torsion
[ 10167 10162 10161 10158 ] final   94.35 input  -65.29 | X-H torsion
[ 10718 10713 10712 10709 ] final -102.78 input   66.30 | X-H torsion
[ 10763 10752 10751 10750 ] final -169.85 input  -60.55 | X-H torsion
[ 11005 11000 10999 10996 ] final  145.40 input  -57.11 | X-H torsion

> <Gold.Protein.ActiveResidues>
 VAL166  LYS551  ARG553  GLY616  TRP617  ASP618  TYR619  PRO620  LYS621  CYS622 
 ASP623  PHE694  ASN695  SER759  ASP760  ASP761  ALA762  ILE779  LEU786  VAL792 
 PHE793  MET794  SER795  GLU796  ALA797  LYS798  CYS799  TRP800  GLU811  SER814 

> <Gold.Protein.RotatedAtoms>
  151.9627  135.0116  160.0548 H   0  0  0  0  0  0  0  0  0  0  0  0  # atno 6907 bound_to 6896
  152.1854  133.4731  159.4988 H   0  0  0  0  0  0  0  0  0  0  0  0  # atno 6908 bound_to 6896
  150.6925  134.1697  159.4250 H   0  0  0  0  0  0  0  0  0  0  0  0  # atno 6909 bound_to 6896
  145.2834  139.2625  143.3903 H   0  0  0  0  0  0  0  0  0  0  0  0  # atno 7974 bound_to 7965
  155.6284  140.0689  157.2656 H   0  0  0  0  0  0  0  0  0  0  0  0  # atno 8008 bound_to 7997
  154.4212  140.1772  156.1495 H   0  0  0  0  0  0  0  0  0  0  0  0  # atno 8009 bound_to 7997
  155.9953  140.3341  155.6795 H   0  0  0  0  0  0  0  0  0  0  0  0  # atno 8010 bound_to 7997
  139.8092  144.6781  150.9662 H   0  0  0  0  0  0  0  0  0  0  0  0  # atno 10167 bound_to 10162
  156.0241  130.5436  150.7158 H   0  0  0  0  0  0  0  0  0  0  0  0  # atno 10718 bound_to 10713
  154.6478  135.2907  155.0024 H   0  0  0  0  0  0  0  0  0  0  0  0  # atno 10763 bound_to 10752
  154.1128  135.6560  153.4892 H   0  0  0  0  0  0  0  0  0  0  0  0  # atno 10764 bound_to 10752
  153.0360  135.5269  154.7373 H   0  0  0  0  0  0  0  0  0  0  0  0  # atno 10765 bound_to 10752
  140.0709  134.9152  157.1343 H   0  0  0  0  0  0  0  0  0  0  0  0  # atno 11005 bound_to 11000
  146.3209  140.3307  142.8640 LP  0  0  0  0  0  0  0  0  0  0  0  0  # atno 17320 bound_to 7965
  144.9233  140.7893  143.5734 LP  0  0  0  0  0  0  0  0  0  0  0  0  # atno 17321 bound_to 7965
  140.7818  143.4202  151.0853 LP  0  0  0  0  0  0  0  0  0  0  0  0  # atno 17342 bound_to 10162
  139.7870  143.8274  152.3146 LP  0  0  0  0  0  0  0  0  0  0  0  0  # atno 17343 bound_to 10162
  157.4786  131.0900  151.0562 LP  0  0  0  0  0  0  0  0  0  0  0  0  # atno 17370 bound_to 10713
  157.1002  130.5978  149.5458 LP  0  0  0  0  0  0  0  0  0  0  0  0  # atno 17371 bound_to 10713
  140.3629  134.2475  155.7185 LP  0  0  0  0  0  0  0  0  0  0  0  0  # atno 17394 bound_to 11000
  141.2011  133.7970  157.0456 LP  0  0  0  0  0  0  0  0  0  0  0  0  # atno 17395 bound_to 11000

$$$$
