#       Name:                AV-unprocessed.smi:856
#       Creating user name   scv26
#       Creation time:       Fri Mar 27 01:43:17 2020


#       File generated by GOLD software.
#

@<TRIPOS>MOLECULE
AV-unprocessed.smi:856
    53    55     1
SMALL
NO_CHARGES


@<TRIPOS>ATOM
      1 ****        -1.1328   2.6071   3.0374 C.3            1 S1                 0.0000
      2 ****        -1.1763   2.7360   1.5685 N.am           1 S1                 0.0000
      3 ****        -0.7750   1.6659   0.8124 C.2            1 S1                 0.0000
      4 ****        -0.3605   0.5988   1.2667 O.2            1 S1                 0.0000
      5 ****        -0.8748   1.8907  -0.6336 C.2            1 S1                 0.0000
      6 ****        -1.3021   3.0596  -1.1694 C.2            1 S1                 0.0000
      7 ****        -1.2924   3.0141  -2.5589 N.2            1 S1                 0.0000
      8 ****        -0.8469   1.7790  -2.7932 C.2            1 S1                 0.0000
      9 ****        -0.5753   1.0406  -1.6979 N.pl3          1 S1                 0.0000
     10 ****        -0.0831  -0.3286  -1.6858 C.3            1 S1                 0.0000
     11 ****         1.4545  -0.4092  -1.7875 C.3            1 S1                 0.0000
     12 ****         2.0971   0.3561  -0.7874 O.3            1 S1                 0.0000
     13 ****         1.9964  -1.8460  -1.7320 C.3            1 S1                 0.0000
     14 ****         1.4582  -2.5105  -0.6009 O.3            1 S1                 0.0000
     15 ****         1.9189  -3.8445  -0.4641 C.3            1 S1                 0.0000
     16 ****         1.3104  -4.4119   0.7796 C.2            1 S1                 0.0000
     17 ****         1.3655  -5.6485   1.3613 C.2            1 S1                 0.0000
     18 ****         0.5806  -5.5739   2.5452 C.2            1 S1                 0.0000
     19 ****         0.1034  -4.2957   2.6006 C.2            1 S1                 0.0000
     20 ****         0.5388  -3.5740   1.5329 O.3            1 S1                 0.0000
     21 ****        -1.6800   4.1102  -0.2968 N.am           1 S1                 0.0000
     22 ****        -2.1320   5.3616  -0.9128 C.3            1 S1                 0.0000
     23 ****        -1.6223   3.9474   1.0665 C.2            1 S1                 0.0000
     24 ****        -1.9601   4.8606   1.8246 O.2            1 S1                 0.0000
     25 ****        -0.8011   1.6350   3.4040 H              1 S1                 0.0000
     26 ****        -2.1234   2.7738   3.4640 H              1 S1                 0.0000
     27 ****        -0.4552   3.3481   3.4642 H              1 S1                 0.0000
     28 ****        -0.7141   1.3984  -3.7955 H              1 S1                 0.0000
     29 ****        -0.4512  -0.8315  -0.7928 H              1 S1                 0.0000
     30 ****        -0.5322  -0.8576  -2.5273 H              1 S1                 0.0000
     31 ****         1.7576   0.0276  -2.7399 H              1 S1                 0.0000
     32 ****         1.8744  -0.0099   0.0556 H              1 S1                 0.0000
     33 ****         1.6987  -2.3820  -2.6345 H              1 S1                 0.0000
     34 ****         3.0874  -1.8467  -1.7008 H              1 S1                 0.0000
     35 ****         1.6273  -4.4389  -1.3312 H              1 S1                 0.0000
     36 ****         3.0070  -3.8665  -0.3897 H              1 S1                 0.0000
     37 ****         1.9062  -6.5026   0.9810 H              1 S1                 0.0000
     38 ****         0.3898  -6.3556   3.2655 H              1 S1                 0.0000
     39 ****        -0.5263  -3.7581   3.2942 H              1 S1                 0.0000
     40 ****        -2.4259   6.1346  -0.2023 H              1 S1                 0.0000
     41 ****        -2.9918   5.1704  -1.5558 H              1 S1                 0.0000
     42 ****        -1.3372   5.7774  -1.5330 H              1 S1                 0.0000
     43 ****        -0.2983   0.4670   2.2560 LP             1 S1                 0.0000
     44 ****        -0.0862  -0.1359   0.6462 LP             1 S1                 0.0000
     45 ****        -1.5523   3.7239  -3.2135 LP             1 S1                 0.0000
     46 ****         1.7868   1.3054  -0.8365 LP             1 S1                 0.0000
     47 ****         3.0877   0.3219  -0.9198 LP             1 S1                 0.0000
     48 ****         0.4619  -2.5257  -0.6856 LP             1 S1                 0.0000
     49 ****         1.7153  -2.0000   0.2196 LP             1 S1                 0.0000
     50 ****        -0.2399  -3.2480   0.9969 LP             1 S1                 0.0000
     51 ****         1.0804  -2.7928   1.8430 LP             1 S1                 0.0000
     52 ****        -1.9137   4.7312   2.8151 LP             1 S1                 0.0000
     53 ****        -2.2802   5.7301   1.4484 LP             1 S1                 0.0000
@<TRIPOS>BOND
    1    1    2 1     
    2    1   25 1     
    3    1   26 1     
    4    1   27 1     
    5    2   23 am    
    6    2    3 am    
    7    3    4 2     
    8    3    5 1     
    9    5    9 1     
   10    5    6 2     
   11    6    7 1     
   12    6   21 1     
   13    7    8 2     
   14    8    9 1     
   15    8   28 1     
   16    9   10 1     
   17   10   11 1     
   18   10   29 1     
   19   10   30 1     
   20   11   12 1     
   21   11   13 1     
   22   11   31 1     
   23   12   32 1     
   24   13   14 1     
   25   13   33 1     
   26   13   34 1     
   27   14   15 1     
   28   15   16 1     
   29   15   35 1     
   30   15   36 1     
   31   16   20 1     
   32   16   17 2     
   33   17   18 1     
   34   17   37 1     
   35   18   19 2     
   36   18   38 1     
   37   19   20 1     
   38   19   39 1     
   39   21   22 1     
   40   21   23 am    
   41   22   40 1     
   42   22   41 1     
   43   22   42 1     
   44   23   24 2     
   45    4   43 1     
   46    4   44 1     
   47    7   45 1     
   48   12   46 1     
   49   12   47 1     
   50   14   48 1     
   51   14   49 1     
   52   20   50 1     
   53   20   51 1     
   54   24   52 1     
   55   24   53 1     
@<TRIPOS>SUBSTRUCTURE
      1 S1             1
@<TRIPOS>SET
LONE_PAIRS      STATIC     ATOMS    <user>   **** ""
11 43 44 45 46 47 48 49 50 51 52 53
DONOR_HYDROGENS      STATIC     ATOMS    <user>   **** ""
1 32
ATOM$BLUE        STATIC     ATOMS    COLORGROUP SYSTEM
11 43 44 45 46 47 48 49 50 51 52 53
ATOM$RED        STATIC     ATOMS    COLORGROUP SYSTEM
1 32
