#       Name:                AV-unprocessed.smi:1968
#       Creating user name   scv26
#       Creation time:       Fri Mar 27 10:12:45 2020


#       File generated by GOLD software.
#

@<TRIPOS>MOLECULE
AV-unprocessed.smi:1968
    48    49     1
SMALL
NO_CHARGES


@<TRIPOS>ATOM
      1 ****        -4.3488  -3.9726  -1.2467 C.3            1 S1                 0.0000
      2 ****        -4.1887  -2.7316  -2.1280 C.2            1 S1                 0.0000
      3 ****        -4.4014  -2.8482  -3.3350 O.2            1 S1                 0.0000
      4 ****        -3.8191  -1.5585  -1.5595 N.am           1 S1                 0.0000
      5 ****        -3.4701  -1.3720  -0.1458 C.3            1 S1                 0.0000
      6 ****        -1.9525  -1.1414  -0.0371 C.3            1 S1                 0.0000
      7 ****        -1.5006   0.0538  -0.9092 C.3            1 S1                 0.0000
      8 ****        -0.0440   0.1341  -0.9596 N.am           1 S1                 0.0000
      9 ****         0.7393   0.6522  -0.0016 C.2            1 S1                 0.0000
     10 ****         0.2994   1.1154   1.0517 O.2            1 S1                 0.0000
     11 ****         2.2491   0.6182  -0.2803 C.3            1 S1                 0.0000
     12 ****         3.0265   1.5143   0.5923 N.am           1 S1                 0.0000
     13 ****         3.6185   0.9415   1.7354 C.2            1 S1                 0.0000
     14 ****         4.3603   1.6489   2.6092 C.2            1 S1                 0.0000
     15 ****         4.9359   1.0179   3.8677 C.3            1 S1                 0.0000
     16 ****         5.0217   1.9106   4.8543 F              1 S1                 0.0000
     17 ****         4.1825   0.0007   4.2875 F              1 S1                 0.0000
     18 ****         6.1600   0.5533   3.6215 F              1 S1                 0.0000
     19 ****         4.5021   3.0655   2.3360 C.2            1 S1                 0.0000
     20 ****         3.9323   3.6316   1.2541 C.2            1 S1                 0.0000
     21 ****         3.1436   2.8450   0.3030 C.2            1 S1                 0.0000
     22 ****         2.6202   3.3506  -0.6903 O.2            1 S1                 0.0000
     23 ****        -2.0607  -0.0513  -2.3446 C.3            1 S1                 0.0000
     24 ****        -3.5727  -0.3405  -2.3398 C.3            1 S1                 0.0000
     25 ****        -3.4173  -4.2039  -0.7292 H              1 S1                 0.0000
     26 ****        -4.6173  -4.8406  -1.8499 H              1 S1                 0.0000
     27 ****        -5.1378  -3.8228  -0.5095 H              1 S1                 0.0000
     28 ****        -4.0056  -0.5051   0.2442 H              1 S1                 0.0000
     29 ****        -3.7660  -2.2044   0.4910 H              1 S1                 0.0000
     30 ****        -1.6796  -0.9730   1.0053 H              1 S1                 0.0000
     31 ****        -1.4306  -2.0471  -0.3505 H              1 S1                 0.0000
     32 ****        -1.8931   0.9718  -0.4671 H              1 S1                 0.0000
     33 ****         0.4017  -0.2277  -1.7903 H              1 S1                 0.0000
     34 ****         2.5917  -0.4119  -0.1710 H              1 S1                 0.0000
     35 ****         2.4274   0.8667  -1.3285 H              1 S1                 0.0000
     36 ****         3.4208  -0.1133   1.8619 H              1 S1                 0.0000
     37 ****         5.0778   3.6835   3.0094 H              1 S1                 0.0000
     38 ****         4.0599   4.6903   1.0817 H              1 S1                 0.0000
     39 ****        -1.8604   0.8697  -2.8935 H              1 S1                 0.0000
     40 ****        -1.5491  -0.8500  -2.8846 H              1 S1                 0.0000
     41 ****        -3.9405  -0.4131  -3.3642 H              1 S1                 0.0000
     42 ****        -4.1131   0.4936  -1.8900 H              1 S1                 0.0000
     43 ****        -4.6700  -3.7346  -3.7120 LP             1 S1                 0.0000
     44 ****        -4.3056  -2.0565  -3.9384 LP             1 S1                 0.0000
     45 ****        -0.6856   1.1167   1.2245 LP             1 S1                 0.0000
     46 ****         0.9272   1.4901   1.7339 LP             1 S1                 0.0000
     47 ****         2.0873   2.7832  -1.3182 LP             1 S1                 0.0000
     48 ****         2.7279   4.3286  -0.8691 LP             1 S1                 0.0000
@<TRIPOS>BOND
    1    1    2 1     
    2    1   25 1     
    3    1   26 1     
    4    1   27 1     
    5    2    3 2     
    6    2    4 am    
    7    4   24 1     
    8    4    5 1     
    9    5    6 1     
   10    5   28 1     
   11    5   29 1     
   12    6    7 1     
   13    6   30 1     
   14    6   31 1     
   15    7    8 1     
   16    7   23 1     
   17    7   32 1     
   18    8    9 am    
   19    8   33 1     
   20    9   10 2     
   21    9   11 1     
   22   11   12 1     
   23   11   34 1     
   24   11   35 1     
   25   12   21 am    
   26   12   13 1     
   27   13   14 2     
   28   13   36 1     
   29   14   15 1     
   30   14   19 1     
   31   15   16 1     
   32   15   17 1     
   33   15   18 1     
   34   19   20 2     
   35   19   37 1     
   36   20   21 1     
   37   20   38 1     
   38   21   22 2     
   39   23   24 1     
   40   23   39 1     
   41   23   40 1     
   42   24   41 1     
   43   24   42 1     
   44    3   43 1     
   45    3   44 1     
   46   10   45 1     
   47   10   46 1     
   48   22   47 1     
   49   22   48 1     
@<TRIPOS>SUBSTRUCTURE
      1 S1             1
@<TRIPOS>SET
LONE_PAIRS      STATIC     ATOMS    <user>   **** ""
6 43 44 45 46 47 48
DONOR_HYDROGENS      STATIC     ATOMS    <user>   **** ""
1 33
ATOM$BLUE        STATIC     ATOMS    COLORGROUP SYSTEM
6 43 44 45 46 47 48
ATOM$RED        STATIC     ATOMS    COLORGROUP SYSTEM
1 33
