AV-unprocessed.smi:674|AV-procd|sdf|3300|dock1
  -GOLD-   22720 0263D 1   1.00000     0.00000
 Structure written by MMmdl.
 47 48  0  0  0  0  0  0  0  0  1 V2000
  150.5931  142.1587  157.0688 C   0  0  0  0  0  0  0  0  0  0  0  0
  149.9205  142.2470  155.6941 C   0  0  0  0  0  0  0  0  0  0  0  0
  149.7579  140.8956  155.0566 C   0  0  0  0  0  0  0  0  0  0  0  0
  148.5651  140.3102  154.5413 C   0  0  0  0  0  0  0  0  0  0  0  0
  148.9950  139.0908  154.0937 C   0  0  0  0  0  0  0  0  0  0  0  0
  148.2757  138.0973  153.5070 N   0  0  0  0  0  0  0  0  0  0  0  0
  146.9899  137.7596  153.7063 C   0  0  0  0  0  0  0  0  0  0  0  0
  146.2032  138.3440  154.4517 O   0  0  0  0  0  0  0  0  0  0  0  0
  146.6548  136.6853  152.9795 N   0  0  0  0  0  0  0  0  0  0  0  0
  145.3325  136.0687  152.9828 C   0  0  1  0  0  0  0  0  0  0  0  0
  144.9646  135.4574  151.6326 C   0  0  0  0  0  0  0  0  0  0  0  0
  144.2647  134.3409  152.4294 C   0  0  1  0  0  0  0  0  0  0  0  0
  142.7603  134.4884  152.7053 C   0  0  0  0  0  0  0  0  0  0  0  0
  144.5367  133.0424  151.8994 O   0  0  0  0  0  0  0  0  0  0  0  0
  143.9132  132.7227  150.6623 C   0  0  0  0  0  0  0  0  0  0  0  0
  145.2775  134.6399  153.5826 C   0  0  0  0  0  0  0  0  0  0  0  0
  146.5876  133.8266  153.5627 C   0  0  0  0  0  0  0  0  0  0  0  0
  144.7429  134.5363  155.0146 C   0  0  0  0  0  0  0  0  0  0  0  0
  150.3468  138.9786  154.3392 N   0  0  0  0  0  0  0  0  0  0  0  0
  151.2628  137.8909  154.0542 C   0  0  0  0  0  0  0  0  0  0  0  0
  150.8134  140.0978  154.9326 N   0  0  0  0  0  0  0  0  0  0  0  0
  150.6918  143.1472  157.5176 H   0  0  0  0  0  0  0  0  0  0  0  0
  151.5915  141.7269  156.9928 H   0  0  0  0  0  0  0  0  0  0  0  0
  150.0111  141.5394  157.7519 H   0  0  0  0  0  0  0  0  0  0  0  0
  148.9460  142.7244  155.8006 H   0  0  0  0  0  0  0  0  0  0  0  0
  150.5056  142.8992  155.0445 H   0  0  0  0  0  0  0  0  0  0  0  0
  147.5715  140.7315  154.5177 H   0  0  0  0  0  0  0  0  0  0  0  0
  148.7842  137.5344  152.8414 H   0  0  0  0  0  0  0  0  0  0  0  0
  147.3580  136.2614  152.3922 H   0  0  0  0  0  0  0  0  0  0  0  0
  144.5427  136.7221  153.3599 H   0  0  0  0  0  0  0  0  0  0  0  0
  144.2992  136.0719  151.0255 H   0  0  0  0  0  0  0  0  0  0  0  0
  145.8255  135.1127  151.0565 H   0  0  0  0  0  0  0  0  0  0  0  0
  142.5329  135.4123  153.2365 H   0  0  0  0  0  0  0  0  0  0  0  0
  142.3862  133.6630  153.3111 H   0  0  0  0  0  0  0  0  0  0  0  0
  142.1785  134.5142  151.7844 H   0  0  0  0  0  0  0  0  0  0  0  0
  144.2653  131.7470  150.3281 H   0  0  0  0  0  0  0  0  0  0  0  0
  144.1576  133.4448  149.8833 H   0  0  0  0  0  0  0  0  0  0  0  0
  142.8294  132.6598  150.7556 H   0  0  0  0  0  0  0  0  0  0  0  0
  146.4121  132.7835  153.8274 H   0  0  0  0  0  0  0  0  0  0  0  0
  147.3172  134.2192  154.2717 H   0  0  0  0  0  0  0  0  0  0  0  0
  147.0631  133.8306  152.5818 H   0  0  0  0  0  0  0  0  0  0  0  0
  144.4322  133.5183  155.2508 H   0  0  0  0  0  0  0  0  0  0  0  0
  143.8828  135.1854  155.1778 H   0  0  0  0  0  0  0  0  0  0  0  0
  145.4963  134.8288  155.7468 H   0  0  0  0  0  0  0  0  0  0  0  0
  150.7180  136.9994  153.7440 H   0  0  0  0  0  0  0  0  0  0  0  0
  151.8430  137.6527  154.9464 H   0  0  0  0  0  0  0  0  0  0  0  0
  151.9426  138.1862  153.2545 H   0  0  0  0  0  0  0  0  0  0  0  0
  1  2  1  0  0  0  0
  1 22  1  0  0  0  0
  1 23  1  0  0  0  0
  1 24  1  0  0  0  0
  2  3  1  0  0  0  0
  2 25  1  0  0  0  0
  2 26  1  0  0  0  0
  3 21  2  0  0  0  0
  3  4  1  0  0  0  0
  4  5  2  0  0  0  0
  4 27  1  0  0  0  0
  5  6  1  0  0  0  0
  5 19  1  0  0  0  0
  6  7  1  0  0  0  0
  6 28  1  0  0  0  0
  7  8  2  0  0  0  0
  7  9  1  0  0  0  0
  9 10  1  0  0  0  0
  9 29  1  0  0  0  0
 10 16  1  0  0  0  0
 10 11  1  0  0  0  0
 10 30  1  0  0  0  0
 11 12  1  0  0  0  0
 11 31  1  0  0  0  0
 11 32  1  0  0  0  0
 12 13  1  0  0  0  0
 12 14  1  0  0  0  0
 12 16  1  0  0  0  0
 13 33  1  0  0  0  0
 13 34  1  0  0  0  0
 13 35  1  0  0  0  0
 14 15  1  0  0  0  0
 15 36  1  0  0  0  0
 15 37  1  0  0  0  0
 15 38  1  0  0  0  0
 16 17  1  0  0  0  0
 16 18  1  0  0  0  0
 17 39  1  0  0  0  0
 17 40  1  0  0  0  0
 17 41  1  0  0  0  0
 18 42  1  0  0  0  0
 18 43  1  0  0  0  0
 18 44  1  0  0  0  0
 19 20  1  0  0  0  0
 19 21  1  0  0  0  0
 20 45  1  0  0  0  0
 20 46  1  0  0  0  0
 20 47  1  0  0  0  0
M  END
> <s_m_source_file>
AV-unprocessed.smi

> <i_m_source_file_index>
674

> <i_lp_mmshare_version>
43012

> <i_f3d_flags>
0

> <s_epik_input>
W0NIM11bQ0gyXWMxW2NIXWMobihuMSlbQ0gzXSlbTkhdQyg9TylbTkhdW0NAQEhdKEMyKFtDSDNdKVtDSDNdKVtDSDJdW0NAQF0yKFtDSDNdKU9bQ0gzXQ==

> <s_epik_cmdline>
J2VwaWtfcHl0aG9uJywgJy1waCcsICc3LjAnLCAnLXRuJywgJzgnLCAnLW1hJywgJzIwMCcsICctbWV0YWxfYmluZGluZycsICctaW1hZScsICc8aW5maWxlLm1hZT4nLCAnLW9tYWUnLCAnPG91dGZpbGUubWFlPic=

> <r_lp_tautomer_probability>
1

> <r_epik_Ionization_Penalty>
0.000101626

> <r_epik_Ionization_Penalty_Charging>
0

> <r_epik_Ionization_Penalty_Neutral>
0.000101626

> <r_epik_State_Penalty>
-0

> <r_epik_Charging_Adjusted_Penalty>
0

> <i_epik_Tot_Q>
0

> <i_epik_Tot_abs_Q>
0

> <r_epik_Metal_State_Penalty>
-0

> <b_epik_Metal_Only>
0

> <s_lp_Force_Field>
OPLS_2005

> <r_lp_Energy>
22.8754

> <b_lp_Chiralities_Consistent>
1

> <s_lp_Variant>
AV-unprocessed.smi:674-2

> <Gold.Version>
5.8.1

> <Gold.Id.Protein>
6NUR|6NUR_protein|mol2

> <Gold.PLP.Fitness>
38.8577

> <Gold.PLP.PLP>
-30.8836

> <Gold.PLP.part.hbond>
-3.1914

> <Gold.PLP.part.metal>
0.0000

> <Gold.PLP.part.buried>
-0.1386

> <Gold.PLP.part.nonpolar>
-27.7578

> <Gold.PLP.part.repulsive>
0.3208

> <Gold.PLP.ligand.clash>
0.0000

> <Gold.PLP.ligand.torsion>
0.5426

> <Gold.PLP.Chemscore.Hbond>
2.8920

> <Gold.PLP.Chemscore.CHOScore>
0.0000

> <Gold.PLP.Chemscore.Metal>
0.0000

> <Gold.Chemscore.Hbonds>
donor molecule, donor type, donor heavy atom, donor atom, acceptor molecule, acceptor atom, score
      L1  H     6    28       P1  7948  1.00
      L1  H     9    29       P1  7948  0.99
      P1  H  7989  7998       L1    21  0.95

> <Gold.PLP.Chemscore.Internal.Correction>
0.3833

> <Gold.Rescore>
     Score         DG    S(hbond)    S(metal)    S(lipo)     H(rot)  DE(clash)    DE(int)     intcor
     15.51     -16.29       1.94        0.00      67.06       1.37       0.03       0.76       ----

> <Gold.Chemscore.Fitness>
15.5065

> <Gold.Chemscore.DG>
-16.2926

> <Gold.Chemscore.ZeroCoef>
-5.4800

> <Gold.Chemscore.Hbond>
1.9352

> <Gold.Chemscore.Metal>
0.0000

> <Gold.Chemscore.Lipo>
67.0557

> <Gold.Chemscore.Internal_Hbond>
0.0000

> <Gold.Chemscore.DEClash>
0.0270

> <Gold.Chemscore.DEInternal>
0.7591

> <Gold.Chemscore.Rot>
1.3658

> <Gold.Chemscore.Internal.Correction>
   9.000000E+99

> <Gold.Chemscore.Hbonds>
donor molecule, donor type, donor heavy atom, donor atom, acceptor molecule, acceptor atom, score
      L1  H     6    28       P1  7948  0.97
      L1  H     9    29       P1  7948  0.94
      P1  H  7989  7998       L1    21  0.06

> <Gold.Chemscore.Hbond.Weighted>
-6.4634

> <Gold.Chemscore.Metal.Weighted>
-0.0000

> <Gold.Chemscore.Lipo.Weighted>
-7.8455

> <Gold.Chemscore.Internal_Hbond.Weighted>
0.0000

> <Gold.Chemscore.DEClash.Weighted>
0.0270

> <Gold.Chemscore.DEInternal.Weighted>
0.7591

> <Gold.Chemscore.Rot.Weighted>
3.4963

> <Gold.Chemscore.Internal.Correction.Weighted>
   9.000000E+99

> <Gold.Protein.RotatedTorsions>
[ 6907 6896 6895 6894 ] final -123.43 input  -60.11 | X-H torsion
[ 7974 7965 7964 7962 ] final  -86.97 input  175.53 | X-H torsion
[ 8008 7997 7996 7995 ] final -131.09 input   59.86 | X-H torsion
[ 10167 10162 10161 10158 ] final  124.45 input  -65.29 | X-H torsion
[ 10718 10713 10712 10709 ] final  -62.80 input   66.30 | X-H torsion
[ 10763 10752 10751 10750 ] final -145.29 input  -60.55 | X-H torsion
[ 11005 11000 10999 10996 ] final -104.49 input  -57.11 | X-H torsion

> <Gold.Protein.ActiveResidues>
 VAL166  LYS551  ARG553  GLY616  TRP617  ASP618  TYR619  PRO620  LYS621  CYS622 
 ASP623  PHE694  ASN695  SER759  ASP760  ASP761  ALA762  ILE779  LEU786  VAL792 
 PHE793  MET794  SER795  GLU796  ALA797  LYS798  CYS799  TRP800  GLU811  SER814 

> <Gold.Protein.RotatedAtoms>
  150.8671  133.7559  159.2973 H   0  0  0  0  0  0  0  0  0  0  0  0  # atno 6907 bound_to 6896
  151.5183  135.1065  159.9881 H   0  0  0  0  0  0  0  0  0  0  0  0  # atno 6908 bound_to 6896
  152.4668  133.7897  159.6951 H   0  0  0  0  0  0  0  0  0  0  0  0  # atno 6909 bound_to 6896
  145.4728  140.9559  143.1907 H   0  0  0  0  0  0  0  0  0  0  0  0  # atno 7974 bound_to 7965
  155.3065  140.0455  157.3032 H   0  0  0  0  0  0  0  0  0  0  0  0  # atno 8008 bound_to 7997
  154.5457  140.2302  155.8534 H   0  0  0  0  0  0  0  0  0  0  0  0  # atno 8009 bound_to 7997
  156.1922  140.3047  155.9361 H   0  0  0  0  0  0  0  0  0  0  0  0  # atno 8010 bound_to 7997
  139.5741  144.6954  151.3701 H   0  0  0  0  0  0  0  0  0  0  0  0  # atno 10167 bound_to 10162
  156.0831  130.4213  150.1187 H   0  0  0  0  0  0  0  0  0  0  0  0  # atno 10718 bound_to 10713
  154.8390  135.3417  154.6481 H   0  0  0  0  0  0  0  0  0  0  0  0  # atno 10763 bound_to 10752
  153.7094  135.6965  153.5046 H   0  0  0  0  0  0  0  0  0  0  0  0  # atno 10764 bound_to 10752
  153.2463  135.4368  155.0705 H   0  0  0  0  0  0  0  0  0  0  0  0  # atno 10765 bound_to 10752
  141.1098  133.8727  157.1617 H   0  0  0  0  0  0  0  0  0  0  0  0  # atno 11005 bound_to 11000
  144.7935  139.6281  143.7103 LP  0  0  0  0  0  0  0  0  0  0  0  0  # atno 17320 bound_to 7965
  146.2387  139.5956  142.9506 LP  0  0  0  0  0  0  0  0  0  0  0  0  # atno 17321 bound_to 7965
  140.7024  143.7598  150.7425 LP  0  0  0  0  0  0  0  0  0  0  0  0  # atno 17342 bound_to 10162
  140.1113  143.4697  152.2368 LP  0  0  0  0  0  0  0  0  0  0  0  0  # atno 17343 bound_to 10162
  156.9214  130.9684  151.3548 LP  0  0  0  0  0  0  0  0  0  0  0  0  # atno 17370 bound_to 10713
  157.5956  130.8475  149.8724 LP  0  0  0  0  0  0  0  0  0  0  0  0  # atno 17371 bound_to 10713
  139.9986  135.0037  157.0139 LP  0  0  0  0  0  0  0  0  0  0  0  0  # atno 17394 bound_to 11000
  140.4806  134.1294  155.7216 LP  0  0  0  0  0  0  0  0  0  0  0  0  # atno 17395 bound_to 11000

$$$$
