#       Name:                AV-unprocessed.smi:2741
#       Creating user name   scv26
#       Creation time:       Fri Mar 27 15:01:32 2020


#       File generated by GOLD software.
#

@<TRIPOS>MOLECULE
AV-unprocessed.smi:2741
    45    46     1
SMALL
NO_CHARGES


@<TRIPOS>ATOM
      1 ****        -0.5082   1.1163  -0.6500 O.2            1 S1                 0.0000
      2 ****         0.1026   0.1222  -1.0454 C.2            1 S1                 0.0000
      3 ****         1.6216   0.1616  -1.2646 C.3            1 S1                 0.0000
      4 ****         2.1721   1.5261  -1.3285 N.am           1 S1                 0.0000
      5 ****         2.7079   2.0571  -0.1386 C.2            1 S1                 0.0000
      6 ****         3.2358   3.2939  -0.0605 C.2            1 S1                 0.0000
      7 ****         3.8534   3.8255   1.2236 C.3            1 S1                 0.0000
      8 ****         4.8927   4.6176   0.9595 F              1 S1                 0.0000
      9 ****         2.9518   4.5371   1.8987 F              1 S1                 0.0000
     10 ****         4.2723   2.8325   2.0091 F              1 S1                 0.0000
     11 ****         3.2619   4.0628  -1.2891 C.2            1 S1                 0.0000
     12 ****         2.7540   3.5699  -2.4356 C.2            1 S1                 0.0000
     13 ****         2.1583   2.2332  -2.4981 C.2            1 S1                 0.0000
     14 ****         1.6806   1.7762  -3.5368 O.2            1 S1                 0.0000
     15 ****        -0.4914  -1.0554  -1.2895 N.am           1 S1                 0.0000
     16 ****        -1.9134  -1.3334  -1.1176 C.3            1 S1                 0.0000
     17 ****        -2.2812  -1.5765   0.3593 C.3            1 S1                 0.0000
     18 ****        -3.7623  -1.9064   0.5755 C.3            1 S1                 0.0000
     19 ****        -3.7856  -2.6259   1.9216 C.3            1 S1                 0.0000
     20 ****        -2.5316  -3.5013   1.8800 C.3            1 S1                 0.0000
     21 ****        -2.0470  -3.7908   3.1744 O.3            1 S1                 0.0000
     22 ****        -1.5077  -2.7278   1.0329 C.3            1 S1                 0.0000
     23 ****         2.0944  -0.4010  -0.4583 H              1 S1                 0.0000
     24 ****         1.8677  -0.3879  -2.1751 H              1 S1                 0.0000
     25 ****         2.6569   1.3925   0.7116 H              1 S1                 0.0000
     26 ****         3.6914   5.0538  -1.2887 H              1 S1                 0.0000
     27 ****         2.7871   4.1728  -3.3314 H              1 S1                 0.0000
     28 ****         0.0859  -1.8194  -1.6099 H              1 S1                 0.0000
     29 ****        -2.5059  -0.5133  -1.5265 H              1 S1                 0.0000
     30 ****        -2.1570  -2.2145  -1.7122 H              1 S1                 0.0000
     31 ****        -2.0721  -0.6668   0.9251 H              1 S1                 0.0000
     32 ****        -4.3948  -1.0182   0.5647 H              1 S1                 0.0000
     33 ****        -4.1191  -2.5800  -0.2051 H              1 S1                 0.0000
     34 ****        -3.7139  -1.8920   2.7261 H              1 S1                 0.0000
     35 ****        -4.6969  -3.2041   2.0767 H              1 S1                 0.0000
     36 ****        -2.7704  -4.4408   1.3795 H              1 S1                 0.0000
     37 ****        -1.8393  -2.9766   3.6071 H              1 S1                 0.0000
     38 ****        -1.0566  -3.3967   0.2987 H              1 S1                 0.0000
     39 ****        -0.6952  -2.3242   1.6390 H              1 S1                 0.0000
     40 ****        -0.0144   1.9664  -0.4666 LP             1 S1                 0.0000
     41 ****        -1.4977   1.0733  -0.5125 LP             1 S1                 0.0000
     42 ****         1.2849   0.8579  -3.5435 LP             1 S1                 0.0000
     43 ****         1.6884   2.3234  -4.3738 LP             1 S1                 0.0000
     44 ****        -1.2250  -4.3563   3.1078 LP             1 S1                 0.0000
     45 ****        -2.7469  -4.2800   3.6947 LP             1 S1                 0.0000
@<TRIPOS>BOND
    1    1    2 2     
    2    2    3 1     
    3    2   15 am    
    4    3    4 1     
    5    3   23 1     
    6    3   24 1     
    7    4   13 am    
    8    4    5 1     
    9    5    6 2     
   10    5   25 1     
   11    6    7 1     
   12    6   11 1     
   13    7    8 1     
   14    7    9 1     
   15    7   10 1     
   16   11   12 2     
   17   11   26 1     
   18   12   13 1     
   19   12   27 1     
   20   13   14 2     
   21   15   16 1     
   22   15   28 1     
   23   16   17 1     
   24   16   29 1     
   25   16   30 1     
   26   17   22 1     
   27   17   18 1     
   28   17   31 1     
   29   18   19 1     
   30   18   32 1     
   31   18   33 1     
   32   19   20 1     
   33   19   34 1     
   34   19   35 1     
   35   20   21 1     
   36   20   22 1     
   37   20   36 1     
   38   21   37 1     
   39   22   38 1     
   40   22   39 1     
   41    1   40 1     
   42    1   41 1     
   43   14   42 1     
   44   14   43 1     
   45   21   44 1     
   46   21   45 1     
@<TRIPOS>SUBSTRUCTURE
      1 S1             1
@<TRIPOS>SET
LONE_PAIRS      STATIC     ATOMS    <user>   **** ""
6 40 41 42 43 44 45
DONOR_HYDROGENS      STATIC     ATOMS    <user>   **** ""
2 28 37
ATOM$BLUE        STATIC     ATOMS    COLORGROUP SYSTEM
6 40 41 42 43 44 45
ATOM$RED        STATIC     ATOMS    COLORGROUP SYSTEM
2 28 37
