AV-unprocessed.smi:2332|AV-procd|sdf|9318|dock3
  -GOLD-   2272012543D 1   1.00000     0.00000
 Structure written by MMmdl.
 32 33  0  0  0  0  0  0  0  0  1 V2000
  148.4221  141.5423  154.6197 C   0  0  0  0  0  0  0  0  0  0  0  0
  149.4148  142.0111  155.5742 N   0  0  0  0  0  0  0  0  0  0  0  0
  150.5946  141.4120  155.7968 C   0  0  0  0  0  0  0  0  0  0  0  0
  150.9508  140.3988  155.1940 O   0  0  0  0  0  0  0  0  0  0  0  0
  151.5198  142.0591  156.8388 C   0  0  2  0  0  0  0  0  0  0  0  0
  152.0025  141.0420  157.8984 C   0  0  0  0  0  0  0  0  0  0  0  0
  152.7821  141.7078  158.9396 N   0  0  0  0  0  0  0  0  0  0  0  0
  153.4897  140.8513  159.8110 C   0  0  0  0  0  0  0  0  0  0  0  0
  154.1908  141.3846  160.9194 C   0  0  0  0  0  0  0  0  0  0  0  0
  154.8939  140.5127  161.7734 C   0  0  0  0  0  0  0  0  0  0  0  0
  154.8760  139.1322  161.4985 C   0  0  0  0  0  0  0  0  0  0  0  0
  155.5856  138.1925  162.3492 C   0  0  0  0  0  0  0  0  0  0  0  0
  156.1504  137.4439  163.0269 N   0  0  0  0  0  0  0  0  0  0  0  0
  154.1483  138.6862  160.3782 C   0  0  0  0  0  0  0  0  0  0  0  0
  153.4719  139.5185  159.5577 N   0  0  0  0  0  0  0  0  0  0  0  0
  152.1081  142.8669  159.5201 C   0  0  0  0  0  0  0  0  0  0  0  0
  151.6463  143.8249  158.4116 C   0  0  0  0  0  0  0  0  0  0  0  0
  150.8216  143.1213  157.4903 O   0  0  0  0  0  0  0  0  0  0  0  0
  147.5374  142.1774  154.6615 H   0  0  0  0  0  0  0  0  0  0  0  0
  148.1184  140.5191  154.8445 H   0  0  0  0  0  0  0  0  0  0  0  0
  148.8172  141.5733  153.6036 H   0  0  0  0  0  0  0  0  0  0  0  0
  149.1922  142.8395  156.1072 H   0  0  0  0  0  0  0  0  0  0  0  0
  152.3774  142.4705  156.3034 H   0  0  0  0  0  0  0  0  0  0  0  0
  151.1486  140.5485  158.3650 H   0  0  0  0  0  0  0  0  0  0  0  0
  152.5867  140.2648  157.4074 H   0  0  0  0  0  0  0  0  0  0  0  0
  154.1855  142.4433  161.1322 H   0  0  0  0  0  0  0  0  0  0  0  0
  155.4325  140.9032  162.6248 H   0  0  0  0  0  0  0  0  0  0  0  0
  154.1029  137.6358  160.1286 H   0  0  0  0  0  0  0  0  0  0  0  0
  151.2506  142.5319  160.1054 H   0  0  0  0  0  0  0  0  0  0  0  0
  152.7810  143.3955  160.1968 H   0  0  0  0  0  0  0  0  0  0  0  0
  151.0762  144.6488  158.8408 H   0  0  0  0  0  0  0  0  0  0  0  0
  152.5003  144.2637  157.8932 H   0  0  0  0  0  0  0  0  0  0  0  0
  1  2  1  0  0  0  0
  1 19  1  0  0  0  0
  1 20  1  0  0  0  0
  1 21  1  0  0  0  0
  2  3  1  0  0  0  0
  2 22  1  0  0  0  0
  3  4  2  0  0  0  0
  3  5  1  0  0  0  0
  5 18  1  0  0  0  0
  5  6  1  0  0  0  0
  5 23  1  0  0  0  0
  6  7  1  0  0  0  0
  6 24  1  0  0  0  0
  6 25  1  0  0  0  0
  7  8  1  0  0  0  0
  7 16  1  0  0  0  0
  8 15  1  0  0  0  0
  8  9  2  0  0  0  0
  9 10  1  0  0  0  0
  9 26  1  0  0  0  0
 10 11  2  0  0  0  0
 10 27  1  0  0  0  0
 11 12  1  0  0  0  0
 11 14  1  0  0  0  0
 12 13  3  0  0  0  0
 14 15  2  0  0  0  0
 14 28  1  0  0  0  0
 16 17  1  0  0  0  0
 16 29  1  0  0  0  0
 16 30  1  0  0  0  0
 17 18  1  0  0  0  0
 17 31  1  0  0  0  0
 17 32  1  0  0  0  0
M  END
> <s_m_source_file>
AV-unprocessed.smi

> <i_m_source_file_index>
2332

> <i_lp_mmshare_version>
43012

> <i_f3d_flags>
0

> <s_epik_input>
W0NIM11bTkhdQyg9TylbQ0BASF0xW0NIMl1OKFtDSDJdW0NIMl1PMSljMltjSF1bY0hdYyhDI04pW2NIXW4y

> <s_epik_cmdline>
J2VwaWtfcHl0aG9uJywgJy1waCcsICc3LjAnLCAnLXRuJywgJzgnLCAnLW1hJywgJzIwMCcsICctbWV0YWxfYmluZGluZycsICctaW1hZScsICc8aW5maWxlLm1hZT4nLCAnLW9tYWUnLCAnPG91dGZpbGUubWFlPic=

> <r_lp_tautomer_probability>
1

> <r_epik_Ionization_Penalty>
6.95229e-08

> <r_epik_Ionization_Penalty_Charging>
0

> <r_epik_Ionization_Penalty_Neutral>
6.95229e-08

> <r_epik_State_Penalty>
-0

> <r_epik_Charging_Adjusted_Penalty>
0

> <i_epik_Tot_Q>
0

> <i_epik_Tot_abs_Q>
0

> <r_epik_Metal_State_Penalty>
-0

> <b_epik_Metal_Only>
0

> <s_lp_Force_Field>
OPLS_2005

> <r_lp_Energy>
17.7289

> <b_lp_Chiralities_Consistent>
1

> <s_lp_Variant>
AV-unprocessed.smi:2332-1

> <Gold.Version>
5.8.1

> <Gold.Id.Protein>
6NUR|6NUR_protein|mol2

> <Gold.PLP.Fitness>
37.5227

> <Gold.PLP.PLP>
-32.5187

> <Gold.PLP.part.hbond>
-2.0000

> <Gold.PLP.part.metal>
0.0000

> <Gold.PLP.part.buried>
-5.2201

> <Gold.PLP.part.nonpolar>
-25.7198

> <Gold.PLP.part.repulsive>
0.5061

> <Gold.PLP.ligand.clash>
0.0000

> <Gold.PLP.ligand.torsion>
0.4614

> <Gold.PLP.Chemscore.Hbond>
1.8640

> <Gold.PLP.Chemscore.CHOScore>
0.0000

> <Gold.PLP.Chemscore.Metal>
0.0000

> <Gold.Chemscore.Hbonds>
donor molecule, donor type, donor heavy atom, donor atom, acceptor molecule, acceptor atom, score
      L1  H     2    22       P1  8028  0.69
      P1  H  7989  7998       L1     4  1.00

> <Gold.PLP.Chemscore.Internal.Correction>
0.3348

> <Gold.Rescore>
     Score         DG    S(hbond)    S(metal)    S(lipo)     H(rot)  DE(clash)    DE(int)     intcor
     14.11     -15.27       1.33        0.00      75.15       1.35       0.91       0.25       ----

> <Gold.Chemscore.Fitness>
14.1113

> <Gold.Chemscore.DG>
-15.2701

> <Gold.Chemscore.ZeroCoef>
-5.4800

> <Gold.Chemscore.Hbond>
1.3333

> <Gold.Chemscore.Metal>
0.0000

> <Gold.Chemscore.Lipo>
75.1502

> <Gold.Chemscore.Internal_Hbond>
0.0000

> <Gold.Chemscore.DEClash>
0.9060

> <Gold.Chemscore.DEInternal>
0.2528

> <Gold.Chemscore.Rot>
1.3498

> <Gold.Chemscore.Internal.Correction>
   9.000000E+99

> <Gold.Chemscore.Hbonds>
donor molecule, donor type, donor heavy atom, donor atom, acceptor molecule, acceptor atom, score
      L1  H     2    22       P1  8028  0.69
      P1  H  7989  7998       L1     4  0.67

> <Gold.Chemscore.Hbond.Weighted>
-4.4531

> <Gold.Chemscore.Metal.Weighted>
-0.0000

> <Gold.Chemscore.Lipo.Weighted>
-8.7926

> <Gold.Chemscore.Internal_Hbond.Weighted>
0.0000

> <Gold.Chemscore.DEClash.Weighted>
0.9060

> <Gold.Chemscore.DEInternal.Weighted>
0.2528

> <Gold.Chemscore.Rot.Weighted>
3.4556

> <Gold.Chemscore.Internal.Correction.Weighted>
   9.000000E+99

> <Gold.Protein.RotatedTorsions>
[ 6907 6896 6895 6894 ] final -106.34 input  -60.11 | X-H torsion
[ 7974 7965 7964 7962 ] final  -94.15 input  175.53 | X-H torsion
[ 8008 7997 7996 7995 ] final    2.14 input   59.86 | X-H torsion
[ 10167 10162 10161 10158 ] final -165.75 input  -65.29 | X-H torsion
[ 10718 10713 10712 10709 ] final  -85.82 input   66.30 | X-H torsion
[ 10763 10752 10751 10750 ] final   34.63 input  -60.55 | X-H torsion
[ 11005 11000 10999 10996 ] final -121.18 input  -57.11 | X-H torsion

> <Gold.Protein.ActiveResidues>
 VAL166  LYS551  ARG553  GLY616  TRP617  ASP618  TYR619  PRO620  LYS621  CYS622 
 ASP623  PHE694  ASN695  SER759  ASP760  ASP761  ALA762  ILE779  LEU786  VAL792 
 PHE793  MET794  SER795  GLU796  ALA797  LYS798  CYS799  TRP800  GLU811  SER814 

> <Gold.Protein.RotatedAtoms>
  150.7384  133.9991  159.3632 H   0  0  0  0  0  0  0  0  0  0  0  0  # atno 6907 bound_to 6896
  151.7944  135.0724  160.0401 H   0  0  0  0  0  0  0  0  0  0  0  0  # atno 6908 bound_to 6896
  152.3185  133.5791  159.5764 H   0  0  0  0  0  0  0  0  0  0  0  0  # atno 6909 bound_to 6896
  145.3771  140.9513  143.2415 H   0  0  0  0  0  0  0  0  0  0  0  0  # atno 7974 bound_to 7965
  154.6880  140.2647  155.6841 H   0  0  0  0  0  0  0  0  0  0  0  0  # atno 8008 bound_to 7997
  156.2722  140.2797  156.1371 H   0  0  0  0  0  0  0  0  0  0  0  0  # atno 8009 bound_to 7997
  155.0936  140.0373  157.2666 H   0  0  0  0  0  0  0  0  0  0  0  0  # atno 8010 bound_to 7997
  139.6161  144.0718  152.1889 H   0  0  0  0  0  0  0  0  0  0  0  0  # atno 10167 bound_to 10162
  155.9994  130.4744  150.4620 H   0  0  0  0  0  0  0  0  0  0  0  0  # atno 10718 bound_to 10713
  153.0155  135.6355  154.1699 H   0  0  0  0  0  0  0  0  0  0  0  0  # atno 10763 bound_to 10752
  154.1438  135.2833  155.3155 H   0  0  0  0  0  0  0  0  0  0  0  0  # atno 10764 bound_to 10752
  154.6105  135.5558  153.7529 H   0  0  0  0  0  0  0  0  0  0  0  0  # atno 10765 bound_to 10752
  141.0089  134.0293  157.3440 H   0  0  0  0  0  0  0  0  0  0  0  0  # atno 11005 bound_to 11000
  144.8534  139.5286  143.6845 LP  0  0  0  0  0  0  0  0  0  0  0  0  # atno 17320 bound_to 7965
  146.2859  139.7003  142.9196 LP  0  0  0  0  0  0  0  0  0  0  0  0  # atno 17321 bound_to 7965
  140.0348  144.6053  150.7458 LP  0  0  0  0  0  0  0  0  0  0  0  0  # atno 17342 bound_to 10162
  140.7351  143.2737  151.3807 LP  0  0  0  0  0  0  0  0  0  0  0  0  # atno 17343 bound_to 10162
  157.2643  131.0573  151.2300 LP  0  0  0  0  0  0  0  0  0  0  0  0  # atno 17370 bound_to 10713
  157.3403  130.7030  149.6378 LP  0  0  0  0  0  0  0  0  0  0  0  0  # atno 17371 bound_to 10713
  139.9079  135.0184  156.7565 LP  0  0  0  0  0  0  0  0  0  0  0  0  # atno 17394 bound_to 11000
  140.6766  133.9512  155.7886 LP  0  0  0  0  0  0  0  0  0  0  0  0  # atno 17395 bound_to 11000

$$$$
