AV-unprocessed.smi:2945|AV-procd|sdf|11277|dock4
  -GOLD-   2272016173D 1   1.00000     0.00000
 Structure written by MMmdl.
 36 37  0  0  0  0  0  0  0  0  1 V2000
  150.9368  135.0252  156.1676 C   0  0  0  0  0  0  0  0  0  0  0  0
  150.7029  136.1521  157.1146 C   0  0  0  0  0  0  0  0  0  0  0  0
  151.2085  137.4190  157.1962 C   0  0  0  0  0  0  0  0  0  0  0  0
  150.5568  137.9503  158.3408 C   0  0  0  0  0  0  0  0  0  0  0  0
  150.8179  139.2742  158.7761 N   0  0  0  0  0  0  0  0  0  0  0  0
  151.9406  139.9906  158.5980 C   0  0  0  0  0  0  0  0  0  0  0  0
  152.9541  139.5896  158.0251 O   0  0  0  0  0  0  0  0  0  0  0  0
  151.8202  141.2146  159.1331 N   0  0  0  0  0  0  0  0  0  0  0  0
  152.8361  142.2696  159.1208 C   0  0  1  0  0  0  0  0  0  0  0  0
  152.2907  143.5090  158.3831 C   0  0  0  0  0  0  0  0  0  0  0  0
  151.1820  144.2186  159.1795 C   0  0  0  0  0  0  0  0  0  0  0  0
  151.6594  144.5832  160.5931 C   0  0  0  0  0  0  0  0  0  0  0  0
  152.1842  143.3483  161.3433 C   0  0  0  0  0  0  0  0  0  0  0  0
  153.3021  142.6364  160.5532 C   0  0  1  0  0  0  0  0  0  0  0  0
  153.8669  141.4345  161.3295 C   0  0  0  0  0  0  0  0  0  0  0  0
  149.7269  137.0870  158.9058 N   0  0  0  0  0  0  0  0  0  0  0  0
  149.8159  135.9301  158.1224 O   0  0  0  0  0  0  0  0  0  0  0  0
  151.7282  135.2695  155.4587 H   0  0  0  0  0  0  0  0  0  0  0  0
  150.0322  134.8026  155.6015 H   0  0  0  0  0  0  0  0  0  0  0  0
  151.2316  134.1233  156.7042 H   0  0  0  0  0  0  0  0  0  0  0  0
  151.9297  137.8863  156.5424 H   0  0  0  0  0  0  0  0  0  0  0  0
  150.0642  139.7291  159.2692 H   0  0  0  0  0  0  0  0  0  0  0  0
  150.9476  141.4437  159.5857 H   0  0  0  0  0  0  0  0  0  0  0  0
  153.7075  141.9226  158.5628 H   0  0  0  0  0  0  0  0  0  0  0  0
  153.1081  144.2104  158.2111 H   0  0  0  0  0  0  0  0  0  0  0  0
  151.9210  143.2286  157.3960 H   0  0  0  0  0  0  0  0  0  0  0  0
  150.8652  145.1185  158.6518 H   0  0  0  0  0  0  0  0  0  0  0  0
  150.3029  143.5764  159.2443 H   0  0  0  0  0  0  0  0  0  0  0  0
  152.4481  145.3339  160.5292 H   0  0  0  0  0  0  0  0  0  0  0  0
  150.8436  145.0400  161.1541 H   0  0  0  0  0  0  0  0  0  0  0  0
  152.5566  143.6516  162.3223 H   0  0  0  0  0  0  0  0  0  0  0  0
  151.3612  142.6577  161.5308 H   0  0  0  0  0  0  0  0  0  0  0  0
  154.1218  143.3487  160.4464 H   0  0  0  0  0  0  0  0  0  0  0  0
  153.0981  140.6908  161.5400 H   0  0  0  0  0  0  0  0  0  0  0  0
  154.2878  141.7500  162.2844 H   0  0  0  0  0  0  0  0  0  0  0  0
  154.6608  140.9434  160.7664 H   0  0  0  0  0  0  0  0  0  0  0  0
  1  2  1  0  0  0  0
  1 18  1  0  0  0  0
  1 19  1  0  0  0  0
  1 20  1  0  0  0  0
  2 17  1  0  0  0  0
  2  3  2  0  0  0  0
  3  4  1  0  0  0  0
  3 21  1  0  0  0  0
  4  5  1  0  0  0  0
  4 16  2  0  0  0  0
  5  6  1  0  0  0  0
  5 22  1  0  0  0  0
  6  7  2  0  0  0  0
  6  8  1  0  0  0  0
  8  9  1  0  0  0  0
  8 23  1  0  0  0  0
  9 14  1  0  0  0  0
  9 10  1  0  0  0  0
  9 24  1  0  0  0  0
 10 11  1  0  0  0  0
 10 25  1  0  0  0  0
 10 26  1  0  0  0  0
 11 12  1  0  0  0  0
 11 27  1  0  0  0  0
 11 28  1  0  0  0  0
 12 13  1  0  0  0  0
 12 29  1  0  0  0  0
 12 30  1  0  0  0  0
 13 14  1  0  0  0  0
 13 31  1  0  0  0  0
 13 32  1  0  0  0  0
 14 15  1  0  0  0  0
 14 33  1  0  0  0  0
 15 34  1  0  0  0  0
 15 35  1  0  0  0  0
 15 36  1  0  0  0  0
 16 17  1  0  0  0  0
M  END
> <s_m_source_file>
AV-unprocessed.smi

> <i_m_source_file_index>
2945

> <i_lp_mmshare_version>
43012

> <i_f3d_flags>
0

> <s_epik_input>
W0NIM11jMVtjSF1jKG5vMSlbTkhdQyg9TylbTkhdW0NAQEhdMltDSDJdW0NIMl1bQ0gyXVtDSDJdW0NASF0yW0NIM10=

> <s_epik_cmdline>
J2VwaWtfcHl0aG9uJywgJy1waCcsICc3LjAnLCAnLXRuJywgJzgnLCAnLW1hJywgJzIwMCcsICctbWV0YWxfYmluZGluZycsICctaW1hZScsICc8aW5maWxlLm1hZT4nLCAnLW9tYWUnLCAnPG91dGZpbGUubWFlPic=

> <r_lp_tautomer_probability>
1

> <r_epik_Ionization_Penalty>
2.357e-05

> <r_epik_Ionization_Penalty_Charging>
0

> <r_epik_Ionization_Penalty_Neutral>
2.357e-05

> <r_epik_State_Penalty>
-0

> <r_epik_Charging_Adjusted_Penalty>
0

> <i_epik_Tot_Q>
0

> <i_epik_Tot_abs_Q>
0

> <r_epik_Metal_State_Penalty>
-0

> <b_epik_Metal_Only>
0

> <s_lp_Force_Field>
OPLS_2005

> <r_lp_Energy>
7.46694

> <b_lp_Chiralities_Consistent>
1

> <s_lp_Variant>
AV-unprocessed.smi:2945-2

> <Gold.Version>
5.8.1

> <Gold.Id.Protein>
6NUR|6NUR_protein|mol2

> <Gold.PLP.Fitness>
39.1016

> <Gold.PLP.PLP>
-33.4455

> <Gold.PLP.part.hbond>
-2.0000

> <Gold.PLP.part.metal>
0.0000

> <Gold.PLP.part.buried>
-5.4260

> <Gold.PLP.part.nonpolar>
-27.2864

> <Gold.PLP.part.repulsive>
0.3288

> <Gold.PLP.ligand.clash>
0.0000

> <Gold.PLP.ligand.torsion>
0.1633

> <Gold.PLP.Chemscore.Hbond>
1.9920

> <Gold.PLP.Chemscore.CHOScore>
0.0000

> <Gold.PLP.Chemscore.Metal>
0.0000

> <Gold.Chemscore.Hbonds>
donor molecule, donor type, donor heavy atom, donor atom, acceptor molecule, acceptor atom, score
      P1  H  6896  6909       L1    17  0.75
      P1  H  7997  8008       L1     7  1.00

> <Gold.PLP.Chemscore.Internal.Correction>
0.0068

> <Gold.Rescore>
     Score         DG    S(hbond)    S(metal)    S(lipo)     H(rot)  DE(clash)    DE(int)     intcor
     17.56     -19.00       1.64        0.00      90.48       1.00       0.02       1.41       ----

> <Gold.Chemscore.Fitness>
17.5633

> <Gold.Chemscore.DG>
-18.9972

> <Gold.Chemscore.ZeroCoef>
-5.4800

> <Gold.Chemscore.Hbond>
1.6441

> <Gold.Chemscore.Metal>
0.0000

> <Gold.Chemscore.Lipo>
90.4787

> <Gold.Chemscore.Internal_Hbond>
0.0000

> <Gold.Chemscore.DEClash>
0.0237

> <Gold.Chemscore.DEInternal>
1.4102

> <Gold.Chemscore.Rot>
1.0000

> <Gold.Chemscore.Internal.Correction>
   9.000000E+99

> <Gold.Chemscore.Hbonds>
donor molecule, donor type, donor heavy atom, donor atom, acceptor molecule, acceptor atom, score
      P1  H  6896  6909       L1    17  0.12
      P1  H  7997  8008       L1     7  0.98

> <Gold.Chemscore.Hbond.Weighted>
-5.4912

> <Gold.Chemscore.Metal.Weighted>
-0.0000

> <Gold.Chemscore.Lipo.Weighted>
-10.5860

> <Gold.Chemscore.Internal_Hbond.Weighted>
0.0000

> <Gold.Chemscore.DEClash.Weighted>
0.0237

> <Gold.Chemscore.DEInternal.Weighted>
1.4102

> <Gold.Chemscore.Rot.Weighted>
2.5600

> <Gold.Chemscore.Internal.Correction.Weighted>
   9.000000E+99

> <Gold.Protein.RotatedTorsions>
[ 6907 6896 6895 6894 ] final   50.80 input  -60.11 | X-H torsion
[ 7974 7965 7964 7962 ] final   -1.62 input  175.53 | X-H torsion
[ 8008 7997 7996 7995 ] final  -70.64 input   59.86 | X-H torsion
[ 10167 10162 10161 10158 ] final  -81.00 input  -65.29 | X-H torsion
[ 10718 10713 10712 10709 ] final   82.71 input   66.30 | X-H torsion
[ 10763 10752 10751 10750 ] final -106.79 input  -60.55 | X-H torsion
[ 11005 11000 10999 10996 ] final   69.88 input  -57.11 | X-H torsion

> <Gold.Protein.ActiveResidues>
 VAL166  LYS551  ARG553  GLY616  TRP617  ASP618  TYR619  PRO620  LYS621  CYS622 
 ASP623  PHE694  ASN695  SER759  ASP760  ASP761  ALA762  ILE779  LEU786  VAL792 
 PHE793  MET794  SER795  GLU796  ALA797  LYS798  CYS799  TRP800  GLU811  SER814 

> <Gold.Protein.RotatedAtoms>
  152.3058  134.7557  160.0347 H   0  0  0  0  0  0  0  0  0  0  0  0  # atno 6907 bound_to 6896
  151.8054  133.3370  159.3547 H   0  0  0  0  0  0  0  0  0  0  0  0  # atno 6908 bound_to 6896
  150.7295  134.5644  159.5903 H   0  0  0  0  0  0  0  0  0  0  0  0  # atno 6909 bound_to 6896
  146.2415  140.1448  142.8335 H   0  0  0  0  0  0  0  0  0  0  0  0  # atno 7974 bound_to 7965
  154.5027  140.0830  156.7832 H   0  0  0  0  0  0  0  0  0  0  0  0  # atno 8008 bound_to 7997
  155.3964  140.3435  155.4236 H   0  0  0  0  0  0  0  0  0  0  0  0  # atno 8009 bound_to 7997
  156.1477  140.1549  156.8807 H   0  0  0  0  0  0  0  0  0  0  0  0  # atno 8010 bound_to 7997
  140.4452  143.2501  151.8568 H   0  0  0  0  0  0  0  0  0  0  0  0  # atno 10167 bound_to 10162
  157.6863  131.0059  150.2415 H   0  0  0  0  0  0  0  0  0  0  0  0  # atno 10718 bound_to 10713
  154.8034  135.4699  154.0333 H   0  0  0  0  0  0  0  0  0  0  0  0  # atno 10763 bound_to 10752
  153.1820  135.6842  153.8472 H   0  0  0  0  0  0  0  0  0  0  0  0  # atno 10764 bound_to 10752
  153.8019  135.3229  155.3368 H   0  0  0  0  0  0  0  0  0  0  0  0  # atno 10765 bound_to 10752
  139.9629  134.7030  156.0607 H   0  0  0  0  0  0  0  0  0  0  0  0  # atno 11005 bound_to 11000
  145.0217  140.8799  143.5163 LP  0  0  0  0  0  0  0  0  0  0  0  0  # atno 17320 bound_to 7965
  145.1497  139.2522  143.5447 LP  0  0  0  0  0  0  0  0  0  0  0  0  # atno 17321 bound_to 7965
  139.4792  144.5183  151.8836 LP  0  0  0  0  0  0  0  0  0  0  0  0  # atno 17342 bound_to 10162
  140.4272  144.2165  150.5887 LP  0  0  0  0  0  0  0  0  0  0  0  0  # atno 17343 bound_to 10162
  156.3029  130.3761  149.7734 LP  0  0  0  0  0  0  0  0  0  0  0  0  # atno 17370 bound_to 10713
  156.5358  130.8278  151.3252 LP  0  0  0  0  0  0  0  0  0  0  0  0  # atno 17371 bound_to 10713
  141.1307  133.6587  156.3457 LP  0  0  0  0  0  0  0  0  0  0  0  0  # atno 17394 bound_to 11000
  140.5460  134.6073  157.5394 LP  0  0  0  0  0  0  0  0  0  0  0  0  # atno 17395 bound_to 11000

$$$$
