AV-unprocessed.smi:1222|AV-procd|sdf|5125|dock7
  -GOLD-   22720 4183D 1   1.00000     0.00000
 Structure written by MMmdl.
 35 37  0  0  0  0  0  0  0  0  2 V2000
  153.6838  139.1845  158.1094 O   0  0  0  0  0  0  0  0  0  0  0  0
  153.3784  138.0327  157.7924 C   0  0  0  0  0  0  0  0  0  0  0  0
  153.7658  136.9013  158.4247 N   0  5  0  0  0  0  0  0  0  0  0  0
  153.9757  136.9114  159.7512 C   0  0  0  0  0  0  0  0  0  0  0  0
  154.1779  135.7997  160.4679 N   0  0  0  0  0  0  0  0  0  0  0  0
  154.3800  136.0448  161.8275 C   0  0  0  0  0  0  0  0  0  0  0  0
  154.3411  137.3748  162.1520 C   0  0  0  0  0  0  0  0  0  0  0  0
  154.0457  138.3651  160.7514 S   0  0  0  0  0  0  0  0  0  0  0  0
  152.5926  137.8108  156.7282 N   0  0  0  0  0  0  0  0  0  0  0  0
  152.0178  138.8198  155.8405 C   0  0  0  0  0  0  0  0  0  0  0  0
  151.3928  139.9579  156.6624 C   0  0  0  0  0  0  0  0  0  0  0  0
  150.6513  140.9517  155.7509 C   0  0  0  0  0  0  0  0  0  0  0  0
  149.6105  140.2628  154.9865 N   0  0  0  0  0  0  0  0  0  0  0  0
  148.9113  141.2364  154.1638 C   0  0  0  0  0  0  0  0  0  0  0  0
  147.6167  141.8039  154.6994 C   0  0  0  0  0  0  0  0  0  0  0  0
  147.5920  140.8194  153.5552 C   0  0  0  0  0  0  0  0  0  0  0  0
  150.2170  139.2565  154.1138 C   0  0  0  0  0  0  0  0  0  0  0  0
  150.9368  138.1857  154.9524 C   0  0  0  0  0  0  0  0  0  0  0  0
  154.5455  135.2110  162.4934 H   0  0  0  0  0  0  0  0  0  0  0  0
  154.4678  137.8304  163.1224 H   0  0  0  0  0  0  0  0  0  0  0  0
  152.3749  136.8482  156.5157 H   0  0  0  0  0  0  0  0  0  0  0  0
  152.7827  139.2458  155.1889 H   0  0  0  0  0  0  0  0  0  0  0  0
  150.6961  139.5509  157.3972 H   0  0  0  0  0  0  0  0  0  0  0  0
  152.1669  140.4799  157.2256 H   0  0  0  0  0  0  0  0  0  0  0  0
  150.1976  141.7344  156.3601 H   0  0  0  0  0  0  0  0  0  0  0  0
  151.3545  141.4401  155.0744 H   0  0  0  0  0  0  0  0  0  0  0  0
  149.5023  141.9226  153.5589 H   0  0  0  0  0  0  0  0  0  0  0  0
  147.2685  141.4538  155.6695 H   0  0  0  0  0  0  0  0  0  0  0  0
  147.3937  142.8442  154.4720 H   0  0  0  0  0  0  0  0  0  0  0  0
  147.3531  141.2039  152.5658 H   0  0  0  0  0  0  0  0  0  0  0  0
  147.2285  139.8150  153.7649 H   0  0  0  0  0  0  0  0  0  0  0  0
  149.4419  138.7836  153.5099 H   0  0  0  0  0  0  0  0  0  0  0  0
  150.9173  139.7294  153.4234 H   0  0  0  0  0  0  0  0  0  0  0  0
  151.3854  137.4412  154.2938 H   0  0  0  0  0  0  0  0  0  0  0  0
  150.2078  137.6563  155.5681 H   0  0  0  0  0  0  0  0  0  0  0  0
  1  2  2  0  0  0  0
  2  3  1  0  0  0  0
  2  9  1  0  0  0  0
  3  4  1  0  0  0  0
  4  8  1  0  0  0  0
  4  5  2  0  0  0  0
  5  6  1  0  0  0  0
  6  7  2  0  0  0  0
  6 19  1  0  0  0  0
  7  8  1  0  0  0  0
  7 20  1  0  0  0  0
  9 10  1  0  0  0  0
  9 21  1  0  0  0  0
 10 18  1  0  0  0  0
 10 11  1  0  0  0  0
 10 22  1  0  0  0  0
 11 12  1  0  0  0  0
 11 23  1  0  0  0  0
 11 24  1  0  0  0  0
 12 13  1  0  0  0  0
 12 25  1  0  0  0  0
 12 26  1  0  0  0  0
 13 14  1  0  0  0  0
 13 17  1  0  0  0  0
 14 16  1  0  0  0  0
 14 15  1  0  0  0  0
 14 27  1  0  0  0  0
 15 16  1  0  0  0  0
 15 28  1  0  0  0  0
 15 29  1  0  0  0  0
 16 30  1  0  0  0  0
 16 31  1  0  0  0  0
 17 18  1  0  0  0  0
 17 32  1  0  0  0  0
 17 33  1  0  0  0  0
 18 34  1  0  0  0  0
 18 35  1  0  0  0  0
M  CHG  1   3  -1
M  END
> <s_m_source_file>
AV-unprocessed.smi

> <i_m_source_file_index>
1222

> <i_lp_mmshare_version>
43012

> <i_f3d_flags>
0

> <s_epik_input>
czFbY0hdW2NIXW5jMVtOSF1DKD1PKVtOSF1bQ0hdMltDSDJdW0NIMl1OKFtDSDJdW0NIMl0yKVtDSF0zW0NIMl1bQ0gyXTM=

> <s_epik_cmdline>
J2VwaWtfcHl0aG9uJywgJy1waCcsICc3LjAnLCAnLXRuJywgJzgnLCAnLW1hJywgJzIwMCcsICctbWV0YWxfYmluZGluZycsICctaW1hZScsICc8aW5maWxlLm1hZT4nLCAnLW9tYWUnLCAnPG91dGZpbGUubWFlPic=

> <r_lp_tautomer_probability>
0.999

> <r_epik_Ionization_Penalty>
8.0332

> <r_epik_Ionization_Penalty_Charging>
5.90974

> <r_epik_Ionization_Penalty_Neutral>
2.12346

> <r_epik_State_Penalty>
6.94233

> <r_epik_Charging_Adjusted_Penalty>
12.8521

> <i_epik_Tot_Q>
-1

> <i_epik_Tot_abs_Q>
1

> <r_epik_Metal_State_Penalty>
2.92331

> <b_epik_Metal_Only>
1

> <s_lp_Force_Field>
OPLS_2005

> <r_lp_Energy>
17.9204

> <b_lp_Chiralities_Consistent>
1

> <s_lp_Variant>
AV-unprocessed.smi:1222-6

> <Gold.Version>
5.8.1

> <Gold.Id.Protein>
6NUR|6NUR_protein|mol2

> <Gold.PLP.Fitness>
34.9318

> <Gold.PLP.PLP>
-29.7308

> <Gold.PLP.part.hbond>
-1.9962

> <Gold.PLP.part.metal>
0.0000

> <Gold.PLP.part.buried>
-1.4158

> <Gold.PLP.part.nonpolar>
-26.7883

> <Gold.PLP.part.repulsive>
0.2100

> <Gold.PLP.ligand.clash>
0.0000

> <Gold.PLP.ligand.torsion>
0.9900

> <Gold.PLP.Chemscore.Hbond>
2.0000

> <Gold.PLP.Chemscore.CHOScore>
0.0000

> <Gold.PLP.Chemscore.Metal>
0.0000

> <Gold.Chemscore.Hbonds>
donor molecule, donor type, donor heavy atom, donor atom, acceptor molecule, acceptor atom, score
      P1  H  6896  6909       L1     5  0.81
      P1  H  7997  8009       L1     1  1.00

> <Gold.PLP.Chemscore.Internal.Correction>
1.1809

> <Gold.Rescore>
     Score         DG    S(hbond)    S(metal)    S(lipo)     H(rot)  DE(clash)    DE(int)     intcor
     13.80     -17.49       1.93        0.00      74.46       1.23       0.05       3.64       ----

> <Gold.Chemscore.Fitness>
13.8045

> <Gold.Chemscore.DG>
-17.4871

> <Gold.Chemscore.ZeroCoef>
-5.4800

> <Gold.Chemscore.Hbond>
1.9299

> <Gold.Chemscore.Metal>
0.0000

> <Gold.Chemscore.Lipo>
74.4612

> <Gold.Chemscore.Internal_Hbond>
0.0000

> <Gold.Chemscore.DEClash>
0.0453

> <Gold.Chemscore.DEInternal>
3.6373

> <Gold.Chemscore.Rot>
1.2308

> <Gold.Chemscore.Internal.Correction>
   9.000000E+99

> <Gold.Chemscore.Hbonds>
donor molecule, donor type, donor heavy atom, donor atom, acceptor molecule, acceptor atom, score
      P1  H  6896  6909       L1     5  0.21
      P1  H  7997  8009       L1     1  0.82

> <Gold.Chemscore.Hbond.Weighted>
-6.4460

> <Gold.Chemscore.Metal.Weighted>
-0.0000

> <Gold.Chemscore.Lipo.Weighted>
-8.7120

> <Gold.Chemscore.Internal_Hbond.Weighted>
0.0000

> <Gold.Chemscore.DEClash.Weighted>
0.0453

> <Gold.Chemscore.DEInternal.Weighted>
3.6373

> <Gold.Chemscore.Rot.Weighted>
3.1508

> <Gold.Chemscore.Internal.Correction.Weighted>
   9.000000E+99

> <Gold.Protein.RotatedTorsions>
[ 6907 6896 6895 6894 ] final  175.34 input  -60.11 | X-H torsion
[ 7974 7965 7964 7962 ] final   20.51 input  175.53 | X-H torsion
[ 8008 7997 7996 7995 ] final  168.03 input   59.86 | X-H torsion
[ 10167 10162 10161 10158 ] final  157.13 input  -65.29 | X-H torsion
[ 10718 10713 10712 10709 ] final    0.29 input   66.30 | X-H torsion
[ 10763 10752 10751 10750 ] final  104.38 input  -60.55 | X-H torsion
[ 11005 11000 10999 10996 ] final   82.90 input  -57.11 | X-H torsion

> <Gold.Protein.ActiveResidues>
 VAL166  LYS551  ARG553  GLY616  TRP617  ASP618  TYR619  PRO620  LYS621  CYS622 
 ASP623  PHE694  ASN695  SER759  ASP760  ASP761  ALA762  ILE779  LEU786  VAL792 
 PHE793  MET794  SER795  GLU796  ALA797  LYS798  CYS799  TRP800  GLU811  SER814 

> <Gold.Protein.RotatedAtoms>
  151.7377  133.3320  159.3357 H   0  0  0  0  0  0  0  0  0  0  0  0  # atno 6907 bound_to 6896
  150.7586  134.6306  159.6194 H   0  0  0  0  0  0  0  0  0  0  0  0  # atno 6908 bound_to 6896
  152.3551  134.6954  160.0276 H   0  0  0  0  0  0  0  0  0  0  0  0  # atno 6909 bound_to 6896
  146.2108  139.8159  142.8690 H   0  0  0  0  0  0  0  0  0  0  0  0  # atno 7974 bound_to 7965
  156.1583  140.1601  156.8656 H   0  0  0  0  0  0  0  0  0  0  0  0  # atno 8008 bound_to 7997
  154.5136  140.0795  156.8073 H   0  0  0  0  0  0  0  0  0  0  0  0  # atno 8009 bound_to 7997
  155.3759  140.3402  155.4247 H   0  0  0  0  0  0  0  0  0  0  0  0  # atno 8010 bound_to 7997
  139.4822  144.4946  151.8258 H   0  0  0  0  0  0  0  0  0  0  0  0  # atno 10167 bound_to 10162
  156.8312  130.5489  149.5686 H   0  0  0  0  0  0  0  0  0  0  0  0  # atno 10718 bound_to 10713
  153.3652  135.3945  155.1747 H   0  0  0  0  0  0  0  0  0  0  0  0  # atno 10763 bound_to 10752
  154.8685  135.3689  154.5049 H   0  0  0  0  0  0  0  0  0  0  0  0  # atno 10764 bound_to 10752
  153.5511  135.7083  153.5651 H   0  0  0  0  0  0  0  0  0  0  0  0  # atno 10765 bound_to 10752
  139.9048  134.8106  156.2237 H   0  0  0  0  0  0  0  0  0  0  0  0  # atno 11005 bound_to 11000
  145.3147  141.0229  143.3534 LP  0  0  0  0  0  0  0  0  0  0  0  0  # atno 17320 bound_to 7965
  144.8910  139.4774  143.6678 LP  0  0  0  0  0  0  0  0  0  0  0  0  # atno 17321 bound_to 7965
  140.4433  144.1956  150.5892 LP  0  0  0  0  0  0  0  0  0  0  0  0  # atno 17342 bound_to 10162
  140.4660  143.2430  151.9154 LP  0  0  0  0  0  0  0  0  0  0  0  0  # atno 17343 bound_to 10162
  156.0933  130.5913  150.9770 LP  0  0  0  0  0  0  0  0  0  0  0  0  # atno 17370 bound_to 10713
  157.6406  131.0911  150.8259 LP  0  0  0  0  0  0  0  0  0  0  0  0  # atno 17371 bound_to 10713
  141.0389  133.6948  156.1562 LP  0  0  0  0  0  0  0  0  0  0  0  0  # atno 17394 bound_to 11000
  140.6985  134.4589  157.5587 LP  0  0  0  0  0  0  0  0  0  0  0  0  # atno 17395 bound_to 11000

$$$$
