#       Name:                AV-unprocessed.smi:114
#       Creating user name   scv26
#       Creation time:       Thu Mar 26 18:24:19 2020


#       File generated by GOLD software.
#

@<TRIPOS>MOLECULE
AV-unprocessed.smi:114
    43    45     1
SMALL
NO_CHARGES


@<TRIPOS>ATOM
      1 ****        -5.2258   0.7348   0.2416 N.pl3          1 S1                 0.0000
      2 ****        -3.9931   1.2425   0.1010 C.ar           1 S1                 0.0000
      3 ****        -3.8673   2.5304  -0.2968 N.ar           1 S1                 0.0000
      4 ****        -2.6539   3.0758  -0.4509 C.ar           1 S1                 0.0000
      5 ****        -2.6227   4.3685  -0.8514 F              1 S1                 0.0000
      6 ****        -1.4685   2.4873  -0.2547 N.ar           1 S1                 0.0000
      7 ****        -1.5945   1.1899   0.1475 C.ar           1 S1                 0.0000
      8 ****        -2.8159   0.4949   0.3477 C.ar           1 S1                 0.0000
      9 ****        -2.5569  -0.8072   0.7540 N.2            1 S1                 0.0000
     10 ****        -1.2520  -0.8728   0.7882 C.2            1 S1                 0.0000
     11 ****        -0.5941   0.2865   0.4306 N.pl3          1 S1                 0.0000
     12 ****         0.8774   0.5680   0.3601 C.3            1 S1                 0.0000
     13 ****         1.5519  -0.4243   1.0736 O.3            1 S1                 0.0000
     14 ****         2.1145  -1.3681   0.1693 C.3            1 S1                 0.0000
     15 ****         3.2319  -2.1861   0.8387 C.3            1 S1                 0.0000
     16 ****         2.6724  -3.2544   1.5719 O.3            1 S1                 0.0000
     17 ****         2.5508  -0.4798  -1.0024 C.3            1 S1                 0.0000
     18 ****         3.7814   0.1641  -0.7250 O.3            1 S1                 0.0000
     19 ****         1.4217   0.5404  -1.0902 C.3            1 S1                 0.0000
     20 ****         0.4736   0.1211  -2.0573 O.3            1 S1                 0.0000
     21 ****         0.9966   1.5324   0.8552 H              1 S1                 0.0000
     22 ****         1.3276  -2.0351  -0.1878 H              1 S1                 0.0000
     23 ****         2.6728  -1.0529  -1.9227 H              1 S1                 0.0000
     24 ****         1.7804   1.5329  -1.3666 H              1 S1                 0.0000
     25 ****        -5.3429  -0.2241   0.5364 H              1 S1                 0.0000
     26 ****        -6.0338   1.3099   0.0515 H              1 S1                 0.0000
     27 ****        -0.7371  -1.7767   1.0793 H              1 S1                 0.0000
     28 ****         3.8867  -2.6180   0.0813 H              1 S1                 0.0000
     29 ****         3.8481  -1.5639   1.4886 H              1 S1                 0.0000
     30 ****         3.3735  -3.7392   1.9800 H              1 S1                 0.0000
     31 ****         4.4569  -0.4934  -0.6581 H              1 S1                 0.0000
     32 ****        -0.2596   0.7171  -2.0319 H              1 S1                 0.0000
     33 ****        -4.6849   3.0774  -0.4766 LP             1 S1                 0.0000
     34 ****        -0.5901   2.9463  -0.3878 LP             1 S1                 0.0000
     35 ****        -3.2158  -1.5277   0.9703 LP             1 S1                 0.0000
     36 ****         0.9101  -0.8898   1.6830 LP             1 S1                 0.0000
     37 ****         2.2818  -0.0066   1.6146 LP             1 S1                 0.0000
     38 ****         2.1614  -3.8545   0.9564 LP             1 S1                 0.0000
     39 ****         2.0574  -2.8956   2.2741 LP             1 S1                 0.0000
     40 ****         3.7125   0.6654   0.1375 LP             1 S1                 0.0000
     41 ****         4.0027   0.8006  -1.4638 LP             1 S1                 0.0000
     42 ****         0.1633  -0.8060  -1.8469 LP             1 S1                 0.0000
     43 ****         0.8894   0.1350  -2.9667 LP             1 S1                 0.0000
@<TRIPOS>BOND
    1    1    2 1     
    2    1   25 1     
    3    1   26 1     
    4    2    8 ar    
    5    2    3 ar    
    6    3    4 ar    
    7    4    5 1     
    8    4    6 ar    
    9    6    7 ar    
   10    7   11 1     
   11    7    8 ar    
   12    8    9 1     
   13    9   10 2     
   14   10   11 1     
   15   10   27 1     
   16   11   12 1     
   17   12   21 1     
   18   12   19 1     
   19   12   13 1     
   20   13   14 1     
   21   14   22 1     
   22   14   15 1     
   23   14   17 1     
   24   15   16 1     
   25   15   28 1     
   26   15   29 1     
   27   16   30 1     
   28   17   23 1     
   29   17   18 1     
   30   17   19 1     
   31   18   31 1     
   32   19   24 1     
   33   19   20 1     
   34   20   32 1     
   35    3   33 1     
   36    6   34 1     
   37    9   35 1     
   38   13   36 1     
   39   13   37 1     
   40   16   38 1     
   41   16   39 1     
   42   18   40 1     
   43   18   41 1     
   44   20   42 1     
   45   20   43 1     
@<TRIPOS>SUBSTRUCTURE
      1 S1             1
@<TRIPOS>SET
LONE_PAIRS      STATIC     ATOMS    <user>   **** ""
11 33 34 35 36 37 38 39 40 41 42 43
DONOR_HYDROGENS      STATIC     ATOMS    <user>   **** ""
5 25 26 30 31 32
ATOM$BLUE        STATIC     ATOMS    COLORGROUP SYSTEM
11 33 34 35 36 37 38 39 40 41 42 43
ATOM$RED        STATIC     ATOMS    COLORGROUP SYSTEM
5 25 26 30 31 32
