#       Name:                AV-unprocessed.smi:1965
#       Creating user name   scv26
#       Creation time:       Fri Mar 27 10:10:54 2020


#       File generated by GOLD software.
#

@<TRIPOS>MOLECULE
AV-unprocessed.smi:1965
    40    42     1
SMALL
NO_CHARGES


@<TRIPOS>ATOM
      1 ****        -1.8361  -2.3738  -0.0893 O.2            1 S1                 0.0000
      2 ****        -0.6808  -2.3751   0.3322 C.2            1 S1                 0.0000
      3 ****         0.0434  -3.5137   0.3756 N.am           1 S1                 0.0000
      4 ****        -0.2731  -4.8506  -0.0042 C.2            1 S1                 0.0000
      5 ****        -1.4735  -5.2721  -0.4235 N.2            1 S1                 0.0000
      6 ****        -1.4826  -6.6393  -0.7116 C.2            1 S1                 0.0000
      7 ****        -0.2736  -7.2519  -0.4986 C.2            1 S1                 0.0000
      8 ****         0.9306  -6.1297   0.0747 S.3            1 S1                 0.0000
      9 ****        -0.0702  -1.2642   0.7761 N.am           1 S1                 0.0000
     10 ****        -0.6583   0.0704   0.8222 C.3            1 S1                 0.0000
     11 ****        -0.1011   0.9288   1.9516 C.3            1 S1                 0.0000
     12 ****        -0.4610   2.3421   1.4904 C.3            1 S1                 0.0000
     13 ****        -0.3746   2.3227   0.0119 N.4            1 S1                 1.0000
     14 ****        -1.3702   3.1812  -0.6754 C.3            1 S1                 0.0000
     15 ****        -1.1905   3.1083  -2.2032 C.3            1 S1                 0.0000
     16 ****        -1.1130   1.6620  -2.7356 C.3            1 S1                 0.0000
     17 ****        -1.2841   0.6171  -1.6222 C.3            1 S1                 0.0000
     18 ****        -0.3387   0.9002  -0.4326 C.3            1 S1                 0.0000
     19 ****         0.9680  -3.4033   0.7664 H              1 S1                 0.0000
     20 ****        -2.3959  -7.0967  -1.0625 H              1 S1                 0.0000
     21 ****        -0.0196  -8.2918  -0.6425 H              1 S1                 0.0000
     22 ****         0.8806  -1.3563   1.1059 H              1 S1                 0.0000
     23 ****        -1.7401   0.0045   0.9573 H              1 S1                 0.0000
     24 ****        -0.5250   0.6802   2.9250 H              1 S1                 0.0000
     25 ****         0.9832   0.8210   2.0151 H              1 S1                 0.0000
     26 ****        -1.4821   2.5707   1.8004 H              1 S1                 0.0000
     27 ****         0.1944   3.1012   1.9181 H              1 S1                 0.0000
     28 ****        -2.3788   2.8676  -0.4010 H              1 S1                 0.0000
     29 ****        -1.2586   4.2113  -0.3353 H              1 S1                 0.0000
     30 ****        -2.0086   3.6400  -2.6904 H              1 S1                 0.0000
     31 ****        -0.2802   3.6397  -2.4840 H              1 S1                 0.0000
     32 ****        -1.8657   1.5053  -3.5090 H              1 S1                 0.0000
     33 ****        -0.1474   1.5113  -3.2198 H              1 S1                 0.0000
     34 ****        -2.3215   0.6185  -1.2848 H              1 S1                 0.0000
     35 ****        -1.0988  -0.3809  -2.0201 H              1 S1                 0.0000
     36 ****         0.6901   0.7078  -0.7422 H              1 S1                 0.0000
     37 ****         0.5321   2.6988  -0.2265 H              1 S1                 0.0000
     38 ****        -2.2534  -3.2252  -0.4069 LP             1 S1                 0.0000
     39 ****        -2.3582  -1.5213  -0.1144 LP             1 S1                 0.0000
     40 ****        -2.2712  -4.6768  -0.5193 LP             1 S1                 0.0000
@<TRIPOS>BOND
    1    1    2 2     
    2    2    3 am    
    3    2    9 am    
    4    3    4 1     
    5    3   19 1     
    6    4    8 1     
    7    4    5 2     
    8    5    6 1     
    9    6    7 2     
   10    6   20 1     
   11    7    8 1     
   12    7   21 1     
   13    9   10 1     
   14    9   22 1     
   15   10   18 1     
   16   10   11 1     
   17   10   23 1     
   18   11   12 1     
   19   11   24 1     
   20   11   25 1     
   21   12   13 1     
   22   12   26 1     
   23   12   27 1     
   24   13   18 1     
   25   13   14 1     
   26   13   37 1     
   27   14   15 1     
   28   14   28 1     
   29   14   29 1     
   30   15   16 1     
   31   15   30 1     
   32   15   31 1     
   33   16   17 1     
   34   16   32 1     
   35   16   33 1     
   36   17   18 1     
   37   17   34 1     
   38   17   35 1     
   39   18   36 1     
   40    1   38 1     
   41    1   39 1     
   42    5   40 1     
@<TRIPOS>SUBSTRUCTURE
      1 S1             1
@<TRIPOS>SET
LONE_PAIRS      STATIC     ATOMS    <user>   **** ""
3 38 39 40
DONOR_HYDROGENS      STATIC     ATOMS    <user>   **** ""
3 19 22 37
ATOM$BLUE        STATIC     ATOMS    COLORGROUP SYSTEM
3 38 39 40
ATOM$RED        STATIC     ATOMS    COLORGROUP SYSTEM
3 19 22 37
