#       Name:                AV-unprocessed.smi:2724
#       Creating user name   scv26
#       Creation time:       Fri Mar 27 14:55:19 2020


#       File generated by GOLD software.
#

@<TRIPOS>MOLECULE
AV-unprocessed.smi:2724
    28    29     1
SMALL
NO_CHARGES


@<TRIPOS>ATOM
      1 ****        -0.9875   1.3747  -1.4818 O.3            1 S1                 0.0000
      2 ****         0.3990   1.1002  -1.4107 C.3            1 S1                 0.0000
      3 ****         0.8384   0.2968  -2.6449 C.3            1 S1                 0.0000
      4 ****         1.9234  -0.6520  -2.1387 C.3            1 S1                 0.0000
      5 ****         1.4446  -1.0308  -0.7393 C.3            1 S1                 0.0000
      6 ****         0.8385   0.2668  -0.1786 C.3            1 S1                 0.0000
      7 ****        -0.2147   0.0549   0.9074 C.ar           1 S1                 0.0000
      8 ****        -0.0980   0.7196   2.1495 C.ar           1 S1                 0.0000
      9 ****        -1.0781   0.5167   3.1433 C.ar           1 S1                 0.0000
     10 ****        -2.1582  -0.3481   2.8759 C.ar           1 S1                 0.0000
     11 ****        -2.2418  -0.9666   1.6782 N.pl3          1 S1                 1.0000
     12 ****        -1.3235  -0.7990   0.7017 C.ar           1 S1                 0.0000
     13 ****        -1.2211   1.9356  -0.7580 H              1 S1                 0.0000
     14 ****         0.9218   2.0576  -1.3940 H              1 S1                 0.0000
     15 ****         0.0064  -0.2966  -3.0284 H              1 S1                 0.0000
     16 ****         1.1861   0.9355  -3.4574 H              1 S1                 0.0000
     17 ****         2.0582  -1.5188  -2.7862 H              1 S1                 0.0000
     18 ****         2.8778  -0.1274  -2.0767 H              1 S1                 0.0000
     19 ****         0.6864  -1.8076  -0.8395 H              1 S1                 0.0000
     20 ****         2.2402  -1.4307  -0.1097 H              1 S1                 0.0000
     21 ****         1.6657   0.8114   0.2801 H              1 S1                 0.0000
     22 ****         0.7337   1.3813   2.3436 H              1 S1                 0.0000
     23 ****        -1.0018   1.0182   4.0971 H              1 S1                 0.0000
     24 ****        -2.9522  -0.5607   3.5770 H              1 S1                 0.0000
     25 ****        -1.5090  -1.3435  -0.2127 H              1 S1                 0.0000
     26 ****        -3.0332  -1.5864   1.5024 H              1 S1                 0.0000
     27 ****        -1.5036   0.5199  -1.4259 LP             1 S1                 0.0000
     28 ****        -1.1962   1.8341  -2.3451 LP             1 S1                 0.0000
@<TRIPOS>BOND
    1    1    2 1     
    2    1   13 1     
    3    2    6 1     
    4    2    3 1     
    5    2   14 1     
    6    3    4 1     
    7    3   15 1     
    8    3   16 1     
    9    4    5 1     
   10    4   17 1     
   11    4   18 1     
   12    5    6 1     
   13    5   19 1     
   14    5   20 1     
   15    6    7 1     
   16    6   21 1     
   17    7   12 ar    
   18    7    8 ar    
   19    8    9 ar    
   20    8   22 1     
   21    9   10 ar    
   22    9   23 1     
   23   10   11 ar    
   24   10   24 1     
   25   11   12 ar    
   26   11   26 1     
   27   12   25 1     
   28    1   27 1     
   29    1   28 1     
@<TRIPOS>SUBSTRUCTURE
      1 S1             1
@<TRIPOS>SET
LONE_PAIRS      STATIC     ATOMS    <user>   **** ""
2 27 28
DONOR_HYDROGENS      STATIC     ATOMS    <user>   **** ""
2 13 26
ATOM$BLUE        STATIC     ATOMS    COLORGROUP SYSTEM
2 27 28
ATOM$RED        STATIC     ATOMS    COLORGROUP SYSTEM
2 13 26
