AV-unprocessed.smi:2352|AV-procd|sdf|9379|dock10
  -GOLD-   2272013 03D 1   1.00000     0.00000
 Structure written by MMmdl.
 37 38  0  0  0  0  0  0  0  0  1 V2000
  155.9729  134.4288  164.2855 C   0  0  0  0  0  0  0  0  0  0  0  0
  155.3388  135.4644  163.3736 C   0  0  0  0  0  0  0  0  0  0  0  0
  155.2083  136.7466  163.9151 N   0  0  0  0  0  0  0  0  0  0  0  0
  154.6818  137.6938  163.2100 C   0  0  0  0  0  0  0  0  0  0  0  0
  154.2321  137.4742  161.8977 N   0  0  0  0  0  0  0  0  0  0  0  0
  153.6542  138.6371  161.2027 C   0  0  0  0  0  0  0  0  0  0  0  0
  154.4665  139.9288  161.4445 C   0  0  1  0  0  0  0  0  0  0  0  0
  155.6354  139.8840  160.6496 O   0  0  0  0  0  0  0  0  0  0  0  0
  153.6325  141.1631  161.1344 C   0  0  0  0  0  0  0  0  0  0  0  0
  153.2699  142.0454  162.1737 C   0  0  0  0  0  0  0  0  0  0  0  0
  152.4931  143.1872  161.8982 C   0  0  0  0  0  0  0  0  0  0  0  0
  152.0699  143.4629  160.5803 C   0  0  0  0  0  0  0  0  0  0  0  0
  151.2246  144.6944  160.2897 C   0  0  0  0  0  0  0  0  0  0  0  0
  150.9941  144.8229  158.9825 F   0  0  0  0  0  0  0  0  0  0  0  0
  150.0570  144.5834  160.9219 F   0  0  0  0  0  0  0  0  0  0  0  0
  151.8400  145.7984  160.7144 F   0  0  0  0  0  0  0  0  0  0  0  0
  152.4220  142.5723  159.5428 C   0  0  0  0  0  0  0  0  0  0  0  0
  153.1986  141.4301  159.8178 C   0  0  0  0  0  0  0  0  0  0  0  0
  154.3124  136.2516  161.2969 C   0  0  0  0  0  0  0  0  0  0  0  0
  153.9004  136.0664  160.1500 O   0  0  0  0  0  0  0  0  0  0  0  0
  154.9175  135.1842  162.1100 C   0  0  0  0  0  0  0  0  0  0  0  0
  155.0338  133.8075  161.4676 C   0  0  0  0  0  0  0  0  0  0  0  0
  156.8837  134.0310  163.8372 H   0  0  0  0  0  0  0  0  0  0  0  0
  155.2827  133.6041  164.4654 H   0  0  0  0  0  0  0  0  0  0  0  0
  156.2370  134.8589  165.2524 H   0  0  0  0  0  0  0  0  0  0  0  0
  154.5525  138.7096  163.5873 H   0  0  0  0  0  0  0  0  0  0  0  0
  153.5232  138.4609  160.1328 H   0  0  0  0  0  0  0  0  0  0  0  0
  152.6380  138.7783  161.5767 H   0  0  0  0  0  0  0  0  0  0  0  0
  154.7819  139.9866  162.4869 H   0  0  0  0  0  0  0  0  0  0  0  0
  156.2931  139.3882  161.1129 H   0  0  0  0  0  0  0  0  0  0  0  0
  153.5837  141.8484  163.1885 H   0  0  0  0  0  0  0  0  0  0  0  0
  152.2207  143.8509  162.7057 H   0  0  0  0  0  0  0  0  0  0  0  0
  152.0962  142.7585  158.5300 H   0  0  0  0  0  0  0  0  0  0  0  0
  153.4571  140.7576  159.0127 H   0  0  0  0  0  0  0  0  0  0  0  0
  154.0448  133.4308  161.2043 H   0  0  0  0  0  0  0  0  0  0  0  0
  155.5041  133.0696  162.1155 H   0  0  0  0  0  0  0  0  0  0  0  0
  155.6275  133.8675  160.5547 H   0  0  0  0  0  0  0  0  0  0  0  0
  1  2  1  0  0  0  0
  1 23  1  0  0  0  0
  1 24  1  0  0  0  0
  1 25  1  0  0  0  0
  2 21  2  0  0  0  0
  2  3  1  0  0  0  0
  3  4  2  0  0  0  0
  4  5  1  0  0  0  0
  4 26  1  0  0  0  0
  5  6  1  0  0  0  0
  5 19  1  0  0  0  0
  6  7  1  0  0  0  0
  6 27  1  0  0  0  0
  6 28  1  0  0  0  0
  7  8  1  0  0  0  0
  7  9  1  0  0  0  0
  7 29  1  0  0  0  0
  8 30  1  0  0  0  0
  9 18  1  0  0  0  0
  9 10  2  0  0  0  0
 10 11  1  0  0  0  0
 10 31  1  0  0  0  0
 11 12  2  0  0  0  0
 11 32  1  0  0  0  0
 12 13  1  0  0  0  0
 12 17  1  0  0  0  0
 13 14  1  0  0  0  0
 13 15  1  0  0  0  0
 13 16  1  0  0  0  0
 17 18  2  0  0  0  0
 17 33  1  0  0  0  0
 18 34  1  0  0  0  0
 19 20  2  0  0  0  0
 19 21  1  0  0  0  0
 21 22  1  0  0  0  0
 22 35  1  0  0  0  0
 22 36  1  0  0  0  0
 22 37  1  0  0  0  0
M  END
> <s_m_source_file>
AV-unprocessed.smi

> <i_m_source_file_index>
2352

> <i_lp_mmshare_version>
43012

> <i_f3d_flags>
0

> <s_epik_input>
W0NIM11jMW5bY0hdbihjKD1PKWMxW0NIM10pW0NIMl1bQ0BIXShbT0hdKWMyW2NIXVtjSF1jKEMoRikoRilGKVtjSF1bY0hdMg==

> <s_epik_cmdline>
J2VwaWtfcHl0aG9uJywgJy1waCcsICc3LjAnLCAnLXRuJywgJzgnLCAnLW1hJywgJzIwMCcsICctbWV0YWxfYmluZGluZycsICctaW1hZScsICc8aW5maWxlLm1hZT4nLCAnLW9tYWUnLCAnPG91dGZpbGUubWFlPic=

> <r_lp_tautomer_probability>
1

> <r_epik_Ionization_Penalty>
5.07001e-05

> <r_epik_Ionization_Penalty_Charging>
7.56727e-08

> <r_epik_Ionization_Penalty_Neutral>
5.06244e-05

> <r_epik_State_Penalty>
-0

> <r_epik_Charging_Adjusted_Penalty>
7.56727e-08

> <i_epik_Tot_Q>
0

> <i_epik_Tot_abs_Q>
0

> <r_epik_Metal_State_Penalty>
-0

> <b_epik_Metal_Only>
0

> <s_lp_Force_Field>
OPLS_2005

> <r_lp_Energy>
21.4472

> <b_lp_Chiralities_Consistent>
1

> <s_lp_Variant>
AV-unprocessed.smi:2352-2

> <Gold.Version>
5.8.1

> <Gold.Id.Protein>
6NUR|6NUR_protein|mol2

> <Gold.PLP.Fitness>
54.7202

> <Gold.PLP.PLP>
-52.6812

> <Gold.PLP.part.hbond>
-0.9509

> <Gold.PLP.part.metal>
0.0000

> <Gold.PLP.part.buried>
-7.0879

> <Gold.PLP.part.nonpolar>
-44.7183

> <Gold.PLP.part.repulsive>
0.0624

> <Gold.PLP.ligand.clash>
0.9557

> <Gold.PLP.ligand.torsion>
0.5115

> <Gold.PLP.Chemscore.Hbond>
0.9913

> <Gold.PLP.Chemscore.CHOScore>
0.0000

> <Gold.PLP.Chemscore.Metal>
0.0000

> <Gold.Chemscore.Hbonds>
donor molecule, donor type, donor heavy atom, donor atom, acceptor molecule, acceptor atom, score
      P1  H  6896  6909       L1    20  1.00

> <Gold.PLP.Chemscore.Internal.Correction>
1.0440

> <Gold.Rescore>
     Score         DG    S(hbond)    S(metal)    S(lipo)     H(rot)  DE(clash)    DE(int)     intcor
     16.36     -17.21       0.99        0.00     118.64       2.13       0.28       0.57       ----

> <Gold.Chemscore.Fitness>
16.3562

> <Gold.Chemscore.DG>
-17.2124

> <Gold.Chemscore.ZeroCoef>
-5.4800

> <Gold.Chemscore.Hbond>
0.9928

> <Gold.Chemscore.Metal>
0.0000

> <Gold.Chemscore.Lipo>
118.6445

> <Gold.Chemscore.Internal_Hbond>
0.0000

> <Gold.Chemscore.DEClash>
0.2820

> <Gold.Chemscore.DEInternal>
0.5742

> <Gold.Chemscore.Rot>
2.1347

> <Gold.Chemscore.Internal.Correction>
   9.000000E+99

> <Gold.Chemscore.Hbonds>
donor molecule, donor type, donor heavy atom, donor atom, acceptor molecule, acceptor atom, score
      P1  H  6896  6909       L1    20  0.85

> <Gold.Chemscore.Hbond.Weighted>
-3.3159

> <Gold.Chemscore.Metal.Weighted>
-0.0000

> <Gold.Chemscore.Lipo.Weighted>
-13.8814

> <Gold.Chemscore.Internal_Hbond.Weighted>
0.0000

> <Gold.Chemscore.DEClash.Weighted>
0.2820

> <Gold.Chemscore.DEInternal.Weighted>
0.5742

> <Gold.Chemscore.Rot.Weighted>
5.4649

> <Gold.Chemscore.Internal.Correction.Weighted>
   9.000000E+99

> <Gold.Protein.RotatedTorsions>
[ 6907 6896 6895 6894 ] final  170.82 input  -60.11 | X-H torsion
[ 7974 7965 7964 7962 ] final  -22.70 input  175.53 | X-H torsion
[ 8008 7997 7996 7995 ] final   46.76 input   59.86 | X-H torsion
[ 10167 10162 10161 10158 ] final  116.28 input  -65.29 | X-H torsion
[ 10718 10713 10712 10709 ] final -144.28 input   66.30 | X-H torsion
[ 10763 10752 10751 10750 ] final   95.91 input  -60.55 | X-H torsion
[ 11005 11000 10999 10996 ] final  102.97 input  -57.11 | X-H torsion

> <Gold.Protein.ActiveResidues>
 VAL166  LYS551  ARG553  GLY616  TRP617  ASP618  TYR619  PRO620  LYS621  CYS622 
 ASP623  PHE694  ASN695  SER759  ASP760  ASP761  ALA762  ILE779  LEU786  VAL792 
 PHE793  MET794  SER795  GLU796  ALA797  LYS798  CYS799  TRP800  GLU811  SER814 

> <Gold.Protein.RotatedAtoms>
  151.8100  133.3380  159.3552 H   0  0  0  0  0  0  0  0  0  0  0  0  # atno 6907 bound_to 6896
  150.7329  134.5673  159.5882 H   0  0  0  0  0  0  0  0  0  0  0  0  # atno 6908 bound_to 6896
  152.3082  134.7531  160.0394 H   0  0  0  0  0  0  0  0  0  0  0  0  # atno 6909 bound_to 6896
  146.1660  140.4515  142.8552 H   0  0  0  0  0  0  0  0  0  0  0  0  # atno 7974 bound_to 7965
  155.3578  140.3417  155.4240 H   0  0  0  0  0  0  0  0  0  0  0  0  # atno 8008 bound_to 7997
  156.1729  140.1638  156.8449 H   0  0  0  0  0  0  0  0  0  0  0  0  # atno 8009 bound_to 7997
  154.5252  140.0757  156.8228 H   0  0  0  0  0  0  0  0  0  0  0  0  # atno 8010 bound_to 7997
  139.6258  144.7108  151.2537 H   0  0  0  0  0  0  0  0  0  0  0  0  # atno 10167 bound_to 10162
  156.3683  130.7774  151.1951 H   0  0  0  0  0  0  0  0  0  0  0  0  # atno 10718 bound_to 10713
  153.2587  135.4237  155.0872 H   0  0  0  0  0  0  0  0  0  0  0  0  # atno 10763 bound_to 10752
  154.8411  135.3443  154.6409 H   0  0  0  0  0  0  0  0  0  0  0  0  # atno 10764 bound_to 10752
  153.6829  135.7038  153.5169 H   0  0  0  0  0  0  0  0  0  0  0  0  # atno 10765 bound_to 10752
  139.8780  134.9245  156.5138 H   0  0  0  0  0  0  0  0  0  0  0  0  # atno 11005 bound_to 11000
  144.8093  140.6357  143.6426 LP  0  0  0  0  0  0  0  0  0  0  0  0  # atno 17320 bound_to 7965
  145.4466  139.1529  143.3941 LP  0  0  0  0  0  0  0  0  0  0  0  0  # atno 17321 bound_to 7965
  140.7410  143.6571  150.8197 LP  0  0  0  0  0  0  0  0  0  0  0  0  # atno 17342 bound_to 10162
  140.0189  143.5564  152.2809 LP  0  0  0  0  0  0  0  0  0  0  0  0  # atno 17343 bound_to 10162
  157.7481  131.0380  150.4481 LP  0  0  0  0  0  0  0  0  0  0  0  0  # atno 17370 bound_to 10713
  156.4704  130.4051  149.6521 LP  0  0  0  0  0  0  0  0  0  0  0  0  # atno 17371 bound_to 10713
  140.8500  133.8139  155.9159 LP  0  0  0  0  0  0  0  0  0  0  0  0  # atno 17394 bound_to 11000
  140.9153  134.2209  157.4960 LP  0  0  0  0  0  0  0  0  0  0  0  0  # atno 17395 bound_to 11000

$$$$
