#       Name:                AV-unprocessed.smi:2124
#       Creating user name   scv26
#       Creation time:       Fri Mar 27 11:41:35 2020


#       File generated by GOLD software.
#

@<TRIPOS>MOLECULE
AV-unprocessed.smi:2124
    52    54     1
SMALL
NO_CHARGES


@<TRIPOS>ATOM
      1 ****        -4.3272   5.6423  -0.2021 C.3            1 S1                 0.0000
      2 ****        -3.8011   4.2238  -0.2277 C.2            1 S1                 0.0000
      3 ****        -3.3030   3.7930   0.9908 N.pl3          1 S1                 0.0000
      4 ****        -2.7924   2.5091   1.0640 C.2            1 S1                 0.0000
      5 ****        -2.2621   2.1177   2.4326 C.3            1 S1                 0.0000
      6 ****        -2.7787   1.6956  -0.0223 C.2            1 S1                 0.0000
      7 ****        -2.2140   0.2767   0.0169 C.3            1 S1                 0.0000
      8 ****        -0.6898   0.1692  -0.0708 C.2            1 S1                 0.0000
      9 ****        -0.0515   0.9645  -0.7605 O.2            1 S1                 0.0000
     10 ****        -0.1243  -0.8208   0.6376 N.am           1 S1                 0.0000
     11 ****         1.3056  -1.1136   0.7250 C.3            1 S1                 0.0000
     12 ****         1.6990  -1.1835   2.2085 C.3            1 S1                 0.0000
     13 ****         1.6178  -2.4255  -0.0357 C.3            1 S1                 0.0000
     14 ****         1.3389  -2.3824  -1.5566 C.3            1 S1                 0.0000
     15 ****         2.6345  -2.9507  -2.1645 C.3            1 S1                 0.0000
     16 ****         3.7453  -1.8901  -2.0581 C.3            1 S1                 0.0000
     17 ****         4.0709  -1.8933  -0.5536 C.3            1 S1                 0.0000
     18 ****         3.0805  -2.9336   0.0097 C.3            1 S1                 0.0000
     19 ****         3.0671  -3.9662  -1.1135 C.3            1 S1                 0.0000
     20 ****        -3.3267   2.2124  -1.2988 C.2            1 S1                 0.0000
     21 ****        -3.3382   1.5264  -2.3200 O.2            1 S1                 0.0000
     22 ****        -3.8341   3.5217  -1.3193 N.2            1 S1                 0.0000
     23 ****        -3.2882   4.3671   1.8214 H              1 S1                 0.0000
     24 ****        -4.8544   5.8792  -1.1271 H              1 S1                 0.0000
     25 ****        -3.5040   6.3480  -0.0876 H              1 S1                 0.0000
     26 ****        -5.0204   5.7798   0.6285 H              1 S1                 0.0000
     27 ****        -2.8076   1.2578   2.8215 H              1 S1                 0.0000
     28 ****        -2.3656   2.9314   3.1516 H              1 S1                 0.0000
     29 ****        -1.2049   1.8580   2.3724 H              1 S1                 0.0000
     30 ****        -2.6438  -0.3349  -0.7767 H              1 S1                 0.0000
     31 ****        -2.5477  -0.1964   0.9411 H              1 S1                 0.0000
     32 ****        -0.7372  -1.4220   1.1690 H              1 S1                 0.0000
     33 ****         1.8679  -0.2950   0.2752 H              1 S1                 0.0000
     34 ****         2.7721  -1.3323   2.3285 H              1 S1                 0.0000
     35 ****         1.1895  -2.0022   2.7178 H              1 S1                 0.0000
     36 ****         1.4424  -0.2578   2.7249 H              1 S1                 0.0000
     37 ****         0.9928  -3.2100   0.3954 H              1 S1                 0.0000
     38 ****         0.4800  -3.0064  -1.8057 H              1 S1                 0.0000
     39 ****         1.1341  -1.3776  -1.9275 H              1 S1                 0.0000
     40 ****         2.5069  -3.3505  -3.1708 H              1 S1                 0.0000
     41 ****         4.6205  -2.1815  -2.6402 H              1 S1                 0.0000
     42 ****         3.4191  -0.9112  -2.4115 H              1 S1                 0.0000
     43 ****         5.0982  -2.2223  -0.3923 H              1 S1                 0.0000
     44 ****         3.9741  -0.9087  -0.0980 H              1 S1                 0.0000
     45 ****         3.3742  -3.3332   0.9807 H              1 S1                 0.0000
     46 ****         2.3413  -4.7672  -0.9613 H              1 S1                 0.0000
     47 ****         4.0465  -4.4052  -1.3124 H              1 S1                 0.0000
     48 ****        -0.5289   1.6836  -1.2656 LP             1 S1                 0.0000
     49 ****         0.9443   0.8915  -0.8156 LP             1 S1                 0.0000
     50 ****        -2.9720   0.5961  -2.3015 LP             1 S1                 0.0000
     51 ****        -3.7139   1.8991  -3.1685 LP             1 S1                 0.0000
     52 ****        -4.2144   3.9067  -2.1602 LP             1 S1                 0.0000
@<TRIPOS>BOND
    1    1   24 1     
    2    1   25 1     
    3    1   26 1     
    4    1    2 1     
    5    2    3 1     
    6    2   22 2     
    7    3    4 1     
    8    3   23 1     
    9    4    6 2     
   10    4    5 1     
   11    5   27 1     
   12    5   28 1     
   13    5   29 1     
   14    6   20 1     
   15    6    7 1     
   16    7    8 1     
   17    7   30 1     
   18    7   31 1     
   19    8    9 2     
   20    8   10 am    
   21   10   11 1     
   22   10   32 1     
   23   11   12 1     
   24   11   13 1     
   25   11   33 1     
   26   12   34 1     
   27   12   35 1     
   28   12   36 1     
   29   13   18 1     
   30   13   14 1     
   31   13   37 1     
   32   14   15 1     
   33   14   38 1     
   34   14   39 1     
   35   15   19 1     
   36   15   16 1     
   37   15   40 1     
   38   16   17 1     
   39   16   41 1     
   40   16   42 1     
   41   17   18 1     
   42   17   43 1     
   43   17   44 1     
   44   18   19 1     
   45   18   45 1     
   46   19   46 1     
   47   19   47 1     
   48   20   21 2     
   49   20   22 1     
   50    9   48 1     
   51    9   49 1     
   52   21   50 1     
   53   21   51 1     
   54   22   52 1     
@<TRIPOS>SUBSTRUCTURE
      1 S1             1
@<TRIPOS>SET
LONE_PAIRS      STATIC     ATOMS    <user>   **** ""
5 48 49 50 51 52
DONOR_HYDROGENS      STATIC     ATOMS    <user>   **** ""
2 23 32
ATOM$BLUE        STATIC     ATOMS    COLORGROUP SYSTEM
5 48 49 50 51 52
ATOM$RED        STATIC     ATOMS    COLORGROUP SYSTEM
2 23 32
