AV-unprocessed.smi:2968|AV-procd|sdf|11328|dock10
  -GOLD-   2272016233D 1   1.00000     0.00000
 Structure written by MMmdl.
 45 46  0  0  0  0  0  0  0  0  1 V2000
  153.1708  139.8854  157.8528 O   0  0  0  0  0  0  0  0  0  0  0  0
  151.7850  140.2807  157.5559 S   0  0  0  0  0  0  0  0  0  0  0  0
  151.4109  140.6661  156.1860 O   0  0  0  0  0  0  0  0  0  0  0  0
  150.7020  138.9596  158.0810 C   0  0  0  0  0  0  0  0  0  0  0  0
  149.3647  138.9133  157.6438 C   0  0  0  0  0  0  0  0  0  0  0  0
  148.5601  137.8368  158.0657 C   0  0  0  0  0  0  0  0  0  0  0  0
  149.1294  136.8449  158.8929 C   0  0  0  0  0  0  0  0  0  0  0  0
  148.3409  135.7468  159.2655 N   0  0  0  0  0  0  0  0  0  0  0  0
  147.1120  135.4858  158.5216 C   0  0  0  0  0  0  0  0  0  0  0  0
  145.8653  135.5211  159.4223 C   0  0  0  0  0  0  0  0  0  0  0  0
  146.0076  134.5518  160.4464 O   0  0  0  0  0  0  0  0  0  0  0  0
  145.8797  135.0785  161.7540 C   0  0  0  0  0  0  0  0  0  0  0  0
  147.1183  135.9326  162.0517 C   0  0  0  0  0  0  0  0  0  0  0  0
  146.8989  137.2655  161.6390 O   0  0  0  0  0  0  0  0  0  0  0  0
  150.4135  136.9010  159.3229 N   0  0  0  0  0  0  0  0  0  0  0  0
  151.1837  137.9311  158.9137 C   0  0  0  0  0  0  0  0  0  0  0  0
  151.3664  141.5982  158.6141 N   0  0  0  0  0  0  0  0  0  0  0  0
  152.1526  141.8304  159.8436 C   0  0  0  0  0  0  0  0  0  0  0  0
  153.1662  142.9748  159.6634 C   0  0  0  0  0  0  0  0  0  0  0  0
  152.4785  144.2514  159.1683 C   0  0  0  0  0  0  0  0  0  0  0  0
  151.7177  143.9568  157.8713 C   0  0  0  0  0  0  0  0  0  0  0  0
  150.7147  142.8048  158.0632 C   0  0  0  0  0  0  0  0  0  0  0  0
  148.9608  139.6811  157.0009 H   0  0  0  0  0  0  0  0  0  0  0  0
  147.5323  137.7663  157.7410 H   0  0  0  0  0  0  0  0  0  0  0  0
  148.3025  135.5469  160.2544 H   0  0  0  0  0  0  0  0  0  0  0  0
  147.0063  136.1700  157.6789 H   0  0  0  0  0  0  0  0  0  0  0  0
  147.2083  134.4888  158.0917 H   0  0  0  0  0  0  0  0  0  0  0  0
  145.7637  136.5052  159.8814 H   0  0  0  0  0  0  0  0  0  0  0  0
  144.9664  135.3431  158.8293 H   0  0  0  0  0  0  0  0  0  0  0  0
  144.9843  135.7005  161.7926 H   0  0  0  0  0  0  0  0  0  0  0  0
  145.7628  134.2884  162.4979 H   0  0  0  0  0  0  0  0  0  0  0  0
  147.3776  135.9001  163.1103 H   0  0  0  0  0  0  0  0  0  0  0  0
  147.9744  135.5496  161.4961 H   0  0  0  0  0  0  0  0  0  0  0  0
  146.2330  137.2669  160.9682 H   0  0  0  0  0  0  0  0  0  0  0  0
  152.2038  137.9346  159.2677 H   0  0  0  0  0  0  0  0  0  0  0  0
  151.4627  142.0791  160.6505 H   0  0  0  0  0  0  0  0  0  0  0  0
  152.6626  140.9166  160.1468 H   0  0  0  0  0  0  0  0  0  0  0  0
  153.6730  143.1705  160.6085 H   0  0  0  0  0  0  0  0  0  0  0  0
  153.9419  142.6812  158.9574 H   0  0  0  0  0  0  0  0  0  0  0  0
  151.7888  144.6208  159.9282 H   0  0  0  0  0  0  0  0  0  0  0  0
  153.2157  145.0375  159.0032 H   0  0  0  0  0  0  0  0  0  0  0  0
  151.1908  144.8519  157.5398 H   0  0  0  0  0  0  0  0  0  0  0  0
  152.4261  143.7111  157.0815 H   0  0  0  0  0  0  0  0  0  0  0  0
  150.2189  142.5723  157.1211 H   0  0  0  0  0  0  0  0  0  0  0  0
  149.9306  143.1168  158.7538 H   0  0  0  0  0  0  0  0  0  0  0  0
  1  2  2  0  0  0  0
  2  3  2  0  0  0  0
  2  4  1  0  0  0  0
  2 17  1  0  0  0  0
  4 16  1  0  0  0  0
  4  5  2  0  0  0  0
  5  6  1  0  0  0  0
  5 23  1  0  0  0  0
  6  7  2  0  0  0  0
  6 24  1  0  0  0  0
  7  8  1  0  0  0  0
  7 15  1  0  0  0  0
  8  9  1  0  0  0  0
  8 25  1  0  0  0  0
  9 10  1  0  0  0  0
  9 26  1  0  0  0  0
  9 27  1  0  0  0  0
 10 11  1  0  0  0  0
 10 28  1  0  0  0  0
 10 29  1  0  0  0  0
 11 12  1  0  0  0  0
 12 13  1  0  0  0  0
 12 30  1  0  0  0  0
 12 31  1  0  0  0  0
 13 14  1  0  0  0  0
 13 32  1  0  0  0  0
 13 33  1  0  0  0  0
 14 34  1  0  0  0  0
 15 16  2  0  0  0  0
 16 35  1  0  0  0  0
 17 22  1  0  0  0  0
 17 18  1  0  0  0  0
 18 19  1  0  0  0  0
 18 36  1  0  0  0  0
 18 37  1  0  0  0  0
 19 20  1  0  0  0  0
 19 38  1  0  0  0  0
 19 39  1  0  0  0  0
 20 21  1  0  0  0  0
 20 40  1  0  0  0  0
 20 41  1  0  0  0  0
 21 22  1  0  0  0  0
 21 42  1  0  0  0  0
 21 43  1  0  0  0  0
 22 44  1  0  0  0  0
 22 45  1  0  0  0  0
M  END
> <s_m_source_file>
AV-unprocessed.smi

> <i_m_source_file_index>
2968

> <i_lp_mmshare_version>
43012

> <i_f3d_flags>
0

> <s_epik_input>
W0NIMl0xW0NIMl1bQ0gyXVtDSDJdW0NIMl1OMVMoPU8pKD1PKWMyW2NIXVtjSF1jKG5bY0hdMilbTkhdW0NIMl1bQ0gyXU9bQ0gyXVtDSDJdW09IXQ==

> <s_epik_cmdline>
J2VwaWtfcHl0aG9uJywgJy1waCcsICc3LjAnLCAnLXRuJywgJzgnLCAnLW1hJywgJzIwMCcsICctbWV0YWxfYmluZGluZycsICctaW1hZScsICc8aW5maWxlLm1hZT4nLCAnLW9tYWUnLCAnPG91dGZpbGUubWFlPic=

> <r_lp_tautomer_probability>
1

> <r_epik_Ionization_Penalty>
0.000398056

> <r_epik_Ionization_Penalty_Charging>
0

> <r_epik_Ionization_Penalty_Neutral>
0.000398056

> <r_epik_State_Penalty>
0.00024364

> <r_epik_Charging_Adjusted_Penalty>
0.00024364

> <i_epik_Tot_Q>
0

> <i_epik_Tot_abs_Q>
0

> <r_epik_Metal_State_Penalty>
-0

> <b_epik_Metal_Only>
0

> <s_lp_Force_Field>
OPLS_2005

> <r_lp_Energy>
3.3881

> <b_lp_Chiralities_Consistent>
1

> <s_lp_Variant>
AV-unprocessed.smi:2968-1

> <Gold.Version>
5.8.1

> <Gold.Id.Protein>
6NUR|6NUR_protein|mol2

> <Gold.PLP.Fitness>
49.6917

> <Gold.PLP.PLP>
-42.3286

> <Gold.PLP.part.hbond>
-4.0000

> <Gold.PLP.part.metal>
0.0000

> <Gold.PLP.part.buried>
-6.1488

> <Gold.PLP.part.nonpolar>
-32.6280

> <Gold.PLP.part.repulsive>
0.1611

> <Gold.PLP.ligand.clash>
0.0000

> <Gold.PLP.ligand.torsion>
2.6787

> <Gold.PLP.Chemscore.Hbond>
2.8480

> <Gold.PLP.Chemscore.CHOScore>
0.0000

> <Gold.PLP.Chemscore.Metal>
0.0000

> <Gold.Chemscore.Hbonds>
donor molecule, donor type, donor heavy atom, donor atom, acceptor molecule, acceptor atom, score
      P1  H  6896  6908       L1    15  0.99
      P1  H  6931  6943       L1    14  0.13
      P1  H  6934  6947       L1    14  0.05
      P1  H  7997  8010       L1     1  1.00

> <Gold.PLP.Chemscore.Internal.Correction>
4.1765

> <Gold.Rescore>
     Score         DG    S(hbond)    S(metal)    S(lipo)     H(rot)  DE(clash)    DE(int)     intcor
     15.65     -18.39       2.75        0.00      88.69       2.60       0.04       2.70       ----

> <Gold.Chemscore.Fitness>
15.6482

> <Gold.Chemscore.DG>
-18.3932

> <Gold.Chemscore.ZeroCoef>
-5.4800

> <Gold.Chemscore.Hbond>
2.7529

> <Gold.Chemscore.Metal>
0.0000

> <Gold.Chemscore.Lipo>
88.6923

> <Gold.Chemscore.Internal_Hbond>
0.0000

> <Gold.Chemscore.DEClash>
0.0402

> <Gold.Chemscore.DEInternal>
2.7048

> <Gold.Chemscore.Rot>
2.6009

> <Gold.Chemscore.Internal.Correction>
   9.000000E+99

> <Gold.Chemscore.Hbonds>
donor molecule, donor type, donor heavy atom, donor atom, acceptor molecule, acceptor atom, score
      P1  H  6896  6908       L1    15  0.60
      P1  H  6931  6943       L1    14  0.06
      P1  H  7997  8010       L1     1  0.99

> <Gold.Chemscore.Hbond.Weighted>
-9.1946

> <Gold.Chemscore.Metal.Weighted>
-0.0000

> <Gold.Chemscore.Lipo.Weighted>
-10.3770

> <Gold.Chemscore.Internal_Hbond.Weighted>
0.0000

> <Gold.Chemscore.DEClash.Weighted>
0.0402

> <Gold.Chemscore.DEInternal.Weighted>
2.7048

> <Gold.Chemscore.Rot.Weighted>
6.6583

> <Gold.Chemscore.Internal.Correction.Weighted>
   9.000000E+99

> <Gold.Protein.RotatedTorsions>
[ 6907 6896 6895 6894 ] final -157.58 input  -60.11 | X-H torsion
[ 7974 7965 7964 7962 ] final   53.50 input  175.53 | X-H torsion
[ 8008 7997 7996 7995 ] final   41.23 input   59.86 | X-H torsion
[ 10167 10162 10161 10158 ] final   67.66 input  -65.29 | X-H torsion
[ 10718 10713 10712 10709 ] final  -17.04 input   66.30 | X-H torsion
[ 10763 10752 10751 10750 ] final -124.87 input  -60.55 | X-H torsion
[ 11005 11000 10999 10996 ] final  123.82 input  -57.11 | X-H torsion

> <Gold.Protein.ActiveResidues>
 VAL166  LYS551  ARG553  GLY616  TRP617  ASP618  TYR619  PRO620  LYS621  CYS622 
 ASP623  PHE694  ASN695  SER759  ASP760  ASP761  ALA762  ILE779  LEU786  VAL792 
 PHE793  MET794  SER795  GLU796  ALA797  LYS798  CYS799  TRP800  GLU811  SER814 

> <Gold.Protein.RotatedAtoms>
  151.3050  133.4105  159.2642 H   0  0  0  0  0  0  0  0  0  0  0  0  # atno 6907 bound_to 6896
  151.0162  134.9435  159.8045 H   0  0  0  0  0  0  0  0  0  0  0  0  # atno 6908 bound_to 6896
  152.5313  134.3014  159.9132 H   0  0  0  0  0  0  0  0  0  0  0  0  # atno 6909 bound_to 6896
  145.9705  139.4144  143.0193 H   0  0  0  0  0  0  0  0  0  0  0  0  # atno 7974 bound_to 7965
  155.2662  140.3363  155.4269 H   0  0  0  0  0  0  0  0  0  0  0  0  # atno 8008 bound_to 7997
  156.2153  140.1786  156.7645 H   0  0  0  0  0  0  0  0  0  0  0  0  # atno 8009 bound_to 7997
  154.5744  140.0664  156.8997 H   0  0  0  0  0  0  0  0  0  0  0  0  # atno 8010 bound_to 7997
  140.0871  144.5021  150.7123 H   0  0  0  0  0  0  0  0  0  0  0  0  # atno 10167 bound_to 10162
  156.5791  130.4769  149.6328 H   0  0  0  0  0  0  0  0  0  0  0  0  # atno 10718 bound_to 10713
  154.8729  135.4049  154.3176 H   0  0  0  0  0  0  0  0  0  0  0  0  # atno 10763 bound_to 10752
  153.4009  135.7018  153.6432 H   0  0  0  0  0  0  0  0  0  0  0  0  # atno 10764 bound_to 10752
  153.5175  135.3694  155.2587 H   0  0  0  0  0  0  0  0  0  0  0  0  # atno 10765 bound_to 10752
  139.9330  134.9641  156.8317 H   0  0  0  0  0  0  0  0  0  0  0  0  # atno 11005 bound_to 11000
  145.7913  140.9813  143.1047 LP  0  0  0  0  0  0  0  0  0  0  0  0  # atno 17320 bound_to 7965
  144.6836  139.9686  143.7481 LP  0  0  0  0  0  0  0  0  0  0  0  0  # atno 17321 bound_to 7965
  140.7048  143.2460  151.4759 LP  0  0  0  0  0  0  0  0  0  0  0  0  # atno 17342 bound_to 10162
  139.5746  144.1849  152.1885 LP  0  0  0  0  0  0  0  0  0  0  0  0  # atno 17343 bound_to 10162
  156.2647  130.6982  151.1762 LP  0  0  0  0  0  0  0  0  0  0  0  0  # atno 17370 bound_to 10713
  157.7330  131.0594  150.5596 LP  0  0  0  0  0  0  0  0  0  0  0  0  # atno 17371 bound_to 10713
  140.6150  134.0047  155.7593 LP  0  0  0  0  0  0  0  0  0  0  0  0  # atno 17394 bound_to 11000
  141.0929  133.9888  157.3207 LP  0  0  0  0  0  0  0  0  0  0  0  0  # atno 17395 bound_to 11000

$$$$
