AV-unprocessed.smi:1978|AV-procd|sdf|8001|dock3
  -GOLD-   2272010183D 1   1.00000     0.00000
 Structure written by MMmdl.
 44 45  0  0  0  0  0  0  0  0  3 V2000
  151.8382  140.8887  158.0207 C   0  0  0  0  0  0  0  0  0  0  0  0
  151.4821  140.3365  156.6826 C   0  0  0  0  0  0  0  0  0  0  0  0
  150.3103  139.8780  156.1510 C   0  0  0  0  0  0  0  0  0  0  0  0
  150.6801  139.4940  154.8329 C   0  0  0  0  0  0  0  0  0  0  0  0
  149.8596  138.9874  153.8997 N   0  5  0  0  0  0  0  0  0  0  0  0
  148.5211  139.1390  154.0152 C   0  0  0  0  0  0  0  0  0  0  0  0
  147.9350  139.9955  154.6815 O   0  0  0  0  0  0  0  0  0  0  0  0
  147.8151  138.2461  153.3067 N   0  0  0  0  0  0  0  0  0  0  0  0
  146.3587  138.1880  153.2192 C   0  0  0  0  0  0  0  0  0  0  0  0
  145.8513  137.4117  151.9690 C   0  0  1  0  0  0  0  0  0  0  0  0
  146.3614  138.1206  150.6872 C   0  0  0  0  0  0  0  0  0  0  0  0
  146.2395  135.9590  152.0231 N   0  3  1  0  0  0  0  0  0  0  0  0
  145.8018  135.2596  153.2704 C   0  0  0  0  0  0  0  0  0  0  0  0
  146.4284  133.8605  153.3889 C   0  0  0  0  0  0  0  0  0  0  0  0
  146.1114  132.9987  152.1652 C   0  0  0  0  0  0  0  0  0  0  0  0
  146.5365  133.7396  150.8927 C   0  0  0  0  0  0  0  0  0  0  0  0
  145.9130  135.1485  150.8012 C   0  0  1  0  0  0  0  0  0  0  0  0
  144.4003  135.0904  150.4862 C   0  0  0  0  0  0  0  0  0  0  0  0
  151.9592  139.7162  154.5814 N   0  0  0  0  0  0  0  0  0  0  0  0
  152.4823  140.2511  155.7647 O   0  0  0  0  0  0  0  0  0  0  0  0
  151.4085  141.8815  158.1543 H   0  0  0  0  0  0  0  0  0  0  0  0
  152.9192  140.9692  158.1381 H   0  0  0  0  0  0  0  0  0  0  0  0
  151.4598  140.2460  158.8154 H   0  0  0  0  0  0  0  0  0  0  0  0
  149.3439  139.8226  156.6287 H   0  0  0  0  0  0  0  0  0  0  0  0
  148.3345  137.5580  152.7810 H   0  0  0  0  0  0  0  0  0  0  0  0
  145.9872  137.7115  154.1267 H   0  0  0  0  0  0  0  0  0  0  0  0
  146.0083  139.2174  153.2498 H   0  0  0  0  0  0  0  0  0  0  0  0
  144.7616  137.4547  151.9579 H   0  0  0  0  0  0  0  0  0  0  0  0
  146.1137  139.1816  150.6804 H   0  0  0  0  0  0  0  0  0  0  0  0
  145.9140  137.7223  149.7781 H   0  0  0  0  0  0  0  0  0  0  0  0
  147.4450  138.0398  150.5955 H   0  0  0  0  0  0  0  0  0  0  0  0
  146.0988  135.8018  154.1634 H   0  0  0  0  0  0  0  0  0  0  0  0
  144.7139  135.1969  153.3036 H   0  0  0  0  0  0  0  0  0  0  0  0
  147.5097  133.9549  153.4990 H   0  0  0  0  0  0  0  0  0  0  0  0
  146.0692  133.3674  154.2926 H   0  0  0  0  0  0  0  0  0  0  0  0
  146.6303  132.0422  152.2347 H   0  0  0  0  0  0  0  0  0  0  0  0
  145.0456  132.7706  152.1341 H   0  0  0  0  0  0  0  0  0  0  0  0
  147.6237  133.8283  150.8799 H   0  0  0  0  0  0  0  0  0  0  0  0
  146.2727  133.1506  150.0133 H   0  0  0  0  0  0  0  0  0  0  0  0
  146.4065  135.6034  149.9439 H   0  0  0  0  0  0  0  0  0  0  0  0
  144.2211  134.5242  149.5720 H   0  0  0  0  0  0  0  0  0  0  0  0
  143.9731  136.0806  150.3326 H   0  0  0  0  0  0  0  0  0  0  0  0
  143.8275  134.6091  151.2781 H   0  0  0  0  0  0  0  0  0  0  0  0
  147.2485  135.9671  152.0631 H   0  0  0  0  0  0  0  0  0  0  0  0
  1  2  1  0  0  0  0
  1 21  1  0  0  0  0
  1 22  1  0  0  0  0
  1 23  1  0  0  0  0
  2 20  1  0  0  0  0
  2  3  2  0  0  0  0
  3  4  1  0  0  0  0
  3 24  1  0  0  0  0
  4  5  1  0  0  0  0
  4 19  2  0  0  0  0
  5  6  1  0  0  0  0
  6  7  2  0  0  0  0
  6  8  1  0  0  0  0
  8  9  1  0  0  0  0
  8 25  1  0  0  0  0
  9 10  1  0  0  0  0
  9 26  1  0  0  0  0
  9 27  1  0  0  0  0
 10 11  1  0  0  0  0
 10 12  1  0  0  0  0
 10 28  1  0  0  0  0
 11 29  1  0  0  0  0
 11 30  1  0  0  0  0
 11 31  1  0  0  0  0
 12 17  1  0  0  0  0
 12 13  1  0  0  0  0
 12 44  1  0  0  0  0
 13 14  1  0  0  0  0
 13 32  1  0  0  0  0
 13 33  1  0  0  0  0
 14 15  1  0  0  0  0
 14 34  1  0  0  0  0
 14 35  1  0  0  0  0
 15 16  1  0  0  0  0
 15 36  1  0  0  0  0
 15 37  1  0  0  0  0
 16 17  1  0  0  0  0
 16 38  1  0  0  0  0
 16 39  1  0  0  0  0
 17 18  1  0  0  0  0
 17 40  1  0  0  0  0
 18 41  1  0  0  0  0
 18 42  1  0  0  0  0
 18 43  1  0  0  0  0
 19 20  1  0  0  0  0
M  CHG  1   5  -1
M  CHG  1  12   1
M  END
> <s_m_source_file>
AV-unprocessed.smi

> <i_m_source_file_index>
1978

> <i_lp_mmshare_version>
43012

> <i_f3d_flags>
0

> <s_epik_input>
W0NIM11jMVtjSF1jKG5vMSlbTkhdQyg9TylbTkhdW0NIMl1bQ0BIXShbQ0gzXSlOMltDSDJdW0NIMl1bQ0gyXVtDSDJdW0NASF0yW0NIM10=

> <s_epik_cmdline>
J2VwaWtfcHl0aG9uJywgJy1waCcsICc3LjAnLCAnLXRuJywgJzgnLCAnLW1hJywgJzIwMCcsICctbWV0YWxfYmluZGluZycsICctaW1hZScsICc8aW5maWxlLm1hZT4nLCAnLW9tYWUnLCAnPG91dGZpbGUubWFlPic=

> <r_epik_Ionization_Penalty>
6.22372

> <r_epik_Ionization_Penalty_Charging>
6.22362

> <r_epik_Ionization_Penalty_Neutral>
9.65074e-05

> <r_epik_State_Penalty>
6.22363

> <r_epik_Charging_Adjusted_Penalty>
12.4472

> <i_epik_Tot_Q>
0

> <i_epik_Tot_abs_Q>
2

> <r_epik_Metal_State_Penalty>
2.16675

> <b_epik_Metal_Only>
1

> <s_lp_Force_Field>
OPLS_2005

> <r_lp_Energy>
13.574

> <b_lp_Chiralities_Consistent>
1

> <s_lp_Variant>
AV-unprocessed.smi:1978-10

> <Gold.Version>
5.8.1

> <Gold.Id.Protein>
6NUR|6NUR_protein|mol2

> <Gold.PLP.Fitness>
42.3291

> <Gold.PLP.PLP>
-28.0489

> <Gold.PLP.part.hbond>
-4.0000

> <Gold.PLP.part.metal>
0.0000

> <Gold.PLP.part.buried>
-1.8279

> <Gold.PLP.part.nonpolar>
-22.8613

> <Gold.PLP.part.repulsive>
0.3422

> <Gold.PLP.ligand.clash>
0.0000

> <Gold.PLP.ligand.torsion>
0.3693

> <Gold.PLP.Chemscore.Hbond>
4.9600

> <Gold.PLP.Chemscore.CHOScore>
0.0000

> <Gold.PLP.Chemscore.Metal>
0.0000

> <Gold.Chemscore.Hbonds>
donor molecule, donor type, donor heavy atom, donor atom, acceptor molecule, acceptor atom, score
      L1  H     8    25       P1  7948  1.00
      L1  H    12    44       P1  7948  2.00
      P1  H  7989  7998       L1    19  0.64
      P1  H  7997  8008       L1    20  1.00

> <Gold.PLP.Chemscore.Internal.Correction>
0.1389

> <Gold.Rescore>
     Score         DG    S(hbond)    S(metal)    S(lipo)     H(rot)  DE(clash)    DE(int)     intcor
     16.68     -19.95       3.20        0.00      65.62       1.52       1.47       1.81       ----

> <Gold.Chemscore.Fitness>
16.6771

> <Gold.Chemscore.DG>
-19.9528

> <Gold.Chemscore.ZeroCoef>
-5.4800

> <Gold.Chemscore.Hbond>
3.1989

> <Gold.Chemscore.Metal>
0.0000

> <Gold.Chemscore.Lipo>
65.6159

> <Gold.Chemscore.Internal_Hbond>
0.0000

> <Gold.Chemscore.DEClash>
1.4656

> <Gold.Chemscore.DEInternal>
1.8101

> <Gold.Chemscore.Rot>
1.5190

> <Gold.Chemscore.Internal.Correction>
   9.000000E+99

> <Gold.Chemscore.Hbonds>
donor molecule, donor type, donor heavy atom, donor atom, acceptor molecule, acceptor atom, score
      L1  H     8    25       P1  7948  1.00
      L1  H    12    44       P1  7948  1.00
      P1  H  7989  7998       L1    19  0.05
      P1  H  7997  8008       L1    20  0.96

> <Gold.Chemscore.Hbond.Weighted>
-10.6844

> <Gold.Chemscore.Metal.Weighted>
-0.0000

> <Gold.Chemscore.Lipo.Weighted>
-7.6771

> <Gold.Chemscore.Internal_Hbond.Weighted>
0.0000

> <Gold.Chemscore.DEClash.Weighted>
1.4656

> <Gold.Chemscore.DEInternal.Weighted>
1.8101

> <Gold.Chemscore.Rot.Weighted>
3.8886

> <Gold.Chemscore.Internal.Correction.Weighted>
   9.000000E+99

> <Gold.Protein.RotatedTorsions>
[ 6907 6896 6895 6894 ] final   49.14 input  -60.11 | X-H torsion
[ 7974 7965 7964 7962 ] final  -76.24 input  175.53 | X-H torsion
[ 8008 7997 7996 7995 ] final  -28.02 input   59.86 | X-H torsion
[ 10167 10162 10161 10158 ] final  -16.54 input  -65.29 | X-H torsion
[ 10718 10713 10712 10709 ] final -124.75 input   66.30 | X-H torsion
[ 10763 10752 10751 10750 ] final  102.15 input  -60.55 | X-H torsion
[ 11005 11000 10999 10996 ] final  168.76 input  -57.11 | X-H torsion

> <Gold.Protein.ActiveResidues>
 VAL166  LYS551  ARG553  GLY616  TRP617  ASP618  TYR619  PRO620  LYS621  CYS622 
 ASP623  PHE694  ASN695  SER759  ASP760  ASP761  ALA762  ILE779  LEU786  VAL792 
 PHE793  MET794  SER795  GLU796  ALA797  LYS798  CYS799  TRP800  GLU811  SER814 

> <Gold.Protein.RotatedAtoms>
  152.2874  134.7760  160.0384 H   0  0  0  0  0  0  0  0  0  0  0  0  # atno 6907 bound_to 6896
  151.8318  133.3404  159.3624 H   0  0  0  0  0  0  0  0  0  0  0  0  # atno 6908 bound_to 6896
  150.7215  134.5404  159.5789 H   0  0  0  0  0  0  0  0  0  0  0  0  # atno 6909 bound_to 6896
  145.6154  140.9376  143.1167 H   0  0  0  0  0  0  0  0  0  0  0  0  # atno 7974 bound_to 7965
  154.4351  140.1856  156.1023 H   0  0  0  0  0  0  0  0  0  0  0  0  # atno 8008 bound_to 7997
  156.0282  140.3333  155.7086 H   0  0  0  0  0  0  0  0  0  0  0  0  # atno 8009 bound_to 7997
  155.5877  140.0628  157.2757 H   0  0  0  0  0  0  0  0  0  0  0  0  # atno 8010 bound_to 7997
  140.7235  143.5106  150.9755 H   0  0  0  0  0  0  0  0  0  0  0  0  # atno 10167 bound_to 10162
  156.1615  130.6605  151.0056 H   0  0  0  0  0  0  0  0  0  0  0  0  # atno 10718 bound_to 10713
  153.3359  135.4020  155.1533 H   0  0  0  0  0  0  0  0  0  0  0  0  # atno 10763 bound_to 10752
  154.8633  135.3621  154.5410 H   0  0  0  0  0  0  0  0  0  0  0  0  # atno 10764 bound_to 10752
  153.5851  135.7075  153.5506 H   0  0  0  0  0  0  0  0  0  0  0  0  # atno 10765 bound_to 10752
  140.2906  134.7676  157.3835 H   0  0  0  0  0  0  0  0  0  0  0  0  # atno 11005 bound_to 11000
  144.7252  139.7897  143.7367 LP  0  0  0  0  0  0  0  0  0  0  0  0  # atno 17320 bound_to 7965
  146.1472  139.4545  143.0071 LP  0  0  0  0  0  0  0  0  0  0  0  0  # atno 17321 bound_to 7965
  139.8819  143.7061  152.3156 LP  0  0  0  0  0  0  0  0  0  0  0  0  # atno 17342 bound_to 10162
  139.7346  144.7574  151.0747 LP  0  0  0  0  0  0  0  0  0  0  0  0  # atno 17343 bound_to 10162
  157.6736  131.0856  150.7551 LP  0  0  0  0  0  0  0  0  0  0  0  0  # atno 17370 bound_to 10713
  156.7614  130.4799  149.5436 LP  0  0  0  0  0  0  0  0  0  0  0  0  # atno 17371 bound_to 10713
  140.1199  134.5234  155.8193 LP  0  0  0  0  0  0  0  0  0  0  0  0  # atno 17394 bound_to 11000
  141.2147  133.6752  156.6845 LP  0  0  0  0  0  0  0  0  0  0  0  0  # atno 17395 bound_to 11000

$$$$
