AV-unprocessed.smi:2611|AV-procd|sdf|10210|dock3
  -GOLD-   2272014213D 1   1.00000     0.00000
 Structure written by MMmdl.
 39 40  0  0  0  0  0  0  0  0  1 V2000
  150.6950  139.0364  154.3435 C   0  0  0  0  0  0  0  0  0  0  0  0
  151.8068  138.1973  154.9904 C   0  0  0  0  0  0  0  0  0  0  0  0
  152.6861  137.4724  153.9610 C   0  0  0  0  0  0  0  0  0  0  0  0
  151.2622  137.2530  156.0181 C   0  0  0  0  0  0  0  0  0  0  0  0
  151.3423  135.9372  155.8559 N   0  0  0  0  0  0  0  0  0  0  0  0
  150.7398  135.4288  157.0155 O   0  0  0  0  0  0  0  0  0  0  0  0
  150.3506  136.5093  157.7333 C   0  0  0  0  0  0  0  0  0  0  0  0
  149.7118  136.2976  159.0647 C   0  0  0  0  0  0  0  0  0  0  0  0
  148.3396  135.6144  158.9538 C   0  0  0  0  0  0  0  0  0  0  0  0
  147.6718  135.5420  160.2481 N   0  0  0  0  0  0  0  0  0  0  0  0
  146.9747  136.5386  160.8201 C   0  0  0  0  0  0  0  0  0  0  0  0
  146.8616  137.6453  160.2911 O   0  0  0  0  0  0  0  0  0  0  0  0
  146.4319  136.2331  162.0264 N   0  0  0  0  0  0  0  0  0  0  0  0
  146.3204  134.8839  162.6048 C   0  0  0  0  0  0  0  0  0  0  0  0
  144.9265  134.3167  162.2892 C   0  0  0  0  0  0  0  0  0  0  0  0
  143.6229  135.3283  163.0580 S   0  0  0  0  0  0  0  0  0  0  0  0
  144.1467  136.9805  162.5009 C   0  0  0  0  0  0  0  0  0  0  0  0
  145.6412  137.2114  162.7824 C   0  0  0  0  0  0  0  0  0  0  0  0
  150.6652  137.6722  157.1690 N   0  0  0  0  0  0  0  0  0  0  0  0
  150.1363  139.5941  155.0957 H   0  0  0  0  0  0  0  0  0  0  0  0
  149.9882  138.4082  153.8007 H   0  0  0  0  0  0  0  0  0  0  0  0
  151.1079  139.7572  153.6374 H   0  0  0  0  0  0  0  0  0  0  0  0
  152.4593  138.9011  155.5100 H   0  0  0  0  0  0  0  0  0  0  0  0
  153.5090  136.9485  154.4481 H   0  0  0  0  0  0  0  0  0  0  0  0
  153.1180  138.1764  153.2496 H   0  0  0  0  0  0  0  0  0  0  0  0
  152.1121  136.7383  153.3942 H   0  0  0  0  0  0  0  0  0  0  0  0
  150.3857  135.7002  159.6801 H   0  0  0  0  0  0  0  0  0  0  0  0
  149.6121  137.2648  159.5590 H   0  0  0  0  0  0  0  0  0  0  0  0
  147.6982  136.1787  158.2762 H   0  0  0  0  0  0  0  0  0  0  0  0
  148.4416  134.6158  158.5255 H   0  0  0  0  0  0  0  0  0  0  0  0
  147.7355  134.6655  160.7451 H   0  0  0  0  0  0  0  0  0  0  0  0
  147.0905  134.1996  162.2483 H   0  0  0  0  0  0  0  0  0  0  0  0
  146.4666  134.9295  163.6850 H   0  0  0  0  0  0  0  0  0  0  0  0
  144.7637  134.2831  161.2113 H   0  0  0  0  0  0  0  0  0  0  0  0
  144.8382  133.2950  162.6581 H   0  0  0  0  0  0  0  0  0  0  0  0
  143.9409  137.0781  161.4344 H   0  0  0  0  0  0  0  0  0  0  0  0
  143.5425  137.7301  163.0121 H   0  0  0  0  0  0  0  0  0  0  0  0
  145.8429  137.1152  163.8501 H   0  0  0  0  0  0  0  0  0  0  0  0
  145.9139  138.2370  162.5291 H   0  0  0  0  0  0  0  0  0  0  0  0
  1  2  1  0  0  0  0
  1 20  1  0  0  0  0
  1 21  1  0  0  0  0
  1 22  1  0  0  0  0
  2  3  1  0  0  0  0
  2  4  1  0  0  0  0
  2 23  1  0  0  0  0
  3 24  1  0  0  0  0
  3 25  1  0  0  0  0
  3 26  1  0  0  0  0
  4 19  1  0  0  0  0
  4  5  2  0  0  0  0
  5  6  1  0  0  0  0
  6  7  1  0  0  0  0
  7  8  1  0  0  0  0
  7 19  2  0  0  0  0
  8  9  1  0  0  0  0
  8 27  1  0  0  0  0
  8 28  1  0  0  0  0
  9 10  1  0  0  0  0
  9 29  1  0  0  0  0
  9 30  1  0  0  0  0
 10 11  1  0  0  0  0
 10 31  1  0  0  0  0
 11 12  2  0  0  0  0
 11 13  1  0  0  0  0
 13 18  1  0  0  0  0
 13 14  1  0  0  0  0
 14 15  1  0  0  0  0
 14 32  1  0  0  0  0
 14 33  1  0  0  0  0
 15 16  1  0  0  0  0
 15 34  1  0  0  0  0
 15 35  1  0  0  0  0
 16 17  1  0  0  0  0
 17 18  1  0  0  0  0
 17 36  1  0  0  0  0
 17 37  1  0  0  0  0
 18 38  1  0  0  0  0
 18 39  1  0  0  0  0
M  END
> <s_m_source_file>
AV-unprocessed.smi

> <i_m_source_file_index>
2611

> <i_lp_mmshare_version>
43012

> <i_f3d_flags>
0

> <s_epik_input>
W0NIM11bQ0hdKFtDSDNdKWMxbm9jKG4xKVtDSDJdW0NIMl1bTkhdQyg9TylOMltDSDJdW0NIMl1TW0NIMl1bQ0gyXTI=

> <s_epik_cmdline>
J2VwaWtfcHl0aG9uJywgJy1waCcsICc3LjAnLCAnLXRuJywgJzgnLCAnLW1hJywgJzIwMCcsICctbWV0YWxfYmluZGluZycsICctaW1hZScsICc8aW5maWxlLm1hZT4nLCAnLW9tYWUnLCAnPG91dGZpbGUubWFlPic=

> <r_lp_tautomer_probability>
1

> <r_epik_Ionization_Penalty>
4.28847e-05

> <r_epik_Ionization_Penalty_Charging>
0

> <r_epik_Ionization_Penalty_Neutral>
4.28847e-05

> <r_epik_State_Penalty>
-0

> <r_epik_Charging_Adjusted_Penalty>
0

> <i_epik_Tot_Q>
0

> <i_epik_Tot_abs_Q>
0

> <r_epik_Metal_State_Penalty>
-0

> <b_epik_Metal_Only>
0

> <s_lp_Force_Field>
OPLS_2005

> <r_lp_Energy>
14.602

> <b_lp_Chiralities_Consistent>
1

> <s_lp_Variant>
AV-unprocessed.smi:2611-1

> <Gold.Version>
5.8.1

> <Gold.Id.Protein>
6NUR|6NUR_protein|mol2

> <Gold.PLP.Fitness>
36.3917

> <Gold.PLP.PLP>
-32.4601

> <Gold.PLP.part.hbond>
-2.0510

> <Gold.PLP.part.metal>
0.0000

> <Gold.PLP.part.buried>
-4.0450

> <Gold.PLP.part.nonpolar>
-26.6774

> <Gold.PLP.part.repulsive>
0.1419

> <Gold.PLP.ligand.clash>
0.0000

> <Gold.PLP.ligand.torsion>
0.3779

> <Gold.PLP.Chemscore.Hbond>
1.5200

> <Gold.PLP.Chemscore.CHOScore>
0.0000

> <Gold.PLP.Chemscore.Metal>
0.0000

> <Gold.Chemscore.Hbonds>
donor molecule, donor type, donor heavy atom, donor atom, acceptor molecule, acceptor atom, score
      P1  H  6934  6947       L1    12  1.00
      P1  H 10752 10764       L1     5  1.00

> <Gold.PLP.Chemscore.Internal.Correction>
0.1274

> <Gold.Rescore>
     Score         DG    S(hbond)    S(metal)    S(lipo)     H(rot)  DE(clash)    DE(int)     intcor
     14.86     -15.49       1.96        0.00      67.15       1.72       0.28       0.35       ----

> <Gold.Chemscore.Fitness>
14.8588

> <Gold.Chemscore.DG>
-15.4914

> <Gold.Chemscore.ZeroCoef>
-5.4800

> <Gold.Chemscore.Hbond>
1.9630

> <Gold.Chemscore.Metal>
0.0000

> <Gold.Chemscore.Lipo>
67.1485

> <Gold.Chemscore.Internal_Hbond>
0.0000

> <Gold.Chemscore.DEClash>
0.2840

> <Gold.Chemscore.DEInternal>
0.3486

> <Gold.Chemscore.Rot>
1.7193

> <Gold.Chemscore.Internal.Correction>
   9.000000E+99

> <Gold.Chemscore.Hbonds>
donor molecule, donor type, donor heavy atom, donor atom, acceptor molecule, acceptor atom, score
      P1  H  6934  6947       L1    12  0.94
      P1  H 10752 10764       L1     5  0.67

> <Gold.Chemscore.Hbond.Weighted>
-6.5565

> <Gold.Chemscore.Metal.Weighted>
-0.0000

> <Gold.Chemscore.Lipo.Weighted>
-7.8564

> <Gold.Chemscore.Internal_Hbond.Weighted>
0.0000

> <Gold.Chemscore.DEClash.Weighted>
0.2840

> <Gold.Chemscore.DEInternal.Weighted>
0.3486

> <Gold.Chemscore.Rot.Weighted>
4.4015

> <Gold.Chemscore.Internal.Correction.Weighted>
   9.000000E+99

> <Gold.Protein.RotatedTorsions>
[ 6907 6896 6895 6894 ] final   76.23 input  -60.11 | X-H torsion
[ 7974 7965 7964 7962 ] final   18.78 input  175.53 | X-H torsion
[ 8008 7997 7996 7995 ] final -105.02 input   59.86 | X-H torsion
[ 10167 10162 10161 10158 ] final  103.14 input  -65.29 | X-H torsion
[ 10718 10713 10712 10709 ] final   71.96 input   66.30 | X-H torsion
[ 10763 10752 10751 10750 ] final  -32.38 input  -60.55 | X-H torsion
[ 11005 11000 10999 10996 ] final  -28.59 input  -57.11 | X-H torsion

> <Gold.Protein.ActiveResidues>
 VAL166  LYS551  ARG553  GLY616  TRP617  ASP618  TYR619  PRO620  LYS621  CYS622 
 ASP623  PHE694  ASN695  SER759  ASP760  ASP761  ALA762  ILE779  LEU786  VAL792 
 PHE793  MET794  SER795  GLU796  ALA797  LYS798  CYS799  TRP800  GLU811  SER814 

> <Gold.Protein.RotatedAtoms>
  152.5063  134.4000  159.9412 H   0  0  0  0  0  0  0  0  0  0  0  0  # atno 6907 bound_to 6896
  151.3963  133.3766  159.2734 H   0  0  0  0  0  0  0  0  0  0  0  0  # atno 6908 bound_to 6896
  150.9395  134.8826  159.7662 H   0  0  0  0  0  0  0  0  0  0  0  0  # atno 6909 bound_to 6896
  146.2173  139.8407  142.8641 H   0  0  0  0  0  0  0  0  0  0  0  0  # atno 7974 bound_to 7965
  154.8938  140.0415  157.1854 H   0  0  0  0  0  0  0  0  0  0  0  0  # atno 8008 bound_to 7997
  154.8513  140.2929  155.5575 H   0  0  0  0  0  0  0  0  0  0  0  0  # atno 8009 bound_to 7997
  156.2996  140.2464  156.3472 H   0  0  0  0  0  0  0  0  0  0  0  0  # atno 8010 bound_to 7997
  139.7289  144.7041  151.0753 H   0  0  0  0  0  0  0  0  0  0  0  0  # atno 10167 bound_to 10162
  157.6477  130.9555  150.0862 H   0  0  0  0  0  0  0  0  0  0  0  0  # atno 10718 bound_to 10713
  153.8128  135.6881  153.4838 H   0  0  0  0  0  0  0  0  0  0  0  0  # atno 10763 bound_to 10752
  153.1618  135.4577  154.9780 H   0  0  0  0  0  0  0  0  0  0  0  0  # atno 10764 bound_to 10752
  154.7960  135.3319  154.7607 H   0  0  0  0  0  0  0  0  0  0  0  0  # atno 10765 bound_to 10752
  140.9222  133.7392  156.0817 H   0  0  0  0  0  0  0  0  0  0  0  0  # atno 11005 bound_to 11000
  145.2901  141.0165  143.3668 LP  0  0  0  0  0  0  0  0  0  0  0  0  # atno 17320 bound_to 7965
  144.9083  139.4560  143.6599 LP  0  0  0  0  0  0  0  0  0  0  0  0  # atno 17321 bound_to 7965
  140.7768  143.5069  150.9701 LP  0  0  0  0  0  0  0  0  0  0  0  0  # atno 17342 bound_to 10162
  139.8757  143.7136  152.3162 LP  0  0  0  0  0  0  0  0  0  0  0  0  # atno 17343 bound_to 10162
  156.1824  130.3650  149.9017 LP  0  0  0  0  0  0  0  0  0  0  0  0  # atno 17370 bound_to 10713
  156.6966  130.8917  151.3594 LP  0  0  0  0  0  0  0  0  0  0  0  0  # atno 17371 bound_to 10713
  140.7973  134.3549  157.5449 LP  0  0  0  0  0  0  0  0  0  0  0  0  # atno 17394 bound_to 11000
  139.8778  134.9177  156.3184 LP  0  0  0  0  0  0  0  0  0  0  0  0  # atno 17395 bound_to 11000

$$$$
