#       Name:                AV-unprocessed.smi:1047
#       Creating user name   scv26
#       Creation time:       Fri Mar 27 03:05:05 2020


#       File generated by GOLD software.
#

@<TRIPOS>MOLECULE
AV-unprocessed.smi:1047
    62    64     1
SMALL
NO_CHARGES


@<TRIPOS>ATOM
      1 ****        -1.8453   5.5529   1.2284 C.3            1 S1                 0.0000
      2 ****        -3.1547   5.0420   0.6108 C.3            1 S1                 0.0000
      3 ****        -3.8852   4.1139   1.5145 N.4            1 S1                 1.0000
      4 ****        -5.3306   3.9988   1.2022 C.3            1 S1                 0.0000
      5 ****        -5.5658   3.0830  -0.0119 C.3            1 S1                 0.0000
      6 ****        -4.9860   1.8083   0.2389 O.3            1 S1                 0.0000
      7 ****        -3.5757   1.8709   0.4243 C.3            1 S1                 0.0000
      8 ****        -3.0715   0.4290   0.6054 C.3            1 S1                 0.0000
      9 ****        -1.5964   0.3522   0.5688 N.4            1 S1                 1.0000
     10 ****        -1.0609  -1.0162   0.7213 C.3            1 S1                 0.0000
     11 ****         0.4762  -1.0280   0.6606 C.3            1 S1                 0.0000
     12 ****         0.8784  -0.6473  -0.6410 O.3            1 S1                 0.0000
     13 ****         1.0547  -2.4172   0.9970 C.3            1 S1                 0.0000
     14 ****         2.5246  -2.4512   0.9585 N.pl3          1 S1                 0.0000
     15 ****         3.4260  -2.1202   1.9235 C.2            1 S1                 0.0000
     16 ****         4.6708  -2.3251   1.4118 N.pl3          1 S1                 1.0000
     17 ****         4.5650  -2.7966   0.1018 C.ar           1 S1                 0.0000
     18 ****         5.5441  -3.1433  -0.8214 C.ar           1 S1                 0.0000
     19 ****         5.1065  -3.5942  -2.0869 C.ar           1 S1                 0.0000
     20 ****         6.1513  -3.9781  -3.1210 C.3            1 S1                 0.0000
     21 ****         3.7236  -3.6875  -2.3902 C.ar           1 S1                 0.0000
     22 ****         3.2646  -4.1792  -3.7524 C.3            1 S1                 0.0000
     23 ****         2.7430  -3.3276  -1.4381 C.ar           1 S1                 0.0000
     24 ****         3.1906  -2.8839  -0.1955 C.ar           1 S1                 0.0000
     25 ****        -3.2751   2.7655   1.6508 C.3            1 S1                 0.0000
     26 ****        -1.3852   6.3016   0.5829 H              1 S1                 0.0000
     27 ****        -1.1155   4.7558   1.3661 H              1 S1                 0.0000
     28 ****        -2.0224   6.0196   2.1978 H              1 S1                 0.0000
     29 ****        -3.7835   5.9105   0.4115 H              1 S1                 0.0000
     30 ****        -2.9631   4.5772  -0.3559 H              1 S1                 0.0000
     31 ****        -5.8373   3.5796   2.0725 H              1 S1                 0.0000
     32 ****        -5.7715   4.9828   1.0384 H              1 S1                 0.0000
     33 ****        -6.6349   2.9548  -0.1811 H              1 S1                 0.0000
     34 ****        -5.1517   3.5164  -0.9235 H              1 S1                 0.0000
     35 ****        -3.1226   2.2874  -0.4766 H              1 S1                 0.0000
     36 ****        -3.4420   0.0114   1.5426 H              1 S1                 0.0000
     37 ****        -3.4654  -0.1954  -0.1978 H              1 S1                 0.0000
     38 ****        -1.2749   0.7157  -0.3177 H              1 S1                 0.0000
     39 ****        -1.3946  -1.4110   1.6820 H              1 S1                 0.0000
     40 ****        -1.4771  -1.6644  -0.0516 H              1 S1                 0.0000
     41 ****         0.8741  -0.2988   1.3678 H              1 S1                 0.0000
     42 ****         1.8233  -0.6581  -0.6789 H              1 S1                 0.0000
     43 ****         0.7563  -2.7076   2.0052 H              1 S1                 0.0000
     44 ****         0.6583  -3.1848   0.3320 H              1 S1                 0.0000
     45 ****         3.1970  -1.7611   2.9165 H              1 S1                 0.0000
     46 ****         6.5953  -3.0710  -0.5833 H              1 S1                 0.0000
     47 ****         6.0527  -5.0290  -3.3936 H              1 S1                 0.0000
     48 ****         7.1624  -3.8248  -2.7429 H              1 S1                 0.0000
     49 ****         6.0389  -3.3741  -4.0215 H              1 S1                 0.0000
     50 ****         2.1767  -4.2097  -3.8209 H              1 S1                 0.0000
     51 ****         3.6375  -5.1864  -3.9412 H              1 S1                 0.0000
     52 ****         3.6295  -3.5205  -4.5408 H              1 S1                 0.0000
     53 ****         1.6915  -3.3952  -1.6744 H              1 S1                 0.0000
     54 ****        -2.2024   2.8411   1.8247 H              1 S1                 0.0000
     55 ****        -3.6920   2.3007   2.5454 H              1 S1                 0.0000
     56 ****        -1.2202   0.9264   1.3096 H              1 S1                 0.0000
     57 ****        -3.8369   4.5467   2.4264 H              1 S1                 0.0000
     58 ****         5.5286  -2.1567   1.9220 H              1 S1                 0.0000
     59 ****        -5.1799   1.2104  -0.5389 LP             1 S1                 0.0000
     60 ****        -5.4002   1.4257   1.0647 LP             1 S1                 0.0000
     61 ****         0.5434   0.2733  -0.8417 LP             1 S1                 0.0000
     62 ****         0.5067  -1.2905  -1.3104 LP             1 S1                 0.0000
@<TRIPOS>BOND
    1    1    2 1     
    2    1   26 1     
    3    1   27 1     
    4    1   28 1     
    5    2    3 1     
    6    2   29 1     
    7    2   30 1     
    8    3   25 1     
    9    3    4 1     
   10    3   57 1     
   11    4    5 1     
   12    4   31 1     
   13    4   32 1     
   14    5    6 1     
   15    5   33 1     
   16    5   34 1     
   17    6    7 1     
   18    7    8 1     
   19    7   25 1     
   20    7   35 1     
   21    8    9 1     
   22    8   36 1     
   23    8   37 1     
   24    9   10 1     
   25    9   38 1     
   26    9   56 1     
   27   10   11 1     
   28   10   39 1     
   29   10   40 1     
   30   11   12 1     
   31   11   13 1     
   32   11   41 1     
   33   12   42 1     
   34   13   14 1     
   35   13   43 1     
   36   13   44 1     
   37   14   24 1     
   38   14   15 1     
   39   15   16 2     
   40   15   45 1     
   41   16   17 1     
   42   16   58 1     
   43   17   24 ar    
   44   17   18 ar    
   45   18   19 ar    
   46   18   46 1     
   47   19   20 1     
   48   19   21 ar    
   49   20   47 1     
   50   20   48 1     
   51   20   49 1     
   52   21   22 1     
   53   21   23 ar    
   54   22   50 1     
   55   22   51 1     
   56   22   52 1     
   57   23   24 ar    
   58   23   53 1     
   59   25   54 1     
   60   25   55 1     
   61    6   59 1     
   62    6   60 1     
   63   12   61 1     
   64   12   62 1     
@<TRIPOS>SUBSTRUCTURE
      1 S1             1
@<TRIPOS>SET
LONE_PAIRS      STATIC     ATOMS    <user>   **** ""
4 59 60 61 62
DONOR_HYDROGENS      STATIC     ATOMS    <user>   **** ""
5 57 38 56 42 58
ATOM$BLUE        STATIC     ATOMS    COLORGROUP SYSTEM
4 59 60 61 62
ATOM$RED        STATIC     ATOMS    COLORGROUP SYSTEM
5 57 38 56 42 58
