#       Name:                AV-unprocessed.smi:3012
#       Creating user name   scv26
#       Creation time:       Fri Mar 27 16:39:57 2020


#       File generated by GOLD software.
#

@<TRIPOS>MOLECULE
AV-unprocessed.smi:3012
    25    25     1
SMALL
NO_CHARGES


@<TRIPOS>ATOM
      1 ****        -2.1631   1.5273  -1.7258 O.co2          1 S1                 0.0000
      2 ****        -1.8452   0.3176  -1.7150 C.2            1 S1                 0.0000
      3 ****        -2.6404  -0.6442  -1.7982 O.co2          1 S1                -1.0000
      4 ****        -0.3560  -0.0145  -1.6055 C.3            1 S1                 0.0000
      5 ****         0.1655   0.0285  -0.1781 C.2            1 S1                 0.0000
      6 ****         0.3251   1.1511   0.5565 C.2            1 S1                 0.0000
      7 ****         0.8700   1.0362   1.9080 C.2            1 S1                 0.0000
      8 ****         1.0135   2.0527   2.5853 O.2            1 S1                 0.0000
      9 ****         1.2018  -0.2116   2.3580 N.pl3          1 S1                -1.0000
     10 ****         1.0454  -1.3410   1.6006 C.2            1 S1                 0.0000
     11 ****         1.3412  -2.4720   1.9808 O.2            1 S1                 0.0000
     12 ****         0.5368  -1.2131   0.3542 N.am           1 S1                 0.0000
     13 ****         0.4115  -2.0311  -0.2241 H              1 S1                 0.0000
     14 ****        -0.1766  -0.9984  -2.0420 H              1 S1                 0.0000
     15 ****         0.2129   0.6949  -2.2076 H              1 S1                 0.0000
     16 ****         0.0584   2.1173   0.1536 H              1 S1                 0.0000
     17 ****        -3.1244   1.7910  -1.8063 LP             1 S1                 0.0000
     18 ****        -1.4561   2.2308  -1.6540 LP             1 S1                 0.0000
     19 ****        -3.6225  -0.4752  -1.8819 LP             1 S1                 0.0000
     20 ****        -2.2942  -1.5822  -1.7811 LP             1 S1                 0.0000
     21 ****         0.7584   2.9438   2.2099 LP             1 S1                 0.0000
     22 ****         1.3851   1.9881   3.5114 LP             1 S1                 0.0000
     23 ****         1.5751  -0.3031   3.2811 LP             1 S1                 0.0000
     24 ****         1.7220  -2.6084   2.8953 LP             1 S1                 0.0000
     25 ****         1.2009  -3.2556   1.3755 LP             1 S1                 0.0000
@<TRIPOS>BOND
    1    1    2 ar    
    2    2    3 ar    
    3    2    4 1     
    4    4    5 1     
    5    4   14 1     
    6    4   15 1     
    7    5   12 1     
    8    5    6 2     
    9    6    7 1     
   10    6   16 1     
   11    7    8 2     
   12    7    9 1     
   13    9   10 1     
   14   10   11 2     
   15   10   12 am    
   16   12   13 1     
   17    1   17 1     
   18    1   18 1     
   19    3   19 1     
   20    3   20 1     
   21    8   21 1     
   22    8   22 1     
   23    9   23 1     
   24   11   24 1     
   25   11   25 1     
@<TRIPOS>SUBSTRUCTURE
      1 S1             1
@<TRIPOS>SET
LONE_PAIRS      STATIC     ATOMS    <user>   **** ""
9 17 18 19 20 21 22 23 24 25
DONOR_HYDROGENS      STATIC     ATOMS    <user>   **** ""
1 13
ATOM$BLUE        STATIC     ATOMS    COLORGROUP SYSTEM
9 17 18 19 20 21 22 23 24 25
ATOM$RED        STATIC     ATOMS    COLORGROUP SYSTEM
1 13
