AV-unprocessed.smi:3334|AV-procd|sdf|12836|dock7
  -GOLD-   2272019223D 1   1.00000     0.00000
 Structure written by MMmdl.
 41 42  0  0  0  0  0  0  0  0  1 V2000
  152.5426  139.2824  154.7719 C   0  0  0  0  0  0  0  0  0  0  0  0
  151.2129  138.6495  155.2072 C   0  0  0  0  0  0  0  0  0  0  0  0
  151.1087  137.1723  154.8066 C   0  0  0  0  0  0  0  0  0  0  0  0
  150.0325  139.4394  154.7330 C   0  0  0  0  0  0  0  0  0  0  0  0
  149.0521  138.9132  153.9947 N   0  0  0  0  0  0  0  0  0  0  0  0
  148.0575  139.8408  153.6678 C   0  0  0  0  0  0  0  0  0  0  0  0
  146.9010  139.4197  152.8043 C   0  0  0  0  0  0  0  0  0  0  0  0
  146.1429  138.1948  153.3506 C   0  0  0  0  0  0  0  0  0  0  0  0
  146.2086  137.0678  152.4248 N   0  0  0  0  0  0  0  0  0  0  0  0
  145.1585  136.3456  152.0093 C   0  0  0  0  0  0  0  0  0  0  0  0
  144.0326  136.4393  152.4983 O   0  0  0  0  0  0  0  0  0  0  0  0
  145.4117  135.4000  150.8306 C   0  0  0  0  0  0  0  0  0  0  0  0
  145.3602  133.9079  151.2286 C   0  0  1  0  0  0  0  0  0  0  0  0
  144.0425  133.2346  150.9229 C   0  0  0  0  0  0  0  0  0  0  0  0
  144.1897  132.1069  150.2326 C   0  0  0  0  0  0  0  0  0  0  0  0
  145.6300  131.8033  149.9275 C   0  0  0  0  0  0  0  0  0  0  0  0
  146.3911  133.0339  150.4697 C   0  0  0  0  0  0  0  0  0  0  0  0
  148.3081  141.0966  154.1612 C   0  0  0  0  0  0  0  0  0  0  0  0
  149.8064  141.1585  155.0490 S   0  0  0  0  0  0  0  0  0  0  0  0
  152.6197  140.3122  155.1223 H   0  0  0  0  0  0  0  0  0  0  0  0
  152.6449  139.2903  153.6865 H   0  0  0  0  0  0  0  0  0  0  0  0
  153.3906  138.7316  155.1792 H   0  0  0  0  0  0  0  0  0  0  0  0
  151.1968  138.6803  156.2976 H   0  0  0  0  0  0  0  0  0  0  0  0
  150.1898  136.7273  155.1897 H   0  0  0  0  0  0  0  0  0  0  0  0
  151.9443  136.5968  155.2050 H   0  0  0  0  0  0  0  0  0  0  0  0
  151.1126  137.0547  153.7228 H   0  0  0  0  0  0  0  0  0  0  0  0
  146.1993  140.2492  152.7073 H   0  0  0  0  0  0  0  0  0  0  0  0
  147.2443  139.2090  151.7911 H   0  0  0  0  0  0  0  0  0  0  0  0
  146.5397  137.8994  154.3221 H   0  0  0  0  0  0  0  0  0  0  0  0
  145.1020  138.4807  153.5104 H   0  0  0  0  0  0  0  0  0  0  0  0
  147.0962  136.9107  151.9691 H   0  0  0  0  0  0  0  0  0  0  0  0
  144.6795  135.5953  150.0450 H   0  0  0  0  0  0  0  0  0  0  0  0
  146.3886  135.6354  150.4075 H   0  0  0  0  0  0  0  0  0  0  0  0
  145.5296  133.8101  152.3020 H   0  0  0  0  0  0  0  0  0  0  0  0
  143.0955  133.6332  151.2573 H   0  0  0  0  0  0  0  0  0  0  0  0
  143.3842  131.4587  149.9207 H   0  0  0  0  0  0  0  0  0  0  0  0
  145.9300  130.8863  150.4353 H   0  0  0  0  0  0  0  0  0  0  0  0
  145.7780  131.6744  148.8549 H   0  0  0  0  0  0  0  0  0  0  0  0
  146.8257  133.5864  149.6356 H   0  0  0  0  0  0  0  0  0  0  0  0
  147.2161  132.7388  151.1188 H   0  0  0  0  0  0  0  0  0  0  0  0
  147.7141  141.9902  154.0404 H   0  0  0  0  0  0  0  0  0  0  0  0
  1  2  1  0  0  0  0
  1 20  1  0  0  0  0
  1 21  1  0  0  0  0
  1 22  1  0  0  0  0
  2  3  1  0  0  0  0
  2  4  1  0  0  0  0
  2 23  1  0  0  0  0
  3 24  1  0  0  0  0
  3 25  1  0  0  0  0
  3 26  1  0  0  0  0
  4 19  1  0  0  0  0
  4  5  2  0  0  0  0
  5  6  1  0  0  0  0
  6  7  1  0  0  0  0
  6 18  2  0  0  0  0
  7  8  1  0  0  0  0
  7 27  1  0  0  0  0
  7 28  1  0  0  0  0
  8  9  1  0  0  0  0
  8 29  1  0  0  0  0
  8 30  1  0  0  0  0
  9 10  1  0  0  0  0
  9 31  1  0  0  0  0
 10 11  2  0  0  0  0
 10 12  1  0  0  0  0
 12 13  1  0  0  0  0
 12 32  1  0  0  0  0
 12 33  1  0  0  0  0
 13 17  1  0  0  0  0
 13 14  1  0  0  0  0
 13 34  1  0  0  0  0
 14 15  2  0  0  0  0
 14 35  1  0  0  0  0
 15 16  1  0  0  0  0
 15 36  1  0  0  0  0
 16 17  1  0  0  0  0
 16 37  1  0  0  0  0
 16 38  1  0  0  0  0
 17 39  1  0  0  0  0
 17 40  1  0  0  0  0
 18 19  1  0  0  0  0
 18 41  1  0  0  0  0
M  END
> <s_m_source_file>
AV-unprocessed.smi

> <i_m_source_file_index>
3334

> <i_lp_mmshare_version>
43012

> <i_f3d_flags>
0

> <s_epik_input>
W0NIM11bQ0hdKFtDSDNdKWMxbmMoW2NIXXMxKVtDSDJdW0NIMl1bTkhdQyg9TylbQ0gyXVtDQEBIXTJbQ0hdPVtDSF1bQ0gyXVtDSDJdMg==

> <s_epik_cmdline>
J2VwaWtfcHl0aG9uJywgJy1waCcsICc3LjAnLCAnLXRuJywgJzgnLCAnLW1hJywgJzIwMCcsICctbWV0YWxfYmluZGluZycsICctaW1hZScsICc8aW5maWxlLm1hZT4nLCAnLW9tYWUnLCAnPG91dGZpbGUubWFlPic=

> <r_epik_Ionization_Penalty>
0.000771592

> <r_epik_Ionization_Penalty_Charging>
0

> <r_epik_Ionization_Penalty_Neutral>
0.000771592

> <r_epik_State_Penalty>
0.000494253

> <r_epik_Charging_Adjusted_Penalty>
0.000494253

> <i_epik_Tot_Q>
0

> <i_epik_Tot_abs_Q>
0

> <r_epik_Metal_State_Penalty>
-0

> <b_epik_Metal_Only>
0

> <s_lp_Force_Field>
OPLS_2005

> <r_lp_Energy>
5.93023

> <b_lp_Chiralities_Consistent>
1

> <s_lp_Variant>
AV-unprocessed.smi:3334-2

> <Gold.Version>
5.8.1

> <Gold.Id.Protein>
6NUR|6NUR_protein|mol2

> <Gold.PLP.Fitness>
41.8159

> <Gold.PLP.PLP>
-40.9376

> <Gold.PLP.part.hbond>
-1.0000

> <Gold.PLP.part.metal>
0.0000

> <Gold.PLP.part.buried>
-2.9917

> <Gold.PLP.part.nonpolar>
-38.3862

> <Gold.PLP.part.repulsive>
0.4086

> <Gold.PLP.ligand.clash>
0.0000

> <Gold.PLP.ligand.torsion>
1.1156

> <Gold.PLP.Chemscore.Hbond>
1.0000

> <Gold.PLP.Chemscore.CHOScore>
0.0000

> <Gold.PLP.Chemscore.Metal>
0.0000

> <Gold.Chemscore.Hbonds>
donor molecule, donor type, donor heavy atom, donor atom, acceptor molecule, acceptor atom, score
      L1  H     9    31       P1  7948  1.00

> <Gold.PLP.Chemscore.Internal.Correction>
0.1096

> <Gold.Rescore>
     Score         DG    S(hbond)    S(metal)    S(lipo)     H(rot)  DE(clash)    DE(int)     intcor
     16.88     -18.19       0.99        0.00     113.60       1.52       0.28       1.02       ----

> <Gold.Chemscore.Fitness>
16.8793

> <Gold.Chemscore.DG>
-18.1859

> <Gold.Chemscore.ZeroCoef>
-5.4800

> <Gold.Chemscore.Hbond>
0.9868

> <Gold.Chemscore.Metal>
0.0000

> <Gold.Chemscore.Lipo>
113.6018

> <Gold.Chemscore.Internal_Hbond>
0.0000

> <Gold.Chemscore.DEClash>
0.2820

> <Gold.Chemscore.DEInternal>
1.0246

> <Gold.Chemscore.Rot>
1.5162

> <Gold.Chemscore.Internal.Correction>
   9.000000E+99

> <Gold.Chemscore.Hbonds>
donor molecule, donor type, donor heavy atom, donor atom, acceptor molecule, acceptor atom, score
      L1  H     9    31       P1  7948  0.97

> <Gold.Chemscore.Hbond.Weighted>
-3.2960

> <Gold.Chemscore.Metal.Weighted>
-0.0000

> <Gold.Chemscore.Lipo.Weighted>
-13.2914

> <Gold.Chemscore.Internal_Hbond.Weighted>
0.0000

> <Gold.Chemscore.DEClash.Weighted>
0.2820

> <Gold.Chemscore.DEInternal.Weighted>
1.0246

> <Gold.Chemscore.Rot.Weighted>
3.8815

> <Gold.Chemscore.Internal.Correction.Weighted>
   9.000000E+99

> <Gold.Protein.RotatedTorsions>
[ 6907 6896 6895 6894 ] final  156.60 input  -60.11 | X-H torsion
[ 7974 7965 7964 7962 ] final -123.16 input  175.53 | X-H torsion
[ 8008 7997 7996 7995 ] final  163.13 input   59.86 | X-H torsion
[ 10167 10162 10161 10158 ] final -121.24 input  -65.29 | X-H torsion
[ 10718 10713 10712 10709 ] final  -88.52 input   66.30 | X-H torsion
[ 10763 10752 10751 10750 ] final -122.63 input  -60.55 | X-H torsion
[ 11005 11000 10999 10996 ] final   -2.69 input  -57.11 | X-H torsion

> <Gold.Protein.ActiveResidues>
 VAL166  LYS551  ARG553  GLY616  TRP617  ASP618  TYR619  PRO620  LYS621  CYS622 
 ASP623  PHE694  ASN695  SER759  ASP760  ASP761  ALA762  ILE779  LEU786  VAL792 
 PHE793  MET794  SER795  GLU796  ALA797  LYS798  CYS799  TRP800  GLU811  SER814 

> <Gold.Protein.RotatedAtoms>
  152.0274  133.3923  159.4282 H   0  0  0  0  0  0  0  0  0  0  0  0  # atno 6907 bound_to 6896
  150.6885  134.3559  159.4938 H   0  0  0  0  0  0  0  0  0  0  0  0  # atno 6908 bound_to 6896
  152.1341  134.9112  160.0608 H   0  0  0  0  0  0  0  0  0  0  0  0  # atno 6909 bound_to 6896
  145.0217  140.7993  143.4377 H   0  0  0  0  0  0  0  0  0  0  0  0  # atno 7974 bound_to 7965
  156.1980  140.1731  156.7959 H   0  0  0  0  0  0  0  0  0  0  0  0  # atno 8008 bound_to 7997
  154.5554  140.0709  156.8766 H   0  0  0  0  0  0  0  0  0  0  0  0  # atno 8009 bound_to 7997
  155.2948  140.3357  155.4253 H   0  0  0  0  0  0  0  0  0  0  0  0  # atno 8010 bound_to 7997
  140.0272  143.5285  152.2193 H   0  0  0  0  0  0  0  0  0  0  0  0  # atno 10167 bound_to 10162
  155.9983  130.4838  150.5031 H   0  0  0  0  0  0  0  0  0  0  0  0  # atno 10718 bound_to 10713
  154.8693  135.4126  154.2813 H   0  0  0  0  0  0  0  0  0  0  0  0  # atno 10763 bound_to 10752
  153.3705  135.7007  153.6647 H   0  0  0  0  0  0  0  0  0  0  0  0  # atno 10764 bound_to 10752
  153.5510  135.3629  155.2731 H   0  0  0  0  0  0  0  0  0  0  0  0  # atno 10765 bound_to 10752
  140.6612  133.9319  155.8437 H   0  0  0  0  0  0  0  0  0  0  0  0  # atno 11005 bound_to 11000
  145.1887  139.2312  143.5254 LP  0  0  0  0  0  0  0  0  0  0  0  0  # atno 17320 bound_to 7965
  146.3486  140.1678  142.8590 LP  0  0  0  0  0  0  0  0  0  0  0  0  # atno 17321 bound_to 7965
  139.6100  144.7606  151.2973 LP  0  0  0  0  0  0  0  0  0  0  0  0  # atno 17342 bound_to 10162
  140.7317  143.6843  150.7975 LP  0  0  0  0  0  0  0  0  0  0  0  0  # atno 17343 bound_to 10162
  157.3013  131.0646  151.2066 LP  0  0  0  0  0  0  0  0  0  0  0  0  # atno 17370 bound_to 10713
  157.3044  130.6859  149.6181 LP  0  0  0  0  0  0  0  0  0  0  0  0  # atno 17371 bound_to 10713
  141.0464  134.0548  157.3839 LP  0  0  0  0  0  0  0  0  0  0  0  0  # atno 17394 bound_to 11000
  139.9012  135.0165  156.7279 LP  0  0  0  0  0  0  0  0  0  0  0  0  # atno 17395 bound_to 11000

$$$$
