AV-unprocessed.smi:160|AV-procd|sdf|1343|dock2
  -GOLD-   2262019 43D 1   1.00000     0.00000
 Structure written by MMmdl.
 29 30  0  0  0  0  0  0  0  0  1 V2000
  146.8313  143.7624  158.7485 N   0  0  0  0  0  0  0  0  0  0  0  0
  146.1921  142.6024  158.5659 C   0  0  0  0  0  0  0  0  0  0  0  0
  145.7025  141.9670  159.4982 O   0  0  0  0  0  0  0  0  0  0  0  0
  146.1018  142.1092  157.1482 C   0  0  0  0  0  0  0  0  0  0  0  0
  144.9424  141.5789  156.6578 N   0  0  0  0  0  0  0  0  0  0  0  0
  145.3456  141.2996  155.4249 C   0  0  0  0  0  0  0  0  0  0  0  0
  146.6152  141.6352  155.1753 N   0  0  0  0  0  0  0  0  0  0  0  0
  147.4311  141.4507  153.9375 C   0  0  2  0  0  0  0  0  0  0  0  0
  146.6325  140.7690  153.0157 O   0  0  0  0  0  0  0  0  0  0  0  0
  147.2894  139.5946  152.5449 C   0  0  2  0  0  0  0  0  0  0  0  0
  146.2450  138.5137  152.2265 C   0  0  0  0  0  0  0  0  0  0  0  0
  146.7527  137.6170  151.2621 O   0  0  0  0  0  0  0  0  0  0  0  0
  148.2197  139.2227  153.7007 C   0  0  1  0  0  0  0  0  0  0  0  0
  149.3018  138.3981  153.3095 O   0  0  0  0  0  0  0  0  0  0  0  0
  148.6676  140.5836  154.2193 C   0  0  1  0  0  0  0  0  0  0  0  0
  149.7989  141.0847  153.5312 O   0  0  0  0  0  0  0  0  0  0  0  0
  147.1391  142.1619  156.3107 N   0  0  0  0  0  0  0  0  0  0  0  0
  147.6630  142.4641  153.6060 H   0  0  0  0  0  0  0  0  0  0  0  0
  147.8838  139.8478  151.6646 H   0  0  0  0  0  0  0  0  0  0  0  0
  147.6517  138.7096  154.4777 H   0  0  0  0  0  0  0  0  0  0  0  0
  148.9015  140.5600  155.2848 H   0  0  0  0  0  0  0  0  0  0  0  0
  146.9242  144.1446  159.6779 H   0  0  0  0  0  0  0  0  0  0  0  0
  147.2175  144.2487  157.9525 H   0  0  0  0  0  0  0  0  0  0  0  0
  144.7023  140.8397  154.6891 H   0  0  0  0  0  0  0  0  0  0  0  0
  146.0174  137.9347  153.1218 H   0  0  0  0  0  0  0  0  0  0  0  0
  145.3102  138.9566  151.8808 H   0  0  0  0  0  0  0  0  0  0  0  0
  147.0936  136.8567  151.7077 H   0  0  0  0  0  0  0  0  0  0  0  0
  149.0040  137.8137  152.6291 H   0  0  0  0  0  0  0  0  0  0  0  0
  150.1548  140.3878  153.0008 H   0  0  0  0  0  0  0  0  0  0  0  0
  1  2  1  0  0  0  0
  1 22  1  0  0  0  0
  1 23  1  0  0  0  0
  2  3  2  0  0  0  0
  2  4  1  0  0  0  0
  4 17  2  0  0  0  0
  4  5  1  0  0  0  0
  5  6  2  0  0  0  0
  6  7  1  0  0  0  0
  6 24  1  0  0  0  0
  7  8  1  0  0  0  0
  7 17  1  0  0  0  0
  8 18  1  0  0  0  0
  8 15  1  0  0  0  0
  8  9  1  0  0  0  0
  9 10  1  0  0  0  0
 10 19  1  0  0  0  0
 10 11  1  0  0  0  0
 10 13  1  0  0  0  0
 11 12  1  0  0  0  0
 11 25  1  0  0  0  0
 11 26  1  0  0  0  0
 12 27  1  0  0  0  0
 13 20  1  0  0  0  0
 13 14  1  0  0  0  0
 13 15  1  0  0  0  0
 14 28  1  0  0  0  0
 15 21  1  0  0  0  0
 15 16  1  0  0  0  0
 16 29  1  0  0  0  0
M  END
> <s_m_source_file>
AV-unprocessed.smi

> <i_m_source_file_index>
160

> <i_lp_mmshare_version>
43012

> <i_f3d_flags>
0

> <s_epik_input>
W05IMl1DKD1PKWMxbltjSF1uKG4xKVtDQEBIXTJPW0NASF0oW0NIMl1bT0hdKVtDQEBIXShbT0hdKVtDQEhdMltPSF0=

> <s_epik_cmdline>
J2VwaWtfcHl0aG9uJywgJy1waCcsICc3LjAnLCAnLXRuJywgJzgnLCAnLW1hJywgJzIwMCcsICctbWV0YWxfYmluZGluZycsICctaW1hZScsICc8aW5maWxlLm1hZT4nLCAnLW9tYWUnLCAnPG91dGZpbGUubWFlPic=

> <r_lp_tautomer_probability>
1

> <r_epik_Ionization_Penalty>
1.06932e-05

> <r_epik_Ionization_Penalty_Charging>
0

> <r_epik_Ionization_Penalty_Neutral>
1.06932e-05

> <r_epik_State_Penalty>
-0

> <r_epik_Charging_Adjusted_Penalty>
0

> <i_epik_Tot_Q>
0

> <i_epik_Tot_abs_Q>
0

> <r_epik_Metal_State_Penalty>
0.0142097

> <b_epik_Metal_Only>
0

> <s_epik_Chemistry_Notes>
This compound contains an acetal/aminal-like group ( X-CH(R)-Y where X, Y are N, S, or O) that may be acid/base labile, releasing an aldehyde.

> <s_lp_Force_Field>
OPLS_2005

> <r_lp_Energy>
39.0499

> <b_lp_Chiralities_Consistent>
1

> <s_lp_Variant>
AV-unprocessed.smi:160-1

> <Gold.Version>
5.8.1

> <Gold.Id.Protein>
6NUR|6NUR_protein|mol2

> <Gold.PLP.Fitness>
41.9290

> <Gold.PLP.PLP>
-23.1174

> <Gold.PLP.part.hbond>
-8.4590

> <Gold.PLP.part.metal>
0.0000

> <Gold.PLP.part.buried>
2.3958

> <Gold.PLP.part.nonpolar>
-17.8069

> <Gold.PLP.part.repulsive>
1.2500

> <Gold.PLP.ligand.clash>
0.0000

> <Gold.PLP.ligand.torsion>
1.0579

> <Gold.PLP.Chemscore.Hbond>
5.9673

> <Gold.PLP.Chemscore.CHOScore>
1.0000

> <Gold.PLP.Chemscore.Metal>
0.0000

> <Gold.Chemscore.Hbonds>
donor molecule, donor type, donor heavy atom, donor atom, acceptor molecule, acceptor atom, score
      L1  H     1    23       P1  8029  0.93
      L1  H    12    27       P1  7948  0.58
      L1  H    14    28       P1  7948  1.00
      L1  H    16    29       P1  7957  0.48
      P1  H  6934  6946       L1     3  0.99
      P1  H  7954  7966       L1    12  1.00
      P1  H  8011  8017       L1    16  0.99
      L1  C     6    24       P1 10175  1.00

> <Gold.PLP.Chemscore.Internal.Correction>
0.0256

> <Gold.Rescore>
     Score         DG    S(hbond)    S(metal)    S(lipo)     H(rot)  DE(clash)    DE(int)     intcor
      8.75     -12.36       4.10        0.00      30.69       4.06       2.41       1.20       ----

> <Gold.Chemscore.Fitness>
8.7502

> <Gold.Chemscore.DG>
-12.3629

> <Gold.Chemscore.ZeroCoef>
-5.4800

> <Gold.Chemscore.Hbond>
4.0977

> <Gold.Chemscore.Metal>
0.0000

> <Gold.Chemscore.Lipo>
30.6857

> <Gold.Chemscore.Internal_Hbond>
0.0000

> <Gold.Chemscore.DEClash>
2.4142

> <Gold.Chemscore.DEInternal>
1.1985

> <Gold.Chemscore.Rot>
4.0600

> <Gold.Chemscore.Internal.Correction>
   9.000000E+99

> <Gold.Chemscore.Hbonds>
donor molecule, donor type, donor heavy atom, donor atom, acceptor molecule, acceptor atom, score
      L1  H     1    23       P1  8029  0.23
      L1  H    12    27       P1  7948  0.56
      L1  H    14    28       P1  7948  0.96
      L1  H    16    29       P1  7957  0.48
      P1  H  6934  6946       L1     3  0.90
      P1  H  7954  7966       L1    12  0.25
      P1  H  8011  8017       L1    16  0.24

> <Gold.Chemscore.Hbond.Weighted>
-13.6863

> <Gold.Chemscore.Metal.Weighted>
-0.0000

> <Gold.Chemscore.Lipo.Weighted>
-3.5902

> <Gold.Chemscore.Internal_Hbond.Weighted>
0.0000

> <Gold.Chemscore.DEClash.Weighted>
2.4142

> <Gold.Chemscore.DEInternal.Weighted>
1.1985

> <Gold.Chemscore.Rot.Weighted>
10.3936

> <Gold.Chemscore.Internal.Correction.Weighted>
   9.000000E+99

> <Gold.Protein.RotatedTorsions>
[ 6907 6896 6895 6894 ] final   39.30 input  -60.11 | X-H torsion
[ 7974 7965 7964 7962 ] final  147.18 input  175.53 | X-H torsion
[ 8008 7997 7996 7995 ] final   87.02 input   59.86 | X-H torsion
[ 10167 10162 10161 10158 ] final -176.86 input  -65.29 | X-H torsion
[ 10718 10713 10712 10709 ] final   77.90 input   66.30 | X-H torsion
[ 10763 10752 10751 10750 ] final  152.67 input  -60.55 | X-H torsion
[ 11005 11000 10999 10996 ] final -172.64 input  -57.11 | X-H torsion

> <Gold.Protein.ActiveResidues>
 VAL166  LYS551  ARG553  GLY616  TRP617  ASP618  TYR619  PRO620  LYS621  CYS622 
 ASP623  PHE694  ASN695  SER759  ASP760  ASP761  ALA762  ILE779  LEU786  VAL792 
 PHE793  MET794  SER795  GLU796  ALA797  LYS798  CYS799  TRP800  GLU811  SER814 

> <Gold.Protein.RotatedAtoms>
  152.1678  134.8859  160.0536 H   0  0  0  0  0  0  0  0  0  0  0  0  # atno 6907 bound_to 6896
  151.9830  133.3759  159.4123 H   0  0  0  0  0  0  0  0  0  0  0  0  # atno 6908 bound_to 6896
  150.6897  134.3941  159.5133 H   0  0  0  0  0  0  0  0  0  0  0  0  # atno 6909 bound_to 6896
  144.8612  139.5996  143.5929 H   0  0  0  0  0  0  0  0  0  0  0  0  # atno 7974 bound_to 7965
  155.9701  140.3386  155.6568 H   0  0  0  0  0  0  0  0  0  0  0  0  # atno 8008 bound_to 7997
  155.6685  140.0724  157.2547 H   0  0  0  0  0  0  0  0  0  0  0  0  # atno 8009 bound_to 7997
  154.4164  140.1696  156.1841 H   0  0  0  0  0  0  0  0  0  0  0  0  # atno 8010 bound_to 7997
  139.5508  144.2113  152.1074 H   0  0  0  0  0  0  0  0  0  0  0  0  # atno 10167 bound_to 10162
  157.6726  130.9843  150.1708 H   0  0  0  0  0  0  0  0  0  0  0  0  # atno 10718 bound_to 10713
  154.1237  135.2831  155.3202 H   0  0  0  0  0  0  0  0  0  0  0  0  # atno 10763 bound_to 10752
  154.6405  135.5404  153.7787 H   0  0  0  0  0  0  0  0  0  0  0  0  # atno 10764 bound_to 10752
  153.0304  135.6485  154.1390 H   0  0  0  0  0  0  0  0  0  0  0  0  # atno 10765 bound_to 10752
  140.4948  134.5950  157.4967 H   0  0  0  0  0  0  0  0  0  0  0  0  # atno 11005 bound_to 11000
  146.2862  139.7010  142.9194 LP  0  0  0  0  0  0  0  0  0  0  0  0  # atno 17320 bound_to 7965
  145.4309  141.0415  143.2911 LP  0  0  0  0  0  0  0  0  0  0  0  0  # atno 17321 bound_to 7965
  140.1608  144.5027  150.6633 LP  0  0  0  0  0  0  0  0  0  0  0  0  # atno 17342 bound_to 10162
  140.6770  143.2309  151.5481 LP  0  0  0  0  0  0  0  0  0  0  0  0  # atno 17343 bound_to 10162
  156.2463  130.3696  149.8282 LP  0  0  0  0  0  0  0  0  0  0  0  0  # atno 17370 bound_to 10713
  156.6067  130.8569  151.3445 LP  0  0  0  0  0  0  0  0  0  0  0  0  # atno 17371 bound_to 10713
  139.9748  134.7233  155.9971 LP  0  0  0  0  0  0  0  0  0  0  0  0  # atno 17394 bound_to 11000
  141.1466  133.6555  156.3886 LP  0  0  0  0  0  0  0  0  0  0  0  0  # atno 17395 bound_to 11000

$$$$
