#       Name:                AV-unprocessed.smi:422
#       Creating user name   scv26
#       Creation time:       Thu Mar 26 22:49:49 2020


#       File generated by GOLD software.
#

@<TRIPOS>MOLECULE
AV-unprocessed.smi:422
    49    51     1
SMALL
NO_CHARGES


@<TRIPOS>ATOM
      1 ****        -5.5994  -0.2789  -0.1681 C.3            1 S1                 0.0000
      2 ****        -4.2175  -0.1170   0.2676 N.am           1 S1                 0.0000
      3 ****        -3.1047  -0.2961  -0.4818 C.2            1 S1                 0.0000
      4 ****        -3.0748  -0.6319  -1.6657 O.2            1 S1                 0.0000
      5 ****        -2.0279  -0.0599   0.3039 N.am           1 S1                 0.0000
      6 ****        -0.6248  -0.1554  -0.0926 C.3            1 S1                 0.0000
      7 ****        -0.0528  -1.5620   0.1776 C.3            1 S1                 0.0000
      8 ****        -0.3383  -2.4252  -0.9046 O.3            1 S1                 0.0000
      9 ****         1.4707  -1.5643   0.3887 C.3            1 S1                 0.0000
     10 ****         2.1017  -0.7541  -0.5909 O.3            1 S1                 0.0000
     11 ****         3.5106  -0.7125  -0.4482 C.3            1 S1                 0.0000
     12 ****         4.1402   0.1866  -1.4934 C.ar           1 S1                 0.0000
     13 ****         4.6604  -0.3699  -2.6809 C.ar           1 S1                 0.0000
     14 ****         5.2426   0.4618  -3.6573 C.ar           1 S1                 0.0000
     15 ****         5.3052   1.8534  -3.4509 C.ar           1 S1                 0.0000
     16 ****         4.7845   2.4128  -2.2680 C.ar           1 S1                 0.0000
     17 ****         4.2016   1.5826  -1.2905 C.ar           1 S1                 0.0000
     18 ****         3.7010   2.1322  -0.1579 F              1 S1                 0.0000
     19 ****        -2.4643   0.2539   1.5992 C.ar           1 S1                 0.0000
     20 ****        -1.7477   0.5524   2.7714 C.ar           1 S1                 0.0000
     21 ****        -2.5010   0.8236   3.9377 C.ar           1 S1                 0.0000
     22 ****        -3.9197   0.7892   3.9117 C.ar           1 S1                 0.0000
     23 ****        -4.6156   0.4821   2.7189 C.ar           1 S1                 0.0000
     24 ****        -3.8427   0.2188   1.5750 C.ar           1 S1                 0.0000
     25 ****        -5.6885  -0.2396  -1.2544 H              1 S1                 0.0000
     26 ****        -6.2272   0.5115   0.2438 H              1 S1                 0.0000
     27 ****        -5.9895  -1.2387   0.1715 H              1 S1                 0.0000
     28 ****        -0.4942   0.1282  -1.1386 H              1 S1                 0.0000
     29 ****        -0.0671   0.5853   0.4816 H              1 S1                 0.0000
     30 ****        -0.5150  -1.9893   1.0687 H              1 S1                 0.0000
     31 ****        -1.2715  -2.4215  -1.0550 H              1 S1                 0.0000
     32 ****         1.6928  -1.1552   1.3756 H              1 S1                 0.0000
     33 ****         1.8640  -2.5823   0.3686 H              1 S1                 0.0000
     34 ****         3.7783  -0.3486   0.5453 H              1 S1                 0.0000
     35 ****         3.9229  -1.7189  -0.5391 H              1 S1                 0.0000
     36 ****         4.6125  -1.4362  -2.8473 H              1 S1                 0.0000
     37 ****         5.6400   0.0320  -4.5650 H              1 S1                 0.0000
     38 ****         5.7512   2.4915  -4.1994 H              1 S1                 0.0000
     39 ****         4.8314   3.4803  -2.1104 H              1 S1                 0.0000
     40 ****        -0.6679   0.5730   2.7868 H              1 S1                 0.0000
     41 ****        -1.9897   1.0581   4.8598 H              1 S1                 0.0000
     42 ****        -4.4754   0.9979   4.8139 H              1 S1                 0.0000
     43 ****        -5.6948   0.4503   2.6931 H              1 S1                 0.0000
     44 ****        -3.9280  -0.7985  -2.1599 LP             1 S1                 0.0000
     45 ****        -2.1973  -0.7381  -2.1333 LP             1 S1                 0.0000
     46 ****        -0.0361  -3.3527  -0.6846 LP             1 S1                 0.0000
     47 ****         0.1364  -2.1058  -1.7247 LP             1 S1                 0.0000
     48 ****         1.7455   0.1770  -0.5125 LP             1 S1                 0.0000
     49 ****         1.8834  -1.1194  -1.4958 LP             1 S1                 0.0000
@<TRIPOS>BOND
    1    1    2 1     
    2    1   25 1     
    3    1   26 1     
    4    1   27 1     
    5    2   24 1     
    6    2    3 am    
    7    3    4 2     
    8    3    5 am    
    9    5    6 1     
   10    5   19 1     
   11    6    7 1     
   12    6   28 1     
   13    6   29 1     
   14    7    8 1     
   15    7    9 1     
   16    7   30 1     
   17    8   31 1     
   18    9   10 1     
   19    9   32 1     
   20    9   33 1     
   21   10   11 1     
   22   11   12 1     
   23   11   34 1     
   24   11   35 1     
   25   12   17 ar    
   26   12   13 ar    
   27   13   14 ar    
   28   13   36 1     
   29   14   15 ar    
   30   14   37 1     
   31   15   16 ar    
   32   15   38 1     
   33   16   17 ar    
   34   16   39 1     
   35   17   18 1     
   36   19   24 ar    
   37   19   20 ar    
   38   20   21 ar    
   39   20   40 1     
   40   21   22 ar    
   41   21   41 1     
   42   22   23 ar    
   43   22   42 1     
   44   23   24 ar    
   45   23   43 1     
   46    4   44 1     
   47    4   45 1     
   48    8   46 1     
   49    8   47 1     
   50   10   48 1     
   51   10   49 1     
@<TRIPOS>SUBSTRUCTURE
      1 S1             1
@<TRIPOS>SET
LONE_PAIRS      STATIC     ATOMS    <user>   **** ""
6 44 45 46 47 48 49
DONOR_HYDROGENS      STATIC     ATOMS    <user>   **** ""
1 31
ATOM$BLUE        STATIC     ATOMS    COLORGROUP SYSTEM
6 44 45 46 47 48 49
ATOM$RED        STATIC     ATOMS    COLORGROUP SYSTEM
1 31
