AV-unprocessed.smi:2083|AV-procd|sdf|8493|dock1
  -GOLD-   2272011203D 1   1.00000     0.00000
 Structure written by MMmdl.
 45 46  0  0  0  0  0  0  0  0  2 V2000
  151.3527  142.6493  157.2166 C   0  0  0  0  0  0  0  0  0  0  0  0
  151.1757  141.6883  156.0915 C   0  0  0  0  0  0  0  0  0  0  0  0
  150.2686  141.6049  155.0725 C   0  0  0  0  0  0  0  0  0  0  0  0
  150.6851  140.4444  154.3679 C   0  0  0  0  0  0  0  0  0  0  0  0
  149.9822  139.9977  153.2195 N   0  0  0  0  0  0  0  0  0  0  0  0
  148.6597  139.7900  153.1003 C   0  0  0  0  0  0  0  0  0  0  0  0
  147.8360  139.9155  154.0068 O   0  0  0  0  0  0  0  0  0  0  0  0
  148.3312  139.4228  151.8531 N   0  0  0  0  0  0  0  0  0  0  0  0
  146.9752  139.1278  151.3989 C   0  0  0  0  0  0  0  0  0  0  0  0
  146.1777  138.2624  152.4044 C   0  0  1  0  0  0  0  0  0  0  0  0
  144.7139  138.7271  152.5656 C   0  0  0  0  0  0  0  0  0  0  0  0
  146.2964  136.8135  152.0653 N   0  3  2  0  0  0  0  0  0  0  0  0
  145.8665  136.4451  150.6883 C   0  0  0  0  0  0  0  0  0  0  0  0
  146.2612  134.9964  150.3627 C   0  0  0  0  0  0  0  0  0  0  0  0
  145.6779  134.0235  151.3978 C   0  0  0  0  0  0  0  0  0  0  0  0
  146.0590  134.4363  152.8321 C   0  0  1  0  0  0  0  0  0  0  0  0
  147.5292  134.1300  153.1673 C   0  0  0  0  0  0  0  0  0  0  0  0
  145.6967  135.9144  153.0890 C   0  0  0  0  0  0  0  0  0  0  0  0
  151.7493  139.8705  154.9078 N   0  0  0  0  0  0  0  0  0  0  0  0
  152.0690  140.6647  156.0154 O   0  0  0  0  0  0  0  0  0  0  0  0
  150.6666  143.4910  157.1219 H   0  0  0  0  0  0  0  0  0  0  0  0
  152.3692  143.0423  157.2333 H   0  0  0  0  0  0  0  0  0  0  0  0
  151.1616  142.1626  158.1731 H   0  0  0  0  0  0  0  0  0  0  0  0
  149.4416  142.2689  154.8685 H   0  0  0  0  0  0  0  0  0  0  0  0
  150.5455  139.8345  152.3982 H   0  0  0  0  0  0  0  0  0  0  0  0
  149.0702  139.3384  151.1701 H   0  0  0  0  0  0  0  0  0  0  0  0
  146.4792  140.0839  151.2359 H   0  0  0  0  0  0  0  0  0  0  0  0
  147.0187  138.6351  150.4260 H   0  0  0  0  0  0  0  0  0  0  0  0
  146.6612  138.3942  153.3732 H   0  0  0  0  0  0  0  0  0  0  0  0
  144.6653  139.7428  152.9586 H   0  0  0  0  0  0  0  0  0  0  0  0
  144.1646  138.0940  153.2621 H   0  0  0  0  0  0  0  0  0  0  0  0
  144.1800  138.7243  151.6151 H   0  0  0  0  0  0  0  0  0  0  0  0
  144.7858  136.5567  150.5917 H   0  0  0  0  0  0  0  0  0  0  0  0
  146.3203  137.1090  149.9537 H   0  0  0  0  0  0  0  0  0  0  0  0
  145.9068  134.7307  149.3662 H   0  0  0  0  0  0  0  0  0  0  0  0
  147.3476  134.9065  150.3340 H   0  0  0  0  0  0  0  0  0  0  0  0
  144.5911  134.0146  151.3040 H   0  0  0  0  0  0  0  0  0  0  0  0
  146.0094  133.0054  151.1903 H   0  0  0  0  0  0  0  0  0  0  0  0
  145.4589  133.8313  153.5132 H   0  0  0  0  0  0  0  0  0  0  0  0
  148.2178  134.7087  152.5516 H   0  0  0  0  0  0  0  0  0  0  0  0
  147.7536  133.0742  153.0125 H   0  0  0  0  0  0  0  0  0  0  0  0
  147.7482  134.3602  154.2104 H   0  0  0  0  0  0  0  0  0  0  0  0
  146.0328  136.1998  154.0867 H   0  0  0  0  0  0  0  0  0  0  0  0
  144.6123  136.0319  153.0812 H   0  0  0  0  0  0  0  0  0  0  0  0
  147.2873  136.6213  152.1043 H   0  0  0  0  0  0  0  0  0  0  0  0
  1  2  1  0  0  0  0
  1 21  1  0  0  0  0
  1 22  1  0  0  0  0
  1 23  1  0  0  0  0
  2 20  1  0  0  0  0
  2  3  2  0  0  0  0
  3  4  1  0  0  0  0
  3 24  1  0  0  0  0
  4  5  1  0  0  0  0
  4 19  2  0  0  0  0
  5  6  1  0  0  0  0
  5 25  1  0  0  0  0
  6  7  2  0  0  0  0
  6  8  1  0  0  0  0
  8  9  1  0  0  0  0
  8 26  1  0  0  0  0
  9 10  1  0  0  0  0
  9 27  1  0  0  0  0
  9 28  1  0  0  0  0
 10 11  1  0  0  0  0
 10 12  1  0  0  0  0
 10 29  1  0  0  0  0
 11 30  1  0  0  0  0
 11 31  1  0  0  0  0
 11 32  1  0  0  0  0
 12 18  1  0  0  0  0
 12 13  1  0  0  0  0
 12 45  1  0  0  0  0
 13 14  1  0  0  0  0
 13 33  1  0  0  0  0
 13 34  1  0  0  0  0
 14 15  1  0  0  0  0
 14 35  1  0  0  0  0
 14 36  1  0  0  0  0
 15 16  1  0  0  0  0
 15 37  1  0  0  0  0
 15 38  1  0  0  0  0
 16 17  1  0  0  0  0
 16 18  1  0  0  0  0
 16 39  1  0  0  0  0
 17 40  1  0  0  0  0
 17 41  1  0  0  0  0
 17 42  1  0  0  0  0
 18 43  1  0  0  0  0
 18 44  1  0  0  0  0
 19 20  1  0  0  0  0
M  CHG  1  12   1
M  END
> <s_m_source_file>
AV-unprocessed.smi

> <i_m_source_file_index>
2083

> <i_lp_mmshare_version>
43012

> <i_f3d_flags>
0

> <s_epik_input>
W0NIM11jMVtjSF1jKG5vMSlbTkhdQyg9TylbTkhdW0NIMl1bQ0BIXShbQ0gzXSlOMltDSDJdW0NIMl1bQ0gyXVtDQEBIXShbQ0gzXSlbQ0gyXTI=

> <s_epik_cmdline>
J2VwaWtfcHl0aG9uJywgJy1waCcsICc3LjAnLCAnLXRuJywgJzgnLCAnLW1hJywgJzIwMCcsICctbWV0YWxfYmluZGluZycsICctaW1hZScsICc8aW5maWxlLm1hZT4nLCAnLW9tYWUnLCAnPG91dGZpbGUubWFlPic=

> <r_epik_Ionization_Penalty>
0.00216453

> <r_epik_Ionization_Penalty_Charging>
0.00212879

> <r_epik_Ionization_Penalty_Neutral>
3.57418e-05

> <r_epik_State_Penalty>
0.00146033

> <r_epik_Charging_Adjusted_Penalty>
0.00358912

> <i_epik_Tot_Q>
1

> <i_epik_Tot_abs_Q>
1

> <r_epik_Metal_State_Penalty>
0.0215827

> <b_epik_Metal_Only>
0

> <s_lp_Force_Field>
OPLS_2005

> <r_lp_Energy>
19.7178

> <b_lp_Chiralities_Consistent>
1

> <s_lp_Variant>
AV-unprocessed.smi:2083-4

> <Gold.Version>
5.8.1

> <Gold.Id.Protein>
6NUR|6NUR_protein|mol2

> <Gold.PLP.Fitness>
44.8172

> <Gold.PLP.PLP>
-32.3017

> <Gold.PLP.part.hbond>
-6.0000

> <Gold.PLP.part.metal>
0.0000

> <Gold.PLP.part.buried>
-1.7495

> <Gold.PLP.part.nonpolar>
-23.0910

> <Gold.PLP.part.repulsive>
0.3259

> <Gold.PLP.ligand.clash>
0.0000

> <Gold.PLP.ligand.torsion>
1.1243

> <Gold.PLP.Chemscore.Hbond>
4.8720

> <Gold.PLP.Chemscore.CHOScore>
0.0000

> <Gold.PLP.Chemscore.Metal>
0.0000

> <Gold.Chemscore.Hbonds>
donor molecule, donor type, donor heavy atom, donor atom, acceptor molecule, acceptor atom, score
      L1  H     5    25       P1  7957  0.18
      L1  H    12    45       P1  7948  2.00
      P1  H  7997  8009       L1    20  0.23

> <Gold.PLP.Chemscore.Internal.Correction>
0.1480

> <Gold.Rescore>
     Score         DG    S(hbond)    S(metal)    S(lipo)     H(rot)  DE(clash)    DE(int)     intcor
     15.53     -17.81       2.58        0.00      65.71       1.55       1.11       1.17       ----

> <Gold.Chemscore.Fitness>
15.5282

> <Gold.Chemscore.DG>
-17.8098

> <Gold.Chemscore.ZeroCoef>
-5.4800

> <Gold.Chemscore.Hbond>
2.5756

> <Gold.Chemscore.Metal>
0.0000

> <Gold.Chemscore.Lipo>
65.7131

> <Gold.Chemscore.Internal_Hbond>
0.0000

> <Gold.Chemscore.DEClash>
1.1150

> <Gold.Chemscore.DEInternal>
1.1666

> <Gold.Chemscore.Rot>
1.5474

> <Gold.Chemscore.Internal.Correction>
   9.000000E+99

> <Gold.Chemscore.Hbonds>
donor molecule, donor type, donor heavy atom, donor atom, acceptor molecule, acceptor atom, score
      L1  H     5    25       P1  7957  0.11
      L1  H    12    45       P1  7948  1.00
      P1  H  7997  8009       L1    20  0.06

> <Gold.Chemscore.Hbond.Weighted>
-8.6026

> <Gold.Chemscore.Metal.Weighted>
-0.0000

> <Gold.Chemscore.Lipo.Weighted>
-7.6884

> <Gold.Chemscore.Internal_Hbond.Weighted>
0.0000

> <Gold.Chemscore.DEClash.Weighted>
1.1150

> <Gold.Chemscore.DEInternal.Weighted>
1.1666

> <Gold.Chemscore.Rot.Weighted>
3.9612

> <Gold.Chemscore.Internal.Correction.Weighted>
   9.000000E+99

> <Gold.Protein.RotatedTorsions>
[ 6907 6896 6895 6894 ] final  129.50 input  -60.11 | X-H torsion
[ 7974 7965 7964 7962 ] final   21.93 input  175.53 | X-H torsion
[ 8008 7997 7996 7995 ] final -155.99 input   59.86 | X-H torsion
[ 10167 10162 10161 10158 ] final  175.52 input  -65.29 | X-H torsion
[ 10718 10713 10712 10709 ] final -168.72 input   66.30 | X-H torsion
[ 10763 10752 10751 10750 ] final  -41.51 input  -60.55 | X-H torsion
[ 11005 11000 10999 10996 ] final  137.60 input  -57.11 | X-H torsion

> <Gold.Protein.ActiveResidues>
 VAL166  LYS551  ARG553  GLY616  TRP617  ASP618  TYR619  PRO620  LYS621  CYS622 
 ASP623  PHE694  ASN695  SER759  ASP760  ASP761  ALA762  ILE779  LEU786  VAL792 
 PHE793  MET794  SER795  GLU796  ALA797  LYS798  CYS799  TRP800  GLU811  SER814 

> <Gold.Protein.RotatedAtoms>
  152.3618  133.6306  159.6020 H   0  0  0  0  0  0  0  0  0  0  0  0  # atno 6907 bound_to 6896
  150.7606  133.9412  159.3465 H   0  0  0  0  0  0  0  0  0  0  0  0  # atno 6908 bound_to 6896
  151.7248  135.0888  160.0341 H   0  0  0  0  0  0  0  0  0  0  0  0  # atno 6909 bound_to 6896
  146.2051  139.7958  142.8732 H   0  0  0  0  0  0  0  0  0  0  0  0  # atno 7974 bound_to 7965
  155.7103  140.0777  157.2374 H   0  0  0  0  0  0  0  0  0  0  0  0  # atno 8008 bound_to 7997
  154.4059  140.1631  156.2343 H   0  0  0  0  0  0  0  0  0  0  0  0  # atno 8009 bound_to 7997
  155.9288  140.3392  155.6235 H   0  0  0  0  0  0  0  0  0  0  0  0  # atno 8010 bound_to 7997
  139.5180  144.3022  152.0368 H   0  0  0  0  0  0  0  0  0  0  0  0  # atno 10167 bound_to 10162
  156.7011  130.9197  151.3080 H   0  0  0  0  0  0  0  0  0  0  0  0  # atno 10718 bound_to 10713
  153.9637  135.6736  153.4745 H   0  0  0  0  0  0  0  0  0  0  0  0  # atno 10763 bound_to 10752
  153.0826  135.4915  154.8530 H   0  0  0  0  0  0  0  0  0  0  0  0  # atno 10764 bound_to 10752
  154.7258  135.3127  154.8933 H   0  0  0  0  0  0  0  0  0  0  0  0  # atno 10765 bound_to 10752
  140.0125  134.9432  157.0308 H   0  0  0  0  0  0  0  0  0  0  0  0  # atno 11005 bound_to 11000
  145.3349  141.0275  143.3425 LP  0  0  0  0  0  0  0  0  0  0  0  0  # atno 17320 bound_to 7965
  144.8772  139.4954  143.6740 LP  0  0  0  0  0  0  0  0  0  0  0  0  # atno 17321 bound_to 7965
  140.2469  144.4210  150.6237 LP  0  0  0  0  0  0  0  0  0  0  0  0  # atno 17342 bound_to 10162
  140.6251  143.2180  151.6612 LP  0  0  0  0  0  0  0  0  0  0  0  0  # atno 17343 bound_to 10162
  157.6972  130.9295  150.0680 LP  0  0  0  0  0  0  0  0  0  0  0  0  # atno 17370 bound_to 10713
  156.1728  130.3647  149.9142 LP  0  0  0  0  0  0  0  0  0  0  0  0  # atno 17371 bound_to 10713
  140.4528  134.1564  155.7183 LP  0  0  0  0  0  0  0  0  0  0  0  0  # atno 17394 bound_to 11000
  141.1721  133.8588  157.1538 LP  0  0  0  0  0  0  0  0  0  0  0  0  # atno 17395 bound_to 11000

$$$$
