#       Name:                AV-unprocessed.smi:2448
#       Creating user name   scv26
#       Creation time:       Fri Mar 27 13:29:28 2020


#       File generated by GOLD software.
#

@<TRIPOS>MOLECULE
AV-unprocessed.smi:2448
    41    42     1
SMALL
NO_CHARGES


@<TRIPOS>ATOM
      1 ****        -2.1722  -0.2256   0.2666 O.3            1 S1                 0.0000
      2 ****        -1.7199   0.5827  -0.8065 C.3            1 S1                 0.0000
      3 ****        -0.1790   0.5829  -0.7883 C.3            1 S1                 0.0000
      4 ****         0.3744  -0.7689  -1.0282 N.4            1 S1                 1.0000
      5 ****         1.8442  -0.8842  -0.8777 C.3            1 S1                 0.0000
      6 ****         2.2110  -1.5388   0.4733 C.3            1 S1                 0.0000
      7 ****         1.7228  -0.7554   1.6784 C.ar           1 S1                 0.0000
      8 ****         2.3898   0.4152   2.0943 C.ar           1 S1                 0.0000
      9 ****         1.8806   1.1201   3.2037 C.ar           1 S1                 0.0000
     10 ****         0.7830   0.7318   3.8878 N.ar           1 S1                 0.0000
     11 ****         0.1530  -0.3936   3.4882 C.ar           1 S1                 0.0000
     12 ****         0.5793  -1.1702   2.3924 C.ar           1 S1                 0.0000
     13 ****         2.4284  -1.6697  -2.0676 C.3            1 S1                 0.0000
     14 ****         2.1095  -1.0572  -3.2080 F              1 S1                 0.0000
     15 ****         3.7570  -1.7230  -1.9773 F              1 S1                 0.0000
     16 ****         1.9433  -2.9114  -2.0960 F              1 S1                 0.0000
     17 ****        -2.3007   1.9930  -0.6108 C.3            1 S1                 0.0000
     18 ****        -3.7914   1.9388  -0.9602 C.3            1 S1                 0.0000
     19 ****        -3.9950   0.7335  -2.2953 S.3            1 S1                 0.0000
     20 ****        -2.3168   0.0690  -2.1291 C.3            1 S1                 0.0000
     21 ****        -1.9370   0.1919   1.0816 H              1 S1                 0.0000
     22 ****         0.2064   1.2552  -1.5562 H              1 S1                 0.0000
     23 ****         0.1749   0.9672   0.1684 H              1 S1                 0.0000
     24 ****        -0.0665  -1.4214  -0.3954 H              1 S1                 0.0000
     25 ****         2.2805   0.1160  -0.9096 H              1 S1                 0.0000
     26 ****         1.8117  -2.5528   0.5202 H              1 S1                 0.0000
     27 ****         3.2939  -1.6388   0.5554 H              1 S1                 0.0000
     28 ****         3.2685   0.7707   1.5761 H              1 S1                 0.0000
     29 ****         2.3647   2.0222   3.5469 H              1 S1                 0.0000
     30 ****        -0.7205  -0.6811   4.0543 H              1 S1                 0.0000
     31 ****         0.0350  -2.0594   2.1091 H              1 S1                 0.0000
     32 ****        -2.1359   2.3762   0.3971 H              1 S1                 0.0000
     33 ****        -1.8080   2.6851  -1.2952 H              1 S1                 0.0000
     34 ****        -4.3666   1.5935  -0.1006 H              1 S1                 0.0000
     35 ****        -4.1820   2.9144  -1.2500 H              1 S1                 0.0000
     36 ****        -1.7365   0.4457  -2.9720 H              1 S1                 0.0000
     37 ****        -2.3194  -1.0196  -2.1970 H              1 S1                 0.0000
     38 ****         0.1344  -1.0323  -1.9735 H              1 S1                 0.0000
     39 ****        -1.7415  -1.1266   0.2137 LP             1 S1                 0.0000
     40 ****        -3.1656  -0.3275   0.2154 LP             1 S1                 0.0000
     41 ****         0.4471   1.2615   4.6666 LP             1 S1                 0.0000
@<TRIPOS>BOND
    1    1    2 1     
    2    1   21 1     
    3    2   20 1     
    4    2    3 1     
    5    2   17 1     
    6    3    4 1     
    7    3   22 1     
    8    3   23 1     
    9    4    5 1     
   10    4   24 1     
   11    4   38 1     
   12    5    6 1     
   13    5   13 1     
   14    5   25 1     
   15    6    7 1     
   16    6   26 1     
   17    6   27 1     
   18    7   12 ar    
   19    7    8 ar    
   20    8    9 ar    
   21    8   28 1     
   22    9   10 ar    
   23    9   29 1     
   24   10   11 ar    
   25   11   12 ar    
   26   11   30 1     
   27   12   31 1     
   28   13   14 1     
   29   13   15 1     
   30   13   16 1     
   31   17   18 1     
   32   17   32 1     
   33   17   33 1     
   34   18   19 1     
   35   18   34 1     
   36   18   35 1     
   37   19   20 1     
   38   20   36 1     
   39   20   37 1     
   40    1   39 1     
   41    1   40 1     
   42   10   41 1     
@<TRIPOS>SUBSTRUCTURE
      1 S1             1
@<TRIPOS>SET
LONE_PAIRS      STATIC     ATOMS    <user>   **** ""
3 39 40 41
DONOR_HYDROGENS      STATIC     ATOMS    <user>   **** ""
3 21 24 38
ATOM$BLUE        STATIC     ATOMS    COLORGROUP SYSTEM
3 39 40 41
ATOM$RED        STATIC     ATOMS    COLORGROUP SYSTEM
3 21 24 38
