AV-unprocessed.smi:306|AV-procd|sdf|2283|dock7
  -GOLD-   2262022183D 1   1.00000     0.00000
 Structure written by MMmdl.
 46 48  0  0  0  0  0  0  0  0  2 V2000
  148.9895  126.8534  150.7414 C   0  0  0  0  0  0  0  0  0  0  0  0
  147.8179  126.9468  151.7257 C   0  0  0  0  0  0  0  0  0  0  0  0
  147.6643  128.3321  152.2862 C   0  0  0  0  0  0  0  0  0  0  0  0
  146.6019  129.2545  152.0729 C   0  0  0  0  0  0  0  0  0  0  0  0
  146.9605  130.3567  152.7970 C   0  0  0  0  0  0  0  0  0  0  0  0
  146.2518  131.6621  152.9784 C   0  0  0  0  0  0  0  0  0  0  0  0
  145.9441  132.3738  151.6562 C   0  0  0  0  0  0  0  0  0  0  0  0
  148.1766  130.0656  153.3888 N   0  0  0  0  0  0  0  0  0  0  0  0
  148.9637  130.8837  154.2229 C   0  0  0  0  0  0  0  0  0  0  0  0
  149.0963  132.2003  154.0587 N   0  0  0  0  0  0  0  0  0  0  0  0
  149.9481  132.5469  155.0981 C   0  0  0  0  0  0  0  0  0  0  0  0
  150.2934  131.4596  155.8414 C   0  0  0  0  0  0  0  0  0  0  0  0
  151.1819  131.5182  157.0232 C   0  0  0  0  0  0  0  0  0  0  0  0
  151.4517  130.5071  157.6679 O   0  0  0  0  0  0  0  0  0  0  0  0
  151.6279  132.7906  157.2708 N   0  5  0  0  0  0  0  0  0  0  0  0
  151.3101  133.9172  156.5429 C   0  0  0  0  0  0  0  0  0  0  0  0
  151.7602  135.0265  156.8327 O   0  0  0  0  0  0  0  0  0  0  0  0
  150.4725  133.8168  155.4629 N   0  0  0  0  0  0  0  0  0  0  0  0
  150.1164  134.9984  154.6719 C   0  0  0  0  0  0  0  0  0  0  0  0
  149.6496  130.3590  155.2680 N   0  0  0  0  0  0  0  0  0  0  0  0
  149.6808  128.9590  155.6838 C   0  0  0  0  0  0  0  0  0  0  0  0
  151.0679  128.3276  155.4947 C   0  0  0  0  0  0  0  0  0  0  0  0
  152.0351  129.3357  155.2531 O   0  0  0  0  0  0  0  0  0  0  0  0
  153.3145  128.8045  154.9600 C   0  0  0  0  0  0  0  0  0  0  0  0
  148.6004  128.8222  153.0823 N   0  0  0  0  0  0  0  0  0  0  0  0
  149.0809  125.8436  150.3410 H   0  0  0  0  0  0  0  0  0  0  0  0
  149.9332  127.1061  151.2258 H   0  0  0  0  0  0  0  0  0  0  0  0
  148.8516  127.5342  149.9010 H   0  0  0  0  0  0  0  0  0  0  0  0
  146.8986  126.6480  151.2212 H   0  0  0  0  0  0  0  0  0  0  0  0
  147.9638  126.2304  152.5348 H   0  0  0  0  0  0  0  0  0  0  0  0
  145.7109  129.1265  151.4765 H   0  0  0  0  0  0  0  0  0  0  0  0
  145.3237  131.5052  153.5290 H   0  0  0  0  0  0  0  0  0  0  0  0
  146.8605  132.3172  153.6023 H   0  0  0  0  0  0  0  0  0  0  0  0
  145.4401  133.3237  151.8351 H   0  0  0  0  0  0  0  0  0  0  0  0
  145.2962  131.7698  151.0209 H   0  0  0  0  0  0  0  0  0  0  0  0
  146.8589  132.5809  151.1003 H   0  0  0  0  0  0  0  0  0  0  0  0
  149.6605  135.7611  155.3048 H   0  0  0  0  0  0  0  0  0  0  0  0
  149.4074  134.7743  153.8753 H   0  0  0  0  0  0  0  0  0  0  0  0
  151.0057  135.4270  154.2081 H   0  0  0  0  0  0  0  0  0  0  0  0
  149.3871  128.8912  156.7310 H   0  0  0  0  0  0  0  0  0  0  0  0
  148.9248  128.3971  155.1391 H   0  0  0  0  0  0  0  0  0  0  0  0
  151.3415  127.7586  156.3841 H   0  0  0  0  0  0  0  0  0  0  0  0
  151.0420  127.6274  154.6588 H   0  0  0  0  0  0  0  0  0  0  0  0
  154.0155  129.6192  154.7785 H   0  0  0  0  0  0  0  0  0  0  0  0
  153.2871  128.1781  154.0676 H   0  0  0  0  0  0  0  0  0  0  0  0
  153.6946  128.2123  155.7933 H   0  0  0  0  0  0  0  0  0  0  0  0
  1  2  1  0  0  0  0
  1 26  1  0  0  0  0
  1 27  1  0  0  0  0
  1 28  1  0  0  0  0
  2  3  1  0  0  0  0
  2 29  1  0  0  0  0
  2 30  1  0  0  0  0
  3 25  2  0  0  0  0
  3  4  1  0  0  0  0
  4  5  2  0  0  0  0
  4 31  1  0  0  0  0
  5  6  1  0  0  0  0
  5  8  1  0  0  0  0
  6  7  1  0  0  0  0
  6 32  1  0  0  0  0
  6 33  1  0  0  0  0
  7 34  1  0  0  0  0
  7 35  1  0  0  0  0
  7 36  1  0  0  0  0
  8  9  1  0  0  0  0
  8 25  1  0  0  0  0
  9 20  1  0  0  0  0
  9 10  2  0  0  0  0
 10 11  1  0  0  0  0
 11 18  1  0  0  0  0
 11 12  2  0  0  0  0
 12 13  1  0  0  0  0
 12 20  1  0  0  0  0
 13 14  2  0  0  0  0
 13 15  1  0  0  0  0
 15 16  1  0  0  0  0
 16 17  2  0  0  0  0
 16 18  1  0  0  0  0
 18 19  1  0  0  0  0
 19 37  1  0  0  0  0
 19 38  1  0  0  0  0
 19 39  1  0  0  0  0
 20 21  1  0  0  0  0
 21 22  1  0  0  0  0
 21 40  1  0  0  0  0
 21 41  1  0  0  0  0
 22 23  1  0  0  0  0
 22 42  1  0  0  0  0
 22 43  1  0  0  0  0
 23 24  1  0  0  0  0
 24 44  1  0  0  0  0
 24 45  1  0  0  0  0
 24 46  1  0  0  0  0
M  CHG  1  15  -1
M  END
> <s_m_source_file>
AV-unprocessed.smi

> <i_m_source_file_index>
306

> <i_lp_mmshare_version>
43012

> <i_f3d_flags>
0

> <s_epik_input>
W0NIM11bQ0gyXWMxW2NIXWMoW0NIMl1bQ0gzXSluKG4xKS1jKG4yKW4oW0NIMl1bQ0gyXU9bQ0gzXSljKGMyMyljKD1PKVtuSF1jKD1PKW4zW0NIM10=

> <s_epik_cmdline>
J2VwaWtfcHl0aG9uJywgJy1waCcsICc3LjAnLCAnLXRuJywgJzgnLCAnLW1hJywgJzIwMCcsICctbWV0YWxfYmluZGluZycsICctaW1hZScsICc8aW5maWxlLm1hZT4nLCAnLW9tYWUnLCAnPG91dGZpbGUubWFlPic=

> <r_lp_tautomer_probability>
1

> <r_epik_Ionization_Penalty>
3.98741

> <r_epik_Ionization_Penalty_Charging>
0.0180637

> <r_epik_Ionization_Penalty_Neutral>
3.96934

> <r_epik_State_Penalty>
3.96767

> <r_epik_Charging_Adjusted_Penalty>
3.98573

> <i_epik_Tot_Q>
-1

> <i_epik_Tot_abs_Q>
1

> <r_epik_Metal_State_Penalty>
0.612217

> <b_epik_Metal_Only>
1

> <s_lp_Force_Field>
OPLS_2005

> <r_lp_Energy>
26.8748

> <b_lp_Chiralities_Consistent>
1

> <s_lp_Variant>
AV-unprocessed.smi:306-2

> <Gold.Version>
5.8.1

> <Gold.Id.Protein>
6NUR|6NUR_protein|mol2

> <Gold.PLP.Fitness>
45.9428

> <Gold.PLP.PLP>
-41.7582

> <Gold.PLP.part.hbond>
-1.7676

> <Gold.PLP.part.metal>
0.0000

> <Gold.PLP.part.buried>
-4.2031

> <Gold.PLP.part.nonpolar>
-36.0496

> <Gold.PLP.part.repulsive>
0.3063

> <Gold.PLP.ligand.clash>
0.0000

> <Gold.PLP.ligand.torsion>
0.9908

> <Gold.PLP.Chemscore.Hbond>
1.7620

> <Gold.PLP.Chemscore.CHOScore>
0.0000

> <Gold.PLP.Chemscore.Metal>
0.0000

> <Gold.Chemscore.Hbonds>
donor molecule, donor type, donor heavy atom, donor atom, acceptor molecule, acceptor atom, score
      P1  H  6896  6909       L1    15  1.78
      P1  H 10752 10763       L1    17  0.39

> <Gold.PLP.Chemscore.Internal.Correction>
0.8801

> <Gold.Rescore>
     Score         DG    S(hbond)    S(metal)    S(lipo)     H(rot)  DE(clash)    DE(int)     intcor
      8.24     -12.02       0.85        0.00      71.39       1.81       0.00       3.78       ----

> <Gold.Chemscore.Fitness>
8.2365

> <Gold.Chemscore.DG>
-12.0213

> <Gold.Chemscore.ZeroCoef>
-5.4800

> <Gold.Chemscore.Hbond>
0.8479

> <Gold.Chemscore.Metal>
0.0000

> <Gold.Chemscore.Lipo>
71.3858

> <Gold.Chemscore.Internal_Hbond>
0.0000

> <Gold.Chemscore.DEClash>
0.0000

> <Gold.Chemscore.DEInternal>
3.7848

> <Gold.Chemscore.Rot>
1.8136

> <Gold.Chemscore.Internal.Correction>
   9.000000E+99

> <Gold.Chemscore.Hbonds>
donor molecule, donor type, donor heavy atom, donor atom, acceptor molecule, acceptor atom, score
      P1  H  6896  6909       L1    15  0.43
      P1  H 10752 10763       L1    17  0.13

> <Gold.Chemscore.Hbond.Weighted>
-2.8319

> <Gold.Chemscore.Metal.Weighted>
-0.0000

> <Gold.Chemscore.Lipo.Weighted>
-8.3521

> <Gold.Chemscore.Internal_Hbond.Weighted>
0.0000

> <Gold.Chemscore.DEClash.Weighted>
0.0000

> <Gold.Chemscore.DEInternal.Weighted>
3.7848

> <Gold.Chemscore.Rot.Weighted>
4.6427

> <Gold.Chemscore.Internal.Correction.Weighted>
   9.000000E+99

> <Gold.Protein.RotatedTorsions>
[ 6907 6896 6895 6894 ] final  -56.60 input  -60.11 | X-H torsion
[ 7974 7965 7964 7962 ] final -100.28 input  175.53 | X-H torsion
[ 8008 7997 7996 7995 ] final   -7.79 input   59.86 | X-H torsion
[ 10167 10162 10161 10158 ] final   -9.38 input  -65.29 | X-H torsion
[ 10718 10713 10712 10709 ] final  162.74 input   66.30 | X-H torsion
[ 10763 10752 10751 10750 ] final   91.78 input  -60.55 | X-H torsion
[ 11005 11000 10999 10996 ] final   30.17 input  -57.11 | X-H torsion

> <Gold.Protein.ActiveResidues>
 VAL166  LYS551  ARG553  GLY616  TRP617  ASP618  TYR619  PRO620  LYS621  CYS622 
 ASP623  PHE694  ASN695  SER759  ASP760  ASP761  ALA762  ILE779  LEU786  VAL792 
 PHE793  MET794  SER795  GLU796  ALA797  LYS798  CYS799  TRP800  GLU811  SER814 

> <Gold.Protein.RotatedAtoms>
  150.8154  134.7333  159.6725 H   0  0  0  0  0  0  0  0  0  0  0  0  # atno 6907 bound_to 6896
  152.4273  134.5841  159.9966 H   0  0  0  0  0  0  0  0  0  0  0  0  # atno 6908 bound_to 6896
  151.6039  133.3316  159.3089 H   0  0  0  0  0  0  0  0  0  0  0  0  # atno 6909 bound_to 6896
  145.2966  140.9366  143.2847 H   0  0  0  0  0  0  0  0  0  0  0  0  # atno 7974 bound_to 7965
  154.5804  140.2398  155.8062 H   0  0  0  0  0  0  0  0  0  0  0  0  # atno 8008 bound_to 7997
  156.2175  140.3008  155.9829 H   0  0  0  0  0  0  0  0  0  0  0  0  # atno 8009 bound_to 7997
  155.2552  140.0412  157.2981 H   0  0  0  0  0  0  0  0  0  0  0  0  # atno 8010 bound_to 7997
  140.7085  143.5865  150.8938 H   0  0  0  0  0  0  0  0  0  0  0  0  # atno 10167 bound_to 10162
  157.1183  131.0486  151.2426 H   0  0  0  0  0  0  0  0  0  0  0  0  # atno 10718 bound_to 10713
  153.2120  135.4385  155.0390 H   0  0  0  0  0  0  0  0  0  0  0  0  # atno 10763 bound_to 10752
  154.8205  135.3335  154.7054 H   0  0  0  0  0  0  0  0  0  0  0  0  # atno 10764 bound_to 10752
  153.7492  135.6999  153.5005 H   0  0  0  0  0  0  0  0  0  0  0  0  # atno 10765 bound_to 10752
  140.2972  134.2797  155.7762 H   0  0  0  0  0  0  0  0  0  0  0  0  # atno 11005 bound_to 11000
  144.9128  139.4507  143.6578 LP  0  0  0  0  0  0  0  0  0  0  0  0  # atno 17320 bound_to 7965
  146.3167  139.7946  142.8978 LP  0  0  0  0  0  0  0  0  0  0  0  0  # atno 17321 bound_to 7965
  139.9590  143.6185  152.3007 LP  0  0  0  0  0  0  0  0  0  0  0  0  # atno 17342 bound_to 10162
  139.6731  144.7660  151.1746 LP  0  0  0  0  0  0  0  0  0  0  0  0  # atno 17343 bound_to 10162
  157.4499  130.7592  149.7142 LP  0  0  0  0  0  0  0  0  0  0  0  0  # atno 17370 bound_to 10713
  155.9834  130.4000  150.3364 LP  0  0  0  0  0  0  0  0  0  0  0  0  # atno 17371 bound_to 10713
  141.2135  133.7623  156.9713 LP  0  0  0  0  0  0  0  0  0  0  0  0  # atno 17394 bound_to 11000
  140.1142  134.9458  157.2109 LP  0  0  0  0  0  0  0  0  0  0  0  0  # atno 17395 bound_to 11000

$$$$
