AV-unprocessed.smi:1096|AV-procd|sdf|4750|dock1
  -GOLD-   22720 3283D 1   1.00000     0.00000
 Structure written by MMmdl.
 48 50  0  0  0  0  0  0  0  0  1 V2000
  144.6291  136.5872  152.6223 O   0  0  0  0  0  0  0  0  0  0  0  0
  145.8194  136.4316  152.3473 C   0  0  0  0  0  0  0  0  0  0  0  0
  146.3240  135.4172  151.6226 N   0  0  0  0  0  0  0  0  0  0  0  0
  145.6244  134.3480  151.0011 C   0  0  0  0  0  0  0  0  0  0  0  0
  146.4437  133.3721  150.3894 C   0  0  0  0  0  0  0  0  0  0  0  0
  145.8468  132.2730  149.7418 C   0  0  0  0  0  0  0  0  0  0  0  0
  144.4439  132.1781  149.7215 C   0  0  0  0  0  0  0  0  0  0  0  0
  143.7018  133.1927  150.3539 C   0  0  0  0  0  0  0  0  0  0  0  0
  144.2717  134.2464  150.9753 N   0  0  0  0  0  0  0  0  0  0  0  0
  146.7869  137.2700  152.7481 N   0  0  0  0  0  0  0  0  0  0  0  0
  146.5818  138.4702  153.5541 C   0  0  2  0  0  0  0  0  0  0  0  0
  147.0931  139.7031  152.7897 C   0  0  0  0  0  0  0  0  0  0  0  0
  146.8979  140.9861  153.6160 C   0  0  0  0  0  0  0  0  0  0  0  0
  147.5837  140.9231  155.0004 C   0  0  2  0  0  0  0  0  0  0  0  0
  149.1164  141.1236  154.8972 C   0  0  0  0  0  0  0  0  0  0  0  0
  149.6246  141.2288  153.7804 O   0  0  0  0  0  0  0  0  0  0  0  0
  149.8744  141.1431  156.0239 N   0  0  0  0  0  0  0  0  0  0  0  0
  151.3421  141.1189  155.9801 C   0  0  0  0  0  0  0  0  0  0  0  0
  151.8254  139.6868  156.2675 C   0  0  0  0  0  0  0  0  0  0  0  0
  151.3283  139.1468  157.9345 S   0  0  0  0  0  0  0  0  0  0  0  0
  149.5636  139.5927  157.8915 C   0  0  0  0  0  0  0  0  0  0  0  0
  149.3775  141.0380  157.4016 C   0  0  0  0  0  0  0  0  0  0  0  0
  147.1726  139.6294  155.7499 C   0  0  0  0  0  0  0  0  0  0  0  0
  147.2950  138.3398  154.9128 C   0  0  0  0  0  0  0  0  0  0  0  0
  147.3248  135.4137  151.4931 H   0  0  0  0  0  0  0  0  0  0  0  0
  147.5204  133.4610  150.4137 H   0  0  0  0  0  0  0  0  0  0  0  0
  146.4554  131.5169  149.2683 H   0  0  0  0  0  0  0  0  0  0  0  0
  143.9494  131.3508  149.2342 H   0  0  0  0  0  0  0  0  0  0  0  0
  142.6224  133.1586  150.3601 H   0  0  0  0  0  0  0  0  0  0  0  0
  147.7372  137.0634  152.4776 H   0  0  0  0  0  0  0  0  0  0  0  0
  145.5123  138.6035  153.7291 H   0  0  0  0  0  0  0  0  0  0  0  0
  148.1474  139.5789  152.5385 H   0  0  0  0  0  0  0  0  0  0  0  0
  146.5616  139.7985  151.8421 H   0  0  0  0  0  0  0  0  0  0  0  0
  147.2627  141.8417  153.0463 H   0  0  0  0  0  0  0  0  0  0  0  0
  145.8303  141.1585  153.7569 H   0  0  0  0  0  0  0  0  0  0  0  0
  147.1866  141.7290  155.6155 H   0  0  0  0  0  0  0  0  0  0  0  0
  151.7351  141.4546  155.0196 H   0  0  0  0  0  0  0  0  0  0  0  0
  151.7552  141.8108  156.7155 H   0  0  0  0  0  0  0  0  0  0  0  0
  151.4152  138.9932  155.5325 H   0  0  0  0  0  0  0  0  0  0  0  0
  152.9111  139.6285  156.1900 H   0  0  0  0  0  0  0  0  0  0  0  0
  149.0356  138.8955  157.2398 H   0  0  0  0  0  0  0  0  0  0  0  0
  149.1482  139.4729  158.8920 H   0  0  0  0  0  0  0  0  0  0  0  0
  149.9309  141.7199  158.0490 H   0  0  0  0  0  0  0  0  0  0  0  0
  148.3392  141.3495  157.5042 H   0  0  0  0  0  0  0  0  0  0  0  0
  147.7520  139.5253  156.6684 H   0  0  0  0  0  0  0  0  0  0  0  0
  146.1349  139.7325  156.0697 H   0  0  0  0  0  0  0  0  0  0  0  0
  146.8717  137.5072  155.4760 H   0  0  0  0  0  0  0  0  0  0  0  0
  148.3432  138.0870  154.7560 H   0  0  0  0  0  0  0  0  0  0  0  0
  1  2  2  0  0  0  0
  2  3  1  0  0  0  0
  2 10  1  0  0  0  0
  3  4  1  0  0  0  0
  3 25  1  0  0  0  0
  4  9  1  0  0  0  0
  4  5  2  0  0  0  0
  5  6  1  0  0  0  0
  5 26  1  0  0  0  0
  6  7  2  0  0  0  0
  6 27  1  0  0  0  0
  7  8  1  0  0  0  0
  7 28  1  0  0  0  0
  8  9  2  0  0  0  0
  8 29  1  0  0  0  0
 10 11  1  0  0  0  0
 10 30  1  0  0  0  0
 11 24  1  0  0  0  0
 11 12  1  0  0  0  0
 11 31  1  0  0  0  0
 12 13  1  0  0  0  0
 12 32  1  0  0  0  0
 12 33  1  0  0  0  0
 13 14  1  0  0  0  0
 13 34  1  0  0  0  0
 13 35  1  0  0  0  0
 14 15  1  0  0  0  0
 14 23  1  0  0  0  0
 14 36  1  0  0  0  0
 15 16  2  0  0  0  0
 15 17  1  0  0  0  0
 17 22  1  0  0  0  0
 17 18  1  0  0  0  0
 18 19  1  0  0  0  0
 18 37  1  0  0  0  0
 18 38  1  0  0  0  0
 19 20  1  0  0  0  0
 19 39  1  0  0  0  0
 19 40  1  0  0  0  0
 20 21  1  0  0  0  0
 21 22  1  0  0  0  0
 21 41  1  0  0  0  0
 21 42  1  0  0  0  0
 22 43  1  0  0  0  0
 22 44  1  0  0  0  0
 23 24  1  0  0  0  0
 23 45  1  0  0  0  0
 23 46  1  0  0  0  0
 24 47  1  0  0  0  0
 24 48  1  0  0  0  0
M  END
> <s_m_source_file>
AV-unprocessed.smi

> <i_m_source_file_index>
1096

> <i_lp_mmshare_version>
43012

> <i_f3d_flags>
0

> <s_epik_input>
bjFbY0hdW2NIXVtjSF1bY0hdYzFbTkhdQyg9TylbTkhdW0NAQEhdMltDSDJdW0NIMl1bQ0BIXShbQ0gyXVtDSDJdMilDKD1PKU4zW0NIMl1bQ0gyXVNbQ0gyXVtDSDJdMw==

> <s_epik_cmdline>
J2VwaWtfcHl0aG9uJywgJy1waCcsICc3LjAnLCAnLXRuJywgJzgnLCAnLW1hJywgJzIwMCcsICctbWV0YWxfYmluZGluZycsICctaW1hZScsICc8aW5maWxlLm1hZT4nLCAnLW9tYWUnLCAnPG91dGZpbGUubWFlPic=

> <r_lp_tautomer_probability>
1

> <r_epik_Ionization_Penalty>
5.08504e-05

> <r_epik_Ionization_Penalty_Charging>
0

> <r_epik_Ionization_Penalty_Neutral>
5.08504e-05

> <r_epik_State_Penalty>
-0

> <r_epik_Charging_Adjusted_Penalty>
0

> <i_epik_Tot_Q>
0

> <i_epik_Tot_abs_Q>
0

> <r_epik_Metal_State_Penalty>
-0

> <b_epik_Metal_Only>
0

> <s_lp_Force_Field>
OPLS_2005

> <r_lp_Energy>
29.5517

> <b_lp_Chiralities_Consistent>
1

> <s_lp_Variant>
AV-unprocessed.smi:1096-2

> <Gold.Version>
5.8.1

> <Gold.Id.Protein>
6NUR|6NUR_protein|mol2

> <Gold.PLP.Fitness>
50.0357

> <Gold.PLP.PLP>
-37.7337

> <Gold.PLP.part.hbond>
-4.0000

> <Gold.PLP.part.metal>
0.0000

> <Gold.PLP.part.buried>
-3.6116

> <Gold.PLP.part.nonpolar>
-31.1615

> <Gold.PLP.part.repulsive>
2.0154

> <Gold.PLP.ligand.clash>
0.0000

> <Gold.PLP.ligand.torsion>
0.0505

> <Gold.PLP.Chemscore.Hbond>
3.1044

> <Gold.PLP.Chemscore.CHOScore>
1.0000

> <Gold.PLP.Chemscore.Metal>
0.0000

> <Gold.Chemscore.Hbonds>
donor molecule, donor type, donor heavy atom, donor atom, acceptor molecule, acceptor atom, score
      L1  H     3    25       P1  7948  0.98
      L1  H    10    30       P1  7948  1.00
      P1  H  7989  7998       L1    16  0.27
      P1  H  8011  8017       L1    16  0.86
      L1  C     8    29       P1 10186  1.00

> <Gold.PLP.Chemscore.Internal.Correction>
0.0899

> <Gold.Rescore>
     Score         DG    S(hbond)    S(metal)    S(lipo)     H(rot)  DE(clash)    DE(int)     intcor
     18.52     -21.45       2.86        0.00      82.35       1.26       0.67       2.26       ----

> <Gold.Chemscore.Fitness>
18.5163

> <Gold.Chemscore.DG>
-21.4519

> <Gold.Chemscore.ZeroCoef>
-5.4800

> <Gold.Chemscore.Hbond>
2.8613

> <Gold.Chemscore.Metal>
0.0000

> <Gold.Chemscore.Lipo>
82.3511

> <Gold.Chemscore.Internal_Hbond>
0.0000

> <Gold.Chemscore.DEClash>
0.6719

> <Gold.Chemscore.DEInternal>
2.2637

> <Gold.Chemscore.Rot>
1.2578

> <Gold.Chemscore.Internal.Correction>
   9.000000E+99

> <Gold.Chemscore.Hbonds>
donor molecule, donor type, donor heavy atom, donor atom, acceptor molecule, acceptor atom, score
      L1  H     3    25       P1  7948  0.87
      L1  H    10    30       P1  7948  0.97
      P1  H  7989  7998       L1    16  0.24
      P1  H  8011  8017       L1    16  0.85

> <Gold.Chemscore.Hbond.Weighted>
-9.5568

> <Gold.Chemscore.Metal.Weighted>
-0.0000

> <Gold.Chemscore.Lipo.Weighted>
-9.6351

> <Gold.Chemscore.Internal_Hbond.Weighted>
0.0000

> <Gold.Chemscore.DEClash.Weighted>
0.6719

> <Gold.Chemscore.DEInternal.Weighted>
2.2637

> <Gold.Chemscore.Rot.Weighted>
3.2200

> <Gold.Chemscore.Internal.Correction.Weighted>
   9.000000E+99

> <Gold.Protein.RotatedTorsions>
[ 6907 6896 6895 6894 ] final -124.47 input  -60.11 | X-H torsion
[ 7974 7965 7964 7962 ] final  -24.65 input  175.53 | X-H torsion
[ 8008 7997 7996 7995 ] final  -51.80 input   59.86 | X-H torsion
[ 10167 10162 10161 10158 ] final -115.93 input  -65.29 | X-H torsion
[ 10718 10713 10712 10709 ] final   59.91 input   66.30 | X-H torsion
[ 10763 10752 10751 10750 ] final   27.35 input  -60.55 | X-H torsion
[ 11005 11000 10999 10996 ] final  -29.44 input  -57.11 | X-H torsion

> <Gold.Protein.ActiveResidues>
 VAL166  LYS551  ARG553  GLY616  TRP617  ASP618  TYR619  PRO620  LYS621  CYS622 
 ASP623  PHE694  ASN695  SER759  ASP760  ASP761  ALA762  ILE779  LEU786  VAL792 
 PHE793  MET794  SER795  GLU796  ALA797  LYS798  CYS799  TRP800  GLU811  SER814 

> <Gold.Protein.RotatedAtoms>
  150.8771  133.7424  159.2943 H   0  0  0  0  0  0  0  0  0  0  0  0  # atno 6907 bound_to 6896
  151.5017  135.1060  159.9840 H   0  0  0  0  0  0  0  0  0  0  0  0  # atno 6908 bound_to 6896
  152.4735  133.8038  159.7022 H   0  0  0  0  0  0  0  0  0  0  0  0  # atno 6909 bound_to 6896
  146.1541  140.4780  142.8599 H   0  0  0  0  0  0  0  0  0  0  0  0  # atno 7974 bound_to 7965
  154.4091  140.1239  156.4888 H   0  0  0  0  0  0  0  0  0  0  0  0  # atno 8008 bound_to 7997
  155.7011  140.3494  155.4914 H   0  0  0  0  0  0  0  0  0  0  0  0  # atno 8009 bound_to 7997
  155.9384  140.1082  157.1065 H   0  0  0  0  0  0  0  0  0  0  0  0  # atno 8010 bound_to 7997
  140.0847  143.4755  152.1905 H   0  0  0  0  0  0  0  0  0  0  0  0  # atno 10167 bound_to 10162
  157.5712  130.8909  149.9271 H   0  0  0  0  0  0  0  0  0  0  0  0  # atno 10718 bound_to 10713
  153.0561  135.6539  154.0573 H   0  0  0  0  0  0  0  0  0  0  0  0  # atno 10763 bound_to 10752
  154.0251  135.2916  155.3377 H   0  0  0  0  0  0  0  0  0  0  0  0  # atno 10764 bound_to 10752
  154.6877  135.5295  153.8416 H   0  0  0  0  0  0  0  0  0  0  0  0  # atno 10765 bound_to 10752
  140.9297  133.7346  156.0918 H   0  0  0  0  0  0  0  0  0  0  0  0  # atno 11005 bound_to 11000
  144.7941  140.6089  143.6522 LP  0  0  0  0  0  0  0  0  0  0  0  0  # atno 17320 bound_to 7965
  145.4751  139.1500  143.3793 LP  0  0  0  0  0  0  0  0  0  0  0  0  # atno 17321 bound_to 7965
  139.5759  144.7487  151.3766 LP  0  0  0  0  0  0  0  0  0  0  0  0  # atno 17342 bound_to 10162
  140.7060  143.7514  150.7482 LP  0  0  0  0  0  0  0  0  0  0  0  0  # atno 17343 bound_to 10162
  156.0758  130.3679  150.0681 LP  0  0  0  0  0  0  0  0  0  0  0  0  # atno 17370 bound_to 10713
  156.8833  130.9564  151.3597 LP  0  0  0  0  0  0  0  0  0  0  0  0  # atno 17371 bound_to 10713
  140.7879  134.3651  157.5472 LP  0  0  0  0  0  0  0  0  0  0  0  0  # atno 17394 bound_to 11000
  139.8793  134.9122  156.3055 LP  0  0  0  0  0  0  0  0  0  0  0  0  # atno 17395 bound_to 11000

$$$$
