AV-unprocessed.smi:2130|AV-procd|sdf|8685|dock2
  -GOLD-   2272011433D 1   1.00000     0.00000
 Structure written by MMmdl.
 32 33  0  0  0  0  0  0  0  0  1 V2000
  148.3711  140.2439  154.6425 C   0  0  0  0  0  0  0  0  0  0  0  0
  149.7718  139.6750  154.7889 C   0  0  0  0  0  0  0  0  0  0  0  0
  150.3689  138.8468  153.9254 C   0  0  0  0  0  0  0  0  0  0  0  0
  151.9968  138.4305  154.4030 S   0  0  0  0  0  0  0  0  0  0  0  0
  151.8388  139.4611  155.8702 C   0  0  0  0  0  0  0  0  0  0  0  0
  152.7445  139.5961  156.6915 O   0  0  0  0  0  0  0  0  0  0  0  0
  150.5665  140.0324  155.8873 N   0  0  0  0  0  0  0  0  0  0  0  0
  150.1131  140.9183  156.9679 C   0  0  0  0  0  0  0  0  0  0  0  0
  151.1013  142.0532  157.2664 C   0  0  0  0  0  0  0  0  0  0  0  0
  151.2838  142.9618  156.4548 O   0  0  0  0  0  0  0  0  0  0  0  0
  151.7217  141.9919  158.4549 N   0  0  0  0  0  0  0  0  0  0  0  0
  152.6897  142.9604  158.9604 C   0  0  2  0  0  0  0  0  0  0  0  0
  153.0013  142.6665  160.4371 C   0  0  0  0  0  0  0  0  0  0  0  0
  152.2190  144.3917  158.7829 C   0  0  0  0  0  0  0  0  0  0  0  0
  151.8233  145.2359  159.9706 C   0  0  0  0  0  0  0  0  0  0  0  0
  150.7716  144.7692  158.9890 C   0  0  0  0  0  0  0  0  0  0  0  0
  148.0190  140.1267  153.6174 H   0  0  0  0  0  0  0  0  0  0  0  0
  148.3426  141.3078  154.8776 H   0  0  0  0  0  0  0  0  0  0  0  0
  147.6781  139.7191  155.3004 H   0  0  0  0  0  0  0  0  0  0  0  0
  149.9427  138.4574  153.0125 H   0  0  0  0  0  0  0  0  0  0  0  0
  149.1346  141.3445  156.7492 H   0  0  0  0  0  0  0  0  0  0  0  0
  149.9716  140.3273  157.8746 H   0  0  0  0  0  0  0  0  0  0  0  0
  151.5065  141.2117  159.0588 H   0  0  0  0  0  0  0  0  0  0  0  0
  153.6164  142.8518  158.3930 H   0  0  0  0  0  0  0  0  0  0  0  0
  153.7522  143.3565  160.8231 H   0  0  0  0  0  0  0  0  0  0  0  0
  153.3902  141.6562  160.5685 H   0  0  0  0  0  0  0  0  0  0  0  0
  152.1104  142.7638  161.0584 H   0  0  0  0  0  0  0  0  0  0  0  0
  152.7281  144.9185  157.9773 H   0  0  0  0  0  0  0  0  0  0  0  0
  151.8354  144.7679  160.9529 H   0  0  0  0  0  0  0  0  0  0  0  0
  152.0989  146.2884  159.9517 H   0  0  0  0  0  0  0  0  0  0  0  0
  150.3458  145.5109  158.3164 H   0  0  0  0  0  0  0  0  0  0  0  0
  150.0859  143.9921  159.3208 H   0  0  0  0  0  0  0  0  0  0  0  0
  1  2  1  0  0  0  0
  1 17  1  0  0  0  0
  1 18  1  0  0  0  0
  1 19  1  0  0  0  0
  2  7  1  0  0  0  0
  2  3  2  0  0  0  0
  3  4  1  0  0  0  0
  3 20  1  0  0  0  0
  4  5  1  0  0  0  0
  5  6  2  0  0  0  0
  5  7  1  0  0  0  0
  7  8  1  0  0  0  0
  8  9  1  0  0  0  0
  8 21  1  0  0  0  0
  8 22  1  0  0  0  0
  9 10  2  0  0  0  0
  9 11  1  0  0  0  0
 11 12  1  0  0  0  0
 11 23  1  0  0  0  0
 12 13  1  0  0  0  0
 12 14  1  0  0  0  0
 12 24  1  0  0  0  0
 13 25  1  0  0  0  0
 13 26  1  0  0  0  0
 13 27  1  0  0  0  0
 14 16  1  0  0  0  0
 14 15  1  0  0  0  0
 14 28  1  0  0  0  0
 15 16  1  0  0  0  0
 15 29  1  0  0  0  0
 15 30  1  0  0  0  0
 16 31  1  0  0  0  0
 16 32  1  0  0  0  0
M  END
> <s_m_source_file>
AV-unprocessed.smi

> <i_m_source_file_index>
2130

> <i_lp_mmshare_version>
43012

> <i_f3d_flags>
0

> <s_epik_input>
W0NIM11jMVtjSF1zYyg9TyluMVtDSDJdQyg9TylbTkhdW0NASF0oW0NIM10pW0NIXTJbQ0gyXVtDSDJdMg==

> <s_epik_cmdline>
J2VwaWtfcHl0aG9uJywgJy1waCcsICc3LjAnLCAnLXRuJywgJzgnLCAnLW1hJywgJzIwMCcsICctbWV0YWxfYmluZGluZycsICctaW1hZScsICc8aW5maWxlLm1hZT4nLCAnLW9tYWUnLCAnPG91dGZpbGUubWFlPic=

> <r_lp_tautomer_probability>
1

> <r_epik_Ionization_Penalty>
1.32882e-06

> <r_epik_Ionization_Penalty_Charging>
1.22222e-06

> <r_epik_Ionization_Penalty_Neutral>
1.066e-07

> <r_epik_State_Penalty>
-0

> <r_epik_Charging_Adjusted_Penalty>
1.22222e-06

> <i_epik_Tot_Q>
0

> <i_epik_Tot_abs_Q>
0

> <r_epik_Metal_State_Penalty>
-0

> <b_epik_Metal_Only>
0

> <s_lp_Force_Field>
OPLS_2005

> <r_lp_Energy>
16.6118

> <b_lp_Chiralities_Consistent>
1

> <s_lp_Variant>
AV-unprocessed.smi:2130-1

> <Gold.Version>
5.8.1

> <Gold.Id.Protein>
6NUR|6NUR_protein|mol2

> <Gold.PLP.Fitness>
43.9529

> <Gold.PLP.PLP>
-37.9549

> <Gold.PLP.part.hbond>
-1.0000

> <Gold.PLP.part.metal>
0.0000

> <Gold.PLP.part.buried>
-3.0025

> <Gold.PLP.part.nonpolar>
-34.7285

> <Gold.PLP.part.repulsive>
0.4519

> <Gold.PLP.ligand.clash>
0.0000

> <Gold.PLP.ligand.torsion>
1.1926

> <Gold.PLP.Chemscore.Hbond>
1.0000

> <Gold.PLP.Chemscore.CHOScore>
1.4357

> <Gold.PLP.Chemscore.Metal>
0.0000

> <Gold.Chemscore.Hbonds>
donor molecule, donor type, donor heavy atom, donor atom, acceptor molecule, acceptor atom, score
      P1  H  7997  8010       L1     6  1.00
      L1  C     3    20       P1  7948  0.71
      L1  C     3    20       P1  7957  0.76

> <Gold.PLP.Chemscore.Internal.Correction>
1.0761

> <Gold.Rescore>
     Score         DG    S(hbond)    S(metal)    S(lipo)     H(rot)  DE(clash)    DE(int)     intcor
     13.98     -15.29       1.00        0.00      90.19       1.59       0.21       1.10       ----

> <Gold.Chemscore.Fitness>
13.9826

> <Gold.Chemscore.DG>
-15.2922

> <Gold.Chemscore.ZeroCoef>
-5.4800

> <Gold.Chemscore.Hbond>
0.9991

> <Gold.Chemscore.Metal>
0.0000

> <Gold.Chemscore.Lipo>
90.1906

> <Gold.Chemscore.Internal_Hbond>
0.0000

> <Gold.Chemscore.DEClash>
0.2058

> <Gold.Chemscore.DEInternal>
1.1038

> <Gold.Chemscore.Rot>
1.5926

> <Gold.Chemscore.Internal.Correction>
   9.000000E+99

> <Gold.Chemscore.Hbonds>
donor molecule, donor type, donor heavy atom, donor atom, acceptor molecule, acceptor atom, score
      P1  H  7997  8010       L1     6  1.00

> <Gold.Chemscore.Hbond.Weighted>
-3.3369

> <Gold.Chemscore.Metal.Weighted>
-0.0000

> <Gold.Chemscore.Lipo.Weighted>
-10.5523

> <Gold.Chemscore.Internal_Hbond.Weighted>
0.0000

> <Gold.Chemscore.DEClash.Weighted>
0.2058

> <Gold.Chemscore.DEInternal.Weighted>
1.1038

> <Gold.Chemscore.Rot.Weighted>
4.0771

> <Gold.Chemscore.Internal.Correction.Weighted>
   9.000000E+99

> <Gold.Protein.RotatedTorsions>
[ 6907 6896 6895 6894 ] final  111.17 input  -60.11 | X-H torsion
[ 7974 7965 7964 7962 ] final   65.38 input  175.53 | X-H torsion
[ 8008 7997 7996 7995 ] final   56.72 input   59.86 | X-H torsion
[ 10167 10162 10161 10158 ] final  168.95 input  -65.29 | X-H torsion
[ 10718 10713 10712 10709 ] final  -76.83 input   66.30 | X-H torsion
[ 10763 10752 10751 10750 ] final  106.00 input  -60.55 | X-H torsion
[ 11005 11000 10999 10996 ] final   84.51 input  -57.11 | X-H torsion

> <Gold.Protein.ActiveResidues>
 VAL166  LYS551  ARG553  GLY616  TRP617  ASP618  TYR619  PRO620  LYS621  CYS622 
 ASP623  PHE694  ASN695  SER759  ASP760  ASP761  ALA762  ILE779  LEU786  VAL792 
 PHE793  MET794  SER795  GLU796  ALA797  LYS798  CYS799  TRP800  GLU811  SER814 

> <Gold.Protein.RotatedAtoms>
  152.4983  133.8696  159.7291 H   0  0  0  0  0  0  0  0  0  0  0  0  # atno 6907 bound_to 6896
  150.9186  133.6899  159.2844 H   0  0  0  0  0  0  0  0  0  0  0  0  # atno 6908 bound_to 6896
  151.4284  135.1011  159.9687 H   0  0  0  0  0  0  0  0  0  0  0  0  # atno 6909 bound_to 6896
  145.8391  139.3185  143.0942 H   0  0  0  0  0  0  0  0  0  0  0  0  # atno 7974 bound_to 7965
  155.5220  140.3480  155.4409 H   0  0  0  0  0  0  0  0  0  0  0  0  # atno 8008 bound_to 7997
  156.0777  140.1379  156.9777 H   0  0  0  0  0  0  0  0  0  0  0  0  # atno 8009 bound_to 7997
  154.4562  140.0952  156.6741 H   0  0  0  0  0  0  0  0  0  0  0  0  # atno 8010 bound_to 7997
  139.4980  144.3759  151.9674 H   0  0  0  0  0  0  0  0  0  0  0  0  # atno 10167 bound_to 10162
  156.0163  130.4475  150.3253 H   0  0  0  0  0  0  0  0  0  0  0  0  # atno 10718 bound_to 10713
  153.3870  135.3891  155.1896 H   0  0  0  0  0  0  0  0  0  0  0  0  # atno 10763 bound_to 10752
  154.8715  135.3739  154.4785 H   0  0  0  0  0  0  0  0  0  0  0  0  # atno 10764 bound_to 10752
  153.5268  135.7086  153.5765 H   0  0  0  0  0  0  0  0  0  0  0  0  # atno 10765 bound_to 10752
  139.8998  134.8221  156.2455 H   0  0  0  0  0  0  0  0  0  0  0  0  # atno 11005 bound_to 11000
  145.9485  140.8926  143.0271 LP  0  0  0  0  0  0  0  0  0  0  0  0  # atno 17320 bound_to 7965
  144.6734  140.1647  143.7419 LP  0  0  0  0  0  0  0  0  0  0  0  0  # atno 17321 bound_to 7965
  140.3196  144.3444  150.6013 LP  0  0  0  0  0  0  0  0  0  0  0  0  # atno 17342 bound_to 10162
  140.5734  143.2179  151.7559 LP  0  0  0  0  0  0  0  0  0  0  0  0  # atno 17343 bound_to 10162
  157.1352  131.0282  151.2952 LP  0  0  0  0  0  0  0  0  0  0  0  0  # atno 17370 bound_to 10713
  157.4517  130.7602  149.7157 LP  0  0  0  0  0  0  0  0  0  0  0  0  # atno 17371 bound_to 10713
  141.0257  133.7016  156.1344 LP  0  0  0  0  0  0  0  0  0  0  0  0  # atno 17394 bound_to 11000
  140.7169  134.4401  157.5578 LP  0  0  0  0  0  0  0  0  0  0  0  0  # atno 17395 bound_to 11000

$$$$
