#       Name:                AV-unprocessed.smi:524
#       Creating user name   scv26
#       Creation time:       Thu Mar 26 23:28:13 2020


#       File generated by GOLD software.
#

@<TRIPOS>MOLECULE
AV-unprocessed.smi:524
    50    52     1
SMALL
NO_CHARGES


@<TRIPOS>ATOM
      1 ****        -2.6701   1.0341   2.7279 C.3            1 S1                 0.0000
      2 ****        -1.3147   0.7390   2.4423 O.3            1 S1                 0.0000
      3 ****        -1.1217  -0.6138   2.0625 C.3            1 S1                 0.0000
      4 ****         0.3581  -0.8566   1.7346 C.3            1 S1                 0.0000
      5 ****         0.8300   0.0237   0.6673 N.pl3          1 S1                 0.0000
      6 ****         0.6614  -0.1094  -0.6779 C.2            1 S1                 0.0000
      7 ****        -0.0032  -1.1988  -1.2446 N.pl3          1 S1                 0.0000
      8 ****         0.3647  -2.6083  -1.1015 C.3            1 S1                 0.0000
      9 ****        -0.8416  -3.4724  -0.6913 C.3            1 S1                 0.0000
     10 ****        -1.9743  -3.3335  -1.7177 C.3            1 S1                 0.0000
     11 ****        -2.2885  -1.8498  -1.9558 C.3            1 S1                 0.0000
     12 ****        -1.0074  -1.0689  -2.2997 C.3            1 S1                 0.0000
     13 ****         1.1363   0.9082  -1.4018 N.2            1 S1                 0.0000
     14 ****         1.6731   1.7511  -0.4425 C.2            1 S1                 0.0000
     15 ****         1.4928   1.2465   0.8042 C.2            1 S1                 0.0000
     16 ****         1.9254   1.9681   2.0101 C.2            1 S1                 0.0000
     17 ****         1.7658   1.5451   3.1526 O.2            1 S1                 0.0000
     18 ****         2.5133   3.1579   1.7356 N.am           1 S1                 0.0000
     19 ****         2.7271   3.7182   0.5062 C.2            1 S1                 0.0000
     20 ****         3.2684   4.8204   0.4239 O.2            1 S1                 0.0000
     21 ****         2.3154   3.0109  -0.5954 N.am           1 S1                 0.0000
     22 ****         2.4959   3.5264  -1.9542 C.3            1 S1                 0.0000
     23 ****         2.8244   3.6960   2.5311 H              1 S1                 0.0000
     24 ****        -2.7629   2.0800   3.0201 H              1 S1                 0.0000
     25 ****        -3.0429   0.4204   3.5489 H              1 S1                 0.0000
     26 ****        -3.3012   0.8717   1.8531 H              1 S1                 0.0000
     27 ****        -1.4355  -1.2774   2.8694 H              1 S1                 0.0000
     28 ****        -1.7377  -0.8463   1.1926 H              1 S1                 0.0000
     29 ****         0.9684  -0.7175   2.6241 H              1 S1                 0.0000
     30 ****         0.5131  -1.8951   1.4579 H              1 S1                 0.0000
     31 ****         0.7606  -2.9624  -2.0544 H              1 S1                 0.0000
     32 ****         1.1814  -2.7191  -0.3894 H              1 S1                 0.0000
     33 ****        -0.5422  -4.5173  -0.6054 H              1 S1                 0.0000
     34 ****        -1.1990  -3.1702   0.2935 H              1 S1                 0.0000
     35 ****        -1.6731  -3.7969  -2.6579 H              1 S1                 0.0000
     36 ****        -2.8648  -3.8626  -1.3775 H              1 S1                 0.0000
     37 ****        -3.0174  -1.7466  -2.7600 H              1 S1                 0.0000
     38 ****        -2.7478  -1.4232  -1.0631 H              1 S1                 0.0000
     39 ****        -1.2530  -0.0158  -2.4422 H              1 S1                 0.0000
     40 ****        -0.5885  -1.4204  -3.2436 H              1 S1                 0.0000
     41 ****         3.1759   4.3770  -2.0152 H              1 S1                 0.0000
     42 ****         1.5343   3.8374  -2.3635 H              1 S1                 0.0000
     43 ****         2.9013   2.7486  -2.6025 H              1 S1                 0.0000
     44 ****        -0.7673   0.9242   3.2584 LP             1 S1                 0.0000
     45 ****        -1.0087   1.3287   1.6949 LP             1 S1                 0.0000
     46 ****         1.1105   1.0313  -2.3939 LP             1 S1                 0.0000
     47 ****         1.3193   0.6628   3.3013 LP             1 S1                 0.0000
     48 ****         2.0824   2.0832   3.9338 LP             1 S1                 0.0000
     49 ****         3.5499   5.3025   1.2536 LP             1 S1                 0.0000
     50 ****         3.4268   5.2340  -0.4727 LP             1 S1                 0.0000
@<TRIPOS>BOND
    1    1    2 1     
    2    1   24 1     
    3    1   25 1     
    4    1   26 1     
    5    2    3 1     
    6    3    4 1     
    7    3   27 1     
    8    3   28 1     
    9    4    5 1     
   10    4   29 1     
   11    4   30 1     
   12    5   15 1     
   13    5    6 1     
   14    6    7 1     
   15    6   13 2     
   16    7   12 1     
   17    7    8 1     
   18    8    9 1     
   19    8   31 1     
   20    8   32 1     
   21    9   10 1     
   22    9   33 1     
   23    9   34 1     
   24   10   11 1     
   25   10   35 1     
   26   10   36 1     
   27   11   12 1     
   28   11   37 1     
   29   11   38 1     
   30   12   39 1     
   31   12   40 1     
   32   13   14 1     
   33   14   21 1     
   34   14   15 2     
   35   15   16 1     
   36   16   17 2     
   37   16   18 1     
   38   18   23 1     
   39   18   19 1     
   40   19   20 2     
   41   19   21 1     
   42   21   22 1     
   43   22   41 1     
   44   22   42 1     
   45   22   43 1     
   46    2   44 1     
   47    2   45 1     
   48   13   46 1     
   49   17   47 1     
   50   17   48 1     
   51   20   49 1     
   52   20   50 1     
@<TRIPOS>SUBSTRUCTURE
      1 S1             1
@<TRIPOS>SET
LONE_PAIRS      STATIC     ATOMS    <user>   **** ""
7 44 45 46 47 48 49 50
DONOR_HYDROGENS      STATIC     ATOMS    <user>   **** ""
1 23
ATOM$BLUE        STATIC     ATOMS    COLORGROUP SYSTEM
7 44 45 46 47 48 49 50
ATOM$RED        STATIC     ATOMS    COLORGROUP SYSTEM
1 23
