AV-unprocessed.smi:3152|AV-procd|sdf|12018|dock9
  -GOLD-   2272017433D 1   1.00000     0.00000
 Structure written by MMmdl.
 40 41  0  0  0  0  0  0  0  0  1 V2000
  145.4651  132.1740  150.7384 C   0  0  0  0  0  0  0  0  0  0  0  0
  146.1943  132.5915  151.9831 C   0  0  0  0  0  0  0  0  0  0  0  0
  145.6566  132.7872  153.2871 C   0  0  0  0  0  0  0  0  0  0  0  0
  146.5705  133.1531  154.1712 N   0  0  0  0  0  0  0  0  0  0  0  0
  147.7200  133.2049  153.4655 N   0  0  0  0  0  0  0  0  0  0  0  0
  148.9556  133.5750  154.1276 C   0  0  0  0  0  0  0  0  0  0  0  0
  148.7883  134.8539  154.9588 C   0  0  0  0  0  0  0  0  0  0  0  0
  149.7224  135.8853  154.5225 N   0  0  0  0  0  0  0  0  0  0  0  0
  149.5788  137.1447  155.2506 C   0  0  0  0  0  0  0  0  0  0  0  0
  150.1951  138.3458  154.4905 C   0  0  0  0  0  0  0  0  0  0  0  0
  149.5918  138.3744  153.2103 O   0  0  0  0  0  0  0  0  0  0  0  0
  149.8256  139.6847  155.1723 C   0  0  0  0  0  0  0  0  0  0  0  0
  150.5799  139.9058  156.4967 C   0  0  0  0  0  0  0  0  0  0  0  0
  152.0999  139.7907  156.3033 C   0  0  0  0  0  0  0  0  0  0  0  0
  152.4807  138.4566  155.6426 C   0  0  0  0  0  0  0  0  0  0  0  0
  151.7316  138.2635  154.3130 C   0  0  0  0  0  0  0  0  0  0  0  0
  147.5226  132.8694  152.1431 C   0  0  0  0  0  0  0  0  0  0  0  0
  144.4112  132.4509  150.7746 H   0  0  0  0  0  0  0  0  0  0  0  0
  145.5092  131.0948  150.5913 H   0  0  0  0  0  0  0  0  0  0  0  0
  145.8873  132.6386  149.8472 H   0  0  0  0  0  0  0  0  0  0  0  0
  144.6342  132.6731  153.6156 H   0  0  0  0  0  0  0  0  0  0  0  0
  149.2695  132.7462  154.7635 H   0  0  0  0  0  0  0  0  0  0  0  0
  149.7317  133.7061  153.3718 H   0  0  0  0  0  0  0  0  0  0  0  0
  147.7642  135.2176  154.8640 H   0  0  0  0  0  0  0  0  0  0  0  0
  148.9460  134.6300  156.0145 H   0  0  0  0  0  0  0  0  0  0  0  0
  149.6038  136.0572  153.5289 H   0  0  0  0  0  0  0  0  0  0  0  0
  148.5233  137.3430  155.4420 H   0  0  0  0  0  0  0  0  0  0  0  0
  150.0475  137.0420  156.2289 H   0  0  0  0  0  0  0  0  0  0  0  0
  149.3159  137.4981  152.9893 H   0  0  0  0  0  0  0  0  0  0  0  0
  150.0626  140.5127  154.5017 H   0  0  0  0  0  0  0  0  0  0  0  0
  148.7500  139.7377  155.3468 H   0  0  0  0  0  0  0  0  0  0  0  0
  150.3341  140.8888  156.8992 H   0  0  0  0  0  0  0  0  0  0  0  0
  150.2490  139.1830  157.2425 H   0  0  0  0  0  0  0  0  0  0  0  0
  152.4508  140.6166  155.6830 H   0  0  0  0  0  0  0  0  0  0  0  0
  152.6064  139.8892  157.2638 H   0  0  0  0  0  0  0  0  0  0  0  0
  153.5564  138.4261  155.4676 H   0  0  0  0  0  0  0  0  0  0  0  0
  152.2567  137.6309  156.3188 H   0  0  0  0  0  0  0  0  0  0  0  0
  152.0262  137.3196  153.8537 H   0  0  0  0  0  0  0  0  0  0  0  0
  152.0569  139.0408  153.6197 H   0  0  0  0  0  0  0  0  0  0  0  0
  148.3362  132.8546  151.4327 H   0  0  0  0  0  0  0  0  0  0  0  0
  1  2  1  0  0  0  0
  1 18  1  0  0  0  0
  1 19  1  0  0  0  0
  1 20  1  0  0  0  0
  2 17  2  0  0  0  0
  2  3  1  0  0  0  0
  3  4  2  0  0  0  0
  3 21  1  0  0  0  0
  4  5  1  0  0  0  0
  5  6  1  0  0  0  0
  5 17  1  0  0  0  0
  6  7  1  0  0  0  0
  6 22  1  0  0  0  0
  6 23  1  0  0  0  0
  7  8  1  0  0  0  0
  7 24  1  0  0  0  0
  7 25  1  0  0  0  0
  8  9  1  0  0  0  0
  8 26  1  0  0  0  0
  9 10  1  0  0  0  0
  9 27  1  0  0  0  0
  9 28  1  0  0  0  0
 10 16  1  0  0  0  0
 10 11  1  0  0  0  0
 10 12  1  0  0  0  0
 11 29  1  0  0  0  0
 12 13  1  0  0  0  0
 12 30  1  0  0  0  0
 12 31  1  0  0  0  0
 13 14  1  0  0  0  0
 13 32  1  0  0  0  0
 13 33  1  0  0  0  0
 14 15  1  0  0  0  0
 14 34  1  0  0  0  0
 14 35  1  0  0  0  0
 15 16  1  0  0  0  0
 15 36  1  0  0  0  0
 15 37  1  0  0  0  0
 16 38  1  0  0  0  0
 16 39  1  0  0  0  0
 17 40  1  0  0  0  0
M  END
> <s_m_source_file>
AV-unprocessed.smi

> <i_m_source_file_index>
3152

> <i_lp_mmshare_version>
43012

> <i_f3d_flags>
0

> <s_epik_input>
W0NIM11jMVtjSF1ubihbY0hdMSlbQ0gyXVtDSDJdW05IXVtDSDJdQzIoW09IXSlbQ0gyXVtDSDJdW0NIMl1bQ0gyXVtDSDJdMg==

> <s_epik_cmdline>
J2VwaWtfcHl0aG9uJywgJy1waCcsICc3LjAnLCAnLXRuJywgJzgnLCAnLW1hJywgJzIwMCcsICctbWV0YWxfYmluZGluZycsICctaW1hZScsICc8aW5maWxlLm1hZT4nLCAnLW9tYWUnLCAnPG91dGZpbGUubWFlPic=

> <r_lp_tautomer_probability>
1

> <r_epik_Ionization_Penalty>
1.91403

> <r_epik_Ionization_Penalty_Charging>
0

> <r_epik_Ionization_Penalty_Neutral>
1.91403

> <r_epik_State_Penalty>
2.0334

> <r_epik_Charging_Adjusted_Penalty>
2.0334

> <i_epik_Tot_Q>
0

> <i_epik_Tot_abs_Q>
0

> <r_epik_Metal_State_Penalty>
2.03082

> <b_epik_Metal_Only>
0

> <s_lp_Force_Field>
OPLS_2005

> <r_lp_Energy>
20.9393

> <b_lp_Chiralities_Consistent>
1

> <s_lp_Variant>
AV-unprocessed.smi:3152-2

> <Gold.Version>
5.8.1

> <Gold.Id.Protein>
6NUR|6NUR_protein|mol2

> <Gold.PLP.Fitness>
40.6415

> <Gold.PLP.PLP>
-30.3138

> <Gold.PLP.part.hbond>
-3.1739

> <Gold.PLP.part.metal>
0.0000

> <Gold.PLP.part.buried>
-2.3529

> <Gold.PLP.part.nonpolar>
-25.3481

> <Gold.PLP.part.repulsive>
0.0706

> <Gold.PLP.ligand.clash>
0.0000

> <Gold.PLP.ligand.torsion>
0.6116

> <Gold.PLP.Chemscore.Hbond>
2.0000

> <Gold.PLP.Chemscore.CHOScore>
1.8423

> <Gold.PLP.Chemscore.Metal>
0.0000

> <Gold.Chemscore.Hbonds>
donor molecule, donor type, donor heavy atom, donor atom, acceptor molecule, acceptor atom, score
      L1  H     8    26       P1  7948  1.00
      L1  H    11    29       P1  7948  1.00
      L1  C     3    21       P1 10957  1.00
      L1  C    17    40       P1 10747  0.86

> <Gold.PLP.Chemscore.Internal.Correction>
0.0241

> <Gold.Rescore>
     Score         DG    S(hbond)    S(metal)    S(lipo)     H(rot)  DE(clash)    DE(int)     intcor
     14.11     -14.59       1.71        0.00      74.63       2.09       0.01       0.47       ----

> <Gold.Chemscore.Fitness>
14.1088

> <Gold.Chemscore.DG>
-14.5861

> <Gold.Chemscore.ZeroCoef>
-5.4800

> <Gold.Chemscore.Hbond>
1.7128

> <Gold.Chemscore.Metal>
0.0000

> <Gold.Chemscore.Lipo>
74.6272

> <Gold.Chemscore.Internal_Hbond>
0.0000

> <Gold.Chemscore.DEClash>
0.0060

> <Gold.Chemscore.DEInternal>
0.4712

> <Gold.Chemscore.Rot>
2.0883

> <Gold.Chemscore.Internal.Correction>
   9.000000E+99

> <Gold.Chemscore.Hbonds>
donor molecule, donor type, donor heavy atom, donor atom, acceptor molecule, acceptor atom, score
      L1  H     8    26       P1  7948  0.30
      L1  H    11    29       P1  7948  0.92

> <Gold.Chemscore.Hbond.Weighted>
-5.7208

> <Gold.Chemscore.Metal.Weighted>
-0.0000

> <Gold.Chemscore.Lipo.Weighted>
-8.7314

> <Gold.Chemscore.Internal_Hbond.Weighted>
0.0000

> <Gold.Chemscore.DEClash.Weighted>
0.0060

> <Gold.Chemscore.DEInternal.Weighted>
0.4712

> <Gold.Chemscore.Rot.Weighted>
5.3461

> <Gold.Chemscore.Internal.Correction.Weighted>
   9.000000E+99

> <Gold.Protein.RotatedTorsions>
[ 6907 6896 6895 6894 ] final   84.26 input  -60.11 | X-H torsion
[ 7974 7965 7964 7962 ] final  179.07 input  175.53 | X-H torsion
[ 8008 7997 7996 7995 ] final -153.54 input   59.86 | X-H torsion
[ 10167 10162 10161 10158 ] final  139.72 input  -65.29 | X-H torsion
[ 10718 10713 10712 10709 ] final  -91.36 input   66.30 | X-H torsion
[ 10763 10752 10751 10750 ] final  -58.71 input  -60.55 | X-H torsion
[ 11005 11000 10999 10996 ] final   28.19 input  -57.11 | X-H torsion

> <Gold.Protein.ActiveResidues>
 VAL166  LYS551  ARG553  GLY616  TRP617  ASP618  TYR619  PRO620  LYS621  CYS622 
 ASP623  PHE694  ASN695  SER759  ASP760  ASP761  ALA762  ILE779  LEU786  VAL792 
 PHE793  MET794  SER795  GLU796  ALA797  LYS798  CYS799  TRP800  GLU811  SER814 

> <Gold.Protein.RotatedAtoms>
  152.5348  134.2769  159.8992 H   0  0  0  0  0  0  0  0  0  0  0  0  # atno 6907 bound_to 6896
  151.2724  133.4242  159.2629 H   0  0  0  0  0  0  0  0  0  0  0  0  # atno 6908 bound_to 6896
  151.0356  134.9585  159.8191 H   0  0  0  0  0  0  0  0  0  0  0  0  # atno 6909 bound_to 6896
  144.7149  140.0493  143.6435 H   0  0  0  0  0  0  0  0  0  0  0  0  # atno 7974 bound_to 7965
  155.6724  140.0735  157.2515 H   0  0  0  0  0  0  0  0  0  0  0  0  # atno 8008 bound_to 7997
  154.4121  140.1696  156.1945 H   0  0  0  0  0  0  0  0  0  0  0  0  # atno 8009 bound_to 7997
  155.9605  140.3370  155.6489 H   0  0  0  0  0  0  0  0  0  0  0  0  # atno 8010 bound_to 7997
  139.5070  144.6278  151.5894 H   0  0  0  0  0  0  0  0  0  0  0  0  # atno 10167 bound_to 10162
  155.9993  130.4945  150.5463 H   0  0  0  0  0  0  0  0  0  0  0  0  # atno 10718 bound_to 10713
  154.2424  135.6341  153.5211 H   0  0  0  0  0  0  0  0  0  0  0  0  # atno 10763 bound_to 10752
  152.9927  135.5545  154.5896 H   0  0  0  0  0  0  0  0  0  0  0  0  # atno 10764 bound_to 10752
  154.5405  135.2894  155.1074 H   0  0  0  0  0  0  0  0  0  0  0  0  # atno 10765 bound_to 10752
  140.3182  134.2573  155.7722 H   0  0  0  0  0  0  0  0  0  0  0  0  # atno 11005 bound_to 11000
  145.9958  139.3051  143.0957 LP  0  0  0  0  0  0  0  0  0  0  0  0  # atno 17320 bound_to 7965
  145.8851  140.9339  143.0581 LP  0  0  0  0  0  0  0  0  0  0  0  0  # atno 17321 bound_to 7965
  140.6000  143.9627  150.6380 LP  0  0  0  0  0  0  0  0  0  0  0  0  # atno 17342 bound_to 10162
  140.2835  143.3373  152.1129 LP  0  0  0  0  0  0  0  0  0  0  0  0  # atno 17343 bound_to 10162
  157.3392  131.0713  151.1801 LP  0  0  0  0  0  0  0  0  0  0  0  0  # atno 17370 bound_to 10713
  157.2655  130.6679  149.5995 LP  0  0  0  0  0  0  0  0  0  0  0  0  # atno 17371 bound_to 10713
  141.2093  133.7754  157.0007 LP  0  0  0  0  0  0  0  0  0  0  0  0  # atno 17394 bound_to 11000
  140.0965  134.9561  157.1857 LP  0  0  0  0  0  0  0  0  0  0  0  0  # atno 17395 bound_to 11000

$$$$
