AV-unprocessed.smi:675|AV-procd|sdf|3306|dock6
  -GOLD-   22720 0263D 1   1.00000     0.00000
 Structure written by MMmdl.
 28 29  0  0  0  0  0  0  0  0  2 V2000
  154.0551  135.5274  160.7170 O   0  0  0  0  0  0  0  0  0  0  0  0
  154.0979  136.7408  160.5190 C   0  0  0  0  0  0  0  0  0  0  0  0
  153.8804  137.2950  159.2904 N   0  5  0  0  0  0  0  0  0  0  0  0
  153.9239  138.6421  159.0501 C   0  0  0  0  0  0  0  0  0  0  0  0
  153.7254  139.1159  157.9315 O   0  0  0  0  0  0  0  0  0  0  0  0
  154.1963  139.4865  160.0886 N   0  0  0  0  0  0  0  0  0  0  0  0
  154.2743  140.9453  159.9251 C   0  0  0  0  0  0  0  0  0  0  0  0
  153.3137  141.6861  160.8804 C   0  0  1  0  0  0  0  0  0  0  0  0
  154.0012  141.9770  162.0822 O   0  0  0  0  0  0  0  0  0  0  0  0
  152.7614  142.9493  160.2211 C   0  0  0  0  0  0  0  0  0  0  0  0
  152.5834  142.9931  158.8182 C   0  0  0  0  0  0  0  0  0  0  0  0
  152.0686  144.1450  158.1944 C   0  0  0  0  0  0  0  0  0  0  0  0
  151.7186  145.2660  158.9678 C   0  0  0  0  0  0  0  0  0  0  0  0
  151.8782  145.2298  160.3650 C   0  0  0  0  0  0  0  0  0  0  0  0
  152.3928  144.0790  160.9957 C   0  0  0  0  0  0  0  0  0  0  0  0
  152.5432  144.0860  162.7187 Cl  0  0  0  0  0  0  0  0  0  0  0  0
  154.4293  138.9668  161.3737 C   0  0  0  0  0  0  0  0  0  0  0  0
  154.3922  137.6450  161.6288 C   0  0  0  0  0  0  0  0  0  0  0  0
  154.6865  137.0363  163.2188 Cl  0  0  0  0  0  0  0  0  0  0  0  0
  155.2926  141.3281  160.0154 H   0  0  0  0  0  0  0  0  0  0  0  0
  153.9918  141.1658  158.8943 H   0  0  0  0  0  0  0  0  0  0  0  0
  152.4837  141.0365  161.1567 H   0  0  0  0  0  0  0  0  0  0  0  0
  153.6722  141.4093  162.7616 H   0  0  0  0  0  0  0  0  0  0  0  0
  152.8372  142.1387  158.2079 H   0  0  0  0  0  0  0  0  0  0  0  0
  151.9399  144.1665  157.1223 H   0  0  0  0  0  0  0  0  0  0  0  0
  151.3227  146.1503  158.4909 H   0  0  0  0  0  0  0  0  0  0  0  0
  151.5998  146.0895  160.9567 H   0  0  0  0  0  0  0  0  0  0  0  0
  154.6431  139.7056  162.1321 H   0  0  0  0  0  0  0  0  0  0  0  0
  1  2  2  0  0  0  0
  2 18  1  0  0  0  0
  2  3  1  0  0  0  0
  3  4  1  0  0  0  0
  4  5  2  0  0  0  0
  4  6  1  0  0  0  0
  6  7  1  0  0  0  0
  6 17  1  0  0  0  0
  7  8  1  0  0  0  0
  7 20  1  0  0  0  0
  7 21  1  0  0  0  0
  8  9  1  0  0  0  0
  8 10  1  0  0  0  0
  8 22  1  0  0  0  0
  9 23  1  0  0  0  0
 10 15  1  0  0  0  0
 10 11  2  0  0  0  0
 11 12  1  0  0  0  0
 11 24  1  0  0  0  0
 12 13  2  0  0  0  0
 12 25  1  0  0  0  0
 13 14  1  0  0  0  0
 13 26  1  0  0  0  0
 14 15  2  0  0  0  0
 14 27  1  0  0  0  0
 15 16  1  0  0  0  0
 17 18  2  0  0  0  0
 17 28  1  0  0  0  0
 18 19  1  0  0  0  0
M  CHG  1   3  -1
M  END
> <s_m_source_file>
AV-unprocessed.smi

> <i_m_source_file_index>
675

> <i_lp_mmshare_version>
43012

> <i_f3d_flags>
0

> <s_epik_input>
Tz1jMVtuSF1jKD1PKW4oW2NIXWMxQ2wpW0NIMl1bQ0BIXShbT0hdKWMyW2NIXVtjSF1bY0hdW2NIXWMyQ2w=

> <s_epik_cmdline>
J2VwaWtfcHl0aG9uJywgJy1waCcsICc3LjAnLCAnLXRuJywgJzgnLCAnLW1hJywgJzIwMCcsICctbWV0YWxfYmluZGluZycsICctaW1hZScsICc8aW5maWxlLm1hZT4nLCAnLW9tYWUnLCAnPG91dGZpbGUubWFlPic=

> <r_epik_Ionization_Penalty>
1.79791

> <r_epik_Ionization_Penalty_Charging>
3.23819e-08

> <r_epik_Ionization_Penalty_Neutral>
1.79791

> <r_epik_State_Penalty>
1.91135

> <r_epik_Charging_Adjusted_Penalty>
1.91135

> <i_epik_Tot_Q>
-1

> <i_epik_Tot_abs_Q>
1

> <r_epik_Metal_State_Penalty>
0.014155

> <b_epik_Metal_Only>
0

> <s_lp_Force_Field>
OPLS_2005

> <r_lp_Energy>
23.2972

> <b_lp_Chiralities_Consistent>
1

> <s_lp_Variant>
AV-unprocessed.smi:675-4

> <Gold.Version>
5.8.1

> <Gold.Id.Protein>
6NUR|6NUR_protein|mol2

> <Gold.PLP.Fitness>
48.9363

> <Gold.PLP.PLP>
-45.3043

> <Gold.PLP.part.hbond>
-2.9025

> <Gold.PLP.part.metal>
0.0000

> <Gold.PLP.part.buried>
-1.7873

> <Gold.PLP.part.nonpolar>
-40.1701

> <Gold.PLP.part.repulsive>
0.0000

> <Gold.PLP.ligand.clash>
0.0000

> <Gold.PLP.ligand.torsion>
1.1889

> <Gold.PLP.Chemscore.Hbond>
2.0000

> <Gold.PLP.Chemscore.CHOScore>
0.0000

> <Gold.PLP.Chemscore.Metal>
0.0000

> <Gold.Chemscore.Hbonds>
donor molecule, donor type, donor heavy atom, donor atom, acceptor molecule, acceptor atom, score
      P1  H  6896  6909       L1     1  1.00
      P1  H  7997  8009       L1     5  1.00

> <Gold.PLP.Chemscore.Internal.Correction>
0.0097

> <Gold.Rescore>
     Score         DG    S(hbond)    S(metal)    S(lipo)     H(rot)  DE(clash)    DE(int)     intcor
     18.28     -21.27       1.88        0.00     127.88       2.13       0.23       2.76       ----

> <Gold.Chemscore.Fitness>
18.2803

> <Gold.Chemscore.DG>
-21.2741

> <Gold.Chemscore.ZeroCoef>
-5.4800

> <Gold.Chemscore.Hbond>
1.8798

> <Gold.Chemscore.Metal>
0.0000

> <Gold.Chemscore.Lipo>
127.8845

> <Gold.Chemscore.Internal_Hbond>
0.0000

> <Gold.Chemscore.DEClash>
0.2338

> <Gold.Chemscore.DEInternal>
2.7600

> <Gold.Chemscore.Rot>
2.1278

> <Gold.Chemscore.Internal.Correction>
   9.000000E+99

> <Gold.Chemscore.Hbonds>
donor molecule, donor type, donor heavy atom, donor atom, acceptor molecule, acceptor atom, score
      P1  H  6896  6909       L1     1  0.66
      P1  H  7997  8009       L1     5  0.97

> <Gold.Chemscore.Hbond.Weighted>
-6.2786

> <Gold.Chemscore.Metal.Weighted>
-0.0000

> <Gold.Chemscore.Lipo.Weighted>
-14.9625

> <Gold.Chemscore.Internal_Hbond.Weighted>
0.0000

> <Gold.Chemscore.DEClash.Weighted>
0.2338

> <Gold.Chemscore.DEInternal.Weighted>
2.7600

> <Gold.Chemscore.Rot.Weighted>
5.4470

> <Gold.Chemscore.Internal.Correction.Weighted>
   9.000000E+99

> <Gold.Protein.RotatedTorsions>
[ 6907 6896 6895 6894 ] final  165.57 input  -60.11 | X-H torsion
[ 7974 7965 7964 7962 ] final -155.03 input  175.53 | X-H torsion
[ 8008 7997 7996 7995 ] final  163.75 input   59.86 | X-H torsion
[ 10167 10162 10161 10158 ] final  -58.60 input  -65.29 | X-H torsion
[ 10718 10713 10712 10709 ] final  163.02 input   66.30 | X-H torsion
[ 10763 10752 10751 10750 ] final -113.07 input  -60.55 | X-H torsion
[ 11005 11000 10999 10996 ] final  -52.45 input  -57.11 | X-H torsion

> <Gold.Protein.ActiveResidues>
 VAL166  LYS551  ARG553  GLY616  TRP617  ASP618  TYR619  PRO620  LYS621  CYS622 
 ASP623  PHE694  ASN695  SER759  ASP760  ASP761  ALA762  ILE779  LEU786  VAL792 
 PHE793  MET794  SER795  GLU796  ALA797  LYS798  CYS799  TRP800  GLU811  SER814 

> <Gold.Protein.RotatedAtoms>
  151.8924  133.3519  159.3802 H   0  0  0  0  0  0  0  0  0  0  0  0  # atno 6907 bound_to 6896
  150.7100  134.4911  159.5525 H   0  0  0  0  0  0  0  0  0  0  0  0  # atno 6908 bound_to 6896
  152.2483  134.8159  160.0501 H   0  0  0  0  0  0  0  0  0  0  0  0  # atno 6909 bound_to 6896
  144.7660  140.4306  143.5942 H   0  0  0  0  0  0  0  0  0  0  0  0  # atno 7974 bound_to 7965
  156.1933  140.1715  156.8049 H   0  0  0  0  0  0  0  0  0  0  0  0  # atno 8008 bound_to 7997
  154.5498  140.0720  156.8680 H   0  0  0  0  0  0  0  0  0  0  0  0  # atno 8009 bound_to 7997
  155.3051  140.3364  155.4248 H   0  0  0  0  0  0  0  0  0  0  0  0  # atno 8010 bound_to 7997
  140.6187  143.2411  151.5534 H   0  0  0  0  0  0  0  0  0  0  0  0  # atno 10167 bound_to 10162
  157.1144  131.0476  151.2443 H   0  0  0  0  0  0  0  0  0  0  0  0  # atno 10718 bound_to 10713
  154.8379  135.4468  154.1292 H   0  0  0  0  0  0  0  0  0  0  0  0  # atno 10763 bound_to 10752
  153.2507  135.6926  153.7689 H   0  0  0  0  0  0  0  0  0  0  0  0  # atno 10764 bound_to 10752
  153.7002  135.3373  155.3199 H   0  0  0  0  0  0  0  0  0  0  0  0  # atno 10765 bound_to 10752
  141.0925  133.6630  156.4025 H   0  0  0  0  0  0  0  0  0  0  0  0  # atno 11005 bound_to 11000
  145.6469  139.1558  143.2884 LP  0  0  0  0  0  0  0  0  0  0  0  0  # atno 17320 bound_to 7965
  146.1767  140.6561  142.9208 LP  0  0  0  0  0  0  0  0  0  0  0  0  # atno 17321 bound_to 7965
  139.5420  144.2622  152.1369 LP  0  0  0  0  0  0  0  0  0  0  0  0  # atno 17342 bound_to 10162
  140.1837  144.4819  150.6515 LP  0  0  0  0  0  0  0  0  0  0  0  0  # atno 17343 bound_to 10162
  157.4531  130.7610  149.7169 LP  0  0  0  0  0  0  0  0  0  0  0  0  # atno 17370 bound_to 10713
  155.9843  130.3993  150.3320 LP  0  0  0  0  0  0  0  0  0  0  0  0  # atno 17371 bound_to 10713
  140.5219  134.6296  157.5321 LP  0  0  0  0  0  0  0  0  0  0  0  0  # atno 17394 bound_to 11000
  139.9753  134.7225  155.9961 LP  0  0  0  0  0  0  0  0  0  0  0  0  # atno 17395 bound_to 11000

$$$$
