AV-unprocessed.smi:34|AV-procd|sdf|231|dock9
  -GOLD-   2262015563D 1   1.00000     0.00000
 Structure written by MMmdl.
 54 58  0  0  0  0  0  0  0  0  2 V2000
  150.0155  131.2239  157.5994 O   0  0  0  0  0  0  0  0  0  0  0  0
  150.9931  131.7936  157.1097 C   0  0  0  0  0  0  0  0  0  0  0  0
  151.3103  133.1113  157.1765 N   0  5  0  0  0  0  0  0  0  0  0  0
  150.5630  134.0146  156.5245 C   0  0  0  0  0  0  0  0  0  0  0  0
  149.3387  133.6771  156.0442 N   0  0  0  0  0  0  0  0  0  0  0  0
  148.5996  134.5769  155.3843 C   0  0  0  0  0  0  0  0  0  0  0  0
  148.8883  135.8484  155.0889 N   0  0  0  0  0  0  0  0  0  0  0  0
  150.1218  136.1959  155.5585 C   0  0  0  0  0  0  0  0  0  0  0  0
  151.0078  135.3420  156.2771 C   0  0  0  0  0  0  0  0  0  0  0  0
  152.1774  136.0112  156.6035 N   0  0  0  0  0  0  0  0  0  0  0  0
  151.9545  137.2136  156.0778 C   0  0  0  0  0  0  0  0  0  0  0  0
  150.7766  137.4100  155.4478 N   0  0  0  0  0  0  0  0  0  0  0  0
  150.2571  138.6359  154.7644 C   0  0  2  0  0  0  0  0  0  0  0  0
  151.1209  139.6947  155.0623 O   0  0  0  0  0  0  0  0  0  0  0  0
  150.5078  140.5619  156.0120 C   0  0  1  0  0  0  0  0  0  0  0  0
  151.1345  141.9599  155.9592 C   0  0  0  0  0  0  0  0  0  0  0  0
  151.2458  142.4560  157.2830 O   0  0  0  0  0  0  0  0  0  0  0  0
  152.0420  141.8365  158.1742 C   0  0  0  0  0  0  0  0  0  0  0  0
  152.6066  140.7634  157.9540 O   0  0  0  0  0  0  0  0  0  0  0  0
  152.1698  142.5876  159.4567 C   0  0  0  0  0  0  0  0  0  0  0  0
  152.8133  141.9760  160.5577 C   0  0  0  0  0  0  0  0  0  0  0  0
  152.9450  142.6595  161.7822 C   0  0  0  0  0  0  0  0  0  0  0  0
  152.4343  143.9632  161.9209 C   0  0  0  0  0  0  0  0  0  0  0  0
  151.7919  144.5826  160.8332 C   0  0  0  0  0  0  0  0  0  0  0  0
  151.6595  143.9008  159.6079 C   0  0  0  0  0  0  0  0  0  0  0  0
  149.0401  140.4998  155.5978 C   0  0  1  0  0  0  0  0  0  0  0  0
  148.8754  141.2182  154.4826 F   0  0  0  0  0  0  0  0  0  0  0  0
  148.8721  139.0134  155.3160 C   0  0  1  0  0  0  0  0  0  0  0  0
  147.8166  138.7881  154.4041 O   0  0  0  0  0  0  0  0  0  0  0  0
  151.9546  130.9946  156.2721 C   0  0  0  0  0  0  0  0  0  0  0  0
  151.4791  129.9072  155.5043 C   0  0  0  0  0  0  0  0  0  0  0  0
  152.3672  129.1322  154.7332 C   0  0  0  0  0  0  0  0  0  0  0  0
  153.7427  129.4299  154.7299 C   0  0  0  0  0  0  0  0  0  0  0  0
  154.2301  130.5011  155.5016 C   0  0  0  0  0  0  0  0  0  0  0  0
  153.3425  131.2774  156.2721 C   0  0  0  0  0  0  0  0  0  0  0  0
  147.6380  134.2258  155.0409 H   0  0  0  0  0  0  0  0  0  0  0  0
  152.6984  137.9903  156.1588 H   0  0  0  0  0  0  0  0  0  0  0  0
  150.2788  138.4174  153.6960 H   0  0  0  0  0  0  0  0  0  0  0  0
  150.6105  140.1506  157.0165 H   0  0  0  0  0  0  0  0  0  0  0  0
  152.1135  141.9285  155.4789 H   0  0  0  0  0  0  0  0  0  0  0  0
  150.4998  142.6300  155.3779 H   0  0  0  0  0  0  0  0  0  0  0  0
  153.2128  140.9754  160.4757 H   0  0  0  0  0  0  0  0  0  0  0  0
  153.4376  142.1821  162.6162 H   0  0  0  0  0  0  0  0  0  0  0  0
  152.5347  144.4867  162.8602 H   0  0  0  0  0  0  0  0  0  0  0  0
  151.3980  145.5826  160.9385 H   0  0  0  0  0  0  0  0  0  0  0  0
  151.1582  144.4051  158.7947 H   0  0  0  0  0  0  0  0  0  0  0  0
  148.3537  140.8821  156.3537 H   0  0  0  0  0  0  0  0  0  0  0  0
  148.6810  138.4769  156.2471 H   0  0  0  0  0  0  0  0  0  0  0  0
  148.1472  138.2681  153.6874 H   0  0  0  0  0  0  0  0  0  0  0  0
  150.4263  129.6643  155.4977 H   0  0  0  0  0  0  0  0  0  0  0  0
  151.9922  128.3077  154.1454 H   0  0  0  0  0  0  0  0  0  0  0  0
  154.4235  128.8350  154.1394 H   0  0  0  0  0  0  0  0  0  0  0  0
  155.2862  130.7271  155.5059 H   0  0  0  0  0  0  0  0  0  0  0  0
  153.7384  132.0889  156.8655 H   0  0  0  0  0  0  0  0  0  0  0  0
  1  2  2  0  0  0  0
  2  3  1  0  0  0  0
  2 30  1  0  0  0  0
  3  4  1  0  0  0  0
  4  9  1  0  0  0  0
  4  5  2  0  0  0  0
  5  6  1  0  0  0  0
  6  7  2  0  0  0  0
  6 36  1  0  0  0  0
  7  8  1  0  0  0  0
  8 12  1  0  0  0  0
  8  9  2  0  0  0  0
  9 10  1  0  0  0  0
 10 11  2  0  0  0  0
 11 12  1  0  0  0  0
 11 37  1  0  0  0  0
 12 13  1  0  0  0  0
 13 28  1  0  0  0  0
 13 14  1  0  0  0  0
 13 38  1  0  0  0  0
 14 15  1  0  0  0  0
 15 16  1  0  0  0  0
 15 26  1  0  0  0  0
 15 39  1  0  0  0  0
 16 17  1  0  0  0  0
 16 40  1  0  0  0  0
 16 41  1  0  0  0  0
 17 18  1  0  0  0  0
 18 19  2  0  0  0  0
 18 20  1  0  0  0  0
 20 25  1  0  0  0  0
 20 21  2  0  0  0  0
 21 22  1  0  0  0  0
 21 42  1  0  0  0  0
 22 23  2  0  0  0  0
 22 43  1  0  0  0  0
 23 24  1  0  0  0  0
 23 44  1  0  0  0  0
 24 25  2  0  0  0  0
 24 45  1  0  0  0  0
 25 46  1  0  0  0  0
 26 27  1  0  0  0  0
 26 28  1  0  0  0  0
 26 47  1  0  0  0  0
 28 29  1  0  0  0  0
 28 48  1  0  0  0  0
 29 49  1  0  0  0  0
 30 35  1  0  0  0  0
 30 31  2  0  0  0  0
 31 32  1  0  0  0  0
 31 50  1  0  0  0  0
 32 33  2  0  0  0  0
 32 51  1  0  0  0  0
 33 34  1  0  0  0  0
 33 52  1  0  0  0  0
 34 35  2  0  0  0  0
 34 53  1  0  0  0  0
 35 54  1  0  0  0  0
M  CHG  1   3  -1
M  END
> <s_m_source_file>
AV-unprocessed.smi

> <i_m_source_file_index>
34

> <i_lp_mmshare_version>
43012

> <i_f3d_flags>
0

> <s_epik_input>
W2NIXTFbY0hdW2NIXVtjSF1bY0hdYzFDKD1PKVtOSF1jKG5bY0hdbjIpYyhjMjMpbltjSF1uM1tDQEBIXTRPW0NASF0oW0NAQEhdKEYpW0NASF00W09IXSlbQ0gyXU9DKD1PKWM1W2NIXVtjSF1bY0hdW2NIXVtjSF01

> <s_epik_cmdline>
J2VwaWtfcHl0aG9uJywgJy1waCcsICc3LjAnLCAnLXRuJywgJzgnLCAnLW1hJywgJzIwMCcsICctbWV0YWxfYmluZGluZycsICctaW1hZScsICc8aW5maWxlLm1hZT4nLCAnLW9tYWUnLCAnPG91dGZpbGUubWFlPic=

> <r_lp_tautomer_probability>
1

> <r_epik_Ionization_Penalty>
4.33227

> <r_epik_Ionization_Penalty_Charging>
3.41027

> <r_epik_Ionization_Penalty_Neutral>
0.922001

> <r_epik_State_Penalty>
3.41358

> <r_epik_Charging_Adjusted_Penalty>
6.82385

> <i_epik_Tot_Q>
-1

> <i_epik_Tot_abs_Q>
1

> <r_epik_Metal_State_Penalty>
0.496292

> <b_epik_Metal_Only>
1

> <s_epik_Chemistry_Notes>
This compound has an ester and may undergo hydrolysis at high or low pH. This compound contains an acetal/aminal-like group ( X-CH(R)-Y where X, Y are N, S, or O) that may be acid/base labile, releasing an aldehyde.

> <s_lp_Force_Field>
OPLS_2005

> <r_lp_Energy>
43.1366

> <b_lp_Chiralities_Consistent>
1

> <s_lp_Variant>
AV-unprocessed.smi:34-17

> <Gold.Version>
5.8.1

> <Gold.Id.Protein>
6NUR|6NUR_protein|mol2

> <Gold.PLP.Fitness>
64.9602

> <Gold.PLP.PLP>
-57.1656

> <Gold.PLP.part.hbond>
-3.9549

> <Gold.PLP.part.metal>
0.0000

> <Gold.PLP.part.buried>
-6.3922

> <Gold.PLP.part.nonpolar>
-45.9098

> <Gold.PLP.part.repulsive>
0.2517

> <Gold.PLP.ligand.clash>
0.0000

> <Gold.PLP.ligand.torsion>
2.0000

> <Gold.PLP.Chemscore.Hbond>
3.8417

> <Gold.PLP.Chemscore.CHOScore>
0.0000

> <Gold.PLP.Chemscore.Metal>
0.0000

> <Gold.Chemscore.Hbonds>
donor molecule, donor type, donor heavy atom, donor atom, acceptor molecule, acceptor atom, score
      P1  H  6896  6907       L1     3  1.62
      P1  H  7989  7998       L1    14  1.00
      P1  H  7997  8009       L1    19  0.30
      P1  H 10752 10764       L1    10  0.90

> <Gold.PLP.Chemscore.Internal.Correction>
0.2697

> <Gold.Rescore>
     Score         DG    S(hbond)    S(metal)    S(lipo)     H(rot)  DE(clash)    DE(int)     intcor
     13.32     -17.78       1.29        0.00     127.16       2.69       0.32       4.14       ----

> <Gold.Chemscore.Fitness>
13.3247

> <Gold.Chemscore.DG>
-17.7800

> <Gold.Chemscore.ZeroCoef>
-5.4800

> <Gold.Chemscore.Hbond>
1.2933

> <Gold.Chemscore.Metal>
0.0000

> <Gold.Chemscore.Lipo>
127.1624

> <Gold.Chemscore.Internal_Hbond>
0.0000

> <Gold.Chemscore.DEClash>
0.3171

> <Gold.Chemscore.DEInternal>
4.1382

> <Gold.Chemscore.Rot>
2.6944

> <Gold.Chemscore.Internal.Correction>
   9.000000E+99

> <Gold.Chemscore.Hbonds>
donor molecule, donor type, donor heavy atom, donor atom, acceptor molecule, acceptor atom, score
      P1  H  6896  6907       L1     3  0.19
      P1  H  7989  7998       L1    14  0.48
      P1  H  7997  8009       L1    19  0.31
      P1  H 10752 10764       L1    10  0.08

> <Gold.Chemscore.Hbond.Weighted>
-4.3196

> <Gold.Chemscore.Metal.Weighted>
-0.0000

> <Gold.Chemscore.Lipo.Weighted>
-14.8780

> <Gold.Chemscore.Internal_Hbond.Weighted>
0.0000

> <Gold.Chemscore.DEClash.Weighted>
0.3171

> <Gold.Chemscore.DEInternal.Weighted>
4.1382

> <Gold.Chemscore.Rot.Weighted>
6.8975

> <Gold.Chemscore.Internal.Correction.Weighted>
   9.000000E+99

> <Gold.Protein.RotatedTorsions>
[ 6907 6896 6895 6894 ] final -156.69 input  -60.11 | X-H torsion
[ 7974 7965 7964 7962 ] final   22.56 input  175.53 | X-H torsion
[ 8008 7997 7996 7995 ] final  167.64 input   59.86 | X-H torsion
[ 10167 10162 10161 10158 ] final   63.78 input  -65.29 | X-H torsion
[ 10718 10713 10712 10709 ] final  160.03 input   66.30 | X-H torsion
[ 10763 10752 10751 10750 ] final   -5.29 input  -60.55 | X-H torsion
[ 11005 11000 10999 10996 ] final  -10.13 input  -57.11 | X-H torsion

> <Gold.Protein.ActiveResidues>
 VAL166  LYS551  ARG553  GLY616  TRP617  ASP618  TYR619  PRO620  LYS621  CYS622 
 ASP623  PHE694  ASN695  SER759  ASP760  ASP761  ALA762  ILE779  LEU786  VAL792 
 PHE793  MET794  SER795  GLU796  ALA797  LYS798  CYS799  TRP800  GLU811  SER814 

> <Gold.Protein.RotatedAtoms>
  151.2915  133.4163  159.2633 H   0  0  0  0  0  0  0  0  0  0  0  0  # atno 6907 bound_to 6896
  151.0273  134.9514  159.8102 H   0  0  0  0  0  0  0  0  0  0  0  0  # atno 6908 bound_to 6896
  152.5338  134.2877  159.9083 H   0  0  0  0  0  0  0  0  0  0  0  0  # atno 6909 bound_to 6896
  146.2023  139.7868  142.8752 H   0  0  0  0  0  0  0  0  0  0  0  0  # atno 7974 bound_to 7965
  156.1616  140.1611  156.8602 H   0  0  0  0  0  0  0  0  0  0  0  0  # atno 8008 bound_to 7997
  154.5166  140.0788  156.8129 H   0  0  0  0  0  0  0  0  0  0  0  0  # atno 8009 bound_to 7997
  155.3696  140.3399  155.4245 H   0  0  0  0  0  0  0  0  0  0  0  0  # atno 8010 bound_to 7997
  140.1293  144.4658  150.6874 H   0  0  0  0  0  0  0  0  0  0  0  0  # atno 10167 bound_to 10162
  157.1560  131.0576  151.2256 H   0  0  0  0  0  0  0  0  0  0  0  0  # atno 10718 bound_to 10713
  153.3965  135.7003  153.6457 H   0  0  0  0  0  0  0  0  0  0  0  0  # atno 10763 bound_to 10752
  153.5008  135.3652  155.2539 H   0  0  0  0  0  0  0  0  0  0  0  0  # atno 10764 bound_to 10752
  154.8707  135.4111  154.3292 H   0  0  0  0  0  0  0  0  0  0  0  0  # atno 10765 bound_to 10752
  140.7415  133.8666  155.8972 H   0  0  0  0  0  0  0  0  0  0  0  0  # atno 11005 bound_to 11000
  145.3441  141.0294  143.3376 LP  0  0  0  0  0  0  0  0  0  0  0  0  # atno 17320 bound_to 7965
  144.8712  139.5036  143.6767 LP  0  0  0  0  0  0  0  0  0  0  0  0  # atno 17321 bound_to 7965
  140.6826  143.2334  151.5343 LP  0  0  0  0  0  0  0  0  0  0  0  0  # atno 17342 bound_to 10162
  139.5528  144.2352  152.1560 LP  0  0  0  0  0  0  0  0  0  0  0  0  # atno 17343 bound_to 10162
  157.4176  130.7420  149.6888 LP  0  0  0  0  0  0  0  0  0  0  0  0  # atno 17370 bound_to 10713
  155.9762  130.4079  150.3796 LP  0  0  0  0  0  0  0  0  0  0  0  0  # atno 17371 bound_to 10713
  140.9832  134.1377  157.4475 LP  0  0  0  0  0  0  0  0  0  0  0  0  # atno 17394 bound_to 11000
  139.8805  135.0017  156.6084 LP  0  0  0  0  0  0  0  0  0  0  0  0  # atno 17395 bound_to 11000

$$$$
