AV-unprocessed.smi:1513|AV-procd|sdf|6109|dock2
  -GOLD-   22720 6243D 1   1.00000     0.00000
 Structure written by MMmdl.
 33 34  0  0  0  0  0  0  0  0  2 V2000
  155.2247  136.2298  158.2193 N   0  0  0  0  0  0  0  0  0  0  0  0
  154.3777  137.2295  157.1086 S   0  0  0  0  0  0  0  0  0  0  0  0
  155.3169  137.4983  156.0078 O   0  0  0  0  0  0  0  0  0  0  0  0
  153.1224  136.5230  156.8066 O   0  0  0  0  0  0  0  0  0  0  0  0
  154.1869  138.4817  158.1158 N   0  5  0  0  0  0  0  0  0  0  0  0
  152.8520  138.8073  158.5860 C   0  0  0  0  0  0  0  0  0  0  0  0
  152.6687  140.3214  158.7670 C   0  0  0  0  0  0  0  0  0  0  0  0
  153.2891  140.9405  159.8794 C   0  0  0  0  0  0  0  0  0  0  0  0
  153.1582  142.3278  160.0692 C   0  0  0  0  0  0  0  0  0  0  0  0
  152.4061  143.0587  159.1359 C   0  0  0  0  0  0  0  0  0  0  0  0
  151.8036  142.4946  158.0712 N   0  0  0  0  0  0  0  0  0  0  0  0
  151.9190  141.1565  157.8743 C   0  0  0  0  0  0  0  0  0  0  0  0
  151.2288  140.6508  156.7509 N   0  0  0  0  0  0  0  0  0  0  0  0
  150.4924  141.6731  156.0188 C   0  0  0  0  0  0  0  0  0  0  0  0
  149.5983  141.0127  154.9555 C   0  0  0  0  0  0  0  0  0  0  0  0
  150.3920  140.1907  154.1031 O   0  0  0  0  0  0  0  0  0  0  0  0
  151.0457  139.1487  154.8233 C   0  0  0  0  0  0  0  0  0  0  0  0
  151.9843  139.7616  155.8765 C   0  0  0  0  0  0  0  0  0  0  0  0
  155.9548  135.6820  157.7656 H   0  0  0  0  0  0  0  0  0  0  0  0
  154.5946  135.6776  158.7995 H   0  0  0  0  0  0  0  0  0  0  0  0
  152.0873  138.4383  157.9014 H   0  0  0  0  0  0  0  0  0  0  0  0
  152.6289  138.3330  159.5423 H   0  0  0  0  0  0  0  0  0  0  0  0
  153.8689  140.3742  160.5960 H   0  0  0  0  0  0  0  0  0  0  0  0
  153.6243  142.8177  160.9109 H   0  0  0  0  0  0  0  0  0  0  0  0
  152.2828  144.1258  159.2477 H   0  0  0  0  0  0  0  0  0  0  0  0
  149.8834  142.2636  156.7043 H   0  0  0  0  0  0  0  0  0  0  0  0
  151.1969  142.3574  155.5443 H   0  0  0  0  0  0  0  0  0  0  0  0
  148.8146  140.4158  155.4238 H   0  0  0  0  0  0  0  0  0  0  0  0
  149.1017  141.7749  154.3551 H   0  0  0  0  0  0  0  0  0  0  0  0
  150.3061  138.4974  155.2924 H   0  0  0  0  0  0  0  0  0  0  0  0
  151.6142  138.5355  154.1241 H   0  0  0  0  0  0  0  0  0  0  0  0
  152.7811  140.3163  155.3796 H   0  0  0  0  0  0  0  0  0  0  0  0
  152.4535  138.9745  156.4680 H   0  0  0  0  0  0  0  0  0  0  0  0
  1  2  1  0  0  0  0
  1 19  1  0  0  0  0
  1 20  1  0  0  0  0
  2  3  2  0  0  0  0
  2  4  2  0  0  0  0
  2  5  1  0  0  0  0
  5  6  1  0  0  0  0
  6  7  1  0  0  0  0
  6 21  1  0  0  0  0
  6 22  1  0  0  0  0
  7 12  1  0  0  0  0
  7  8  2  0  0  0  0
  8  9  1  0  0  0  0
  8 23  1  0  0  0  0
  9 10  2  0  0  0  0
  9 24  1  0  0  0  0
 10 11  1  0  0  0  0
 10 25  1  0  0  0  0
 11 12  2  0  0  0  0
 12 13  1  0  0  0  0
 13 18  1  0  0  0  0
 13 14  1  0  0  0  0
 14 15  1  0  0  0  0
 14 26  1  0  0  0  0
 14 27  1  0  0  0  0
 15 16  1  0  0  0  0
 15 28  1  0  0  0  0
 15 29  1  0  0  0  0
 16 17  1  0  0  0  0
 17 18  1  0  0  0  0
 17 30  1  0  0  0  0
 17 31  1  0  0  0  0
 18 32  1  0  0  0  0
 18 33  1  0  0  0  0
M  CHG  1   5  -1
M  END
> <s_m_source_file>
AV-unprocessed.smi

> <i_m_source_file_index>
1513

> <i_lp_mmshare_version>
43012

> <i_f3d_flags>
0

> <s_epik_input>
W05IMl1TKD1PKSg9TylbTkhdW0NIMl1jMVtjSF1bY0hdW2NIXW5jMU4yW0NIMl1bQ0gyXU9bQ0gyXVtDSDJdMg==

> <s_epik_cmdline>
J2VwaWtfcHl0aG9uJywgJy1waCcsICc3LjAnLCAnLXRuJywgJzgnLCAnLW1hJywgJzIwMCcsICctbWV0YWxfYmluZGluZycsICctaW1hZScsICc8aW5maWxlLm1hZT4nLCAnLW9tYWUnLCAnPG91dGZpbGUubWFlPic=

> <r_lp_tautomer_probability>
1

> <r_epik_Ionization_Penalty>
0.860967

> <r_epik_Ionization_Penalty_Charging>
0.789613

> <r_epik_Ionization_Penalty_Neutral>
0.0713544

> <r_epik_State_Penalty>
0.836007

> <r_epik_Charging_Adjusted_Penalty>
1.62562

> <i_epik_Tot_Q>
-1

> <i_epik_Tot_abs_Q>
1

> <r_epik_Metal_State_Penalty>
0.647115

> <b_epik_Metal_Only>
0

> <s_lp_Force_Field>
OPLS_2005

> <r_lp_Energy>
22.5784

> <b_lp_Chiralities_Consistent>
1

> <s_lp_Variant>
AV-unprocessed.smi:1513-2

> <Gold.Version>
5.8.1

> <Gold.Id.Protein>
6NUR|6NUR_protein|mol2

> <Gold.PLP.Fitness>
45.1669

> <Gold.PLP.PLP>
-33.9965

> <Gold.PLP.part.hbond>
-4.4455

> <Gold.PLP.part.metal>
0.0000

> <Gold.PLP.part.buried>
-3.7830

> <Gold.PLP.part.nonpolar>
-26.0017

> <Gold.PLP.part.repulsive>
0.7216

> <Gold.PLP.ligand.clash>
0.0000

> <Gold.PLP.ligand.torsion>
0.9683

> <Gold.PLP.Chemscore.Hbond>
4.0000

> <Gold.PLP.Chemscore.CHOScore>
0.0000

> <Gold.PLP.Chemscore.Metal>
0.0000

> <Gold.Chemscore.Hbonds>
donor molecule, donor type, donor heavy atom, donor atom, acceptor molecule, acceptor atom, score
      P1  H  7989  7998       L1    16  0.99
      P1  H  7997  8009       L1     5  2.00
      P1  H 10752 10763       L1     4  1.00

> <Gold.PLP.Chemscore.Internal.Correction>
1.1071

> <Gold.Rescore>
     Score         DG    S(hbond)    S(metal)    S(lipo)     H(rot)  DE(clash)    DE(int)     intcor
     13.72     -15.97       2.14        0.00      69.88       1.88       0.05       2.20       ----

> <Gold.Chemscore.Fitness>
13.7200

> <Gold.Chemscore.DG>
-15.9748

> <Gold.Chemscore.ZeroCoef>
-5.4800

> <Gold.Chemscore.Hbond>
2.1364

> <Gold.Chemscore.Metal>
0.0000

> <Gold.Chemscore.Lipo>
69.8770

> <Gold.Chemscore.Internal_Hbond>
0.0000

> <Gold.Chemscore.DEClash>
0.0515

> <Gold.Chemscore.DEInternal>
2.2033

> <Gold.Chemscore.Rot>
1.8814

> <Gold.Chemscore.Internal.Correction>
   9.000000E+99

> <Gold.Chemscore.Hbonds>
donor molecule, donor type, donor heavy atom, donor atom, acceptor molecule, acceptor atom, score
      P1  H  7989  7998       L1    16  0.21
      P1  H  7997  8009       L1     5  0.33
      P1  H 10752 10763       L1     4  0.29

> <Gold.Chemscore.Hbond.Weighted>
-7.1356

> <Gold.Chemscore.Metal.Weighted>
-0.0000

> <Gold.Chemscore.Lipo.Weighted>
-8.1756

> <Gold.Chemscore.Internal_Hbond.Weighted>
0.0000

> <Gold.Chemscore.DEClash.Weighted>
0.0515

> <Gold.Chemscore.DEInternal.Weighted>
2.2033

> <Gold.Chemscore.Rot.Weighted>
4.8165

> <Gold.Chemscore.Internal.Correction.Weighted>
   9.000000E+99

> <Gold.Protein.RotatedTorsions>
[ 6907 6896 6895 6894 ] final  104.85 input  -60.11 | X-H torsion
[ 7974 7965 7964 7962 ] final   -3.01 input  175.53 | X-H torsion
[ 8008 7997 7996 7995 ] final  138.84 input   59.86 | X-H torsion
[ 10167 10162 10161 10158 ] final  113.15 input  -65.29 | X-H torsion
[ 10718 10713 10712 10709 ] final   28.71 input   66.30 | X-H torsion
[ 10763 10752 10751 10750 ] final  126.39 input  -60.55 | X-H torsion
[ 11005 11000 10999 10996 ] final  -27.10 input  -57.11 | X-H torsion

> <Gold.Protein.ActiveResidues>
 VAL166  LYS551  ARG553  GLY616  TRP617  ASP618  TYR619  PRO620  LYS621  CYS622 
 ASP623  PHE694  ASN695  SER759  ASP760  ASP761  ALA762  ILE779  LEU786  VAL792 
 PHE793  MET794  SER795  GLU796  ALA797  LYS798  CYS799  TRP800  GLU811  SER814 

> <Gold.Protein.RotatedAtoms>
  152.5250  133.9615  159.7719 H   0  0  0  0  0  0  0  0  0  0  0  0  # atno 6907 bound_to 6896
  150.9905  133.6146  159.2716 H   0  0  0  0  0  0  0  0  0  0  0  0  # atno 6908 bound_to 6896
  151.3291  135.0843  159.9385 H   0  0  0  0  0  0  0  0  0  0  0  0  # atno 6909 bound_to 6896
  146.2396  140.1657  142.8332 H   0  0  0  0  0  0  0  0  0  0  0  0  # atno 7974 bound_to 7965
  156.2994  140.2383  156.4139 H   0  0  0  0  0  0  0  0  0  0  0  0  # atno 8008 bound_to 7997
  154.8416  140.0428  157.1565 H   0  0  0  0  0  0  0  0  0  0  0  0  # atno 8009 bound_to 7997
  154.9096  140.2988  155.5277 H   0  0  0  0  0  0  0  0  0  0  0  0  # atno 8010 bound_to 7997
  139.6482  144.7127  151.2100 H   0  0  0  0  0  0  0  0  0  0  0  0  # atno 10167 bound_to 10162
  157.2371  130.7051  149.6340 H   0  0  0  0  0  0  0  0  0  0  0  0  # atno 10718 bound_to 10713
  153.6926  135.3296  155.3205 H   0  0  0  0  0  0  0  0  0  0  0  0  # atno 10763 bound_to 10752
  154.8436  135.4435  154.1493 H   0  0  0  0  0  0  0  0  0  0  0  0  # atno 10764 bound_to 10752
  153.2539  135.6984  153.7728 H   0  0  0  0  0  0  0  0  0  0  0  0  # atno 10765 bound_to 10752
  140.9089  133.7474  156.0643 H   0  0  0  0  0  0  0  0  0  0  0  0  # atno 11005 bound_to 11000
  145.0053  140.8667  143.5257 LP  0  0  0  0  0  0  0  0  0  0  0  0  # atno 17320 bound_to 7965
  145.1682  139.2419  143.5356 LP  0  0  0  0  0  0  0  0  0  0  0  0  # atno 17321 bound_to 7965
  140.7525  143.6194  150.8528 LP  0  0  0  0  0  0  0  0  0  0  0  0  # atno 17342 bound_to 10162
  139.9839  143.5920  152.2933 LP  0  0  0  0  0  0  0  0  0  0  0  0  # atno 17343 bound_to 10162
  155.9672  130.4470  150.5563 LP  0  0  0  0  0  0  0  0  0  0  0  0  # atno 17370 bound_to 10713
  157.3418  131.0718  151.1782 LP  0  0  0  0  0  0  0  0  0  0  0  0  # atno 17371 bound_to 10713
  140.8136  134.3371  157.5404 LP  0  0  0  0  0  0  0  0  0  0  0  0  # atno 17394 bound_to 11000
  139.8754  134.9268  156.3410 LP  0  0  0  0  0  0  0  0  0  0  0  0  # atno 17395 bound_to 11000

$$$$
