#       Name:                AV-unprocessed.smi:2902
#       Creating user name   scv26
#       Creation time:       Fri Mar 27 16:04:05 2020


#       File generated by GOLD software.
#

@<TRIPOS>MOLECULE
AV-unprocessed.smi:2902
    53    54     1
SMALL
NO_CHARGES


@<TRIPOS>ATOM
      1 ****        -3.4817  -1.1968  -1.9027 C.3            1 S1                 0.0000
      2 ****        -1.9645  -1.3362  -1.7284 C.3            1 S1                 0.0000
      3 ****        -1.4380  -0.6038  -0.4800 C.3            1 S1                 0.0000
      4 ****        -1.9434  -1.2771   0.6721 O.3            1 S1                 0.0000
      5 ****        -1.7823  -0.6077   1.9198 C.3            1 S1                 0.0000
      6 ****        -0.5991  -1.1387   2.7351 C.3            1 S1                 0.0000
      7 ****        -0.9502  -0.8337   4.1963 C.3            1 S1                 0.0000
      8 ****        -2.4723  -0.6269   4.2416 C.3            1 S1                 0.0000
      9 ****        -2.9796  -0.8992   2.8225 C.3            1 S1                 0.0000
     10 ****         0.0977  -0.5785  -0.4599 C.2            1 S1                 0.0000
     11 ****         0.7373  -1.6166  -0.6294 O.2            1 S1                 0.0000
     12 ****         0.6687   0.6196  -0.2550 N.am           1 S1                 0.0000
     13 ****         2.1058   0.8975  -0.2486 C.3            1 S1                 0.0000
     14 ****         2.4262   1.6952   1.0265 C.3            1 S1                 0.0000
     15 ****         2.5173   1.6363  -1.5522 C.3            1 S1                 0.0000
     16 ****         4.0200   1.9741  -1.6090 C.3            1 S1                 0.0000
     17 ****         2.1280   0.8802  -2.7377 N.pl3          1 S1                 0.0000
     18 ****         1.1435   1.0983  -3.6123 C.2            1 S1                 0.0000
     19 ****         1.0413   0.1677  -4.5506 N.2            1 S1                 0.0000
     20 ****         2.0629  -0.6545  -4.1677 C.2            1 S1                 0.0000
     21 ****         2.7442  -0.2757  -3.0866 N.2            1 S1                 0.0000
     22 ****        -3.8186  -1.7196  -2.7980 H              1 S1                 0.0000
     23 ****        -3.7728  -0.1506  -1.9991 H              1 S1                 0.0000
     24 ****        -4.0175  -1.6175  -1.0515 H              1 S1                 0.0000
     25 ****        -1.7046  -2.3947  -1.6781 H              1 S1                 0.0000
     26 ****        -1.4744  -0.9429  -2.6208 H              1 S1                 0.0000
     27 ****        -1.8167   0.4201  -0.4987 H              1 S1                 0.0000
     28 ****        -1.6984   0.4738   1.7943 H              1 S1                 0.0000
     29 ****        -0.5186  -2.2183   2.6002 H              1 S1                 0.0000
     30 ****         0.3536  -0.6996   2.4394 H              1 S1                 0.0000
     31 ****        -0.6319  -1.6442   4.8530 H              1 S1                 0.0000
     32 ****        -0.4427   0.0731   4.5278 H              1 S1                 0.0000
     33 ****        -2.9543  -1.2775   4.9720 H              1 S1                 0.0000
     34 ****        -2.6947   0.4030   4.5241 H              1 S1                 0.0000
     35 ****        -3.8545  -0.3015   2.5650 H              1 S1                 0.0000
     36 ****        -3.2597  -1.9500   2.7340 H              1 S1                 0.0000
     37 ****         0.0564   1.4101  -0.1153 H              1 S1                 0.0000
     38 ****         2.6633  -0.0391  -0.1902 H              1 S1                 0.0000
     39 ****         3.4989   1.8375   1.1540 H              1 S1                 0.0000
     40 ****         2.0686   1.1724   1.9143 H              1 S1                 0.0000
     41 ****         1.9560   2.6789   1.0094 H              1 S1                 0.0000
     42 ****         1.9728   2.5810  -1.5918 H              1 S1                 0.0000
     43 ****         4.3001   2.6900  -0.8369 H              1 S1                 0.0000
     44 ****         4.2831   2.4222  -2.5677 H              1 S1                 0.0000
     45 ****         4.6363   1.0841  -1.4781 H              1 S1                 0.0000
     46 ****         0.4796   1.9482  -3.5535 H              1 S1                 0.0000
     47 ****         2.3105  -1.5607  -4.7007 H              1 S1                 0.0000
     48 ****        -1.4770  -2.1592   0.7378 LP             1 S1                 0.0000
     49 ****        -2.9221  -1.4272   0.5317 LP             1 S1                 0.0000
     50 ****         0.2571  -2.4807  -0.7809 LP             1 S1                 0.0000
     51 ****         1.7370  -1.5959  -0.6156 LP             1 S1                 0.0000
     52 ****         0.4024   0.0900  -5.3160 LP             1 S1                 0.0000
     53 ****         3.5168  -0.7305  -2.6436 LP             1 S1                 0.0000
@<TRIPOS>BOND
    1    1    2 1     
    2    1   22 1     
    3    1   23 1     
    4    1   24 1     
    5    2    3 1     
    6    2   25 1     
    7    2   26 1     
    8    3    4 1     
    9    3   10 1     
   10    3   27 1     
   11    4    5 1     
   12    5    9 1     
   13    5    6 1     
   14    5   28 1     
   15    6    7 1     
   16    6   29 1     
   17    6   30 1     
   18    7    8 1     
   19    7   31 1     
   20    7   32 1     
   21    8    9 1     
   22    8   33 1     
   23    8   34 1     
   24    9   35 1     
   25    9   36 1     
   26   10   11 2     
   27   10   12 am    
   28   12   13 1     
   29   12   37 1     
   30   13   14 1     
   31   13   15 1     
   32   13   38 1     
   33   14   39 1     
   34   14   40 1     
   35   14   41 1     
   36   15   16 1     
   37   15   17 1     
   38   15   42 1     
   39   16   43 1     
   40   16   44 1     
   41   16   45 1     
   42   17   21 1     
   43   17   18 1     
   44   18   19 2     
   45   18   46 1     
   46   19   20 1     
   47   20   21 2     
   48   20   47 1     
   49    4   48 1     
   50    4   49 1     
   51   11   50 1     
   52   11   51 1     
   53   19   52 1     
   54   21   53 1     
@<TRIPOS>SUBSTRUCTURE
      1 S1             1
@<TRIPOS>SET
LONE_PAIRS      STATIC     ATOMS    <user>   **** ""
6 48 49 50 51 52 53
DONOR_HYDROGENS      STATIC     ATOMS    <user>   **** ""
1 37
ATOM$BLUE        STATIC     ATOMS    COLORGROUP SYSTEM
6 48 49 50 51 52 53
ATOM$RED        STATIC     ATOMS    COLORGROUP SYSTEM
1 37
