AV-unprocessed.smi:2592|AV-procd|sdf|10159|dock2
  -GOLD-   2272014173D 1   1.00000     0.00000
 Structure written by MMmdl.
 43 44  0  0  0  0  0  0  0  0  2 V2000
  153.4589  141.0907  160.0087 C   0  0  0  0  0  0  0  0  0  0  0  0
  152.4076  142.0744  159.5953 C   0  0  0  0  0  0  0  0  0  0  0  0
  151.6330  141.8183  158.4602 N   0  0  0  0  0  0  0  0  0  0  0  0
  150.7451  142.7889  158.2230 C   0  0  0  0  0  0  0  0  0  0  0  0
  149.8326  142.7915  157.1354 N   0  0  0  0  0  0  0  0  0  0  0  0
  149.1993  141.7424  156.5819 C   0  0  0  0  0  0  0  0  0  0  0  0
  149.3072  140.5711  156.9467 O   0  0  0  0  0  0  0  0  0  0  0  0
  148.4150  142.1270  155.5642 N   0  0  0  0  0  0  0  0  0  0  0  0
  147.6062  141.2276  154.7487 C   0  0  0  0  0  0  0  0  0  0  0  0
  148.4652  140.1558  154.0564 C   0  0  0  0  0  0  0  0  0  0  0  0
  148.1404  138.7379  154.5559 C   0  0  0  0  0  0  0  0  0  0  0  0
  149.2768  137.7984  154.3832 N   0  3  0  0  0  0  0  0  0  0  0  0
  150.5883  138.4535  154.6059 C   0  0  0  0  0  0  0  0  0  0  0  0
  151.7377  137.4585  154.3717 C   0  0  0  0  0  0  0  0  0  0  0  0
  151.5729  136.3301  155.2210 O   0  0  0  0  0  0  0  0  0  0  0  0
  150.3596  135.6381  154.9543 C   0  0  0  0  0  0  0  0  0  0  0  0
  149.1652  136.5720  155.2119 C   0  0  0  0  0  0  0  0  0  0  0  0
  150.8010  144.0952  159.3937 S   0  0  0  0  0  0  0  0  0  0  0  0
  152.0892  143.2569  160.2228 C   0  0  0  0  0  0  0  0  0  0  0  0
  152.7105  143.8337  161.4513 C   0  0  0  0  0  0  0  0  0  0  0  0
  153.1542  140.5439  160.9011 H   0  0  0  0  0  0  0  0  0  0  0  0
  154.4011  141.5913  160.2325 H   0  0  0  0  0  0  0  0  0  0  0  0
  153.6563  140.3586  159.2250 H   0  0  0  0  0  0  0  0  0  0  0  0
  149.6441  143.6968  156.7309 H   0  0  0  0  0  0  0  0  0  0  0  0
  148.3865  143.1082  155.3277 H   0  0  0  0  0  0  0  0  0  0  0  0
  146.8702  140.7531  155.3981 H   0  0  0  0  0  0  0  0  0  0  0  0
  147.0438  141.8024  154.0108 H   0  0  0  0  0  0  0  0  0  0  0  0
  148.3091  140.2163  152.9796 H   0  0  0  0  0  0  0  0  0  0  0  0
  149.5206  140.3705  154.2288 H   0  0  0  0  0  0  0  0  0  0  0  0
  147.8924  138.8023  155.6166 H   0  0  0  0  0  0  0  0  0  0  0  0
  147.2542  138.3445  154.0554 H   0  0  0  0  0  0  0  0  0  0  0  0
  150.6983  139.3027  153.9304 H   0  0  0  0  0  0  0  0  0  0  0  0
  150.6343  138.8443  155.6238 H   0  0  0  0  0  0  0  0  0  0  0  0
  151.7742  137.1416  153.3281 H   0  0  0  0  0  0  0  0  0  0  0  0
  152.6944  137.9309  154.5946 H   0  0  0  0  0  0  0  0  0  0  0  0
  150.3534  135.2714  153.9264 H   0  0  0  0  0  0  0  0  0  0  0  0
  150.3007  134.7649  155.6041 H   0  0  0  0  0  0  0  0  0  0  0  0
  149.1286  136.8447  156.2679 H   0  0  0  0  0  0  0  0  0  0  0  0
  148.2419  136.0392  154.9875 H   0  0  0  0  0  0  0  0  0  0  0  0
  153.6863  144.2628  161.2237 H   0  0  0  0  0  0  0  0  0  0  0  0
  152.8474  143.0674  162.2145 H   0  0  0  0  0  0  0  0  0  0  0  0
  152.0867  144.6198  161.8769 H   0  0  0  0  0  0  0  0  0  0  0  0
  149.2671  137.5059  153.4165 H   0  0  0  0  0  0  0  0  0  0  0  0
  1  2  1  0  0  0  0
  1 21  1  0  0  0  0
  1 22  1  0  0  0  0
  1 23  1  0  0  0  0
  2 19  2  0  0  0  0
  2  3  1  0  0  0  0
  3  4  2  0  0  0  0
  4  5  1  0  0  0  0
  4 18  1  0  0  0  0
  5  6  1  0  0  0  0
  5 24  1  0  0  0  0
  6  7  2  0  0  0  0
  6  8  1  0  0  0  0
  8  9  1  0  0  0  0
  8 25  1  0  0  0  0
  9 10  1  0  0  0  0
  9 26  1  0  0  0  0
  9 27  1  0  0  0  0
 10 11  1  0  0  0  0
 10 28  1  0  0  0  0
 10 29  1  0  0  0  0
 11 12  1  0  0  0  0
 11 30  1  0  0  0  0
 11 31  1  0  0  0  0
 12 17  1  0  0  0  0
 12 13  1  0  0  0  0
 12 43  1  0  0  0  0
 13 14  1  0  0  0  0
 13 32  1  0  0  0  0
 13 33  1  0  0  0  0
 14 15  1  0  0  0  0
 14 34  1  0  0  0  0
 14 35  1  0  0  0  0
 15 16  1  0  0  0  0
 16 17  1  0  0  0  0
 16 36  1  0  0  0  0
 16 37  1  0  0  0  0
 17 38  1  0  0  0  0
 17 39  1  0  0  0  0
 18 19  1  0  0  0  0
 19 20  1  0  0  0  0
 20 40  1  0  0  0  0
 20 41  1  0  0  0  0
 20 42  1  0  0  0  0
M  CHG  1  12   1
M  END
> <s_m_source_file>
AV-unprocessed.smi

> <i_m_source_file_index>
2592

> <i_lp_mmshare_version>
43012

> <i_f3d_flags>
0

> <s_epik_input>
W0NIM11jMW5jKHNjMVtDSDNdKVtOSF1DKD1PKVtOSF1bQ0gyXVtDSDJdW0NIMl1OMltDSDJdW0NIMl1PW0NIMl1bQ0gyXTI=

> <s_epik_cmdline>
J2VwaWtfcHl0aG9uJywgJy1waCcsICc3LjAnLCAnLXRuJywgJzgnLCAnLW1hJywgJzIwMCcsICctbWV0YWxfYmluZGluZycsICctaW1hZScsICc8aW5maWxlLm1hZT4nLCAnLW9tYWUnLCAnPG91dGZpbGUubWFlPic=

> <r_lp_tautomer_probability>
0.999

> <r_epik_Ionization_Penalty>
0.281876

> <r_epik_Ionization_Penalty_Charging>
0.281705

> <r_epik_Ionization_Penalty_Neutral>
0.000171168

> <r_epik_State_Penalty>
0.274317

> <r_epik_Charging_Adjusted_Penalty>
0.556022

> <i_epik_Tot_Q>
1

> <i_epik_Tot_abs_Q>
1

> <r_epik_Metal_State_Penalty>
0.293174

> <b_epik_Metal_Only>
0

> <s_lp_Force_Field>
OPLS_2005

> <r_lp_Energy>
13.2764

> <b_lp_Chiralities_Consistent>
1

> <s_lp_Variant>
AV-unprocessed.smi:2592-1

> <Gold.Version>
5.8.1

> <Gold.Id.Protein>
6NUR|6NUR_protein|mol2

> <Gold.PLP.Fitness>
48.0339

> <Gold.PLP.PLP>
-34.9567

> <Gold.PLP.part.hbond>
-4.0000

> <Gold.PLP.part.metal>
0.0000

> <Gold.PLP.part.buried>
-3.8475

> <Gold.PLP.part.nonpolar>
-28.2556

> <Gold.PLP.part.repulsive>
0.2501

> <Gold.PLP.ligand.clash>
0.0000

> <Gold.PLP.ligand.torsion>
0.9676

> <Gold.PLP.Chemscore.Hbond>
4.9825

> <Gold.PLP.Chemscore.CHOScore>
0.0000

> <Gold.PLP.Chemscore.Metal>
0.0000

> <Gold.Chemscore.Hbonds>
donor molecule, donor type, donor heavy atom, donor atom, acceptor molecule, acceptor atom, score
      L1  H     5    24       P1  8028  1.00
      L1  H     8    25       P1  8028  1.00
      L1  H    12    43       P1  7948  2.00
      P1  H 10752 10765       L1    15  1.00

> <Gold.PLP.Chemscore.Internal.Correction>
0.0649

> <Gold.Rescore>
     Score         DG    S(hbond)    S(metal)    S(lipo)     H(rot)  DE(clash)    DE(int)     intcor
     21.09     -22.99       3.51        0.00      87.83       1.76       0.01       1.88       ----

> <Gold.Chemscore.Fitness>
21.0901

> <Gold.Chemscore.DG>
-22.9890

> <Gold.Chemscore.ZeroCoef>
-5.4800

> <Gold.Chemscore.Hbond>
3.5141

> <Gold.Chemscore.Metal>
0.0000

> <Gold.Chemscore.Lipo>
87.8266

> <Gold.Chemscore.Internal_Hbond>
0.0000

> <Gold.Chemscore.DEClash>
0.0141

> <Gold.Chemscore.DEInternal>
1.8847

> <Gold.Chemscore.Rot>
1.7593

> <Gold.Chemscore.Internal.Correction>
   9.000000E+99

> <Gold.Chemscore.Hbonds>
donor molecule, donor type, donor heavy atom, donor atom, acceptor molecule, acceptor atom, score
      L1  H     5    24       P1  8028  0.97
      L1  H     8    25       P1  8028  0.95
      L1  H    12    43       P1  7948  0.93
      P1  H 10752 10765       L1    15  0.24

> <Gold.Chemscore.Hbond.Weighted>
-11.7372

> <Gold.Chemscore.Metal.Weighted>
-0.0000

> <Gold.Chemscore.Lipo.Weighted>
-10.2757

> <Gold.Chemscore.Internal_Hbond.Weighted>
0.0000

> <Gold.Chemscore.DEClash.Weighted>
0.0141

> <Gold.Chemscore.DEInternal.Weighted>
1.8847

> <Gold.Chemscore.Rot.Weighted>
4.5039

> <Gold.Chemscore.Internal.Correction.Weighted>
   9.000000E+99

> <Gold.Protein.RotatedTorsions>
[ 6907 6896 6895 6894 ] final   -9.44 input  -60.11 | X-H torsion
[ 7974 7965 7964 7962 ] final -166.00 input  175.53 | X-H torsion
[ 8008 7997 7996 7995 ] final  -50.47 input   59.86 | X-H torsion
[ 10167 10162 10161 10158 ] final  128.27 input  -65.29 | X-H torsion
[ 10718 10713 10712 10709 ] final   60.31 input   66.30 | X-H torsion
[ 10763 10752 10751 10750 ] final -158.76 input  -60.55 | X-H torsion
[ 11005 11000 10999 10996 ] final   70.71 input  -57.11 | X-H torsion

> <Gold.Protein.ActiveResidues>
 VAL166  LYS551  ARG553  GLY616  TRP617  ASP618  TYR619  PRO620  LYS621  CYS622 
 ASP623  PHE694  ASN695  SER759  ASP760  ASP761  ALA762  ILE779  LEU786  VAL792 
 PHE793  MET794  SER795  GLU796  ALA797  LYS798  CYS799  TRP800  GLU811  SER814 

> <Gold.Protein.RotatedAtoms>
  151.4178  135.0994  159.9604 H   0  0  0  0  0  0  0  0  0  0  0  0  # atno 6907 bound_to 6896
  152.4998  133.8736  159.7321 H   0  0  0  0  0  0  0  0  0  0  0  0  # atno 6908 bound_to 6896
  150.9245  133.6783  159.2852 H   0  0  0  0  0  0  0  0  0  0  0  0  # atno 6909 bound_to 6896
  144.7256  140.2731  143.6247 H   0  0  0  0  0  0  0  0  0  0  0  0  # atno 7974 bound_to 7965
  154.4063  140.1271  156.4672 H   0  0  0  0  0  0  0  0  0  0  0  0  # atno 8008 bound_to 7997
  155.7215  140.3492  155.4998 H   0  0  0  0  0  0  0  0  0  0  0  0  # atno 8009 bound_to 7997
  155.9210  140.1052  157.1197 H   0  0  0  0  0  0  0  0  0  0  0  0  # atno 8010 bound_to 7997
  139.5535  144.6831  151.4251 H   0  0  0  0  0  0  0  0  0  0  0  0  # atno 10167 bound_to 10162
  157.5743  130.8931  149.9320 H   0  0  0  0  0  0  0  0  0  0  0  0  # atno 10718 bound_to 10713
  154.7531  135.3097  154.8521 H   0  0  0  0  0  0  0  0  0  0  0  0  # atno 10763 bound_to 10752
  153.9303  135.6786  153.4750 H   0  0  0  0  0  0  0  0  0  0  0  0  # atno 10764 bound_to 10752
  153.1127  135.4859  154.8992 H   0  0  0  0  0  0  0  0  0  0  0  0  # atno 10765 bound_to 10752
  139.9583  134.7105  156.0703 H   0  0  0  0  0  0  0  0  0  0  0  0  # atno 11005 bound_to 11000
  145.8023  139.1969  143.2041 LP  0  0  0  0  0  0  0  0  0  0  0  0  # atno 17320 bound_to 7965
  146.0666  140.7914  142.9708 LP  0  0  0  0  0  0  0  0  0  0  0  0  # atno 17321 bound_to 7965
  140.6803  143.8096  150.7113 LP  0  0  0  0  0  0  0  0  0  0  0  0  # atno 17342 bound_to 10162
  140.1547  143.4327  152.2107 LP  0  0  0  0  0  0  0  0  0  0  0  0  # atno 17343 bound_to 10162
  156.0788  130.3675  150.0623 LP  0  0  0  0  0  0  0  0  0  0  0  0  # atno 17370 bound_to 10713
  156.8772  130.9544  151.3603 LP  0  0  0  0  0  0  0  0  0  0  0  0  # atno 17371 bound_to 10713
  141.1257  133.6600  156.3331 LP  0  0  0  0  0  0  0  0  0  0  0  0  # atno 17394 bound_to 11000
  140.5558  134.5982  157.5420 LP  0  0  0  0  0  0  0  0  0  0  0  0  # atno 17395 bound_to 11000

$$$$
