AV-unprocessed.smi:169|AV-procd|sdf|1405|dock1
  -GOLD-   2262019153D 1   1.00000     0.00000
 Structure written by MMmdl.
 56 60  0  0  0  0  0  0  0  0  2 V2000
  152.5145  143.3015  159.4160 C   0  0  0  0  0  0  0  0  0  0  0  0
  151.9238  143.3826  157.9970 C   0  0  0  0  0  0  0  0  0  0  0  0
  151.1788  142.1643  157.5837 N   0  3  1  0  0  0  0  0  0  0  0  0
  152.0106  140.9343  157.5956 C   0  0  0  0  0  0  0  0  0  0  0  0
  151.6783  139.9776  156.4332 C   0  0  0  0  0  0  0  0  0  0  0  0
  150.1805  139.6806  156.1945 C   0  0  2  0  0  0  0  0  0  0  0  0
  149.4882  140.7149  155.2821 C   0  0  0  0  0  0  0  0  0  0  0  0
  148.5144  141.4755  156.1880 C   0  0  0  0  0  0  0  0  0  0  0  0
  148.8895  141.0389  157.6078 C   0  0  2  0  0  0  0  0  0  0  0  0
  149.8801  142.0058  158.2959 C   0  0  0  0  0  0  0  0  0  0  0  0
  149.4251  139.6900  157.4473 N   0  0  0  0  0  0  0  0  0  0  0  0
  148.5571  138.6876  157.7422 C   0  0  0  0  0  0  0  0  0  0  0  0
  147.3341  138.6290  157.1514 N   0  0  0  0  0  0  0  0  0  0  0  0
  146.4839  137.6443  157.4565 C   0  0  0  0  0  0  0  0  0  0  0  0
  146.6500  136.6348  158.3128 N   0  0  0  0  0  0  0  0  0  0  0  0
  147.8732  136.6890  158.9123 C   0  0  0  0  0  0  0  0  0  0  0  0
  148.8782  137.6704  158.6833 C   0  0  0  0  0  0  0  0  0  0  0  0
  149.9969  137.3962  159.4606 N   0  0  0  0  0  0  0  0  0  0  0  0
  149.6702  136.3151  160.1148 C   0  0  0  0  0  0  0  0  0  0  0  0
  148.4074  135.8292  159.8563 N   0  0  0  0  0  0  0  0  0  0  0  0
  147.7940  134.6503  160.4491 C   0  0  0  0  0  0  0  0  0  0  0  0
  147.4721  134.7935  161.9516 C   0  0  0  0  0  0  0  0  0  0  0  0
  146.6849  136.0876  162.2247 C   0  0  0  0  0  0  0  0  0  0  0  0
  147.5218  137.2256  162.1737 O   0  0  0  0  0  0  0  0  0  0  0  0
  146.8918  133.5476  162.6366 C   0  0  0  0  0  0  0  0  0  0  0  0
  147.8606  133.6163  163.7037 O   0  0  0  0  0  0  0  0  0  0  0  0
  148.6410  134.5375  162.9128 C   0  0  0  0  0  0  0  0  0  0  0  0
  153.0693  144.2104  159.6493 H   0  0  0  0  0  0  0  0  0  0  0  0
  153.2044  142.4641  159.5209 H   0  0  0  0  0  0  0  0  0  0  0  0
  151.7378  143.1949  160.1732 H   0  0  0  0  0  0  0  0  0  0  0  0
  151.2601  144.2452  157.9266 H   0  0  0  0  0  0  0  0  0  0  0  0
  152.7237  143.5658  157.2786 H   0  0  0  0  0  0  0  0  0  0  0  0
  153.0673  141.1937  157.5137 H   0  0  0  0  0  0  0  0  0  0  0  0
  151.9060  140.4252  158.5553 H   0  0  0  0  0  0  0  0  0  0  0  0
  152.1303  140.3427  155.5102 H   0  0  0  0  0  0  0  0  0  0  0  0
  152.1839  139.0336  156.6401 H   0  0  0  0  0  0  0  0  0  0  0  0
  150.1364  138.7111  155.6976 H   0  0  0  0  0  0  0  0  0  0  0  0
  150.2030  141.3938  154.8161 H   0  0  0  0  0  0  0  0  0  0  0  0
  148.9436  140.2198  154.4771 H   0  0  0  0  0  0  0  0  0  0  0  0
  148.5568  142.5558  156.0454 H   0  0  0  0  0  0  0  0  0  0  0  0
  147.4946  141.1569  155.9676 H   0  0  0  0  0  0  0  0  0  0  0  0
  147.9789  141.0276  158.2088 H   0  0  0  0  0  0  0  0  0  0  0  0
  150.0591  141.6727  159.3190 H   0  0  0  0  0  0  0  0  0  0  0  0
  149.3982  142.9810  158.3766 H   0  0  0  0  0  0  0  0  0  0  0  0
  145.5345  137.6686  156.9417 H   0  0  0  0  0  0  0  0  0  0  0  0
  150.3425  135.8425  160.8164 H   0  0  0  0  0  0  0  0  0  0  0  0
  146.8885  134.4268  159.8834 H   0  0  0  0  0  0  0  0  0  0  0  0
  148.4574  133.8011  160.2811 H   0  0  0  0  0  0  0  0  0  0  0  0
  145.8616  136.2152  161.5218 H   0  0  0  0  0  0  0  0  0  0  0  0
  146.2298  136.0551  163.2153 H   0  0  0  0  0  0  0  0  0  0  0  0
  148.2845  137.0609  162.7075 H   0  0  0  0  0  0  0  0  0  0  0  0
  145.8662  133.6685  162.9872 H   0  0  0  0  0  0  0  0  0  0  0  0
  147.0002  132.6271  162.0618 H   0  0  0  0  0  0  0  0  0  0  0  0
  149.4980  134.0470  162.4480 H   0  0  0  0  0  0  0  0  0  0  0  0
  148.9552  135.4155  163.4782 H   0  0  0  0  0  0  0  0  0  0  0  0
  150.9444  142.3268  156.6146 H   0  0  0  0  0  0  0  0  0  0  0  0
  1  2  1  0  0  0  0
  1 28  1  0  0  0  0
  1 29  1  0  0  0  0
  1 30  1  0  0  0  0
  2  3  1  0  0  0  0
  2 31  1  0  0  0  0
  2 32  1  0  0  0  0
  3 10  1  0  0  0  0
  3  4  1  0  0  0  0
  3 56  1  0  0  0  0
  4  5  1  0  0  0  0
  4 33  1  0  0  0  0
  4 34  1  0  0  0  0
  5  6  1  0  0  0  0
  5 35  1  0  0  0  0
  5 36  1  0  0  0  0
  6 11  1  0  0  0  0
  6  7  1  0  0  0  0
  6 37  1  0  0  0  0
  7  8  1  0  0  0  0
  7 38  1  0  0  0  0
  7 39  1  0  0  0  0
  8  9  1  0  0  0  0
  8 40  1  0  0  0  0
  8 41  1  0  0  0  0
  9 10  1  0  0  0  0
  9 11  1  0  0  0  0
  9 42  1  0  0  0  0
 10 43  1  0  0  0  0
 10 44  1  0  0  0  0
 11 12  1  0  0  0  0
 12 17  1  0  0  0  0
 12 13  2  0  0  0  0
 13 14  1  0  0  0  0
 14 15  2  0  0  0  0
 14 45  1  0  0  0  0
 15 16  1  0  0  0  0
 16 20  1  0  0  0  0
 16 17  2  0  0  0  0
 17 18  1  0  0  0  0
 18 19  2  0  0  0  0
 19 20  1  0  0  0  0
 19 46  1  0  0  0  0
 20 21  1  0  0  0  0
 21 22  1  0  0  0  0
 21 47  1  0  0  0  0
 21 48  1  0  0  0  0
 22 27  1  0  0  0  0
 22 23  1  0  0  0  0
 22 25  1  0  0  0  0
 23 24  1  0  0  0  0
 23 49  1  0  0  0  0
 23 50  1  0  0  0  0
 24 51  1  0  0  0  0
 25 26  1  0  0  0  0
 25 52  1  0  0  0  0
 25 53  1  0  0  0  0
 26 27  1  0  0  0  0
 27 54  1  0  0  0  0
 27 55  1  0  0  0  0
M  CHG  1   3   1
M  END
> <s_m_source_file>
AV-unprocessed.smi

> <i_m_source_file_index>
169

> <i_lp_mmshare_version>
43012

> <i_f3d_flags>
0

> <s_epik_input>
W0NASF0xMltDSDJdW0NIMl1OKFtDSDJdW0NIM10pW0NIMl1bQ0BIXShbQ0gyXVtDSDJdMSlOMmMobltjSF1uMyljKGMzNCluW2NIXW40W0NIMl1DNShbQ0gyXVtPSF0pW0NIMl1PW0NIMl01

> <s_epik_cmdline>
J2VwaWtfcHl0aG9uJywgJy1waCcsICc3LjAnLCAnLXRuJywgJzgnLCAnLW1hJywgJzIwMCcsICctbWV0YWxfYmluZGluZycsICctaW1hZScsICc8aW5maWxlLm1hZT4nLCAnLW9tYWUnLCAnPG91dGZpbGUubWFlPic=

> <r_lp_tautomer_probability>
1

> <r_epik_Ionization_Penalty>
0.00274162

> <r_epik_Ionization_Penalty_Charging>
0.00243722

> <r_epik_Ionization_Penalty_Neutral>
0.000304399

> <r_epik_State_Penalty>
-0

> <r_epik_Charging_Adjusted_Penalty>
0.00243722

> <i_epik_Tot_Q>
1

> <i_epik_Tot_abs_Q>
1

> <r_epik_Metal_State_Penalty>
-0

> <b_epik_Metal_Only>
0

> <s_lp_Force_Field>
OPLS_2005

> <r_lp_Energy>
77.4951

> <b_lp_Chiralities_Consistent>
1

> <s_lp_Variant>
AV-unprocessed.smi:169-8

> <Gold.Version>
5.8.1

> <Gold.Id.Protein>
6NUR|6NUR_protein|mol2

> <Gold.PLP.Fitness>
39.6478

> <Gold.PLP.PLP>
-37.7259

> <Gold.PLP.part.hbond>
-3.1868

> <Gold.PLP.part.metal>
0.0000

> <Gold.PLP.part.buried>
-4.2405

> <Gold.PLP.part.nonpolar>
-31.1750

> <Gold.PLP.part.repulsive>
0.0611

> <Gold.PLP.ligand.clash>
0.0000

> <Gold.PLP.ligand.torsion>
0.7184

> <Gold.PLP.Chemscore.Hbond>
0.9280

> <Gold.PLP.Chemscore.CHOScore>
0.0000

> <Gold.PLP.Chemscore.Metal>
0.0000

> <Gold.Chemscore.Hbonds>
donor molecule, donor type, donor heavy atom, donor atom, acceptor molecule, acceptor atom, score
      P1  H  6934  6947       L1    24  0.36

> <Gold.PLP.Chemscore.Internal.Correction>
0.5748

> <Gold.Rescore>
     Score         DG    S(hbond)    S(metal)    S(lipo)     H(rot)  DE(clash)    DE(int)     intcor
     11.29     -12.94       0.83        0.00      97.35       2.62       0.65       1.00       ----

> <Gold.Chemscore.Fitness>
11.2859

> <Gold.Chemscore.DG>
-12.9356

> <Gold.Chemscore.ZeroCoef>
-5.4800

> <Gold.Chemscore.Hbond>
0.8311

> <Gold.Chemscore.Metal>
0.0000

> <Gold.Chemscore.Lipo>
97.3493

> <Gold.Chemscore.Internal_Hbond>
0.0000

> <Gold.Chemscore.DEClash>
0.6493

> <Gold.Chemscore.DEInternal>
1.0005

> <Gold.Chemscore.Rot>
2.6212

> <Gold.Chemscore.Internal.Correction>
   9.000000E+99

> <Gold.Chemscore.Hbonds>
donor molecule, donor type, donor heavy atom, donor atom, acceptor molecule, acceptor atom, score
      P1  H  6934  6947       L1    24  0.35

> <Gold.Chemscore.Hbond.Weighted>
-2.7760

> <Gold.Chemscore.Metal.Weighted>
-0.0000

> <Gold.Chemscore.Lipo.Weighted>
-11.3899

> <Gold.Chemscore.Internal_Hbond.Weighted>
0.0000

> <Gold.Chemscore.DEClash.Weighted>
0.6493

> <Gold.Chemscore.DEInternal.Weighted>
1.0005

> <Gold.Chemscore.Rot.Weighted>
6.7102

> <Gold.Chemscore.Internal.Correction.Weighted>
   9.000000E+99

> <Gold.Protein.RotatedTorsions>
[ 6907 6896 6895 6894 ] final  -53.97 input  -60.11 | X-H torsion
[ 7974 7965 7964 7962 ] final -177.82 input  175.53 | X-H torsion
[ 8008 7997 7996 7995 ] final  -41.61 input   59.86 | X-H torsion
[ 10167 10162 10161 10158 ] final    2.36 input  -65.29 | X-H torsion
[ 10718 10713 10712 10709 ] final  -95.57 input   66.30 | X-H torsion
[ 10763 10752 10751 10750 ] final  118.22 input  -60.55 | X-H torsion
[ 11005 11000 10999 10996 ] final  -56.91 input  -57.11 | X-H torsion

> <Gold.Protein.ActiveResidues>
 VAL166  LYS551  ARG553  GLY616  TRP617  ASP618  TYR619  PRO620  LYS621  CYS622 
 ASP623  PHE694  ASN695  SER759  ASP760  ASP761  ALA762  ILE779  LEU786  VAL792 
 PHE793  MET794  SER795  GLU796  ALA797  LYS798  CYS799  TRP800  GLU811  SER814 

> <Gold.Protein.RotatedAtoms>
  150.8379  134.7660  159.6908 H   0  0  0  0  0  0  0  0  0  0  0  0  # atno 6907 bound_to 6896
  152.4473  134.5465  159.9864 H   0  0  0  0  0  0  0  0  0  0  0  0  # atno 6908 bound_to 6896
  151.5611  133.3365  159.3007 H   0  0  0  0  0  0  0  0  0  0  0  0  # atno 6909 bound_to 6896
  144.7129  140.0962  143.6419 H   0  0  0  0  0  0  0  0  0  0  0  0  # atno 7974 bound_to 7965
  154.4003  140.1495  156.3219 H   0  0  0  0  0  0  0  0  0  0  0  0  # atno 8008 bound_to 7997
  155.8522  140.3457  155.5679 H   0  0  0  0  0  0  0  0  0  0  0  0  # atno 8009 bound_to 7997
  155.7971  140.0865  157.1968 H   0  0  0  0  0  0  0  0  0  0  0  0  # atno 8010 bound_to 7997
  140.6638  143.7232  150.7789 H   0  0  0  0  0  0  0  0  0  0  0  0  # atno 10167 bound_to 10162
  156.0046  130.5114  150.6096 H   0  0  0  0  0  0  0  0  0  0  0  0  # atno 10718 bound_to 10713
  153.5644  135.3514  155.2812 H   0  0  0  0  0  0  0  0  0  0  0  0  # atno 10763 bound_to 10752
  154.8690  135.4144  154.2795 H   0  0  0  0  0  0  0  0  0  0  0  0  # atno 10764 bound_to 10752
  153.3548  135.7057  153.6829 H   0  0  0  0  0  0  0  0  0  0  0  0  # atno 10765 bound_to 10752
  141.1141  133.6610  156.4690 H   0  0  0  0  0  0  0  0  0  0  0  0  # atno 11005 bound_to 11000
  145.9577  139.2778  143.1174 LP  0  0  0  0  0  0  0  0  0  0  0  0  # atno 17320 bound_to 7965
  145.9254  140.9086  143.0383 LP  0  0  0  0  0  0  0  0  0  0  0  0  # atno 17321 bound_to 7965
  140.0906  143.4881  152.2480 LP  0  0  0  0  0  0  0  0  0  0  0  0  # atno 17342 bound_to 10162
  139.5881  144.7539  151.3470 LP  0  0  0  0  0  0  0  0  0  0  0  0  # atno 17343 bound_to 10162
  157.3931  131.0798  151.1376 LP  0  0  0  0  0  0  0  0  0  0  0  0  # atno 17370 bound_to 10713
  157.2062  130.6417  149.5757 LP  0  0  0  0  0  0  0  0  0  0  0  0  # atno 17371 bound_to 10713
  140.4694  134.6767  157.5122 LP  0  0  0  0  0  0  0  0  0  0  0  0  # atno 17394 bound_to 11000
  140.0052  134.6774  155.9466 LP  0  0  0  0  0  0  0  0  0  0  0  0  # atno 17395 bound_to 11000

$$$$
