AV-unprocessed.smi:2241|AV-procd|sdf|9058|dock10
  -GOLD-   2272012263D 1   1.00000     0.00000
 Structure written by MMmdl.
 45 47  0  0  0  0  0  0  0  0  1 V2000
  145.3762  133.5207  150.6470 C   0  0  0  0  0  0  0  0  0  0  0  0
  144.6048  134.5625  151.4312 C   0  0  0  0  0  0  0  0  0  0  0  0
  143.2807  134.3071  151.8381 C   0  0  0  0  0  0  0  0  0  0  0  0
  142.5707  135.2786  152.5666 C   0  0  0  0  0  0  0  0  0  0  0  0
  143.1799  136.5061  152.8914 C   0  0  0  0  0  0  0  0  0  0  0  0
  142.2842  137.6806  153.7871 Cl  0  0  0  0  0  0  0  0  0  0  0  0
  144.5078  136.7771  152.4930 C   0  0  0  0  0  0  0  0  0  0  0  0
  145.0391  138.0000  152.8480 O   0  0  0  0  0  0  0  0  0  0  0  0
  146.1574  138.4895  152.1210 C   0  0  0  0  0  0  0  0  0  0  0  0
  147.2525  138.9024  153.1209 C   0  0  2  0  0  0  0  0  0  0  0  0
  147.6337  137.7578  153.8558 O   0  0  0  0  0  0  0  0  0  0  0  0
  146.7954  139.9691  154.1436 C   0  0  0  0  0  0  0  0  0  0  0  0
  147.9006  140.4933  154.9660 N   0  0  0  0  0  0  0  0  0  0  0  0
  149.2081  140.2571  154.4973 C   0  0  0  0  0  0  0  0  0  0  0  0
  150.2506  140.6652  155.1480 N   0  0  0  0  0  0  0  0  0  0  0  0
  150.0911  141.3656  156.3492 C   0  0  0  0  0  0  0  0  0  0  0  0
  151.3513  141.7863  157.0928 C   0  0  0  0  0  0  0  0  0  0  0  0
  151.4084  141.4319  158.5887 C   0  0  0  0  0  0  0  0  0  0  0  0
  152.0796  142.7907  158.8183 C   0  0  0  0  0  0  0  0  0  0  0  0
  151.4185  143.2622  157.5183 C   0  0  0  0  0  0  0  0  0  0  0  0
  148.8541  141.6254  156.8356 C   0  0  0  0  0  0  0  0  0  0  0  0
  147.6582  141.1871  156.1165 C   0  0  0  0  0  0  0  0  0  0  0  0
  146.5193  141.4222  156.5206 O   0  0  0  0  0  0  0  0  0  0  0  0
  145.2154  135.7905  151.7589 C   0  0  0  0  0  0  0  0  0  0  0  0
  144.7048  132.7905  150.1938 H   0  0  0  0  0  0  0  0  0  0  0  0
  146.0668  132.9910  151.3036 H   0  0  0  0  0  0  0  0  0  0  0  0
  145.9521  133.9897  149.8487 H   0  0  0  0  0  0  0  0  0  0  0  0
  142.8058  133.3681  151.5940 H   0  0  0  0  0  0  0  0  0  0  0  0
  141.5554  135.0805  152.8773 H   0  0  0  0  0  0  0  0  0  0  0  0
  146.5201  137.6808  151.4868 H   0  0  0  0  0  0  0  0  0  0  0  0
  145.8865  139.3262  151.4746 H   0  0  0  0  0  0  0  0  0  0  0  0
  148.1270  139.2641  152.5791 H   0  0  0  0  0  0  0  0  0  0  0  0
  148.1099  137.1791  153.2798 H   0  0  0  0  0  0  0  0  0  0  0  0
  146.2660  140.7696  153.6226 H   0  0  0  0  0  0  0  0  0  0  0  0
  146.0476  139.5351  154.8106 H   0  0  0  0  0  0  0  0  0  0  0  0
  149.2796  139.7048  153.5587 H   0  0  0  0  0  0  0  0  0  0  0  0
  152.2549  141.4736  156.5663 H   0  0  0  0  0  0  0  0  0  0  0  0
  150.4269  141.3701  159.0627 H   0  0  0  0  0  0  0  0  0  0  0  0
  152.0285  140.5682  158.8302 H   0  0  0  0  0  0  0  0  0  0  0  0
  151.7524  143.3176  159.7154 H   0  0  0  0  0  0  0  0  0  0  0  0
  153.1677  142.7440  158.7482 H   0  0  0  0  0  0  0  0  0  0  0  0
  152.0471  143.8917  156.8877 H   0  0  0  0  0  0  0  0  0  0  0  0
  150.4382  143.7117  157.6895 H   0  0  0  0  0  0  0  0  0  0  0  0
  148.7391  142.1606  157.7670 H   0  0  0  0  0  0  0  0  0  0  0  0
  146.2318  135.9537  151.4345 H   0  0  0  0  0  0  0  0  0  0  0  0
  1  2  1  0  0  0  0
  1 25  1  0  0  0  0
  1 26  1  0  0  0  0
  1 27  1  0  0  0  0
  2 24  1  0  0  0  0
  2  3  2  0  0  0  0
  3  4  1  0  0  0  0
  3 28  1  0  0  0  0
  4  5  2  0  0  0  0
  4 29  1  0  0  0  0
  5  6  1  0  0  0  0
  5  7  1  0  0  0  0
  7  8  1  0  0  0  0
  7 24  2  0  0  0  0
  8  9  1  0  0  0  0
  9 10  1  0  0  0  0
  9 30  1  0  0  0  0
  9 31  1  0  0  0  0
 10 11  1  0  0  0  0
 10 12  1  0  0  0  0
 10 32  1  0  0  0  0
 11 33  1  0  0  0  0
 12 13  1  0  0  0  0
 12 34  1  0  0  0  0
 12 35  1  0  0  0  0
 13 22  1  0  0  0  0
 13 14  1  0  0  0  0
 14 15  2  0  0  0  0
 14 36  1  0  0  0  0
 15 16  1  0  0  0  0
 16 17  1  0  0  0  0
 16 21  2  0  0  0  0
 17 20  1  0  0  0  0
 17 18  1  0  0  0  0
 17 37  1  0  0  0  0
 18 19  1  0  0  0  0
 18 38  1  0  0  0  0
 18 39  1  0  0  0  0
 19 20  1  0  0  0  0
 19 40  1  0  0  0  0
 19 41  1  0  0  0  0
 20 42  1  0  0  0  0
 20 43  1  0  0  0  0
 21 22  1  0  0  0  0
 21 44  1  0  0  0  0
 22 23  2  0  0  0  0
 24 45  1  0  0  0  0
M  END
> <s_m_source_file>
AV-unprocessed.smi

> <i_m_source_file_index>
2241

> <i_lp_mmshare_version>
43012

> <i_f3d_flags>
0

> <s_epik_input>
W0NIM11jMVtjSF1bY0hdYyhDbCljKFtjSF0xKU9bQ0gyXVtDQEhdKFtPSF0pW0NIMl1uMltjSF1uYyhbY0hdYzI9TylbQ0hdM1tDSDJdW0NIMl1bQ0gyXTM=

> <s_epik_cmdline>
J2VwaWtfcHl0aG9uJywgJy1waCcsICc3LjAnLCAnLXRuJywgJzgnLCAnLW1hJywgJzIwMCcsICctbWV0YWxfYmluZGluZycsICctaW1hZScsICc8aW5maWxlLm1hZT4nLCAnLW9tYWUnLCAnPG91dGZpbGUubWFlPic=

> <r_lp_tautomer_probability>
1

> <r_epik_Ionization_Penalty>
1.78212e-05

> <r_epik_Ionization_Penalty_Charging>
5.61663e-08

> <r_epik_Ionization_Penalty_Neutral>
1.7765e-05

> <r_epik_State_Penalty>
-0

> <r_epik_Charging_Adjusted_Penalty>
5.61663e-08

> <i_epik_Tot_Q>
0

> <i_epik_Tot_abs_Q>
0

> <r_epik_Metal_State_Penalty>
-0

> <b_epik_Metal_Only>
0

> <s_lp_Force_Field>
OPLS_2005

> <r_lp_Energy>
31.1581

> <b_lp_Chiralities_Consistent>
1

> <s_lp_Variant>
AV-unprocessed.smi:2241-1

> <Gold.Version>
5.8.1

> <Gold.Id.Protein>
6NUR|6NUR_protein|mol2

> <Gold.PLP.Fitness>
47.6166

> <Gold.PLP.PLP>
-41.0802

> <Gold.PLP.part.hbond>
-2.0000

> <Gold.PLP.part.metal>
0.0000

> <Gold.PLP.part.buried>
-4.1478

> <Gold.PLP.part.nonpolar>
-36.4862

> <Gold.PLP.part.repulsive>
0.4152

> <Gold.PLP.ligand.clash>
0.0542

> <Gold.PLP.ligand.torsion>
1.0790

> <Gold.PLP.Chemscore.Hbond>
1.7851

> <Gold.PLP.Chemscore.CHOScore>
1.0000

> <Gold.PLP.Chemscore.Metal>
0.0000

> <Gold.Chemscore.Hbonds>
donor molecule, donor type, donor heavy atom, donor atom, acceptor molecule, acceptor atom, score
      L1  H    11    33       P1  7948  1.00
      P1  H  7989  7998       L1    15  0.58
      L1  C    14    36       P1  7957  1.00

> <Gold.PLP.Chemscore.Internal.Correction>
0.3934

> <Gold.Rescore>
     Score         DG    S(hbond)    S(metal)    S(lipo)     H(rot)  DE(clash)    DE(int)     intcor
     13.81     -16.08       1.27        0.00     106.30       2.38       0.48       1.78       ----

> <Gold.Chemscore.Fitness>
13.8103

> <Gold.Chemscore.DG>
-16.0789

> <Gold.Chemscore.ZeroCoef>
-5.4800

> <Gold.Chemscore.Hbond>
1.2740

> <Gold.Chemscore.Metal>
0.0000

> <Gold.Chemscore.Lipo>
106.2963

> <Gold.Chemscore.Internal_Hbond>
0.0000

> <Gold.Chemscore.DEClash>
0.4841

> <Gold.Chemscore.DEInternal>
1.7845

> <Gold.Chemscore.Rot>
2.3801

> <Gold.Chemscore.Internal.Correction>
   9.000000E+99

> <Gold.Chemscore.Hbonds>
donor molecule, donor type, donor heavy atom, donor atom, acceptor molecule, acceptor atom, score
      L1  H    11    33       P1  7948  1.00
      P1  H  7989  7998       L1    15  0.13

> <Gold.Chemscore.Hbond.Weighted>
-4.2553

> <Gold.Chemscore.Metal.Weighted>
-0.0000

> <Gold.Chemscore.Lipo.Weighted>
-12.4367

> <Gold.Chemscore.Internal_Hbond.Weighted>
0.0000

> <Gold.Chemscore.DEClash.Weighted>
0.4841

> <Gold.Chemscore.DEInternal.Weighted>
1.7845

> <Gold.Chemscore.Rot.Weighted>
6.0931

> <Gold.Chemscore.Internal.Correction.Weighted>
   9.000000E+99

> <Gold.Protein.RotatedTorsions>
[ 6907 6896 6895 6894 ] final -107.50 input  -60.11 | X-H torsion
[ 7974 7965 7964 7962 ] final   64.19 input  175.53 | X-H torsion
[ 8008 7997 7996 7995 ] final  -55.61 input   59.86 | X-H torsion
[ 10167 10162 10161 10158 ] final   64.02 input  -65.29 | X-H torsion
[ 10718 10713 10712 10709 ] final   49.24 input   66.30 | X-H torsion
[ 10763 10752 10751 10750 ] final   18.36 input  -60.55 | X-H torsion
[ 11005 11000 10999 10996 ] final -145.56 input  -57.11 | X-H torsion

> <Gold.Protein.ActiveResidues>
 VAL166  LYS551  ARG553  GLY616  TRP617  ASP618  TYR619  PRO620  LYS621  CYS622 
 ASP623  PHE694  ASN695  SER759  ASP760  ASP761  ALA762  ILE779  LEU786  VAL792 
 PHE793  MET794  SER795  GLU796  ALA797  LYS798  CYS799  TRP800  GLU811  SER814 

> <Gold.Protein.RotatedAtoms>
  150.7448  133.9816  159.3577 H   0  0  0  0  0  0  0  0  0  0  0  0  # atno 6907 bound_to 6896
  151.7758  135.0772  160.0376 H   0  0  0  0  0  0  0  0  0  0  0  0  # atno 6908 bound_to 6896
  152.3308  133.5919  159.5844 H   0  0  0  0  0  0  0  0  0  0  0  0  # atno 6909 bound_to 6896
  145.8531  139.3267  143.0863 H   0  0  0  0  0  0  0  0  0  0  0  0  # atno 7974 bound_to 7965
  154.4201  140.1149  156.5505 H   0  0  0  0  0  0  0  0  0  0  0  0  # atno 8008 bound_to 7997
  155.6415  140.3496  155.4697 H   0  0  0  0  0  0  0  0  0  0  0  0  # atno 8009 bound_to 7997
  155.9867  140.1171  157.0666 H   0  0  0  0  0  0  0  0  0  0  0  0  # atno 8010 bound_to 7997
  140.1267  144.4681  150.6888 H   0  0  0  0  0  0  0  0  0  0  0  0  # atno 10167 bound_to 10162
  157.4767  130.8289  149.8047 H   0  0  0  0  0  0  0  0  0  0  0  0  # atno 10718 bound_to 10713
  153.1256  135.6729  153.9263 H   0  0  0  0  0  0  0  0  0  0  0  0  # atno 10763 bound_to 10752
  153.8765  135.3063  155.3445 H   0  0  0  0  0  0  0  0  0  0  0  0  # atno 10764 bound_to 10752
  154.7661  135.4963  153.9638 H   0  0  0  0  0  0  0  0  0  0  0  0  # atno 10765 bound_to 10752
  140.7910  134.2968  157.5013 H   0  0  0  0  0  0  0  0  0  0  0  0  # atno 11005 bound_to 11000
  145.9334  140.9032  143.0344 LP  0  0  0  0  0  0  0  0  0  0  0  0  # atno 17320 bound_to 7965
  144.6728  140.1450  143.7434 LP  0  0  0  0  0  0  0  0  0  0  0  0  # atno 17321 bound_to 7965
  140.6840  143.2341  151.5308 LP  0  0  0  0  0  0  0  0  0  0  0  0  # atno 17342 bound_to 10162
  139.5540  144.2322  152.1581 LP  0  0  0  0  0  0  0  0  0  0  0  0  # atno 17343 bound_to 10162
  156.0100  130.3837  150.2297 LP  0  0  0  0  0  0  0  0  0  0  0  0  # atno 17370 bound_to 10713
  157.0481  131.0055  151.3262 LP  0  0  0  0  0  0  0  0  0  0  0  0  # atno 17371 bound_to 10713
  139.8731  134.9374  156.3687 LP  0  0  0  0  0  0  0  0  0  0  0  0  # atno 17394 bound_to 11000
  140.9389  133.7528  156.0121 LP  0  0  0  0  0  0  0  0  0  0  0  0  # atno 17395 bound_to 11000

$$$$
