AV-unprocessed.smi:1295|AV-procd|sdf|5411|dock10
  -GOLD-   22720 4573D 1   1.00000     0.00000
 Structure written by MMmdl.
 42 43  0  0  0  0  0  0  0  0  2 V2000
  149.1141  140.9980  153.7084 C   0  0  0  0  0  0  0  0  0  0  0  0
  149.9960  140.5514  154.8547 C   0  0  0  0  0  0  0  0  0  0  0  0
  151.2544  140.4303  154.6648 N   0  0  0  0  0  0  0  0  0  0  0  0
  152.0771  140.0145  155.7251 C   0  0  0  0  0  0  0  0  0  0  0  0
  153.5608  139.9194  155.4166 C   0  0  0  0  0  0  0  0  0  0  0  0
  151.5560  139.7295  156.9526 C   0  0  0  0  0  0  0  0  0  0  0  0
  152.4111  139.2936  158.1447 C   0  0  0  0  0  0  0  0  0  0  0  0
  153.4810  140.2911  158.5962 C   0  0  0  0  0  0  0  0  0  0  0  0
  154.6733  140.0298  158.4393 O   0  0  0  0  0  0  0  0  0  0  0  0
  153.0368  141.4280  159.1521 N   0  0  0  0  0  0  0  0  0  0  0  0
  153.8475  142.5604  159.5919 C   0  0  2  0  0  0  0  0  0  0  0  0
  154.6717  142.1785  160.8386 C   0  0  0  0  0  0  0  0  0  0  0  0
  153.7848  141.9783  162.0800 C   0  0  0  0  0  0  0  0  0  0  0  0
  152.9142  143.2151  162.3466 C   0  0  0  0  0  0  0  0  0  0  0  0
  152.0721  143.5839  161.1147 C   0  0  0  0  0  0  0  0  0  0  0  0
  152.9540  143.7958  159.8659 C   0  0  2  0  0  0  0  0  0  0  0  0
  152.1107  144.2024  158.6439 C   0  0  0  0  0  0  0  0  0  0  0  0
  150.1016  139.8886  157.1319 C   0  0  0  0  0  0  0  0  0  0  0  0
  149.5842  139.6712  158.2269 O   0  0  0  0  0  0  0  0  0  0  0  0
  149.3719  140.2965  156.0551 N   0  5  0  0  0  0  0  0  0  0  0  0
  149.7120  141.3141  152.8526 H   0  0  0  0  0  0  0  0  0  0  0  0
  148.4876  141.8367  154.0140 H   0  0  0  0  0  0  0  0  0  0  0  0
  148.4670  140.1799  153.3906 H   0  0  0  0  0  0  0  0  0  0  0  0
  153.9087  138.8919  155.5248 H   0  0  0  0  0  0  0  0  0  0  0  0
  154.1340  140.5544  156.0923 H   0  0  0  0  0  0  0  0  0  0  0  0
  153.7737  140.2402  154.3964 H   0  0  0  0  0  0  0  0  0  0  0  0
  151.7834  139.0505  159.0026 H   0  0  0  0  0  0  0  0  0  0  0  0
  152.9066  138.3563  157.8908 H   0  0  0  0  0  0  0  0  0  0  0  0
  152.0363  141.5347  159.2444 H   0  0  0  0  0  0  0  0  0  0  0  0
  154.5442  142.8257  158.7948 H   0  0  0  0  0  0  0  0  0  0  0  0
  155.2530  141.2761  160.6454 H   0  0  0  0  0  0  0  0  0  0  0  0
  155.3970  142.9668  161.0429 H   0  0  0  0  0  0  0  0  0  0  0  0
  153.1467  141.1046  161.9416 H   0  0  0  0  0  0  0  0  0  0  0  0
  154.4075  141.7686  162.9500 H   0  0  0  0  0  0  0  0  0  0  0  0
  152.2616  143.0323  163.2008 H   0  0  0  0  0  0  0  0  0  0  0  0
  153.5512  144.0577  162.6184 H   0  0  0  0  0  0  0  0  0  0  0  0
  151.3386  142.7984  160.9256 H   0  0  0  0  0  0  0  0  0  0  0  0
  151.5015  144.4891  161.3242 H   0  0  0  0  0  0  0  0  0  0  0  0
  153.6213  144.6322  160.0798 H   0  0  0  0  0  0  0  0  0  0  0  0
  151.3688  143.4434  158.3920 H   0  0  0  0  0  0  0  0  0  0  0  0
  152.7402  144.3558  157.7671 H   0  0  0  0  0  0  0  0  0  0  0  0
  151.5749  145.1330  158.8320 H   0  0  0  0  0  0  0  0  0  0  0  0
  1  2  1  0  0  0  0
  1 21  1  0  0  0  0
  1 22  1  0  0  0  0
  1 23  1  0  0  0  0
  2 20  1  0  0  0  0
  2  3  2  0  0  0  0
  3  4  1  0  0  0  0
  4  5  1  0  0  0  0
  4  6  2  0  0  0  0
  5 24  1  0  0  0  0
  5 25  1  0  0  0  0
  5 26  1  0  0  0  0
  6  7  1  0  0  0  0
  6 18  1  0  0  0  0
  7  8  1  0  0  0  0
  7 27  1  0  0  0  0
  7 28  1  0  0  0  0
  8  9  2  0  0  0  0
  8 10  1  0  0  0  0
 10 11  1  0  0  0  0
 10 29  1  0  0  0  0
 11 16  1  0  0  0  0
 11 12  1  0  0  0  0
 11 30  1  0  0  0  0
 12 13  1  0  0  0  0
 12 31  1  0  0  0  0
 12 32  1  0  0  0  0
 13 14  1  0  0  0  0
 13 33  1  0  0  0  0
 13 34  1  0  0  0  0
 14 15  1  0  0  0  0
 14 35  1  0  0  0  0
 14 36  1  0  0  0  0
 15 16  1  0  0  0  0
 15 37  1  0  0  0  0
 15 38  1  0  0  0  0
 16 17  1  0  0  0  0
 16 39  1  0  0  0  0
 17 40  1  0  0  0  0
 17 41  1  0  0  0  0
 17 42  1  0  0  0  0
 18 19  2  0  0  0  0
 18 20  1  0  0  0  0
M  CHG  1  20  -1
M  END
> <s_m_source_file>
AV-unprocessed.smi

> <i_m_source_file_index>
1295

> <i_lp_mmshare_version>
43012

> <i_f3d_flags>
0

> <s_epik_input>
W0NIM11jMW5jKFtDSDNdKWMoYyg9TylbbkhdMSlbQ0gyXUMoPU8pW05IXVtDQEBIXTJbQ0gyXVtDSDJdW0NIMl1bQ0gyXVtDQEhdMltDSDNd

> <s_epik_cmdline>
J2VwaWtfcHl0aG9uJywgJy1waCcsICc3LjAnLCAnLXRuJywgJzgnLCAnLW1hJywgJzIwMCcsICctbWV0YWxfYmluZGluZycsICctaW1hZScsICc8aW5maWxlLm1hZT4nLCAnLW9tYWUnLCAnPG91dGZpbGUubWFlPic=

> <r_lp_tautomer_probability>
0.839158

> <r_epik_Ionization_Penalty>
6.67742

> <r_epik_Ionization_Penalty_Charging>
7.78154e-08

> <r_epik_Ionization_Penalty_Neutral>
6.67742

> <r_epik_State_Penalty>
4.51991

> <r_epik_Charging_Adjusted_Penalty>
4.51991

> <i_epik_Tot_Q>
-1

> <i_epik_Tot_abs_Q>
1

> <r_epik_Metal_State_Penalty>
0.853272

> <b_epik_Metal_Only>
1

> <s_lp_Force_Field>
OPLS_2005

> <r_lp_Energy>
12.2009

> <b_lp_Chiralities_Consistent>
1

> <s_lp_Variant>
AV-unprocessed.smi:1295-11

> <Gold.Version>
5.8.1

> <Gold.Id.Protein>
6NUR|6NUR_protein|mol2

> <Gold.PLP.Fitness>
50.4887

> <Gold.PLP.PLP>
-45.0908

> <Gold.PLP.part.hbond>
-3.0000

> <Gold.PLP.part.metal>
0.0000

> <Gold.PLP.part.buried>
-3.6677

> <Gold.PLP.part.nonpolar>
-38.4341

> <Gold.PLP.part.repulsive>
0.2663

> <Gold.PLP.ligand.clash>
0.0000

> <Gold.PLP.ligand.torsion>
0.1964

> <Gold.PLP.Chemscore.Hbond>
1.9272

> <Gold.PLP.Chemscore.CHOScore>
0.0000

> <Gold.PLP.Chemscore.Metal>
0.0000

> <Gold.Chemscore.Hbonds>
donor molecule, donor type, donor heavy atom, donor atom, acceptor molecule, acceptor atom, score
      P1  H  7989  7998       L1     3  0.42
      P1  H  7997  8009       L1     9  0.23

> <Gold.PLP.Chemscore.Internal.Correction>
0.0089

> <Gold.Rescore>
     Score         DG    S(hbond)    S(metal)    S(lipo)     H(rot)  DE(clash)    DE(int)     intcor
     17.84     -20.05       1.48        0.00     113.90       1.45       1.19       1.01       ----

> <Gold.Chemscore.Fitness>
17.8443

> <Gold.Chemscore.DG>
-20.0496

> <Gold.Chemscore.ZeroCoef>
-5.4800

> <Gold.Chemscore.Hbond>
1.4799

> <Gold.Chemscore.Metal>
0.0000

> <Gold.Chemscore.Lipo>
113.8973

> <Gold.Chemscore.Internal_Hbond>
0.0000

> <Gold.Chemscore.DEClash>
1.1907

> <Gold.Chemscore.DEInternal>
1.0146

> <Gold.Chemscore.Rot>
1.4450

> <Gold.Chemscore.Internal.Correction>
   9.000000E+99

> <Gold.Chemscore.Hbonds>
donor molecule, donor type, donor heavy atom, donor atom, acceptor molecule, acceptor atom, score
      P1  H  7989  7998       L1     3  0.35
      P1  H  7997  8009       L1     9  0.09

> <Gold.Chemscore.Hbond.Weighted>
-4.9428

> <Gold.Chemscore.Metal.Weighted>
-0.0000

> <Gold.Chemscore.Lipo.Weighted>
-13.3260

> <Gold.Chemscore.Internal_Hbond.Weighted>
0.0000

> <Gold.Chemscore.DEClash.Weighted>
1.1907

> <Gold.Chemscore.DEInternal.Weighted>
1.0146

> <Gold.Chemscore.Rot.Weighted>
3.6992

> <Gold.Chemscore.Internal.Correction.Weighted>
   9.000000E+99

> <Gold.Protein.RotatedTorsions>
[ 6907 6896 6895 6894 ] final  -54.32 input  -60.11 | X-H torsion
[ 7974 7965 7964 7962 ] final  161.19 input  175.53 | X-H torsion
[ 8008 7997 7996 7995 ] final  141.50 input   59.86 | X-H torsion
[ 10167 10162 10161 10158 ] final   -8.19 input  -65.29 | X-H torsion
[ 10718 10713 10712 10709 ] final  172.89 input   66.30 | X-H torsion
[ 10763 10752 10751 10750 ] final  -90.67 input  -60.55 | X-H torsion
[ 11005 11000 10999 10996 ] final  107.13 input  -57.11 | X-H torsion

> <Gold.Protein.ActiveResidues>
 VAL166  LYS551  ARG553  GLY616  TRP617  ASP618  TYR619  PRO620  LYS621  CYS622 
 ASP623  PHE694  ASN695  SER759  ASP760  ASP761  ALA762  ILE779  LEU786  VAL792 
 PHE793  MET794  SER795  GLU796  ALA797  LYS798  CYS799  TRP800  GLU811  SER814 

> <Gold.Protein.RotatedAtoms>
  150.8349  134.7617  159.6883 H   0  0  0  0  0  0  0  0  0  0  0  0  # atno 6907 bound_to 6896
  152.4447  134.5516  159.9878 H   0  0  0  0  0  0  0  0  0  0  0  0  # atno 6908 bound_to 6896
  151.5668  133.3357  159.3017 H   0  0  0  0  0  0  0  0  0  0  0  0  # atno 6909 bound_to 6896
  144.7698  139.7862  143.6301 H   0  0  0  0  0  0  0  0  0  0  0  0  # atno 7974 bound_to 7965
  156.2964  140.2313  156.4575 H   0  0  0  0  0  0  0  0  0  0  0  0  # atno 8008 bound_to 7997
  154.8047  140.0446  157.1320 H   0  0  0  0  0  0  0  0  0  0  0  0  # atno 8009 bound_to 7997
  154.9492  140.3040  155.5087 H   0  0  0  0  0  0  0  0  0  0  0  0  # atno 8010 bound_to 7997
  140.7051  143.5997  150.8811 H   0  0  0  0  0  0  0  0  0  0  0  0  # atno 10167 bound_to 10162
  156.9723  131.0094  151.2902 H   0  0  0  0  0  0  0  0  0  0  0  0  # atno 10718 bound_to 10713
  154.6682  135.5296  153.8104 H   0  0  0  0  0  0  0  0  0  0  0  0  # atno 10763 bound_to 10752
  153.0484  135.6522  154.0766 H   0  0  0  0  0  0  0  0  0  0  0  0  # atno 10764 bound_to 10752
  154.0668  135.2957  155.3295 H   0  0  0  0  0  0  0  0  0  0  0  0  # atno 10765 bound_to 10752
  139.8824  134.9391  156.5773 H   0  0  0  0  0  0  0  0  0  0  0  0  # atno 11005 bound_to 11000
  146.1836  139.5040  142.9850 LP  0  0  0  0  0  0  0  0  0  0  0  0  # atno 17320 bound_to 7965
  145.6357  141.0295  143.1839 LP  0  0  0  0  0  0  0  0  0  0  0  0  # atno 17321 bound_to 7965
  139.9721  143.6045  152.2970 LP  0  0  0  0  0  0  0  0  0  0  0  0  # atno 17342 bound_to 10162
  139.6636  144.7662  151.1916 LP  0  0  0  0  0  0  0  0  0  0  0  0  # atno 17343 bound_to 10162
  157.5584  130.8229  149.8234 LP  0  0  0  0  0  0  0  0  0  0  0  0  # atno 17370 bound_to 10713
  156.0278  130.3774  150.1774 LP  0  0  0  0  0  0  0  0  0  0  0  0  # atno 17371 bound_to 10713
  140.8053  133.8472  155.8762 LP  0  0  0  0  0  0  0  0  0  0  0  0  # atno 17394 bound_to 11000
  140.9555  134.1723  157.4695 LP  0  0  0  0  0  0  0  0  0  0  0  0  # atno 17395 bound_to 11000

$$$$
