AV-unprocessed.smi:47|AV-procd|sdf|423|dock10
  -GOLD-   2262016303D 1   1.00000     0.00000
 Structure written by MMmdl.
 32 34  0  0  0  0  0  0  0  0  2 V2000
  145.1140  140.4966  154.7523 O   0  0  0  0  0  0  0  0  0  0  0  0
  146.5140  140.3161  154.7435 C   0  0  1  0  0  0  0  0  0  0  0  0
  146.9906  139.5562  153.5072 C   0  0  0  0  0  0  0  0  0  0  0  0
  148.3996  139.9514  153.3308 N   0  3  0  0  0  0  0  0  0  0  0  0
  148.6167  141.2482  154.0108 C   0  0  2  0  0  0  0  0  0  0  0  0
  149.7056  141.1421  155.0346 C   0  0  0  0  0  0  0  0  0  0  0  0
  150.6099  140.1708  154.9706 N   0  0  0  0  0  0  0  0  0  0  0  0
  151.4085  140.4658  156.0170 N   0  0  0  0  0  0  0  0  0  0  0  0
  150.9765  141.5724  156.6352 C   0  0  0  0  0  0  0  0  0  0  0  0
  151.6140  142.1787  157.8060 C   0  0  0  0  0  0  0  0  0  0  0  0
  152.2443  141.3685  158.7788 C   0  0  0  0  0  0  0  0  0  0  0  0
  152.8579  141.9508  159.9050 C   0  0  0  0  0  0  0  0  0  0  0  0
  152.8481  143.3484  160.0702 C   0  0  0  0  0  0  0  0  0  0  0  0
  152.2236  144.1636  159.1081 C   0  0  0  0  0  0  0  0  0  0  0  0
  151.6098  143.5824  157.9814 C   0  0  0  0  0  0  0  0  0  0  0  0
  149.8853  142.0534  156.0382 N   0  0  0  0  0  0  0  0  0  0  0  0
  147.2659  141.6398  154.6316 C   0  0  0  0  0  0  0  0  0  0  0  0
  146.8222  139.7882  155.6471 H   0  0  0  0  0  0  0  0  0  0  0  0
  148.9082  141.9886  153.2643 H   0  0  0  0  0  0  0  0  0  0  0  0
  152.2158  139.9105  156.2629 H   0  0  0  0  0  0  0  0  0  0  0  0
  144.8320  140.7287  153.8802 H   0  0  0  0  0  0  0  0  0  0  0  0
  146.8815  138.4758  153.6040 H   0  0  0  0  0  0  0  0  0  0  0  0
  146.4358  139.8761  152.6238 H   0  0  0  0  0  0  0  0  0  0  0  0
  148.9875  139.2657  153.7840 H   0  0  0  0  0  0  0  0  0  0  0  0
  152.2640  140.2938  158.6733 H   0  0  0  0  0  0  0  0  0  0  0  0
  153.3363  141.3242  160.6433 H   0  0  0  0  0  0  0  0  0  0  0  0
  153.3186  143.7946  160.9341 H   0  0  0  0  0  0  0  0  0  0  0  0
  152.2146  145.2364  159.2342 H   0  0  0  0  0  0  0  0  0  0  0  0
  151.1363  144.2273  157.2557 H   0  0  0  0  0  0  0  0  0  0  0  0
  146.7375  142.2956  153.9375 H   0  0  0  0  0  0  0  0  0  0  0  0
  147.3548  142.1727  155.5796 H   0  0  0  0  0  0  0  0  0  0  0  0
  148.6373  140.0089  152.3510 H   0  0  0  0  0  0  0  0  0  0  0  0
  1  2  1  0  0  0  0
  1 21  1  0  0  0  0
  2 18  1  0  0  0  0
  2 17  1  0  0  0  0
  2  3  1  0  0  0  0
  3  4  1  0  0  0  0
  3 22  1  0  0  0  0
  3 23  1  0  0  0  0
  4  5  1  0  0  0  0
  4 24  1  0  0  0  0
  4 32  1  0  0  0  0
  5 19  1  0  0  0  0
  5  6  1  0  0  0  0
  5 17  1  0  0  0  0
  6 16  1  0  0  0  0
  6  7  2  0  0  0  0
  7  8  1  0  0  0  0
  8 20  1  0  0  0  0
  8  9  1  0  0  0  0
  9 10  1  0  0  0  0
  9 16  2  0  0  0  0
 10 15  1  0  0  0  0
 10 11  2  0  0  0  0
 11 12  1  0  0  0  0
 11 25  1  0  0  0  0
 12 13  2  0  0  0  0
 12 26  1  0  0  0  0
 13 14  1  0  0  0  0
 13 27  1  0  0  0  0
 14 15  2  0  0  0  0
 14 28  1  0  0  0  0
 15 29  1  0  0  0  0
 17 30  1  0  0  0  0
 17 31  1  0  0  0  0
M  CHG  1   4   1
M  END
> <s_m_source_file>
AV-unprocessed.smi

> <i_m_source_file_index>
47

> <i_lp_mmshare_version>
43012

> <i_f3d_flags>
0

> <s_epik_input>
W09IXVtDQEhdMVtDSDJdW05IXVtDQEBIXShbQ0gyXTEpYzJuW25IXWMobjIpLWMzW2NIXVtjSF1bY0hdW2NIXVtjSF0z

> <s_epik_cmdline>
J2VwaWtfcHl0aG9uJywgJy1waCcsICc3LjAnLCAnLXRuJywgJzgnLCAnLW1hJywgJzIwMCcsICctbWV0YWxfYmluZGluZycsICctaW1hZScsICc8aW5maWxlLm1hZT4nLCAnLW9tYWUnLCAnPG91dGZpbGUubWFlPic=

> <r_lp_tautomer_probability>
0.948284

> <r_epik_Ionization_Penalty>
0.163822

> <r_epik_Ionization_Penalty_Charging>
0.0371552

> <r_epik_Ionization_Penalty_Neutral>
0.126667

> <r_epik_State_Penalty>
0.318338

> <r_epik_Charging_Adjusted_Penalty>
0.355493

> <i_epik_Tot_Q>
1

> <i_epik_Tot_abs_Q>
1

> <r_epik_Metal_State_Penalty>
0.81572

> <b_epik_Metal_Only>
0

> <s_lp_Force_Field>
OPLS_2005

> <r_lp_Energy>
24.5404

> <b_lp_Chiralities_Consistent>
1

> <s_lp_Variant>
AV-unprocessed.smi:47-1

> <Gold.Version>
5.8.1

> <Gold.Id.Protein>
6NUR|6NUR_protein|mol2

> <Gold.PLP.Fitness>
43.5817

> <Gold.PLP.PLP>
-36.5300

> <Gold.PLP.part.hbond>
-2.8450

> <Gold.PLP.part.metal>
0.0000

> <Gold.PLP.part.buried>
-5.5958

> <Gold.PLP.part.nonpolar>
-30.2727

> <Gold.PLP.part.repulsive>
2.1479

> <Gold.PLP.ligand.clash>
0.0000

> <Gold.PLP.ligand.torsion>
0.9817

> <Gold.PLP.Chemscore.Hbond>
3.0000

> <Gold.PLP.Chemscore.CHOScore>
0.0000

> <Gold.PLP.Chemscore.Metal>
0.0000

> <Gold.Chemscore.Hbonds>
donor molecule, donor type, donor heavy atom, donor atom, acceptor molecule, acceptor atom, score
      L1  H     1    21       P1 10175  0.99
      L1  H     4    32       P1  7957  0.99
      P1  H  7989  7998       L1     7  0.85

> <Gold.PLP.Chemscore.Internal.Correction>
0.0150

> <Gold.Rescore>
     Score         DG    S(hbond)    S(metal)    S(lipo)     H(rot)  DE(clash)    DE(int)     intcor
     17.68     -18.51       1.97        0.00      87.96       1.50       0.10       0.73       ----

> <Gold.Chemscore.Fitness>
17.6792

> <Gold.Chemscore.DG>
-18.5065

> <Gold.Chemscore.ZeroCoef>
-5.4800

> <Gold.Chemscore.Hbond>
1.9662

> <Gold.Chemscore.Metal>
0.0000

> <Gold.Chemscore.Lipo>
87.9550

> <Gold.Chemscore.Internal_Hbond>
0.0000

> <Gold.Chemscore.DEClash>
0.0951

> <Gold.Chemscore.DEInternal>
0.7322

> <Gold.Chemscore.Rot>
1.4966

> <Gold.Chemscore.Internal.Correction>
   9.000000E+99

> <Gold.Chemscore.Hbonds>
donor molecule, donor type, donor heavy atom, donor atom, acceptor molecule, acceptor atom, score
      L1  H     1    21       P1 10175  0.92
      L1  H     4    32       P1  7957  0.92
      P1  H  7989  7998       L1     7  0.05

> <Gold.Chemscore.Hbond.Weighted>
-6.5670

> <Gold.Chemscore.Metal.Weighted>
-0.0000

> <Gold.Chemscore.Lipo.Weighted>
-10.2907

> <Gold.Chemscore.Internal_Hbond.Weighted>
0.0000

> <Gold.Chemscore.DEClash.Weighted>
0.0951

> <Gold.Chemscore.DEInternal.Weighted>
0.7322

> <Gold.Chemscore.Rot.Weighted>
3.8312

> <Gold.Chemscore.Internal.Correction.Weighted>
   9.000000E+99

> <Gold.Protein.RotatedTorsions>
[ 6907 6896 6895 6894 ] final  -28.14 input  -60.11 | X-H torsion
[ 7974 7965 7964 7962 ] final  -69.33 input  175.53 | X-H torsion
[ 8008 7997 7996 7995 ] final   43.56 input   59.86 | X-H torsion
[ 10167 10162 10161 10158 ] final -153.39 input  -65.29 | X-H torsion
[ 10718 10713 10712 10709 ] final   55.47 input   66.30 | X-H torsion
[ 10763 10752 10751 10750 ] final   32.47 input  -60.55 | X-H torsion
[ 11005 11000 10999 10996 ] final   18.90 input  -57.11 | X-H torsion

> <Gold.Protein.ActiveResidues>
 VAL166  LYS551  ARG553  GLY616  TRP617  ASP618  TYR619  PRO620  LYS621  CYS622 
 ASP623  PHE694  ASN695  SER759  ASP760  ASP761  ALA762  ILE779  LEU786  VAL792 
 PHE793  MET794  SER795  GLU796  ALA797  LYS798  CYS799  TRP800  GLU811  SER814 

> <Gold.Protein.RotatedAtoms>
  151.1371  135.0160  159.8608 H   0  0  0  0  0  0  0  0  0  0  0  0  # atno 6907 bound_to 6896
  152.5452  134.1542  159.8541 H   0  0  0  0  0  0  0  0  0  0  0  0  # atno 6908 bound_to 6896
  151.1615  133.4797  159.2627 H   0  0  0  0  0  0  0  0  0  0  0  0  # atno 6909 bound_to 6896
  145.7052  140.9101  143.0710 H   0  0  0  0  0  0  0  0  0  0  0  0  # atno 7974 bound_to 7965
  155.3047  140.3387  155.4246 H   0  0  0  0  0  0  0  0  0  0  0  0  # atno 8008 bound_to 7997
  156.1984  140.1723  156.7989 H   0  0  0  0  0  0  0  0  0  0  0  0  # atno 8009 bound_to 7997
  154.5528  140.0702  156.8679 H   0  0  0  0  0  0  0  0  0  0  0  0  # atno 8010 bound_to 7997
  139.7101  143.9123  152.2464 H   0  0  0  0  0  0  0  0  0  0  0  0  # atno 10167 bound_to 10162
  157.5347  130.8655  149.8737 H   0  0  0  0  0  0  0  0  0  0  0  0  # atno 10718 bound_to 10713
  153.0261  135.6412  154.1360 H   0  0  0  0  0  0  0  0  0  0  0  0  # atno 10763 bound_to 10752
  154.1089  135.2854  155.3236 H   0  0  0  0  0  0  0  0  0  0  0  0  # atno 10764 bound_to 10752
  154.6346  135.5481  153.7782 H   0  0  0  0  0  0  0  0  0  0  0  0  # atno 10765 bound_to 10752
  140.4196  134.1532  155.7672 H   0  0  0  0  0  0  0  0  0  0  0  0  # atno 11005 bound_to 11000
  144.6957  139.9000  143.7458 LP  0  0  0  0  0  0  0  0  0  0  0  0  # atno 17320 bound_to 7965
  146.0762  139.3750  143.0492 LP  0  0  0  0  0  0  0  0  0  0  0  0  # atno 17321 bound_to 7965
  139.8989  144.6923  150.8687 LP  0  0  0  0  0  0  0  0  0  0  0  0  # atno 17342 bound_to 10162
  140.7731  143.3529  151.1979 LP  0  0  0  0  0  0  0  0  0  0  0  0  # atno 17343 bound_to 10162
  156.0450  130.3730  150.1341 LP  0  0  0  0  0  0  0  0  0  0  0  0  # atno 17370 bound_to 10713
  156.9524  130.9779  151.3495 LP  0  0  0  0  0  0  0  0  0  0  0  0  # atno 17371 bound_to 10713
  141.1789  133.8455  157.1326 LP  0  0  0  0  0  0  0  0  0  0  0  0  # atno 17394 bound_to 11000
  140.0209  134.9946  157.0590 LP  0  0  0  0  0  0  0  0  0  0  0  0  # atno 17395 bound_to 11000

$$$$
