AV-unprocessed.smi:148|AV-procd|sdf|1227|dock5
  -GOLD-   2262018423D 1   1.00000     0.00000
 Structure written by MMmdl.
 63 67  0  0  0  0  0  0  0  0  1 V2000
  143.9917  135.0128  158.1026 O   0  0  0  0  0  0  0  0  0  0  0  0
  145.3061  134.6619  157.7225 C   0  0  0  0  0  0  0  0  0  0  0  0
  146.0831  134.0649  158.9196 C   0  0  1  0  0  0  0  0  0  0  0  0
  147.4673  133.5443  158.4566 C   0  0  0  0  0  0  0  0  0  0  0  0
  147.3844  132.5254  157.4247 N   0  0  0  0  0  0  0  0  0  0  0  0
  146.6136  131.3848  157.4587 C   0  0  0  0  0  0  0  0  0  0  0  0
  146.7055  130.6184  156.4058 N   0  0  0  0  0  0  0  0  0  0  0  0
  147.6049  131.2855  155.5847 C   0  0  0  0  0  0  0  0  0  0  0  0
  148.1473  131.0246  154.2998 C   0  0  0  0  0  0  0  0  0  0  0  0
  147.8169  129.9194  153.5971 N   0  0  0  0  0  0  0  0  0  0  0  0
  148.9250  128.9623  153.6391 C   0  0  0  0  0  0  0  0  0  0  0  0
  148.5017  127.5913  153.1048 C   0  0  0  0  0  0  0  0  0  0  0  0
  147.9440  127.7393  151.6890 C   0  0  0  0  0  0  0  0  0  0  0  0
  146.7872  128.7466  151.6891 C   0  0  0  0  0  0  0  0  0  0  0  0
  147.1868  130.1282  152.2763 C   0  0  1  0  0  0  0  0  0  0  0  0
  145.9397  131.0809  152.3157 C   0  0  2  0  0  0  0  0  0  0  0  0
  145.0185  131.0027  151.0838 C   0  0  0  0  0  0  0  0  0  0  0  0
  144.1429  132.2597  151.1178 C   0  0  0  0  0  0  0  0  0  0  0  0
  144.8598  133.2537  152.0380 C   0  0  0  0  0  0  0  0  0  0  0  0
  146.1960  132.6030  152.4139 C   0  0  2  0  0  0  0  0  0  0  0  0
  147.1822  133.0193  151.4876 O   0  0  0  0  0  0  0  0  0  0  0  0
  149.0312  131.9200  153.7845 N   0  0  0  0  0  0  0  0  0  0  0  0
  149.3518  133.0141  154.4822 C   0  0  0  0  0  0  0  0  0  0  0  0
  148.9177  133.3936  155.6864 N   0  0  0  0  0  0  0  0  0  0  0  0
  148.0389  132.4889  156.2061 C   0  0  0  0  0  0  0  0  0  0  0  0
  146.1933  135.0249  160.1389 C   0  0  1  0  0  0  0  0  0  0  0  0
  146.9276  134.4946  161.3564 C   0  0  0  0  0  0  0  0  0  0  0  0
  147.1464  135.7742  162.1564 C   0  0  0  0  0  0  0  0  0  0  0  0
  147.3196  136.8084  161.1913 O   0  0  0  0  0  0  0  0  0  0  0  0
  146.9215  136.3513  159.9011 C   0  0  0  0  0  0  0  0  0  0  0  0
  143.4812  135.1612  157.3212 H   0  0  0  0  0  0  0  0  0  0  0  0
  145.2562  133.9556  156.8937 H   0  0  0  0  0  0  0  0  0  0  0  0
  145.7790  135.5655  157.3431 H   0  0  0  0  0  0  0  0  0  0  0  0
  145.5153  133.2011  159.2690 H   0  0  0  0  0  0  0  0  0  0  0  0
  148.0713  134.3603  158.0591 H   0  0  0  0  0  0  0  0  0  0  0  0
  148.0212  133.1408  159.3050 H   0  0  0  0  0  0  0  0  0  0  0  0
  145.9786  131.1369  158.2970 H   0  0  0  0  0  0  0  0  0  0  0  0
  149.7591  129.3424  153.0471 H   0  0  0  0  0  0  0  0  0  0  0  0
  149.2858  128.8537  154.6634 H   0  0  0  0  0  0  0  0  0  0  0  0
  149.3512  126.9079  153.1070 H   0  0  0  0  0  0  0  0  0  0  0  0
  147.7456  127.1556  153.7593 H   0  0  0  0  0  0  0  0  0  0  0  0
  148.7302  128.0780  151.0130 H   0  0  0  0  0  0  0  0  0  0  0  0
  147.6033  126.7730  151.3159 H   0  0  0  0  0  0  0  0  0  0  0  0
  146.4365  128.8477  150.6627 H   0  0  0  0  0  0  0  0  0  0  0  0
  145.9550  128.3339  152.2616 H   0  0  0  0  0  0  0  0  0  0  0  0
  147.9398  130.5545  151.6123 H   0  0  0  0  0  0  0  0  0  0  0  0
  145.3316  130.7936  153.1757 H   0  0  0  0  0  0  0  0  0  0  0  0
  145.6188  131.0122  150.1728 H   0  0  0  0  0  0  0  0  0  0  0  0
  144.4124  130.0963  151.0693 H   0  0  0  0  0  0  0  0  0  0  0  0
  144.0064  132.6665  150.1155 H   0  0  0  0  0  0  0  0  0  0  0  0
  143.1535  132.0296  151.5145 H   0  0  0  0  0  0  0  0  0  0  0  0
  144.9829  134.2352  151.5775 H   0  0  0  0  0  0  0  0  0  0  0  0
  144.2627  133.3973  152.9394 H   0  0  0  0  0  0  0  0  0  0  0  0
  146.4931  132.9260  153.4097 H   0  0  0  0  0  0  0  0  0  0  0  0
  147.6579  132.2565  151.1951 H   0  0  0  0  0  0  0  0  0  0  0  0
  150.0545  133.6822  154.0064 H   0  0  0  0  0  0  0  0  0  0  0  0
  145.1877  135.2983  160.4603 H   0  0  0  0  0  0  0  0  0  0  0  0
  146.3628  133.7448  161.9099 H   0  0  0  0  0  0  0  0  0  0  0  0
  147.8913  134.0650  161.0832 H   0  0  0  0  0  0  0  0  0  0  0  0
  146.2629  136.0024  162.7541 H   0  0  0  0  0  0  0  0  0  0  0  0
  148.0017  135.7060  162.8287 H   0  0  0  0  0  0  0  0  0  0  0  0
  147.8223  136.2293  159.3026 H   0  0  0  0  0  0  0  0  0  0  0  0
  146.2882  137.0851  159.4021 H   0  0  0  0  0  0  0  0  0  0  0  0
  1  2  1  0  0  0  0
  1 31  1  0  0  0  0
  2  3  1  0  0  0  0
  2 32  1  0  0  0  0
  2 33  1  0  0  0  0
  3  4  1  0  0  0  0
  3 26  1  0  0  0  0
  3 34  1  0  0  0  0
  4  5  1  0  0  0  0
  4 35  1  0  0  0  0
  4 36  1  0  0  0  0
  5 25  1  0  0  0  0
  5  6  1  0  0  0  0
  6  7  2  0  0  0  0
  6 37  1  0  0  0  0
  7  8  1  0  0  0  0
  8 25  2  0  0  0  0
  8  9  1  0  0  0  0
  9 10  1  0  0  0  0
  9 22  2  0  0  0  0
 10 15  1  0  0  0  0
 10 11  1  0  0  0  0
 11 12  1  0  0  0  0
 11 38  1  0  0  0  0
 11 39  1  0  0  0  0
 12 13  1  0  0  0  0
 12 40  1  0  0  0  0
 12 41  1  0  0  0  0
 13 14  1  0  0  0  0
 13 42  1  0  0  0  0
 13 43  1  0  0  0  0
 14 15  1  0  0  0  0
 14 44  1  0  0  0  0
 14 45  1  0  0  0  0
 15 16  1  0  0  0  0
 15 46  1  0  0  0  0
 16 20  1  0  0  0  0
 16 17  1  0  0  0  0
 16 47  1  0  0  0  0
 17 18  1  0  0  0  0
 17 48  1  0  0  0  0
 17 49  1  0  0  0  0
 18 19  1  0  0  0  0
 18 50  1  0  0  0  0
 18 51  1  0  0  0  0
 19 20  1  0  0  0  0
 19 52  1  0  0  0  0
 19 53  1  0  0  0  0
 20 21  1  0  0  0  0
 20 54  1  0  0  0  0
 21 55  1  0  0  0  0
 22 23  1  0  0  0  0
 23 24  2  0  0  0  0
 23 56  1  0  0  0  0
 24 25  1  0  0  0  0
 26 30  1  0  0  0  0
 26 27  1  0  0  0  0
 26 57  1  0  0  0  0
 27 28  1  0  0  0  0
 27 58  1  0  0  0  0
 27 59  1  0  0  0  0
 28 29  1  0  0  0  0
 28 60  1  0  0  0  0
 28 61  1  0  0  0  0
 29 30  1  0  0  0  0
 30 62  1  0  0  0  0
 30 63  1  0  0  0  0
M  END
> <s_m_source_file>
AV-unprocessed.smi

> <i_m_source_file_index>
148

> <i_lp_mmshare_version>
43012

> <i_f3d_flags>
0

> <s_epik_input>
W0NIMl0xT1tDSDJdW0NIMl1bQ0BIXTFbQ0BIXShbQ0gyXVtPSF0pW0NIMl1uKFtjSF1uMiljKGMyMyluW2NIXW5jM040W0NIMl1bQ0gyXVtDSDJdW0NIMl1bQ0BIXTRbQ0BASF01W0NIMl1bQ0gyXVtDSDJdW0NASF01W09IXQ==

> <s_epik_cmdline>
J2VwaWtfcHl0aG9uJywgJy1waCcsICc3LjAnLCAnLXRuJywgJzgnLCAnLW1hJywgJzIwMCcsICctbWV0YWxfYmluZGluZycsICctaW1hZScsICc8aW5maWxlLm1hZT4nLCAnLW9tYWUnLCAnPG91dGZpbGUubWFlPic=

> <r_lp_tautomer_probability>
1

> <r_epik_Ionization_Penalty>
0.00556303

> <r_epik_Ionization_Penalty_Charging>
0

> <r_epik_Ionization_Penalty_Neutral>
0.00556303

> <r_epik_State_Penalty>
0.00401767

> <r_epik_Charging_Adjusted_Penalty>
0.00401767

> <i_epik_Tot_Q>
0

> <i_epik_Tot_abs_Q>
0

> <r_epik_Metal_State_Penalty>
-0

> <b_epik_Metal_Only>
0

> <s_lp_Force_Field>
OPLS_2005

> <r_lp_Energy>
69.6846

> <b_lp_Chiralities_Consistent>
1

> <s_lp_Variant>
AV-unprocessed.smi:148-26

> <Gold.Version>
5.8.1

> <Gold.Id.Protein>
6NUR|6NUR_protein|mol2

> <Gold.PLP.Fitness>
46.0059

> <Gold.PLP.PLP>
-38.1527

> <Gold.PLP.part.hbond>
-3.0000

> <Gold.PLP.part.metal>
0.0000

> <Gold.PLP.part.buried>
-4.7456

> <Gold.PLP.part.nonpolar>
-31.0906

> <Gold.PLP.part.repulsive>
0.2677

> <Gold.PLP.ligand.clash>
0.0000

> <Gold.PLP.ligand.torsion>
0.6200

> <Gold.PLP.Chemscore.Hbond>
2.8045

> <Gold.PLP.Chemscore.CHOScore>
0.0000

> <Gold.PLP.Chemscore.Metal>
0.0000

> <Gold.Chemscore.Hbonds>
donor molecule, donor type, donor heavy atom, donor atom, acceptor molecule, acceptor atom, score
      L1  H    21    55       P1 10747  0.75
      P1  H  6931  6943       L1    29  0.21
      P1  H  6934  6947       L1    29  0.50

> <Gold.PLP.Chemscore.Internal.Correction>
0.6798

> <Gold.Rescore>
     Score         DG    S(hbond)    S(metal)    S(lipo)     H(rot)  DE(clash)    DE(int)     intcor
     14.46     -15.07       1.92        0.00      99.84       3.32       0.05       0.56       ----

> <Gold.Chemscore.Fitness>
14.4645

> <Gold.Chemscore.DG>
-15.0676

> <Gold.Chemscore.ZeroCoef>
-5.4800

> <Gold.Chemscore.Hbond>
1.9181

> <Gold.Chemscore.Metal>
0.0000

> <Gold.Chemscore.Lipo>
99.8395

> <Gold.Chemscore.Internal_Hbond>
0.0000

> <Gold.Chemscore.DEClash>
0.0456

> <Gold.Chemscore.DEInternal>
0.5575

> <Gold.Chemscore.Rot>
3.3203

> <Gold.Chemscore.Internal.Correction>
   9.000000E+99

> <Gold.Chemscore.Hbonds>
donor molecule, donor type, donor heavy atom, donor atom, acceptor molecule, acceptor atom, score
      L1  H    21    55       P1 10747  0.75
      P1  H  6931  6943       L1    29  0.14
      P1  H  6934  6947       L1    29  0.17

> <Gold.Chemscore.Hbond.Weighted>
-6.4064

> <Gold.Chemscore.Metal.Weighted>
-0.0000

> <Gold.Chemscore.Lipo.Weighted>
-11.6812

> <Gold.Chemscore.Internal_Hbond.Weighted>
0.0000

> <Gold.Chemscore.DEClash.Weighted>
0.0456

> <Gold.Chemscore.DEInternal.Weighted>
0.5575

> <Gold.Chemscore.Rot.Weighted>
8.5000

> <Gold.Chemscore.Internal.Correction.Weighted>
   9.000000E+99

> <Gold.Protein.RotatedTorsions>
[ 6907 6896 6895 6894 ] final   -1.98 input  -60.11 | X-H torsion
[ 7974 7965 7964 7962 ] final   60.06 input  175.53 | X-H torsion
[ 8008 7997 7996 7995 ] final  127.99 input   59.86 | X-H torsion
[ 10167 10162 10161 10158 ] final   45.94 input  -65.29 | X-H torsion
[ 10718 10713 10712 10709 ] final   28.60 input   66.30 | X-H torsion
[ 10763 10752 10751 10750 ] final   28.74 input  -60.55 | X-H torsion
[ 11005 11000 10999 10996 ] final -119.46 input  -57.11 | X-H torsion

> <Gold.Protein.ActiveResidues>
 VAL166  LYS551  ARG553  GLY616  TRP617  ASP618  TYR619  PRO620  LYS621  CYS622 
 ASP623  PHE694  ASN695  SER759  ASP760  ASP761  ALA762  ILE779  LEU786  VAL792 
 PHE793  MET794  SER795  GLU796  ALA797  LYS798  CYS799  TRP800  GLU811  SER814 

> <Gold.Protein.RotatedAtoms>
  151.5373  135.1068  159.9917 H   0  0  0  0  0  0  0  0  0  0  0  0  # atno 6907 bound_to 6896
  152.4551  133.7703  159.6805 H   0  0  0  0  0  0  0  0  0  0  0  0  # atno 6908 bound_to 6896
  150.8492  133.7748  159.3056 H   0  0  0  0  0  0  0  0  0  0  0  0  # atno 6909 bound_to 6896
  145.9002  139.3575  143.0597 H   0  0  0  0  0  0  0  0  0  0  0  0  # atno 7974 bound_to 7965
  156.2904  140.2655  156.2362 H   0  0  0  0  0  0  0  0  0  0  0  0  # atno 8008 bound_to 7997
  155.0022  140.0387  157.2383 H   0  0  0  0  0  0  0  0  0  0  0  0  # atno 8009 bound_to 7997
  154.7591  140.2757  155.6234 H   0  0  0  0  0  0  0  0  0  0  0  0  # atno 8010 bound_to 7997
  140.3190  144.2728  150.6186 H   0  0  0  0  0  0  0  0  0  0  0  0  # atno 10167 bound_to 10162
  157.2356  130.7044  149.6334 H   0  0  0  0  0  0  0  0  0  0  0  0  # atno 10718 bound_to 10713
  153.0473  135.6506  154.0784 H   0  0  0  0  0  0  0  0  0  0  0  0  # atno 10763 bound_to 10752
  154.0479  135.2898  155.3346 H   0  0  0  0  0  0  0  0  0  0  0  0  # atno 10764 bound_to 10752
  154.6739  135.5346  153.8240 H   0  0  0  0  0  0  0  0  0  0  0  0  # atno 10765 bound_to 10752
  141.0214  134.0119  157.3277 H   0  0  0  0  0  0  0  0  0  0  0  0  # atno 11005 bound_to 11000
  145.8800  140.9368  143.0606 LP  0  0  0  0  0  0  0  0  0  0  0  0  # atno 17320 bound_to 7965
  144.6735  140.0768  143.7471 LP  0  0  0  0  0  0  0  0  0  0  0  0  # atno 17321 bound_to 7965
  140.5500  143.2208  151.7942 LP  0  0  0  0  0  0  0  0  0  0  0  0  # atno 17342 bound_to 10162
  139.4878  144.4488  151.9678 LP  0  0  0  0  0  0  0  0  0  0  0  0  # atno 17343 bound_to 10162
  155.9673  130.4475  150.5581 LP  0  0  0  0  0  0  0  0  0  0  0  0  # atno 17370 bound_to 10713
  157.3433  131.0720  151.1771 LP  0  0  0  0  0  0  0  0  0  0  0  0  # atno 17371 bound_to 10713
  139.9148  135.0195  156.7838 LP  0  0  0  0  0  0  0  0  0  0  0  0  # atno 17394 bound_to 11000
  140.6567  133.9682  155.7783 LP  0  0  0  0  0  0  0  0  0  0  0  0  # atno 17395 bound_to 11000

$$$$
