AV-unprocessed.smi:2176|AV-procd|sdf|8846|dock8
  -GOLD-   2272012 33D 1   1.00000     0.00000
 Structure written by MMmdl.
 29 30  0  0  0  0  0  0  0  0  1 V2000
  150.2336  141.0059  157.7991 O   0  0  0  0  0  0  0  0  0  0  0  0
  150.2493  142.0136  157.0907 C   0  0  0  0  0  0  0  0  0  0  0  0
  150.4699  141.9037  155.5747 C   0  0  0  0  0  0  0  0  0  0  0  0
  149.4284  141.1200  154.8939 N   0  0  0  0  0  0  0  0  0  0  0  0
  148.1326  141.6081  154.8015 C   0  0  0  0  0  0  0  0  0  0  0  0
  147.1282  140.9445  154.1814 C   0  0  0  0  0  0  0  0  0  0  0  0
  147.3721  139.6455  153.5635 C   0  0  0  0  0  0  0  0  0  0  0  0
  146.5282  138.9665  152.9828 O   0  0  0  0  0  0  0  0  0  0  0  0
  148.6885  139.1901  153.6744 N   0  0  0  0  0  0  0  0  0  0  0  0
  149.7287  139.8698  154.3101 C   0  0  0  0  0  0  0  0  0  0  0  0
  150.8564  139.3791  154.3472 O   0  0  0  0  0  0  0  0  0  0  0  0
  150.1000  143.2576  157.5714 N   0  0  0  0  0  0  0  0  0  0  0  0
  149.8984  143.6150  158.9706 C   0  0  0  0  0  0  0  0  0  0  0  0
  150.8649  144.6639  159.4798 C   0  0  0  0  0  0  0  0  0  0  0  0
  152.0960  145.0215  158.6808 C   0  0  0  0  0  0  0  0  0  0  0  0
  152.2350  144.2817  159.9895 C   0  0  0  0  0  0  0  0  0  0  0  0
  148.9055  138.2959  153.2588 H   0  0  0  0  0  0  0  0  0  0  0  0
  150.5353  142.9022  155.1372 H   0  0  0  0  0  0  0  0  0  0  0  0
  151.4494  141.4531  155.4079 H   0  0  0  0  0  0  0  0  0  0  0  0
  147.9063  142.5691  155.2414 H   0  0  0  0  0  0  0  0  0  0  0  0
  146.1391  141.3774  154.1414 H   0  0  0  0  0  0  0  0  0  0  0  0
  150.1328  144.0217  156.9123 H   0  0  0  0  0  0  0  0  0  0  0  0
  148.8770  143.9796  159.0858 H   0  0  0  0  0  0  0  0  0  0  0  0
  149.9844  142.7411  159.6179 H   0  0  0  0  0  0  0  0  0  0  0  0
  150.3790  145.4976  159.9838 H   0  0  0  0  0  0  0  0  0  0  0  0
  152.2880  144.4630  157.7666 H   0  0  0  0  0  0  0  0  0  0  0  0
  152.3960  146.0673  158.6599 H   0  0  0  0  0  0  0  0  0  0  0  0
  152.6254  144.8347  160.8417 H   0  0  0  0  0  0  0  0  0  0  0  0
  152.5195  143.2323  159.9450 H   0  0  0  0  0  0  0  0  0  0  0  0
  1  2  2  0  0  0  0
  2  3  1  0  0  0  0
  2 12  1  0  0  0  0
  3  4  1  0  0  0  0
  3 18  1  0  0  0  0
  3 19  1  0  0  0  0
  4 10  1  0  0  0  0
  4  5  1  0  0  0  0
  5  6  2  0  0  0  0
  5 20  1  0  0  0  0
  6  7  1  0  0  0  0
  6 21  1  0  0  0  0
  7  8  2  0  0  0  0
  7  9  1  0  0  0  0
  9 17  1  0  0  0  0
  9 10  1  0  0  0  0
 10 11  2  0  0  0  0
 12 13  1  0  0  0  0
 12 22  1  0  0  0  0
 13 14  1  0  0  0  0
 13 23  1  0  0  0  0
 13 24  1  0  0  0  0
 14 16  1  0  0  0  0
 14 15  1  0  0  0  0
 14 25  1  0  0  0  0
 15 16  1  0  0  0  0
 15 26  1  0  0  0  0
 15 27  1  0  0  0  0
 16 28  1  0  0  0  0
 16 29  1  0  0  0  0
M  END
> <s_m_source_file>
AV-unprocessed.smi

> <i_m_source_file_index>
2176

> <i_lp_mmshare_version>
43012

> <i_f3d_flags>
0

> <s_epik_input>
W0NIMl0xW0NIMl1bQ0hdMVtDSDJdW05IXUMoPU8pW0NIMl1uMltjSF1bY0hdYyg9TylbbkhdYzI9Tw==

> <s_epik_cmdline>
J2VwaWtfcHl0aG9uJywgJy1waCcsICc3LjAnLCAnLXRuJywgJzgnLCAnLW1hJywgJzIwMCcsICctbWV0YWxfYmluZGluZycsICctaW1hZScsICc8aW5maWxlLm1hZT4nLCAnLW9tYWUnLCAnPG91dGZpbGUubWFlPic=

> <r_lp_tautomer_probability>
0.999537

> <r_epik_Ionization_Penalty>
0.00328917

> <r_epik_Ionization_Penalty_Charging>
0.00328916

> <r_epik_Ionization_Penalty_Neutral>
1.93017e-08

> <r_epik_State_Penalty>
0.00232387

> <r_epik_Charging_Adjusted_Penalty>
0.00561303

> <i_epik_Tot_Q>
0

> <i_epik_Tot_abs_Q>
0

> <r_epik_Metal_State_Penalty>
0.365274

> <b_epik_Metal_Only>
0

> <s_lp_Force_Field>
OPLS_2005

> <r_lp_Energy>
12.7002

> <b_lp_Chiralities_Consistent>
1

> <s_lp_Variant>
AV-unprocessed.smi:2176-1

> <Gold.Version>
5.8.1

> <Gold.Id.Protein>
6NUR|6NUR_protein|mol2

> <Gold.PLP.Fitness>
39.1834

> <Gold.PLP.PLP>
-32.9337

> <Gold.PLP.part.hbond>
-3.0000

> <Gold.PLP.part.metal>
0.0000

> <Gold.PLP.part.buried>
-4.0294

> <Gold.PLP.part.nonpolar>
-26.3892

> <Gold.PLP.part.repulsive>
0.5164

> <Gold.PLP.ligand.clash>
0.0000

> <Gold.PLP.ligand.torsion>
0.5570

> <Gold.PLP.Chemscore.Hbond>
1.2720

> <Gold.PLP.Chemscore.CHOScore>
1.0000

> <Gold.PLP.Chemscore.Metal>
0.0000

> <Gold.Chemscore.Hbonds>
donor molecule, donor type, donor heavy atom, donor atom, acceptor molecule, acceptor atom, score
      L1  H    12    22       P1  8028  0.69
      P1  H  7989  7998       L1    11  0.65
      L1  C     5    20       P1  8028  1.00

> <Gold.PLP.Chemscore.Internal.Correction>
0.5478

> <Gold.Rescore>
     Score         DG    S(hbond)    S(metal)    S(lipo)     H(rot)  DE(clash)    DE(int)     intcor
     12.73     -13.58       1.76        0.00      63.61       2.04       0.32       0.53       ----

> <Gold.Chemscore.Fitness>
12.7334

> <Gold.Chemscore.DG>
-13.5845

> <Gold.Chemscore.ZeroCoef>
-5.4800

> <Gold.Chemscore.Hbond>
1.7582

> <Gold.Chemscore.Metal>
0.0000

> <Gold.Chemscore.Lipo>
63.6056

> <Gold.Chemscore.Internal_Hbond>
0.0000

> <Gold.Chemscore.DEClash>
0.3215

> <Gold.Chemscore.DEInternal>
0.5297

> <Gold.Chemscore.Rot>
2.0351

> <Gold.Chemscore.Internal.Correction>
   9.000000E+99

> <Gold.Chemscore.Hbonds>
donor molecule, donor type, donor heavy atom, donor atom, acceptor molecule, acceptor atom, score
      L1  H     9    17       P1  7948  0.03
      L1  H    12    22       P1  8028  0.66
      P1  H  7989  7998       L1    11  0.06

> <Gold.Chemscore.Hbond.Weighted>
-5.8724

> <Gold.Chemscore.Metal.Weighted>
-0.0000

> <Gold.Chemscore.Lipo.Weighted>
-7.4419

> <Gold.Chemscore.Internal_Hbond.Weighted>
0.0000

> <Gold.Chemscore.DEClash.Weighted>
0.3215

> <Gold.Chemscore.DEInternal.Weighted>
0.5297

> <Gold.Chemscore.Rot.Weighted>
5.2098

> <Gold.Chemscore.Internal.Correction.Weighted>
   9.000000E+99

> <Gold.Protein.RotatedTorsions>
[ 6907 6896 6895 6894 ] final  -54.29 input  -60.11 | X-H torsion
[ 7974 7965 7964 7962 ] final  -84.94 input  175.53 | X-H torsion
[ 8008 7997 7996 7995 ] final  -78.13 input   59.86 | X-H torsion
[ 10167 10162 10161 10158 ] final   81.74 input  -65.29 | X-H torsion
[ 10718 10713 10712 10709 ] final  159.77 input   66.30 | X-H torsion
[ 10763 10752 10751 10750 ] final -127.52 input  -60.55 | X-H torsion
[ 11005 11000 10999 10996 ] final   12.23 input  -57.11 | X-H torsion

> <Gold.Protein.ActiveResidues>
 VAL166  LYS551  ARG553  GLY616  TRP617  ASP618  TYR619  PRO620  LYS621  CYS622 
 ASP623  PHE694  ASN695  SER759  ASP760  ASP761  ALA762  ILE779  LEU786  VAL792 
 PHE793  MET794  SER795  GLU796  ALA797  LYS798  CYS799  TRP800  GLU811  SER814 

> <Gold.Protein.RotatedAtoms>
  150.8351  134.7621  159.6886 H   0  0  0  0  0  0  0  0  0  0  0  0  # atno 6907 bound_to 6896
  152.4449  134.5511  159.9877 H   0  0  0  0  0  0  0  0  0  0  0  0  # atno 6908 bound_to 6896
  151.5663  133.3358  159.3016 H   0  0  0  0  0  0  0  0  0  0  0  0  # atno 6909 bound_to 6896
  145.4999  140.9548  143.1765 H   0  0  0  0  0  0  0  0  0  0  0  0  # atno 7974 bound_to 7965
  154.5660  140.0699  156.8892 H   0  0  0  0  0  0  0  0  0  0  0  0  # atno 8008 bound_to 7997
  155.2722  140.3366  155.4246 H   0  0  0  0  0  0  0  0  0  0  0  0  # atno 8009 bound_to 7997
  156.2081  140.1748  156.7741 H   0  0  0  0  0  0  0  0  0  0  0  0  # atno 8010 bound_to 7997
  139.9361  144.6120  150.8297 H   0  0  0  0  0  0  0  0  0  0  0  0  # atno 10167 bound_to 10162
  157.1595  131.0584  151.2239 H   0  0  0  0  0  0  0  0  0  0  0  0  # atno 10718 bound_to 10713
  154.8752  135.3959  154.3607 H   0  0  0  0  0  0  0  0  0  0  0  0  # atno 10763 bound_to 10752
  153.4379  135.7026  153.6193 H   0  0  0  0  0  0  0  0  0  0  0  0  # atno 10764 bound_to 10752
  153.4786  135.3774  155.2399 H   0  0  0  0  0  0  0  0  0  0  0  0  # atno 10765 bound_to 10752
  140.4943  134.0809  155.7778 H   0  0  0  0  0  0  0  0  0  0  0  0  # atno 11005 bound_to 11000
  144.7786  139.6576  143.7164 LP  0  0  0  0  0  0  0  0  0  0  0  0  # atno 17320 bound_to 7965
  146.2232  139.5674  142.9604 LP  0  0  0  0  0  0  0  0  0  0  0  0  # atno 17321 bound_to 7965
  140.7624  143.3197  151.2650 LP  0  0  0  0  0  0  0  0  0  0  0  0  # atno 17342 bound_to 10162
  139.6742  143.9966  152.2771 LP  0  0  0  0  0  0  0  0  0  0  0  0  # atno 17343 bound_to 10162
  157.4145  130.7403  149.6865 LP  0  0  0  0  0  0  0  0  0  0  0  0  # atno 17370 bound_to 10713
  155.9756  130.4086  150.3837 LP  0  0  0  0  0  0  0  0  0  0  0  0  # atno 17371 bound_to 10713
  141.1468  133.9040  157.2196 LP  0  0  0  0  0  0  0  0  0  0  0  0  # atno 17394 bound_to 11000
  139.9751  135.0116  156.9610 LP  0  0  0  0  0  0  0  0  0  0  0  0  # atno 17395 bound_to 11000

$$$$
