AV-unprocessed.smi:1487|AV-procd|sdf|6008|dock9
  -GOLD-   22720 6103D 1   1.00000     0.00000
 Structure written by MMmdl.
 48 50  0  0  0  0  0  0  0  0  2 V2000
  153.4173  142.7716  162.5501 C   0  0  0  0  0  0  0  0  0  0  0  0
  152.9474  142.3338  161.1743 C   0  0  0  0  0  0  0  0  0  0  0  0
  153.3341  141.0647  160.6882 C   0  0  0  0  0  0  0  0  0  0  0  0
  152.9207  140.6208  159.4133 C   0  0  0  0  0  0  0  0  0  0  0  0
  153.1765  139.4339  158.7479 N   0  0  0  0  0  0  0  0  0  0  0  0
  152.5212  139.6196  157.6059 C   0  0  0  0  0  0  0  0  0  0  0  0
  151.8653  140.7864  157.4540 N   0  0  0  0  0  0  0  0  0  0  0  0
  151.0877  141.2089  156.3025 C   0  0  0  0  0  0  0  0  0  0  0  0
  149.6170  141.5037  156.6560 C   0  0  1  0  0  0  0  0  0  0  0  0
  149.4887  142.8587  157.0427 O   0  0  0  0  0  0  0  0  0  0  0  0
  148.6828  141.2478  155.4569 C   0  0  0  0  0  0  0  0  0  0  0  0
  147.5758  142.2353  155.3765 N   0  3  1  0  0  0  0  0  0  0  0  0
  146.8876  142.2082  154.0593 C   0  0  0  0  0  0  0  0  0  0  0  0
  145.8440  143.3332  153.9515 C   0  0  0  0  0  0  0  0  0  0  0  0
  144.8281  143.2554  155.0982 C   0  0  0  0  0  0  0  0  0  0  0  0
  145.5643  143.2557  156.4457 C   0  0  1  0  0  0  0  0  0  0  0  0
  144.6308  143.0929  157.4923 O   0  0  0  0  0  0  0  0  0  0  0  0
  146.6095  142.1265  156.5025 C   0  0  0  0  0  0  0  0  0  0  0  0
  152.1028  141.4881  158.6313 C   0  0  0  0  0  0  0  0  0  0  0  0
  151.7104  142.7527  159.1047 C   0  0  0  0  0  0  0  0  0  0  0  0
  152.1332  143.1810  160.3803 C   0  0  0  0  0  0  0  0  0  0  0  0
  151.7069  144.5497  160.8810 C   0  0  0  0  0  0  0  0  0  0  0  0
  153.9796  141.9815  163.0486 H   0  0  0  0  0  0  0  0  0  0  0  0
  152.5676  143.0256  163.1840 H   0  0  0  0  0  0  0  0  0  0  0  0
  154.0646  143.6454  162.4703 H   0  0  0  0  0  0  0  0  0  0  0  0
  153.9551  140.4198  161.2925 H   0  0  0  0  0  0  0  0  0  0  0  0
  152.5166  138.8630  156.8349 H   0  0  0  0  0  0  0  0  0  0  0  0
  151.5609  142.0900  155.8669 H   0  0  0  0  0  0  0  0  0  0  0  0
  151.1430  140.4233  155.5479 H   0  0  0  0  0  0  0  0  0  0  0  0
  149.3326  140.8803  157.5034 H   0  0  0  0  0  0  0  0  0  0  0  0
  149.3028  143.3750  156.2725 H   0  0  0  0  0  0  0  0  0  0  0  0
  149.2799  141.2837  154.5439 H   0  0  0  0  0  0  0  0  0  0  0  0
  148.2644  140.2411  155.5025 H   0  0  0  0  0  0  0  0  0  0  0  0
  147.6192  142.3258  153.2587 H   0  0  0  0  0  0  0  0  0  0  0  0
  146.4121  141.2367  153.9149 H   0  0  0  0  0  0  0  0  0  0  0  0
  146.3459  144.3015  153.9718 H   0  0  0  0  0  0  0  0  0  0  0  0
  145.3279  143.2729  152.9928 H   0  0  0  0  0  0  0  0  0  0  0  0
  144.1342  144.0953  155.0425 H   0  0  0  0  0  0  0  0  0  0  0  0
  144.2310  142.3479  154.9960 H   0  0  0  0  0  0  0  0  0  0  0  0
  146.0621  144.2160  156.5883 H   0  0  0  0  0  0  0  0  0  0  0  0
  145.0838  142.7762  158.2591 H   0  0  0  0  0  0  0  0  0  0  0  0
  146.1171  141.1532  156.4620 H   0  0  0  0  0  0  0  0  0  0  0  0
  147.1348  142.1735  157.4561 H   0  0  0  0  0  0  0  0  0  0  0  0
  151.0893  143.3888  158.4914 H   0  0  0  0  0  0  0  0  0  0  0  0
  151.1107  145.0786  160.1366 H   0  0  0  0  0  0  0  0  0  0  0  0
  152.5795  145.1632  161.1072 H   0  0  0  0  0  0  0  0  0  0  0  0
  151.1056  144.4548  161.7854 H   0  0  0  0  0  0  0  0  0  0  0  0
  148.0097  143.1454  155.4449 H   0  0  0  0  0  0  0  0  0  0  0  0
  1  2  1  0  0  0  0
  1 23  1  0  0  0  0
  1 24  1  0  0  0  0
  1 25  1  0  0  0  0
  2 21  1  0  0  0  0
  2  3  2  0  0  0  0
  3  4  1  0  0  0  0
  3 26  1  0  0  0  0
  4 19  2  0  0  0  0
  4  5  1  0  0  0  0
  5  6  2  0  0  0  0
  6  7  1  0  0  0  0
  6 27  1  0  0  0  0
  7  8  1  0  0  0  0
  7 19  1  0  0  0  0
  8  9  1  0  0  0  0
  8 28  1  0  0  0  0
  8 29  1  0  0  0  0
  9 10  1  0  0  0  0
  9 11  1  0  0  0  0
  9 30  1  0  0  0  0
 10 31  1  0  0  0  0
 11 12  1  0  0  0  0
 11 32  1  0  0  0  0
 11 33  1  0  0  0  0
 12 18  1  0  0  0  0
 12 13  1  0  0  0  0
 12 48  1  0  0  0  0
 13 14  1  0  0  0  0
 13 34  1  0  0  0  0
 13 35  1  0  0  0  0
 14 15  1  0  0  0  0
 14 36  1  0  0  0  0
 14 37  1  0  0  0  0
 15 16  1  0  0  0  0
 15 38  1  0  0  0  0
 15 39  1  0  0  0  0
 16 17  1  0  0  0  0
 16 18  1  0  0  0  0
 16 40  1  0  0  0  0
 17 41  1  0  0  0  0
 18 42  1  0  0  0  0
 18 43  1  0  0  0  0
 19 20  1  0  0  0  0
 20 21  2  0  0  0  0
 20 44  1  0  0  0  0
 21 22  1  0  0  0  0
 22 45  1  0  0  0  0
 22 46  1  0  0  0  0
 22 47  1  0  0  0  0
M  CHG  1  12   1
M  END
> <s_m_source_file>
AV-unprocessed.smi

> <i_m_source_file_index>
1487

> <i_lp_mmshare_version>
43012

> <i_f3d_flags>
0

> <s_epik_input>
W0NIM11jKFtjSF0xKWMoW0NIM10pW2NIXWMoYzEyKW4oW2NIXW4yKVtDSDJdW0NASF0oW09IXSlbQ0gyXU4zW0NIMl1bQ0gyXVtDSDJdW0NAQEhdKFtPSF0pW0NIMl0z

> <s_epik_cmdline>
J2VwaWtfcHl0aG9uJywgJy1waCcsICc3LjAnLCAnLXRuJywgJzgnLCAnLW1hJywgJzIwMCcsICctbWV0YWxfYmluZGluZycsICctaW1hZScsICc8aW5maWxlLm1hZT4nLCAnLW9tYWUnLCAnPG91dGZpbGUubWFlPic=

> <r_epik_Ionization_Penalty>
0.0940186

> <r_epik_Ionization_Penalty_Charging>
0.00679686

> <r_epik_Ionization_Penalty_Neutral>
0.0872218

> <r_epik_State_Penalty>
0.0799311

> <r_epik_Charging_Adjusted_Penalty>
0.086728

> <i_epik_Tot_Q>
1

> <i_epik_Tot_abs_Q>
1

> <r_epik_Metal_State_Penalty>
7.95545e-05

> <b_epik_Metal_Only>
0

> <s_lp_Force_Field>
OPLS_2005

> <r_lp_Energy>
21.5016

> <b_lp_Chiralities_Consistent>
1

> <s_lp_Variant>
AV-unprocessed.smi:1487-2

> <Gold.Version>
5.8.1

> <Gold.Id.Protein>
6NUR|6NUR_protein|mol2

> <Gold.PLP.Fitness>
54.2986

> <Gold.PLP.PLP>
-47.1278

> <Gold.PLP.part.hbond>
-1.7084

> <Gold.PLP.part.metal>
0.0000

> <Gold.PLP.part.buried>
-6.2723

> <Gold.PLP.part.nonpolar>
-38.6075

> <Gold.PLP.part.repulsive>
0.0842

> <Gold.PLP.ligand.clash>
0.0000

> <Gold.PLP.ligand.torsion>
0.9328

> <Gold.PLP.Chemscore.Hbond>
3.0000

> <Gold.PLP.Chemscore.CHOScore>
0.0000

> <Gold.PLP.Chemscore.Metal>
0.0000

> <Gold.Chemscore.Hbonds>
donor molecule, donor type, donor heavy atom, donor atom, acceptor molecule, acceptor atom, score
      L1  H    10    31       P1  8028  0.98
      L1  H    12    48       P1  8028  2.00

> <Gold.PLP.Chemscore.Internal.Correction>
0.0362

> <Gold.Rescore>
     Score         DG    S(hbond)    S(metal)    S(lipo)     H(rot)  DE(clash)    DE(int)     intcor
     18.38     -19.47       1.86        0.00     124.83       2.67       0.03       1.05       ----

> <Gold.Chemscore.Fitness>
18.3792

> <Gold.Chemscore.DG>
-19.4670

> <Gold.Chemscore.ZeroCoef>
-5.4800

> <Gold.Chemscore.Hbond>
1.8625

> <Gold.Chemscore.Metal>
0.0000

> <Gold.Chemscore.Lipo>
124.8250

> <Gold.Chemscore.Internal_Hbond>
0.0000

> <Gold.Chemscore.DEClash>
0.0343

> <Gold.Chemscore.DEInternal>
1.0534

> <Gold.Chemscore.Rot>
2.6712

> <Gold.Chemscore.Internal.Correction>
   9.000000E+99

> <Gold.Chemscore.Hbonds>
donor molecule, donor type, donor heavy atom, donor atom, acceptor molecule, acceptor atom, score
      L1  H    10    31       P1  8028  0.87
      L1  H    12    48       P1  8028  0.78

> <Gold.Chemscore.Hbond.Weighted>
-6.2208

> <Gold.Chemscore.Metal.Weighted>
-0.0000

> <Gold.Chemscore.Lipo.Weighted>
-14.6045

> <Gold.Chemscore.Internal_Hbond.Weighted>
0.0000

> <Gold.Chemscore.DEClash.Weighted>
0.0343

> <Gold.Chemscore.DEInternal.Weighted>
1.0534

> <Gold.Chemscore.Rot.Weighted>
6.8383

> <Gold.Chemscore.Internal.Correction.Weighted>
   9.000000E+99

> <Gold.Protein.RotatedTorsions>
[ 6907 6896 6895 6894 ] final -100.11 input  -60.11 | X-H torsion
[ 7974 7965 7964 7962 ] final  -90.28 input  175.53 | X-H torsion
[ 8008 7997 7996 7995 ] final   96.96 input   59.86 | X-H torsion
[ 10167 10162 10161 10158 ] final  130.84 input  -65.29 | X-H torsion
[ 10718 10713 10712 10709 ] final  177.85 input   66.30 | X-H torsion
[ 10763 10752 10751 10750 ] final   57.08 input  -60.55 | X-H torsion
[ 11005 11000 10999 10996 ] final   11.82 input  -57.11 | X-H torsion

> <Gold.Protein.ActiveResidues>
 VAL166  LYS551  ARG553  GLY616  TRP617  ASP618  TYR619  PRO620  LYS621  CYS622 
 ASP623  PHE694  ASN695  SER759  ASP760  ASP761  ALA762  ILE779  LEU786  VAL792 
 PHE793  MET794  SER795  GLU796  ALA797  LYS798  CYS799  TRP800  GLU811  SER814 

> <Gold.Protein.RotatedAtoms>
  150.7104  134.0937  159.3940 H   0  0  0  0  0  0  0  0  0  0  0  0  # atno 6907 bound_to 6896
  151.8922  135.0409  160.0508 H   0  0  0  0  0  0  0  0  0  0  0  0  # atno 6908 bound_to 6896
  152.2482  133.5157  159.5346 H   0  0  0  0  0  0  0  0  0  0  0  0  # atno 6909 bound_to 6896
  145.4285  140.9554  143.2141 H   0  0  0  0  0  0  0  0  0  0  0  0  # atno 7974 bound_to 7965
  156.0851  140.3265  155.7743 H   0  0  0  0  0  0  0  0  0  0  0  0  # atno 8008 bound_to 7997
  155.5089  140.0575  157.2944 H   0  0  0  0  0  0  0  0  0  0  0  0  # atno 8009 bound_to 7997
  154.4604  140.1964  156.0276 H   0  0  0  0  0  0  0  0  0  0  0  0  # atno 8010 bound_to 7997
  139.5411  144.6731  151.4621 H   0  0  0  0  0  0  0  0  0  0  0  0  # atno 10167 bound_to 10162
  156.8992  130.9873  151.3038 H   0  0  0  0  0  0  0  0  0  0  0  0  # atno 10718 bound_to 10713
  152.9843  135.5654  154.5332 H   0  0  0  0  0  0  0  0  0  0  0  0  # atno 10763 bound_to 10752
  154.4800  135.2788  155.1580 H   0  0  0  0  0  0  0  0  0  0  0  0  # atno 10764 bound_to 10752
  154.3092  135.6291  153.5511 H   0  0  0  0  0  0  0  0  0  0  0  0  # atno 10765 bound_to 10752
  140.4989  134.0766  155.7789 H   0  0  0  0  0  0  0  0  0  0  0  0  # atno 11005 bound_to 11000
  144.8198  139.5811  143.6992 LP  0  0  0  0  0  0  0  0  0  0  0  0  # atno 17320 bound_to 7965
  146.2619  139.6431  142.9356 LP  0  0  0  0  0  0  0  0  0  0  0  0  # atno 17321 bound_to 7965
  140.6642  143.8434  150.6922 LP  0  0  0  0  0  0  0  0  0  0  0  0  # atno 17342 bound_to 10162
  140.1838  143.4092  152.1913 LP  0  0  0  0  0  0  0  0  0  0  0  0  # atno 17343 bound_to 10162
  157.6036  130.8531  149.8840 LP  0  0  0  0  0  0  0  0  0  0  0  0  # atno 17370 bound_to 10713
  156.0590  130.3703  150.1025 LP  0  0  0  0  0  0  0  0  0  0  0  0  # atno 17371 bound_to 10713
  141.1446  133.9078  157.2246 LP  0  0  0  0  0  0  0  0  0  0  0  0  # atno 17394 bound_to 11000
  139.9725  135.0124  156.9548 LP  0  0  0  0  0  0  0  0  0  0  0  0  # atno 17395 bound_to 11000

$$$$
