AV-unprocessed.smi:2413|AV-procd|sdf|9536|dock5
  -GOLD-   2272013173D 1   1.00000     0.00000
 Structure written by MMmdl.
 46 47  0  0  0  0  0  0  0  0  2 V2000
  145.5697  144.2098  158.8476 C   0  0  0  0  0  0  0  0  0  0  0  0
  146.8322  143.8305  159.6134 C   0  0  0  0  0  0  0  0  0  0  0  0
  146.8113  142.8935  160.4109 O   0  0  0  0  0  0  0  0  0  0  0  0
  147.9275  144.5607  159.3522 N   0  0  0  0  0  0  0  0  0  0  0  0
  149.2371  144.3775  159.9725 C   0  0  0  0  0  0  0  0  0  0  0  0
  150.2820  143.8229  158.9863 C   0  0  2  0  0  0  0  0  0  0  0  0
  149.7263  142.7046  158.0815 C   0  0  0  0  0  0  0  0  0  0  0  0
  150.7818  142.1129  157.2602 N   0  0  0  0  0  0  0  0  0  0  0  0
  150.3844  141.2547  156.2102 C   0  0  0  0  0  0  0  0  0  0  0  0
  151.2295  140.2338  155.7284 C   0  0  0  0  0  0  0  0  0  0  0  0
  150.7347  139.4258  154.6888 C   0  0  0  0  0  0  0  0  0  0  0  0
  149.5015  139.6459  154.1744 N   0  3  0  0  0  0  0  0  0  0  0  0
  148.7549  140.6662  154.6299 C   0  0  0  0  0  0  0  0  0  0  0  0
  147.3162  140.8361  154.1210 C   0  0  0  0  0  0  0  0  0  0  0  0
  146.2945  140.4178  155.2046 C   0  0  0  0  0  0  0  0  0  0  0  0
  147.1129  139.9769  152.8600 C   0  0  0  0  0  0  0  0  0  0  0  0
  147.0223  142.3179  153.7940 C   0  0  0  0  0  0  0  0  0  0  0  0
  149.1636  141.4296  155.6536 N   0  0  0  0  0  0  0  0  0  0  0  0
  151.9525  141.6988  158.0296 C   0  0  0  0  0  0  0  0  0  0  0  0
  152.4355  142.8470  158.9311 C   0  0  0  0  0  0  0  0  0  0  0  0
  151.3636  143.2989  159.7511 O   0  0  0  0  0  0  0  0  0  0  0  0
  145.3808  145.2810  158.9243 H   0  0  0  0  0  0  0  0  0  0  0  0
  144.7023  143.6819  159.2452 H   0  0  0  0  0  0  0  0  0  0  0  0
  145.6739  143.9508  157.7939 H   0  0  0  0  0  0  0  0  0  0  0  0
  147.8466  145.3078  158.6776 H   0  0  0  0  0  0  0  0  0  0  0  0
  149.5656  145.3516  160.3355 H   0  0  0  0  0  0  0  0  0  0  0  0
  149.1654  143.7357  160.8527 H   0  0  0  0  0  0  0  0  0  0  0  0
  150.6524  144.6443  158.3696 H   0  0  0  0  0  0  0  0  0  0  0  0
  149.2637  141.9250  158.6886 H   0  0  0  0  0  0  0  0  0  0  0  0
  148.9519  143.1206  157.4365 H   0  0  0  0  0  0  0  0  0  0  0  0
  152.2201  140.0656  156.1227 H   0  0  0  0  0  0  0  0  0  0  0  0
  151.2859  138.6055  154.2529 H   0  0  0  0  0  0  0  0  0  0  0  0
  145.2699  140.5793  154.8675 H   0  0  0  0  0  0  0  0  0  0  0  0
  146.4307  140.9905  156.1229 H   0  0  0  0  0  0  0  0  0  0  0  0
  146.3779  139.3604  155.4599 H   0  0  0  0  0  0  0  0  0  0  0  0
  147.2857  138.9202  153.0687 H   0  0  0  0  0  0  0  0  0  0  0  0
  147.7985  140.2708  152.0642 H   0  0  0  0  0  0  0  0  0  0  0  0
  146.0982  140.0729  152.4723 H   0  0  0  0  0  0  0  0  0  0  0  0
  145.9899  142.4547  153.4704 H   0  0  0  0  0  0  0  0  0  0  0  0
  147.6563  142.6927  152.9897 H   0  0  0  0  0  0  0  0  0  0  0  0
  147.1787  142.9564  154.6645 H   0  0  0  0  0  0  0  0  0  0  0  0
  151.6860  140.8337  158.6383 H   0  0  0  0  0  0  0  0  0  0  0  0
  152.7751  141.3937  157.3852 H   0  0  0  0  0  0  0  0  0  0  0  0
  153.2491  142.5041  159.5702 H   0  0  0  0  0  0  0  0  0  0  0  0
  152.8266  143.6728  158.3347 H   0  0  0  0  0  0  0  0  0  0  0  0
  149.1509  139.0398  153.4325 H   0  0  0  0  0  0  0  0  0  0  0  0
  1  2  1  0  0  0  0
  1 22  1  0  0  0  0
  1 23  1  0  0  0  0
  1 24  1  0  0  0  0
  2  3  2  0  0  0  0
  2  4  1  0  0  0  0
  4  5  1  0  0  0  0
  4 25  1  0  0  0  0
  5  6  1  0  0  0  0
  5 26  1  0  0  0  0
  5 27  1  0  0  0  0
  6 21  1  0  0  0  0
  6  7  1  0  0  0  0
  6 28  1  0  0  0  0
  7  8  1  0  0  0  0
  7 29  1  0  0  0  0
  7 30  1  0  0  0  0
  8  9  1  0  0  0  0
  8 19  1  0  0  0  0
  9 18  1  0  0  0  0
  9 10  2  0  0  0  0
 10 11  1  0  0  0  0
 10 31  1  0  0  0  0
 11 12  2  0  0  0  0
 11 32  1  0  0  0  0
 12 13  1  0  0  0  0
 12 46  1  0  0  0  0
 13 14  1  0  0  0  0
 13 18  2  0  0  0  0
 14 15  1  0  0  0  0
 14 16  1  0  0  0  0
 14 17  1  0  0  0  0
 15 33  1  0  0  0  0
 15 34  1  0  0  0  0
 15 35  1  0  0  0  0
 16 36  1  0  0  0  0
 16 37  1  0  0  0  0
 16 38  1  0  0  0  0
 17 39  1  0  0  0  0
 17 40  1  0  0  0  0
 17 41  1  0  0  0  0
 19 20  1  0  0  0  0
 19 42  1  0  0  0  0
 19 43  1  0  0  0  0
 20 21  1  0  0  0  0
 20 44  1  0  0  0  0
 20 45  1  0  0  0  0
M  CHG  1  12   1
M  END
> <s_m_source_file>
AV-unprocessed.smi

> <i_m_source_file_index>
2413

> <i_lp_mmshare_version>
43012

> <i_f3d_flags>
0

> <s_epik_input>
W0NIM11DKD1PKVtOSF1bQ0gyXVtDQEBIXTFbQ0gyXU4oW0NIMl1bQ0gyXU8xKWMyW2NIXVtjSF1uYyhuMilDKFtDSDNdKShbQ0gzXSlbQ0gzXQ==

> <s_epik_cmdline>
J2VwaWtfcHl0aG9uJywgJy1waCcsICc3LjAnLCAnLXRuJywgJzgnLCAnLW1hJywgJzIwMCcsICctbWV0YWxfYmluZGluZycsICctaW1hZScsICc8aW5maWxlLm1hZT4nLCAnLW9tYWUnLCAnPG91dGZpbGUubWFlPic=

> <r_lp_tautomer_probability>
0.999336

> <r_epik_Ionization_Penalty>
2.26127

> <r_epik_Ionization_Penalty_Charging>
2.26127

> <r_epik_Ionization_Penalty_Neutral>
4.08984e-07

> <r_epik_State_Penalty>
2.40914

> <r_epik_Charging_Adjusted_Penalty>
4.67041

> <i_epik_Tot_Q>
1

> <i_epik_Tot_abs_Q>
1

> <r_epik_Metal_State_Penalty>
2.42208

> <b_epik_Metal_Only>
0

> <s_lp_Force_Field>
OPLS_2005

> <r_lp_Energy>
13.7164

> <b_lp_Chiralities_Consistent>
1

> <s_lp_Variant>
AV-unprocessed.smi:2413-3

> <Gold.Version>
5.8.1

> <Gold.Id.Protein>
6NUR|6NUR_protein|mol2

> <Gold.PLP.Fitness>
40.9654

> <Gold.PLP.PLP>
-34.2494

> <Gold.PLP.part.hbond>
-3.8794

> <Gold.PLP.part.metal>
0.0000

> <Gold.PLP.part.buried>
-3.5616

> <Gold.PLP.part.nonpolar>
-27.2443

> <Gold.PLP.part.repulsive>
0.4693

> <Gold.PLP.ligand.clash>
0.1324

> <Gold.PLP.ligand.torsion>
1.0715

> <Gold.PLP.Chemscore.Hbond>
2.8328

> <Gold.PLP.Chemscore.CHOScore>
0.0000

> <Gold.PLP.Chemscore.Metal>
0.0000

> <Gold.Chemscore.Hbonds>
donor molecule, donor type, donor heavy atom, donor atom, acceptor molecule, acceptor atom, score
      L1  H     4    25       P1  8029  1.00
      P1  H  6933  6944       L1     3  0.90
      P1  H  6934  6946       L1     3  0.89

> <Gold.PLP.Chemscore.Internal.Correction>
0.4929

> <Gold.Rescore>
     Score         DG    S(hbond)    S(metal)    S(lipo)     H(rot)  DE(clash)    DE(int)     intcor
     17.79     -18.85       2.69        0.00      76.28       1.77       0.19       0.87       ----

> <Gold.Chemscore.Fitness>
17.7897

> <Gold.Chemscore.DG>
-18.8479

> <Gold.Chemscore.ZeroCoef>
-5.4800

> <Gold.Chemscore.Hbond>
2.6884

> <Gold.Chemscore.Metal>
0.0000

> <Gold.Chemscore.Lipo>
76.2798

> <Gold.Chemscore.Internal_Hbond>
0.0000

> <Gold.Chemscore.DEClash>
0.1890

> <Gold.Chemscore.DEInternal>
0.8691

> <Gold.Chemscore.Rot>
1.7719

> <Gold.Chemscore.Internal.Correction>
   9.000000E+99

> <Gold.Chemscore.Hbonds>
donor molecule, donor type, donor heavy atom, donor atom, acceptor molecule, acceptor atom, score
      L1  H     4    25       P1  8029  0.92
      P1  H  6933  6944       L1     3  0.80
      P1  H  6934  6946       L1     3  0.81

> <Gold.Chemscore.Hbond.Weighted>
-8.9793

> <Gold.Chemscore.Metal.Weighted>
-0.0000

> <Gold.Chemscore.Lipo.Weighted>
-8.9247

> <Gold.Chemscore.Internal_Hbond.Weighted>
0.0000

> <Gold.Chemscore.DEClash.Weighted>
0.1890

> <Gold.Chemscore.DEInternal.Weighted>
0.8691

> <Gold.Chemscore.Rot.Weighted>
4.5361

> <Gold.Chemscore.Internal.Correction.Weighted>
   9.000000E+99

> <Gold.Protein.RotatedTorsions>
[ 6907 6896 6895 6894 ] final   -9.87 input  -60.11 | X-H torsion
[ 7974 7965 7964 7962 ] final  -25.84 input  175.53 | X-H torsion
[ 8008 7997 7996 7995 ] final  158.22 input   59.86 | X-H torsion
[ 10167 10162 10161 10158 ] final  105.90 input  -65.29 | X-H torsion
[ 10718 10713 10712 10709 ] final  -77.75 input   66.30 | X-H torsion
[ 10763 10752 10751 10750 ] final -110.76 input  -60.55 | X-H torsion
[ 11005 11000 10999 10996 ] final    9.87 input  -57.11 | X-H torsion

> <Gold.Protein.ActiveResidues>
 VAL166  LYS551  ARG553  GLY616  TRP617  ASP618  TYR619  PRO620  LYS621  CYS622 
 ASP623  PHE694  ASN695  SER759  ASP760  ASP761  ALA762  ILE779  LEU786  VAL792 
 PHE793  MET794  SER795  GLU796  ALA797  LYS798  CYS799  TRP800  GLU811  SER814 

> <Gold.Protein.RotatedAtoms>
  151.4109  135.0985  159.9584 H   0  0  0  0  0  0  0  0  0  0  0  0  # atno 6907 bound_to 6896
  152.5020  133.8799  159.7351 H   0  0  0  0  0  0  0  0  0  0  0  0  # atno 6908 bound_to 6896
  150.9293  133.6729  159.2842 H   0  0  0  0  0  0  0  0  0  0  0  0  # atno 6909 bound_to 6896
  146.1465  140.4940  142.8629 H   0  0  0  0  0  0  0  0  0  0  0  0  # atno 7974 bound_to 7965
  156.2316  140.1864  156.7227 H   0  0  0  0  0  0  0  0  0  0  0  0  # atno 8008 bound_to 7997
  154.6033  140.0633  156.9425 H   0  0  0  0  0  0  0  0  0  0  0  0  # atno 8009 bound_to 7997
  155.2138  140.3302  155.4327 H   0  0  0  0  0  0  0  0  0  0  0  0  # atno 8010 bound_to 7997
  139.7054  144.7087  151.1116 H   0  0  0  0  0  0  0  0  0  0  0  0  # atno 10167 bound_to 10162
  156.0136  130.4499  150.3392 H   0  0  0  0  0  0  0  0  0  0  0  0  # atno 10718 bound_to 10713
  154.8265  135.4552  154.0935 H   0  0  0  0  0  0  0  0  0  0  0  0  # atno 10763 bound_to 10752
  153.2245  135.6898  153.7968 H   0  0  0  0  0  0  0  0  0  0  0  0  # atno 10764 bound_to 10752
  153.7373  135.3318  155.3274 H   0  0  0  0  0  0  0  0  0  0  0  0  # atno 10765 bound_to 10752
  140.5208  134.0561  155.7844 H   0  0  0  0  0  0  0  0  0  0  0  0  # atno 11005 bound_to 11000
  144.7852  140.5923  143.6578 LP  0  0  0  0  0  0  0  0  0  0  0  0  # atno 17320 bound_to 7965
  145.4925  139.1488  143.3702 LP  0  0  0  0  0  0  0  0  0  0  0  0  # atno 17321 bound_to 7965
  140.7720  143.5366  150.9361 LP  0  0  0  0  0  0  0  0  0  0  0  0  # atno 17342 bound_to 10162
  139.9049  143.6790  152.3125 LP  0  0  0  0  0  0  0  0  0  0  0  0  # atno 17343 bound_to 10162
  157.1488  131.0315  151.2894 LP  0  0  0  0  0  0  0  0  0  0  0  0  # atno 17370 bound_to 10713
  157.4410  130.7544  149.7069 LP  0  0  0  0  0  0  0  0  0  0  0  0  # atno 17371 bound_to 10713
  141.1335  133.9262  157.2484 LP  0  0  0  0  0  0  0  0  0  0  0  0  # atno 17394 bound_to 11000
  139.9607  135.0155  156.9252 LP  0  0  0  0  0  0  0  0  0  0  0  0  # atno 17395 bound_to 11000

$$$$
