AV-unprocessed.smi:1464|AV-procd|sdf|5943|dock1
  -GOLD-   22720 6 23D 1   1.00000     0.00000
 Structure written by MMmdl.
 41 42  0  0  0  0  0  0  0  0  1 V2000
  151.3027  145.5228  160.4279 C   0  0  0  0  0  0  0  0  0  0  0  0
  151.7714  144.0590  160.3430 C   0  0  2  0  0  0  0  0  0  0  0  0
  152.4383  143.6475  161.6721 C   0  0  0  0  0  0  0  0  0  0  0  0
  152.9155  142.1891  161.6545 C   0  0  0  0  0  0  0  0  0  0  0  0
  153.8688  141.9374  160.4774 C   0  0  0  0  0  0  0  0  0  0  0  0
  153.2345  142.3296  159.1305 C   0  0  1  0  0  0  0  0  0  0  0  0
  152.1627  141.3892  158.7944 N   0  0  0  0  0  0  0  0  0  0  0  0
  152.3167  140.1120  158.4126 C   0  0  0  0  0  0  0  0  0  0  0  0
  153.4149  139.5702  158.2794 O   0  0  0  0  0  0  0  0  0  0  0  0
  151.0199  139.3456  158.1134 C   0  0  0  0  0  0  0  0  0  0  0  0
  150.7441  139.2015  156.6769 N   0  0  0  0  0  0  0  0  0  0  0  0
  151.2183  138.0211  156.1244 N   0  0  0  0  0  0  0  0  0  0  0  0
  151.0249  137.7717  154.8734 C   0  0  0  0  0  0  0  0  0  0  0  0
  151.5080  136.5898  154.3674 O   0  0  0  0  0  0  0  0  0  0  0  0
  150.3211  138.7070  154.0234 C   0  0  0  0  0  0  0  0  0  0  0  0
  149.8678  139.8566  154.5696 C   0  0  0  0  0  0  0  0  0  0  0  0
  150.0700  140.1711  155.9852 C   0  0  0  0  0  0  0  0  0  0  0  0
  149.6706  141.2113  156.5083 O   0  0  0  0  0  0  0  0  0  0  0  0
  152.7278  143.7968  159.1459 C   0  0  1  0  0  0  0  0  0  0  0  0
  152.1205  144.1980  157.7861 C   0  0  0  0  0  0  0  0  0  0  0  0
  151.2292  136.5696  153.4650 H   0  0  0  0  0  0  0  0  0  0  0  0
  152.1488  146.2083  160.4844 H   0  0  0  0  0  0  0  0  0  0  0  0
  150.6861  145.6850  161.3126 H   0  0  0  0  0  0  0  0  0  0  0  0
  150.6984  145.8041  159.5660 H   0  0  0  0  0  0  0  0  0  0  0  0
  150.8814  143.4416  160.2126 H   0  0  0  0  0  0  0  0  0  0  0  0
  153.2875  144.3018  161.8743 H   0  0  0  0  0  0  0  0  0  0  0  0
  151.7410  143.7876  162.4988 H   0  0  0  0  0  0  0  0  0  0  0  0
  153.4169  141.9520  162.5932 H   0  0  0  0  0  0  0  0  0  0  0  0
  152.0560  141.5210  161.5887 H   0  0  0  0  0  0  0  0  0  0  0  0
  154.7805  142.5173  160.6267 H   0  0  0  0  0  0  0  0  0  0  0  0
  154.1754  140.8906  160.4606 H   0  0  0  0  0  0  0  0  0  0  0  0
  154.0227  142.2581  158.3792 H   0  0  0  0  0  0  0  0  0  0  0  0
  151.2199  141.7435  158.8652 H   0  0  0  0  0  0  0  0  0  0  0  0
  151.0606  138.3612  158.5843 H   0  0  0  0  0  0  0  0  0  0  0  0
  150.1986  139.8702  158.6049 H   0  0  0  0  0  0  0  0  0  0  0  0
  150.1663  138.4840  152.9779 H   0  0  0  0  0  0  0  0  0  0  0  0
  149.3403  140.5644  153.9470 H   0  0  0  0  0  0  0  0  0  0  0  0
  153.6062  144.4277  159.2906 H   0  0  0  0  0  0  0  0  0  0  0  0
  151.1580  143.7148  157.6164 H   0  0  0  0  0  0  0  0  0  0  0  0
  152.7819  143.9177  156.9657 H   0  0  0  0  0  0  0  0  0  0  0  0
  151.9686  145.2749  157.7153 H   0  0  0  0  0  0  0  0  0  0  0  0
  1  2  1  0  0  0  0
  1 22  1  0  0  0  0
  1 23  1  0  0  0  0
  1 24  1  0  0  0  0
  2 19  1  0  0  0  0
  2  3  1  0  0  0  0
  2 25  1  0  0  0  0
  3  4  1  0  0  0  0
  3 26  1  0  0  0  0
  3 27  1  0  0  0  0
  4  5  1  0  0  0  0
  4 28  1  0  0  0  0
  4 29  1  0  0  0  0
  5  6  1  0  0  0  0
  5 30  1  0  0  0  0
  5 31  1  0  0  0  0
  6  7  1  0  0  0  0
  6 19  1  0  0  0  0
  6 32  1  0  0  0  0
  7  8  1  0  0  0  0
  7 33  1  0  0  0  0
  8  9  2  0  0  0  0
  8 10  1  0  0  0  0
 10 34  1  0  0  0  0
 10 35  1  0  0  0  0
 10 11  1  0  0  0  0
 11 12  1  0  0  0  0
 11 17  1  0  0  0  0
 12 13  2  0  0  0  0
 13 14  1  0  0  0  0
 13 15  1  0  0  0  0
 14 21  1  0  0  0  0
 15 36  1  0  0  0  0
 15 16  2  0  0  0  0
 16 37  1  0  0  0  0
 16 17  1  0  0  0  0
 17 18  2  0  0  0  0
 19 20  1  0  0  0  0
 19 38  1  0  0  0  0
 20 39  1  0  0  0  0
 20 40  1  0  0  0  0
 20 41  1  0  0  0  0
M  END
> <s_m_source_file>
AV-unprocessed.smi

> <i_m_source_file_index>
1464

> <i_lp_mmshare_version>
43012

> <i_f3d_flags>
0

> <s_epik_input>
W0NIM11bQ0BASF0xW0NIMl1bQ0gyXVtDSDJdW0NASF0oW0NASF0xW0NIM10pW05IXUMoPU8pW0NIMl1uMltuSF1jKD1PKVtjSF1bY0hdYzI9Tw==

> <s_epik_cmdline>
J2VwaWtfcHl0aG9uJywgJy1waCcsICc3LjAnLCAnLXRuJywgJzgnLCAnLW1hJywgJzIwMCcsICctbWV0YWxfYmluZGluZycsICctaW1hZScsICc8aW5maWxlLm1hZT4nLCAnLW9tYWUnLCAnPG91dGZpbGUubWFlPic=

> <r_lp_tautomer_probability>
0.9996

> <r_epik_Ionization_Penalty>
2.10335

> <r_epik_Ionization_Penalty_Charging>
3.98079e-08

> <r_epik_Ionization_Penalty_Neutral>
2.10335

> <r_epik_State_Penalty>
1.67957

> <r_epik_Charging_Adjusted_Penalty>
1.67957

> <i_epik_Tot_Q>
0

> <i_epik_Tot_abs_Q>
0

> <r_epik_Metal_State_Penalty>
1.67957

> <b_epik_Metal_Only>
0

> <s_lp_Force_Field>
OPLS_2005

> <r_lp_Energy>
20.9709

> <b_lp_Chiralities_Consistent>
1

> <s_lp_Variant>
AV-unprocessed.smi:1464-9

> <Gold.Version>
5.8.1

> <Gold.Id.Protein>
6NUR|6NUR_protein|mol2

> <Gold.PLP.Fitness>
53.8954

> <Gold.PLP.PLP>
-46.3807

> <Gold.PLP.part.hbond>
-3.0000

> <Gold.PLP.part.metal>
0.0000

> <Gold.PLP.part.buried>
-3.4609

> <Gold.PLP.part.nonpolar>
-39.3882

> <Gold.PLP.part.repulsive>
0.1771

> <Gold.PLP.ligand.clash>
0.0000

> <Gold.PLP.ligand.torsion>
0.7511

> <Gold.PLP.Chemscore.Hbond>
3.0000

> <Gold.PLP.Chemscore.CHOScore>
0.0000

> <Gold.PLP.Chemscore.Metal>
0.0000

> <Gold.Chemscore.Hbonds>
donor molecule, donor type, donor heavy atom, donor atom, acceptor molecule, acceptor atom, score
      L1  H    14    21       P1  7949  0.93
      P1  H  7997  8009       L1     9  1.00
      P1  H 10752 10765       L1    14  1.00

> <Gold.PLP.Chemscore.Internal.Correction>
0.0169

> <Gold.Rescore>
     Score         DG    S(hbond)    S(metal)    S(lipo)     H(rot)  DE(clash)    DE(int)     intcor
     20.91     -21.79       2.54        0.00     115.37       2.22       0.06       0.81       ----

> <Gold.Chemscore.Fitness>
20.9100

> <Gold.Chemscore.DG>
-21.7860

> <Gold.Chemscore.ZeroCoef>
-5.4800

> <Gold.Chemscore.Hbond>
2.5441

> <Gold.Chemscore.Metal>
0.0000

> <Gold.Chemscore.Lipo>
115.3667

> <Gold.Chemscore.Internal_Hbond>
0.0000

> <Gold.Chemscore.DEClash>
0.0619

> <Gold.Chemscore.DEInternal>
0.8141

> <Gold.Chemscore.Rot>
2.2224

> <Gold.Chemscore.Internal.Correction>
   9.000000E+99

> <Gold.Chemscore.Hbonds>
donor molecule, donor type, donor heavy atom, donor atom, acceptor molecule, acceptor atom, score
      L1  H    14    21       P1  7949  0.48
      P1  H  7997  8009       L1     9  1.00
      P1  H 10752 10765       L1    14  0.40

> <Gold.Chemscore.Hbond.Weighted>
-8.4974

> <Gold.Chemscore.Metal.Weighted>
-0.0000

> <Gold.Chemscore.Lipo.Weighted>
-13.4979

> <Gold.Chemscore.Internal_Hbond.Weighted>
0.0000

> <Gold.Chemscore.DEClash.Weighted>
0.0619

> <Gold.Chemscore.DEInternal.Weighted>
0.8141

> <Gold.Chemscore.Rot.Weighted>
5.6893

> <Gold.Chemscore.Internal.Correction.Weighted>
   9.000000E+99

> <Gold.Protein.RotatedTorsions>
[ 6907 6896 6895 6894 ] final  166.62 input  -60.11 | X-H torsion
[ 7974 7965 7964 7962 ] final  131.24 input  175.53 | X-H torsion
[ 8008 7997 7996 7995 ] final  150.37 input   59.86 | X-H torsion
[ 10167 10162 10161 10158 ] final  -49.41 input  -65.29 | X-H torsion
[ 10718 10713 10712 10709 ] final  -85.78 input   66.30 | X-H torsion
[ 10763 10752 10751 10750 ] final  165.42 input  -60.55 | X-H torsion
[ 11005 11000 10999 10996 ] final  127.97 input  -57.11 | X-H torsion

> <Gold.Protein.ActiveResidues>
 VAL166  LYS551  ARG553  GLY616  TRP617  ASP618  TYR619  PRO620  LYS621  CYS622 
 ASP623  PHE694  ASN695  SER759  ASP760  ASP761  ALA762  ILE779  LEU786  VAL792 
 PHE793  MET794  SER795  GLU796  ALA797  LYS798  CYS799  TRP800  GLU811  SER814 

> <Gold.Protein.RotatedAtoms>
  151.8760  133.3485  159.3750 H   0  0  0  0  0  0  0  0  0  0  0  0  # atno 6907 bound_to 6896
  150.7140  134.5065  159.5596 H   0  0  0  0  0  0  0  0  0  0  0  0  # atno 6908 bound_to 6896
  152.2608  134.8037  160.0482 H   0  0  0  0  0  0  0  0  0  0  0  0  # atno 6909 bound_to 6896
  145.0094  139.4235  143.5252 H   0  0  0  0  0  0  0  0  0  0  0  0  # atno 7974 bound_to 7965
  156.2718  140.2076  156.6006 H   0  0  0  0  0  0  0  0  0  0  0  0  # atno 8008 bound_to 7997
  154.6910  140.0530  157.0386 H   0  0  0  0  0  0  0  0  0  0  0  0  # atno 8009 bound_to 7997
  155.0867  140.3192  155.4588 H   0  0  0  0  0  0  0  0  0  0  0  0  # atno 8010 bound_to 7997
  140.6686  143.2699  151.4211 H   0  0  0  0  0  0  0  0  0  0  0  0  # atno 10167 bound_to 10162
  155.9994  130.4743  150.4615 H   0  0  0  0  0  0  0  0  0  0  0  0  # atno 10718 bound_to 10713
  154.3237  135.2755  155.2506 H   0  0  0  0  0  0  0  0  0  0  0  0  # atno 10763 bound_to 10752
  154.4848  135.5849  153.6419 H   0  0  0  0  0  0  0  0  0  0  0  0  # atno 10764 bound_to 10752
  152.9874  135.6120  154.3424 H   0  0  0  0  0  0  0  0  0  0  0  0  # atno 10765 bound_to 10752
  139.9535  134.9617  156.8933 H   0  0  0  0  0  0  0  0  0  0  0  0  # atno 11005 bound_to 11000
  146.3467  139.9529  142.8726 LP  0  0  0  0  0  0  0  0  0  0  0  0  # atno 17320 bound_to 7965
  145.2044  140.9868  143.4137 LP  0  0  0  0  0  0  0  0  0  0  0  0  # atno 17321 bound_to 7965
  139.5945  144.1428  152.2127 LP  0  0  0  0  0  0  0  0  0  0  0  0  # atno 17342 bound_to 10162
  140.0792  144.5714  150.7134 LP  0  0  0  0  0  0  0  0  0  0  0  0  # atno 17343 bound_to 10162
  157.2639  131.0573  151.2303 LP  0  0  0  0  0  0  0  0  0  0  0  0  # atno 17370 bound_to 10713
  157.3408  130.7032  149.6380 LP  0  0  0  0  0  0  0  0  0  0  0  0  # atno 17371 bound_to 10713
  140.5662  134.0487  155.7415 LP  0  0  0  0  0  0  0  0  0  0  0  0  # atno 17394 bound_to 11000
  141.1203  133.9472  157.2743 LP  0  0  0  0  0  0  0  0  0  0  0  0  # atno 17395 bound_to 11000

$$$$
