AV-unprocessed.smi:1856|AV-procd|sdf|7533|dock8
  -GOLD-   22720 9243D 1   1.00000     0.00000
 Structure written by MMmdl.
 44 45  0  0  0  0  0  0  0  0  1 V2000
  149.7846  133.9507  154.6928 C   0  0  0  0  0  0  0  0  0  0  0  0
  150.5675  134.0019  156.0147 C   0  0  0  0  0  0  0  0  0  0  0  0
  150.5878  135.3937  156.6765 C   0  0  0  0  0  0  0  0  0  0  0  0
  151.1578  136.4808  155.7619 C   0  0  0  0  0  0  0  0  0  0  0  0
  151.4355  136.2202  154.5913 O   0  0  0  0  0  0  0  0  0  0  0  0
  151.3023  137.7007  156.3027 N   0  0  0  0  0  0  0  0  0  0  0  0
  151.6934  138.9034  155.5725 C   0  0  2  0  0  0  0  0  0  0  0  0
  152.9789  138.6468  154.7728 C   0  0  0  0  0  0  0  0  0  0  0  0
  151.8524  140.0195  156.5767 C   0  0  0  0  0  0  0  0  0  0  0  0
  152.6695  139.8956  157.6271 N   0  0  0  0  0  0  0  0  0  0  0  0
  152.5012  141.0910  158.2942 C   0  0  0  0  0  0  0  0  0  0  0  0
  153.0974  141.5712  159.4820 C   0  0  0  0  0  0  0  0  0  0  0  0
  152.7627  142.8461  159.9833 C   0  0  0  0  0  0  0  0  0  0  0  0
  151.8294  143.6565  159.3053 C   0  0  0  0  0  0  0  0  0  0  0  0
  151.2238  143.1958  158.1204 C   0  0  0  0  0  0  0  0  0  0  0  0
  151.5611  141.9220  157.6243 C   0  0  0  0  0  0  0  0  0  0  0  0
  151.1531  141.1853  156.5163 N   0  0  0  0  0  0  0  0  0  0  0  0
  150.1685  141.6258  155.5350 C   0  0  0  0  0  0  0  0  0  0  0  0
  148.7210  141.3370  155.9746 C   0  0  2  0  0  0  0  0  0  0  0  0
  147.7217  141.5303  154.8275 C   0  0  0  0  0  0  0  0  0  0  0  0
  148.3484  142.1861  157.0410 O   0  0  0  0  0  0  0  0  0  0  0  0
  149.7528  132.9337  154.3019 H   0  0  0  0  0  0  0  0  0  0  0  0
  150.2413  134.5804  153.9283 H   0  0  0  0  0  0  0  0  0  0  0  0
  148.7564  134.2854  154.8313 H   0  0  0  0  0  0  0  0  0  0  0  0
  150.1239  133.2908  156.7121 H   0  0  0  0  0  0  0  0  0  0  0  0
  151.5876  133.6545  155.8454 H   0  0  0  0  0  0  0  0  0  0  0  0
  149.5804  135.6635  156.9972 H   0  0  0  0  0  0  0  0  0  0  0  0
  151.1983  135.3587  157.5794 H   0  0  0  0  0  0  0  0  0  0  0  0
  151.0484  137.8222  157.2722 H   0  0  0  0  0  0  0  0  0  0  0  0
  150.9176  139.1422  154.8478 H   0  0  0  0  0  0  0  0  0  0  0  0
  153.2840  139.5399  154.2269 H   0  0  0  0  0  0  0  0  0  0  0  0
  152.8330  137.8487  154.0443 H   0  0  0  0  0  0  0  0  0  0  0  0
  153.8053  138.3563  155.4222 H   0  0  0  0  0  0  0  0  0  0  0  0
  153.8128  140.9571  160.0085 H   0  0  0  0  0  0  0  0  0  0  0  0
  153.2236  143.2036  160.8925 H   0  0  0  0  0  0  0  0  0  0  0  0
  151.5775  144.6316  159.6961 H   0  0  0  0  0  0  0  0  0  0  0  0
  150.5080  143.8142  157.5997 H   0  0  0  0  0  0  0  0  0  0  0  0
  150.3100  142.6806  155.3061 H   0  0  0  0  0  0  0  0  0  0  0  0
  150.3731  141.1033  154.5999 H   0  0  0  0  0  0  0  0  0  0  0  0
  148.6534  140.3083  156.3307 H   0  0  0  0  0  0  0  0  0  0  0  0
  147.9526  140.8674  153.9933 H   0  0  0  0  0  0  0  0  0  0  0  0
  147.7405  142.5547  154.4531 H   0  0  0  0  0  0  0  0  0  0  0  0
  146.7033  141.3109  155.1498 H   0  0  0  0  0  0  0  0  0  0  0  0
  148.5889  143.0720  156.8168 H   0  0  0  0  0  0  0  0  0  0  0  0
  1  2  1  0  0  0  0
  1 22  1  0  0  0  0
  1 23  1  0  0  0  0
  1 24  1  0  0  0  0
  2  3  1  0  0  0  0
  2 25  1  0  0  0  0
  2 26  1  0  0  0  0
  3  4  1  0  0  0  0
  3 27  1  0  0  0  0
  3 28  1  0  0  0  0
  4  5  2  0  0  0  0
  4  6  1  0  0  0  0
  6  7  1  0  0  0  0
  6 29  1  0  0  0  0
  7  8  1  0  0  0  0
  7  9  1  0  0  0  0
  7 30  1  0  0  0  0
  8 31  1  0  0  0  0
  8 32  1  0  0  0  0
  8 33  1  0  0  0  0
  9 17  1  0  0  0  0
  9 10  2  0  0  0  0
 10 11  1  0  0  0  0
 11 16  2  0  0  0  0
 11 12  1  0  0  0  0
 12 13  2  0  0  0  0
 12 34  1  0  0  0  0
 13 14  1  0  0  0  0
 13 35  1  0  0  0  0
 14 15  2  0  0  0  0
 14 36  1  0  0  0  0
 15 16  1  0  0  0  0
 15 37  1  0  0  0  0
 16 17  1  0  0  0  0
 17 18  1  0  0  0  0
 18 19  1  0  0  0  0
 18 38  1  0  0  0  0
 18 39  1  0  0  0  0
 19 20  1  0  0  0  0
 19 21  1  0  0  0  0
 19 40  1  0  0  0  0
 20 41  1  0  0  0  0
 20 42  1  0  0  0  0
 20 43  1  0  0  0  0
 21 44  1  0  0  0  0
M  END
> <s_m_source_file>
AV-unprocessed.smi

> <i_m_source_file_index>
1856

> <i_lp_mmshare_version>
43012

> <i_f3d_flags>
0

> <s_epik_input>
W0NIM11bQ0gyXVtDSDJdQyg9TylbTkhdW0NASF0oW0NIM10pYyhuMSluKFtDSDJdW0NASF0oW0NIM10pW09IXSljKGMxMilbY0hdW2NIXVtjSF1bY0hdMg==

> <s_epik_cmdline>
J2VwaWtfcHl0aG9uJywgJy1waCcsICc3LjAnLCAnLXRuJywgJzgnLCAnLW1hJywgJzIwMCcsICctbWV0YWxfYmluZGluZycsICctaW1hZScsICc8aW5maWxlLm1hZT4nLCAnLW9tYWUnLCAnPG91dGZpbGUubWFlPic=

> <r_epik_Ionization_Penalty>
0.134222

> <r_epik_Ionization_Penalty_Charging>
0

> <r_epik_Ionization_Penalty_Neutral>
0.134222

> <r_epik_State_Penalty>
0.123585

> <r_epik_Charging_Adjusted_Penalty>
0.123585

> <i_epik_Tot_Q>
0

> <i_epik_Tot_abs_Q>
0

> <r_epik_Metal_State_Penalty>
0.100548

> <b_epik_Metal_Only>
0

> <s_lp_Force_Field>
OPLS_2005

> <r_lp_Energy>
0.748352

> <b_lp_Chiralities_Consistent>
1

> <s_lp_Variant>
AV-unprocessed.smi:1856-1

> <Gold.Version>
5.8.1

> <Gold.Id.Protein>
6NUR|6NUR_protein|mol2

> <Gold.PLP.Fitness>
50.4904

> <Gold.PLP.PLP>
-42.4619

> <Gold.PLP.part.hbond>
-3.0000

> <Gold.PLP.part.metal>
0.0000

> <Gold.PLP.part.buried>
-5.4599

> <Gold.PLP.part.nonpolar>
-34.9604

> <Gold.PLP.part.repulsive>
0.6494

> <Gold.PLP.ligand.clash>
0.0000

> <Gold.PLP.ligand.torsion>
0.5269

> <Gold.PLP.Chemscore.Hbond>
3.0000

> <Gold.PLP.Chemscore.CHOScore>
0.0000

> <Gold.PLP.Chemscore.Metal>
0.0000

> <Gold.Chemscore.Hbonds>
donor molecule, donor type, donor heavy atom, donor atom, acceptor molecule, acceptor atom, score
      L1  H    21    44       P1  8028  1.00
      P1  H  7997  8010       L1    10  1.00
      P1  H 10752 10764       L1     5  1.00

> <Gold.PLP.Chemscore.Internal.Correction>
0.0823

> <Gold.Rescore>
     Score         DG    S(hbond)    S(metal)    S(lipo)     H(rot)  DE(clash)    DE(int)     intcor
     17.42     -19.24       2.20        0.00     108.35       2.45       0.01       1.80       ----

> <Gold.Chemscore.Fitness>
17.4235

> <Gold.Chemscore.DG>
-19.2362

> <Gold.Chemscore.ZeroCoef>
-5.4800

> <Gold.Chemscore.Hbond>
2.1979

> <Gold.Chemscore.Metal>
0.0000

> <Gold.Chemscore.Lipo>
108.3487

> <Gold.Chemscore.Internal_Hbond>
0.0000

> <Gold.Chemscore.DEClash>
0.0115

> <Gold.Chemscore.DEInternal>
1.8011

> <Gold.Chemscore.Rot>
2.4459

> <Gold.Chemscore.Internal.Correction>
   9.000000E+99

> <Gold.Chemscore.Hbonds>
donor molecule, donor type, donor heavy atom, donor atom, acceptor molecule, acceptor atom, score
      L1  H    21    44       P1  8028  0.61
      P1  H  7997  8010       L1    10  0.15
      P1  H 10752 10764       L1     5  0.55

> <Gold.Chemscore.Hbond.Weighted>
-7.3408

> <Gold.Chemscore.Metal.Weighted>
-0.0000

> <Gold.Chemscore.Lipo.Weighted>
-12.6768

> <Gold.Chemscore.Internal_Hbond.Weighted>
0.0000

> <Gold.Chemscore.DEClash.Weighted>
0.0115

> <Gold.Chemscore.DEInternal.Weighted>
1.8011

> <Gold.Chemscore.Rot.Weighted>
6.2614

> <Gold.Chemscore.Internal.Correction.Weighted>
   9.000000E+99

> <Gold.Protein.RotatedTorsions>
[ 6907 6896 6895 6894 ] final  111.62 input  -60.11 | X-H torsion
[ 7974 7965 7964 7962 ] final  110.60 input  175.53 | X-H torsion
[ 8008 7997 7996 7995 ] final   51.39 input   59.86 | X-H torsion
[ 10167 10162 10161 10158 ] final -170.82 input  -65.29 | X-H torsion
[ 10718 10713 10712 10709 ] final -156.96 input   66.30 | X-H torsion
[ 10763 10752 10751 10750 ] final  -56.48 input  -60.55 | X-H torsion
[ 11005 11000 10999 10996 ] final -146.63 input  -57.11 | X-H torsion

> <Gold.Protein.ActiveResidues>
 VAL166  LYS551  ARG553  GLY616  TRP617  ASP618  TYR619  PRO620  LYS621  CYS622 
 ASP623  PHE694  ASN695  SER759  ASP760  ASP761  ALA762  ILE779  LEU786  VAL792 
 PHE793  MET794  SER795  GLU796  ALA797  LYS798  CYS799  TRP800  GLU811  SER814 

> <Gold.Protein.RotatedAtoms>
  152.4960  133.8631  159.7260 H   0  0  0  0  0  0  0  0  0  0  0  0  # atno 6907 bound_to 6896
  150.9138  133.6956  159.2855 H   0  0  0  0  0  0  0  0  0  0  0  0  # atno 6908 bound_to 6896
  151.4356  135.1019  159.9707 H   0  0  0  0  0  0  0  0  0  0  0  0  # atno 6909 bound_to 6896
  145.2529  139.2732  143.4058 H   0  0  0  0  0  0  0  0  0  0  0  0  # atno 7974 bound_to 7965
  155.4345  140.3452  155.4283 H   0  0  0  0  0  0  0  0  0  0  0  0  # atno 8008 bound_to 7997
  156.1316  140.1516  156.9087 H   0  0  0  0  0  0  0  0  0  0  0  0  # atno 8009 bound_to 7997
  154.4899  140.0844  156.7551 H   0  0  0  0  0  0  0  0  0  0  0  0  # atno 8010 bound_to 7997
  139.5839  144.1362  152.1550 H   0  0  0  0  0  0  0  0  0  0  0  0  # atno 10167 bound_to 10162
  156.5338  130.8532  151.2725 H   0  0  0  0  0  0  0  0  0  0  0  0  # atno 10718 bound_to 10713
  154.2074  135.6400  153.5105 H   0  0  0  0  0  0  0  0  0  0  0  0  # atno 10763 bound_to 10752
  152.9998  135.5466  154.6251 H   0  0  0  0  0  0  0  0  0  0  0  0  # atno 10764 bound_to 10752
  154.5679  135.2914  155.0829 H   0  0  0  0  0  0  0  0  0  0  0  0  # atno 10765 bound_to 10752
  140.7800  134.3091  157.5048 H   0  0  0  0  0  0  0  0  0  0  0  0  # atno 11005 bound_to 11000
  146.3297  140.2925  142.8616 LP  0  0  0  0  0  0  0  0  0  0  0  0  # atno 17320 bound_to 7965
  144.9487  140.8155  143.5585 LP  0  0  0  0  0  0  0  0  0  0  0  0  # atno 17321 bound_to 7965
  140.0921  144.5611  150.7047 LP  0  0  0  0  0  0  0  0  0  0  0  0  # atno 17342 bound_to 10162
  140.7113  143.2508  151.4571 LP  0  0  0  0  0  0  0  0  0  0  0  0  # atno 17343 bound_to 10162
  157.7417  130.9876  150.2465 LP  0  0  0  0  0  0  0  0  0  0  0  0  # atno 17370 bound_to 10713
  156.3035  130.3762  149.7728 LP  0  0  0  0  0  0  0  0  0  0  0  0  # atno 17371 bound_to 10713
  139.8744  134.9312  156.3522 LP  0  0  0  0  0  0  0  0  0  0  0  0  # atno 17394 bound_to 11000
  140.9492  133.7462  156.0249 LP  0  0  0  0  0  0  0  0  0  0  0  0  # atno 17395 bound_to 11000

$$$$
