AV-unprocessed.smi:2928|AV-procd|sdf|11233|dock4
  -GOLD-   2272016123D 1   1.00000     0.00000
 Structure written by MMmdl.
 55 58  0  0  0  0  0  0  0  0  2 V2000
  150.8662  141.6114  155.3783 C   0  0  0  0  0  0  0  0  0  0  0  0
  150.6134  140.1652  155.1730 N   0  3  2  0  0  0  0  0  0  0  0  0
  149.8315  139.5099  156.2498 C   0  0  2  0  0  0  0  0  0  0  0  0
  150.6590  139.3910  157.5549 C   0  0  0  0  0  0  0  0  0  0  0  0
  152.0438  138.7436  157.3627 C   0  0  0  0  0  0  0  0  0  0  0  0
  152.7517  139.2344  156.0855 C   0  0  0  0  0  0  0  0  0  0  0  0
  151.8177  139.3598  154.8550 C   0  0  1  0  0  0  0  0  0  0  0  0
  151.3706  138.0128  154.2411 C   0  0  0  0  0  0  0  0  0  0  0  0
  150.3283  137.2358  155.0863 C   0  0  2  0  0  0  0  0  0  0  0  0
  149.6506  136.2357  154.2642 N   0  0  0  0  0  0  0  0  0  0  0  0
  149.5502  134.9310  154.5574 C   0  0  0  0  0  0  0  0  0  0  0  0
  150.0582  134.4180  155.5542 O   0  0  0  0  0  0  0  0  0  0  0  0
  148.8469  134.2765  153.6185 N   0  0  0  0  0  0  0  0  0  0  0  0
  148.5296  132.8895  153.5540 C   0  0  0  0  0  0  0  0  0  0  0  0
  149.1910  131.9326  154.3630 C   0  0  0  0  0  0  0  0  0  0  0  0
  148.7895  130.5868  154.3081 C   0  0  0  0  0  0  0  0  0  0  0  0
  147.7265  130.2445  153.4563 C   0  0  0  0  0  0  0  0  0  0  0  0
  147.0773  131.1441  152.6909 N   0  0  0  0  0  0  0  0  0  0  0  0
  147.4625  132.4437  152.7224 C   0  0  0  0  0  0  0  0  0  0  0  0
  146.7575  133.3408  151.8882 N   0  0  0  0  0  0  0  0  0  0  0  0
  145.9231  132.7718  150.8336 C   0  0  0  0  0  0  0  0  0  0  0  0
  144.6977  133.6846  150.7080 C   0  0  0  0  0  0  0  0  0  0  0  0
  145.1483  134.9910  151.3548 C   0  0  0  0  0  0  0  0  0  0  0  0
  146.0813  134.5011  152.4578 C   0  0  0  0  0  0  0  0  0  0  0  0
  149.2686  138.1727  155.7147 C   0  0  0  0  0  0  0  0  0  0  0  0
  151.4896  141.8040  156.2507 H   0  0  0  0  0  0  0  0  0  0  0  0
  149.9250  142.1455  155.5121 H   0  0  0  0  0  0  0  0  0  0  0  0
  151.3649  142.0371  154.5071 H   0  0  0  0  0  0  0  0  0  0  0  0
  148.9702  140.1428  156.4686 H   0  0  0  0  0  0  0  0  0  0  0  0
  150.8008  140.3879  157.9729 H   0  0  0  0  0  0  0  0  0  0  0  0
  150.0952  138.8400  158.3085 H   0  0  0  0  0  0  0  0  0  0  0  0
  152.6688  138.9592  158.2299 H   0  0  0  0  0  0  0  0  0  0  0  0
  151.9581  137.6603  157.3553 H   0  0  0  0  0  0  0  0  0  0  0  0
  153.1947  140.2092  156.2907 H   0  0  0  0  0  0  0  0  0  0  0  0
  153.5921  138.5788  155.8546 H   0  0  0  0  0  0  0  0  0  0  0  0
  152.3745  139.8846  154.0772 H   0  0  0  0  0  0  0  0  0  0  0  0
  150.9345  138.2267  153.2636 H   0  0  0  0  0  0  0  0  0  0  0  0
  152.2401  137.3844  154.0438 H   0  0  0  0  0  0  0  0  0  0  0  0
  150.8350  136.6994  155.8850 H   0  0  0  0  0  0  0  0  0  0  0  0
  149.2056  136.5653  153.4200 H   0  0  0  0  0  0  0  0  0  0  0  0
  148.5731  134.8157  152.8101 H   0  0  0  0  0  0  0  0  0  0  0  0
  149.9824  132.2090  155.0425 H   0  0  0  0  0  0  0  0  0  0  0  0
  149.2761  129.8376  154.9149 H   0  0  0  0  0  0  0  0  0  0  0  0
  147.3834  129.2225  153.3918 H   0  0  0  0  0  0  0  0  0  0  0  0
  146.4841  132.7730  149.8990 H   0  0  0  0  0  0  0  0  0  0  0  0
  145.6317  131.7431  151.0518 H   0  0  0  0  0  0  0  0  0  0  0  0
  144.3679  133.8121  149.6768 H   0  0  0  0  0  0  0  0  0  0  0  0
  143.8675  133.2637  151.2768 H   0  0  0  0  0  0  0  0  0  0  0  0
  145.7040  135.5923  150.6340 H   0  0  0  0  0  0  0  0  0  0  0  0
  144.3200  135.5909  151.7327 H   0  0  0  0  0  0  0  0  0  0  0  0
  145.4915  134.2167  153.3301 H   0  0  0  0  0  0  0  0  0  0  0  0
  146.7933  135.2696  152.7597 H   0  0  0  0  0  0  0  0  0  0  0  0
  148.7262  137.6485  156.5024 H   0  0  0  0  0  0  0  0  0  0  0  0
  148.5238  138.4146  154.9544 H   0  0  0  0  0  0  0  0  0  0  0  0
  150.0315  140.1232  154.3483 H   0  0  0  0  0  0  0  0  0  0  0  0
  1  2  1  0  0  0  0
  1 26  1  0  0  0  0
  1 27  1  0  0  0  0
  1 28  1  0  0  0  0
  2  7  1  0  0  0  0
  2  3  1  0  0  0  0
  2 55  1  0  0  0  0
  3 25  1  0  0  0  0
  3  4  1  0  0  0  0
  3 29  1  0  0  0  0
  4  5  1  0  0  0  0
  4 30  1  0  0  0  0
  4 31  1  0  0  0  0
  5  6  1  0  0  0  0
  5 32  1  0  0  0  0
  5 33  1  0  0  0  0
  6  7  1  0  0  0  0
  6 34  1  0  0  0  0
  6 35  1  0  0  0  0
  7  8  1  0  0  0  0
  7 36  1  0  0  0  0
  8  9  1  0  0  0  0
  8 37  1  0  0  0  0
  8 38  1  0  0  0  0
  9 10  1  0  0  0  0
  9 25  1  0  0  0  0
  9 39  1  0  0  0  0
 10 11  1  0  0  0  0
 10 40  1  0  0  0  0
 11 12  2  0  0  0  0
 11 13  1  0  0  0  0
 13 14  1  0  0  0  0
 13 41  1  0  0  0  0
 14 19  1  0  0  0  0
 14 15  2  0  0  0  0
 15 16  1  0  0  0  0
 15 42  1  0  0  0  0
 16 17  2  0  0  0  0
 16 43  1  0  0  0  0
 17 18  1  0  0  0  0
 17 44  1  0  0  0  0
 18 19  2  0  0  0  0
 19 20  1  0  0  0  0
 20 24  1  0  0  0  0
 20 21  1  0  0  0  0
 21 22  1  0  0  0  0
 21 45  1  0  0  0  0
 21 46  1  0  0  0  0
 22 23  1  0  0  0  0
 22 47  1  0  0  0  0
 22 48  1  0  0  0  0
 23 24  1  0  0  0  0
 23 49  1  0  0  0  0
 23 50  1  0  0  0  0
 24 51  1  0  0  0  0
 24 52  1  0  0  0  0
 25 53  1  0  0  0  0
 25 54  1  0  0  0  0
M  CHG  1   2   1
M  END
> <s_m_source_file>
AV-unprocessed.smi

> <i_m_source_file_index>
2928

> <i_lp_mmshare_version>
43012

> <i_f3d_flags>
0

> <s_epik_input>
W0NIMl0xW0NIMl1bQ0gyXVtDQEhdKE4oW0NIM10pW0NIXTEyKVtDSDJdW0NASF0oW0NIMl0yKVtOSF1DKD1PKVtOSF1jM1tjSF1bY0hdW2NIXW5jM040W0NIMl1bQ0gyXVtDSDJdW0NIMl00

> <s_epik_cmdline>
J2VwaWtfcHl0aG9uJywgJy1waCcsICc3LjAnLCAnLXRuJywgJzgnLCAnLW1hJywgJzIwMCcsICctbWV0YWxfYmluZGluZycsICctaW1hZScsICc8aW5maWxlLm1hZT4nLCAnLW9tYWUnLCAnPG91dGZpbGUubWFlPic=

> <r_lp_tautomer_probability>
1

> <r_epik_Ionization_Penalty>
0.07954

> <r_epik_Ionization_Penalty_Charging>
0.00089841

> <r_epik_Ionization_Penalty_Neutral>
0.0786416

> <r_epik_State_Penalty>
0.0689917

> <r_epik_Charging_Adjusted_Penalty>
0.0698901

> <i_epik_Tot_Q>
1

> <i_epik_Tot_abs_Q>
1

> <r_epik_Metal_State_Penalty>
0.0608947

> <b_epik_Metal_Only>
0

> <s_lp_Force_Field>
OPLS_2005

> <r_lp_Energy>
63.7088

> <b_lp_Chiralities_Consistent>
1

> <s_lp_Variant>
AV-unprocessed.smi:2928-3

> <Gold.Version>
5.8.1

> <Gold.Id.Protein>
6NUR|6NUR_protein|mol2

> <Gold.PLP.Fitness>
43.3026

> <Gold.PLP.PLP>
-37.8256

> <Gold.PLP.part.hbond>
-2.0000

> <Gold.PLP.part.metal>
0.0000

> <Gold.PLP.part.buried>
-4.5854

> <Gold.PLP.part.nonpolar>
-31.3817

> <Gold.PLP.part.repulsive>
1.2800

> <Gold.PLP.ligand.clash>
0.0000

> <Gold.PLP.ligand.torsion>
0.3275

> <Gold.PLP.Chemscore.Hbond>
1.9440

> <Gold.PLP.Chemscore.CHOScore>
0.0000

> <Gold.PLP.Chemscore.Metal>
0.0000

> <Gold.Chemscore.Hbonds>
donor molecule, donor type, donor heavy atom, donor atom, acceptor molecule, acceptor atom, score
      L1  H    10    40       P1  7948  0.86
      L1  H    13    41       P1  7948  0.88

> <Gold.PLP.Chemscore.Internal.Correction>
0.3000

> <Gold.Rescore>
     Score         DG    S(hbond)    S(metal)    S(lipo)     H(rot)  DE(clash)    DE(int)     intcor
     13.99     -16.66       1.26        0.00      85.38       1.18       0.03       2.64       ----

> <Gold.Chemscore.Fitness>
13.9882

> <Gold.Chemscore.DG>
-16.6606

> <Gold.Chemscore.ZeroCoef>
-5.4800

> <Gold.Chemscore.Hbond>
1.2594

> <Gold.Chemscore.Metal>
0.0000

> <Gold.Chemscore.Lipo>
85.3770

> <Gold.Chemscore.Internal_Hbond>
0.0000

> <Gold.Chemscore.DEClash>
0.0290

> <Gold.Chemscore.DEInternal>
2.6435

> <Gold.Chemscore.Rot>
1.1776

> <Gold.Chemscore.Internal.Correction>
   9.000000E+99

> <Gold.Chemscore.Hbonds>
donor molecule, donor type, donor heavy atom, donor atom, acceptor molecule, acceptor atom, score
      L1  H    10    40       P1  7948  0.81
      L1  H    13    41       P1  7948  0.26

> <Gold.Chemscore.Hbond.Weighted>
-4.2063

> <Gold.Chemscore.Metal.Weighted>
-0.0000

> <Gold.Chemscore.Lipo.Weighted>
-9.9891

> <Gold.Chemscore.Internal_Hbond.Weighted>
0.0000

> <Gold.Chemscore.DEClash.Weighted>
0.0290

> <Gold.Chemscore.DEInternal.Weighted>
2.6435

> <Gold.Chemscore.Rot.Weighted>
3.0147

> <Gold.Chemscore.Internal.Correction.Weighted>
   9.000000E+99

> <Gold.Protein.RotatedTorsions>
[ 6907 6896 6895 6894 ] final   69.55 input  -60.11 | X-H torsion
[ 7974 7965 7964 7962 ] final   10.60 input  175.53 | X-H torsion
[ 8008 7997 7996 7995 ] final   19.47 input   59.86 | X-H torsion
[ 10167 10162 10161 10158 ] final  156.71 input  -65.29 | X-H torsion
[ 10718 10713 10712 10709 ] final   90.74 input   66.30 | X-H torsion
[ 10763 10752 10751 10750 ] final -165.98 input  -60.55 | X-H torsion
[ 11005 11000 10999 10996 ] final   35.79 input  -57.11 | X-H torsion

> <Gold.Protein.ActiveResidues>
 VAL166  LYS551  ARG553  GLY616  TRP617  ASP618  TYR619  PRO620  LYS621  CYS622 
 ASP623  PHE694  ASN695  SER759  ASP760  ASP761  ALA762  ILE779  LEU786  VAL792 
 PHE793  MET794  SER795  GLU796  ALA797  LYS798  CYS799  TRP800  GLU811  SER814 

> <Gold.Protein.RotatedAtoms>
  152.4693  134.4999  159.9721 H   0  0  0  0  0  0  0  0  0  0  0  0  # atno 6907 bound_to 6896
  151.5029  133.3495  159.2880 H   0  0  0  0  0  0  0  0  0  0  0  0  # atno 6908 bound_to 6896
  150.8695  134.8093  159.7205 H   0  0  0  0  0  0  0  0  0  0  0  0  # atno 6909 bound_to 6896
  146.2386  139.9610  142.8458 H   0  0  0  0  0  0  0  0  0  0  0  0  # atno 7974 bound_to 7965
  154.9212  140.3027  155.5215 H   0  0  0  0  0  0  0  0  0  0  0  0  # atno 8008 bound_to 7997
  156.3009  140.2371  156.4199 H   0  0  0  0  0  0  0  0  0  0  0  0  # atno 8009 bound_to 7997
  154.8329  140.0417  157.1478 H   0  0  0  0  0  0  0  0  0  0  0  0  # atno 8010 bound_to 7997
  139.4821  144.4983  151.8206 H   0  0  0  0  0  0  0  0  0  0  0  0  # atno 10167 bound_to 10162
  157.6959  131.0382  150.3623 H   0  0  0  0  0  0  0  0  0  0  0  0  # atno 10718 bound_to 10713
  154.6879  135.2965  154.9522 H   0  0  0  0  0  0  0  0  0  0  0  0  # atno 10763 bound_to 10752
  154.0495  135.6646  153.4803 H   0  0  0  0  0  0  0  0  0  0  0  0  # atno 10764 bound_to 10752
  153.0591  135.5126  154.7955 H   0  0  0  0  0  0  0  0  0  0  0  0  # atno 10765 bound_to 10752
  140.2391  134.3436  155.7933 H   0  0  0  0  0  0  0  0  0  0  0  0  # atno 11005 bound_to 11000
  145.1770  140.9749  143.4288 LP  0  0  0  0  0  0  0  0  0  0  0  0  # atno 17320 bound_to 7965
  144.9976  139.3629  143.6183 LP  0  0  0  0  0  0  0  0  0  0  0  0  # atno 17321 bound_to 7965
  140.4474  144.1902  150.5895 LP  0  0  0  0  0  0  0  0  0  0  0  0  # atno 17342 bound_to 10162
  140.4620  143.2445  151.9206 LP  0  0  0  0  0  0  0  0  0  0  0  0  # atno 17343 bound_to 10162
  156.4058  130.3924  149.6927 LP  0  0  0  0  0  0  0  0  0  0  0  0  # atno 17370 bound_to 10713
  156.4228  130.7777  151.2795 LP  0  0  0  0  0  0  0  0  0  0  0  0  # atno 17371 bound_to 10713
  141.2212  133.7289  156.8856 LP  0  0  0  0  0  0  0  0  0  0  0  0  # atno 17394 bound_to 11000
  140.1671  134.9125  157.2788 LP  0  0  0  0  0  0  0  0  0  0  0  0  # atno 17395 bound_to 11000

$$$$
