#       Name:                AV-unprocessed.smi:723
#       Creating user name   scv26
#       Creation time:       Fri Mar 27 00:50:11 2020


#       File generated by GOLD software.
#

@<TRIPOS>MOLECULE
AV-unprocessed.smi:723
    47    49     1
SMALL
NO_CHARGES


@<TRIPOS>ATOM
      1 ****        -4.7140  -1.7433   5.2350 C.3            1 S1                 0.0000
      2 ****        -3.4194  -1.1689   5.2151 O.3            1 S1                 0.0000
      3 ****        -2.3949  -2.1286   5.4191 C.3            1 S1                 0.0000
      4 ****        -1.0216  -1.4428   5.3931 C.3            1 S1                 0.0000
      5 ****        -0.7594  -0.7877   4.1248 N.pl3          1 S1                 0.0000
      6 ****        -0.2831  -1.3517   2.9580 C.2            1 S1                 0.0000
      7 ****        -0.2007  -0.3321   2.0581 C.2            1 S1                 0.0000
      8 ****         0.2540  -0.4660   0.7223 N.am           1 S1                 0.0000
      9 ****         0.4039   0.5113  -0.1865 C.2            1 S1                 0.0000
     10 ****         0.1254   1.6964  -0.0026 O.2            1 S1                 0.0000
     11 ****         0.9047   0.0341  -1.3339 N.am           1 S1                 0.0000
     12 ****         1.2057   0.8126  -2.4914 C.3            1 S1                 0.0000
     13 ****         1.0151   0.1490  -3.8477 C.3            1 S1                 0.0000
     14 ****         0.4757   0.9751  -5.0068 C.3            1 S1                 0.0000
     15 ****         1.5727   1.7141  -5.7903 C.3            1 S1                 0.0000
     16 ****         2.5584   2.4252  -4.8543 C.3            1 S1                 0.0000
     17 ****         3.3176   1.4081  -3.9876 C.3            1 S1                 0.0000
     18 ****         2.4069   0.4001  -3.3038 C.3            1 S1                 0.0000
     19 ****        -0.6513   0.8301   2.7458 C.2            1 S1                 0.0000
     20 ****        -0.9854   0.5431   3.9950 N.2            1 S1                 0.0000
     21 ****        -5.4620  -0.9667   5.0756 H              1 S1                 0.0000
     22 ****        -4.9206  -2.2172   6.1955 H              1 S1                 0.0000
     23 ****        -4.8275  -2.4871   4.4453 H              1 S1                 0.0000
     24 ****        -2.5374  -2.6254   6.3799 H              1 S1                 0.0000
     25 ****        -2.4427  -2.8965   4.6451 H              1 S1                 0.0000
     26 ****        -0.9518  -0.7076   6.1962 H              1 S1                 0.0000
     27 ****        -0.2336  -2.1757   5.5699 H              1 S1                 0.0000
     28 ****        -0.0473  -2.4025   2.8755 H              1 S1                 0.0000
     29 ****         0.5176  -1.3979   0.4377 H              1 S1                 0.0000
     30 ****         1.0999  -0.9547  -1.3908 H              1 S1                 0.0000
     31 ****         1.0003   1.8808  -2.4386 H              1 S1                 0.0000
     32 ****         0.6667  -0.8824  -3.8354 H              1 S1                 0.0000
     33 ****        -0.0808   0.3226  -5.6802 H              1 S1                 0.0000
     34 ****        -0.2439   1.6932  -4.6118 H              1 S1                 0.0000
     35 ****         2.1164   1.0050  -6.4159 H              1 S1                 0.0000
     36 ****         1.1156   2.4343  -6.4694 H              1 S1                 0.0000
     37 ****         3.2700   3.0103  -5.4375 H              1 S1                 0.0000
     38 ****         2.0229   3.1355  -4.2236 H              1 S1                 0.0000
     39 ****         4.0173   0.8556  -4.6156 H              1 S1                 0.0000
     40 ****         3.9139   1.9207  -3.2326 H              1 S1                 0.0000
     41 ****         2.9430  -0.4713  -2.9313 H              1 S1                 0.0000
     42 ****        -0.7461   1.8489   2.4010 H              1 S1                 0.0000
     43 ****        -3.3628  -0.4810   5.9387 LP             1 S1                 0.0000
     44 ****        -3.2765  -0.7314   4.3273 LP             1 S1                 0.0000
     45 ****        -0.2431   1.9925   0.8786 LP             1 S1                 0.0000
     46 ****         0.2677   2.3629  -0.7344 LP             1 S1                 0.0000
     47 ****        -1.3299   1.1720   4.6919 LP             1 S1                 0.0000
@<TRIPOS>BOND
    1    1    2 1     
    2    1   21 1     
    3    1   22 1     
    4    1   23 1     
    5    2    3 1     
    6    3    4 1     
    7    3   24 1     
    8    3   25 1     
    9    4    5 1     
   10    4   26 1     
   11    4   27 1     
   12    5   20 1     
   13    5    6 1     
   14    6    7 2     
   15    6   28 1     
   16    7    8 1     
   17    7   19 1     
   18    8    9 am    
   19    8   29 1     
   20    9   10 2     
   21    9   11 am    
   22   11   12 1     
   23   11   30 1     
   24   12   18 1     
   25   12   13 1     
   26   12   31 1     
   27   13   18 1     
   28   13   14 1     
   29   13   32 1     
   30   14   15 1     
   31   14   33 1     
   32   14   34 1     
   33   15   16 1     
   34   15   35 1     
   35   15   36 1     
   36   16   17 1     
   37   16   37 1     
   38   16   38 1     
   39   17   18 1     
   40   17   39 1     
   41   17   40 1     
   42   18   41 1     
   43   19   20 2     
   44   19   42 1     
   45    2   43 1     
   46    2   44 1     
   47   10   45 1     
   48   10   46 1     
   49   20   47 1     
@<TRIPOS>SUBSTRUCTURE
      1 S1             1
@<TRIPOS>SET
LONE_PAIRS      STATIC     ATOMS    <user>   **** ""
5 43 44 45 46 47
DONOR_HYDROGENS      STATIC     ATOMS    <user>   **** ""
2 29 30
ATOM$BLUE        STATIC     ATOMS    COLORGROUP SYSTEM
5 43 44 45 46 47
ATOM$RED        STATIC     ATOMS    COLORGROUP SYSTEM
2 29 30
