AV-unprocessed.smi:2104|AV-procd|sdf|8586|dock7
  -GOLD-   2272011313D 1   1.00000     0.00000
 Structure written by MMmdl.
 43 44  0  0  0  0  0  0  0  0  1 V2000
  146.6776  135.1242  162.5037 C   0  0  0  0  0  0  0  0  0  0  0  0
  147.0821  135.6200  161.1580 C   0  0  0  0  0  0  0  0  0  0  0  0
  148.1040  136.4198  160.7295 C   0  0  0  0  0  0  0  0  0  0  0  0
  147.8917  136.4857  159.3265 C   0  0  0  0  0  0  0  0  0  0  0  0
  148.7581  137.2388  158.4939 N   0  0  0  0  0  0  0  0  0  0  0  0
  150.0491  137.5394  158.7148 C   0  0  0  0  0  0  0  0  0  0  0  0
  150.6991  137.1964  159.7031 O   0  0  0  0  0  0  0  0  0  0  0  0
  150.5552  138.2755  157.7155 N   0  0  0  0  0  0  0  0  0  0  0  0
  151.9169  138.7975  157.6645 C   0  0  0  0  0  0  0  0  0  0  0  0
  151.9325  140.3188  157.4567 C   0  0  0  0  0  0  0  0  0  0  0  0
  151.9156  140.9518  158.7279 O   0  0  0  0  0  0  0  0  0  0  0  0
  152.3536  142.3047  158.7218 C   0  0  1  0  0  0  0  0  0  0  0  0
  151.5026  143.1222  157.7275 C   0  0  0  0  0  0  0  0  0  0  0  0
  151.8429  144.6182  157.7906 C   0  0  0  0  0  0  0  0  0  0  0  0
  151.6858  145.1587  159.2184 C   0  0  0  0  0  0  0  0  0  0  0  0
  152.5410  144.3547  160.2091 C   0  0  0  0  0  0  0  0  0  0  0  0
  152.2104  142.8494  160.1609 C   0  0  2  0  0  0  0  0  0  0  0  0
  153.0882  142.0682  161.1533 C   0  0  0  0  0  0  0  0  0  0  0  0
  146.8368  135.7881  158.9342 N   0  0  0  0  0  0  0  0  0  0  0  0
  146.3121  135.2303  160.1061 O   0  0  0  0  0  0  0  0  0  0  0  0
  147.4231  135.3849  163.2551 H   0  0  0  0  0  0  0  0  0  0  0  0
  146.5670  134.0396  162.4999 H   0  0  0  0  0  0  0  0  0  0  0  0
  145.7257  135.5613  162.8058 H   0  0  0  0  0  0  0  0  0  0  0  0
  148.8763  136.8827  161.3261 H   0  0  0  0  0  0  0  0  0  0  0  0
  148.3511  137.5880  157.6392 H   0  0  0  0  0  0  0  0  0  0  0  0
  149.9498  138.5143  156.9437 H   0  0  0  0  0  0  0  0  0  0  0  0
  152.4499  138.5360  158.5800 H   0  0  0  0  0  0  0  0  0  0  0  0
  152.4442  138.3057  156.8467 H   0  0  0  0  0  0  0  0  0  0  0  0
  152.8187  140.6131  156.8925 H   0  0  0  0  0  0  0  0  0  0  0  0
  151.0621  140.6179  156.8729 H   0  0  0  0  0  0  0  0  0  0  0  0
  153.4062  142.3617  158.4368 H   0  0  0  0  0  0  0  0  0  0  0  0
  151.6522  142.7636  156.7093 H   0  0  0  0  0  0  0  0  0  0  0  0
  150.4444  142.9815  157.9514 H   0  0  0  0  0  0  0  0  0  0  0  0
  152.8668  144.7754  157.4490 H   0  0  0  0  0  0  0  0  0  0  0  0
  151.1995  145.1754  157.1089 H   0  0  0  0  0  0  0  0  0  0  0  0
  151.9693  146.2111  159.2509 H   0  0  0  0  0  0  0  0  0  0  0  0
  150.6376  145.1107  159.5161 H   0  0  0  0  0  0  0  0  0  0  0  0
  153.5971  144.5071  159.9815 H   0  0  0  0  0  0  0  0  0  0  0  0
  152.3851  144.7385  161.2180 H   0  0  0  0  0  0  0  0  0  0  0  0
  151.1709  142.7257  160.4688 H   0  0  0  0  0  0  0  0  0  0  0  0
  154.1434  142.1358  160.8870 H   0  0  0  0  0  0  0  0  0  0  0  0
  152.8195  141.0117  161.1770 H   0  0  0  0  0  0  0  0  0  0  0  0
  152.9754  142.4557  162.1662 H   0  0  0  0  0  0  0  0  0  0  0  0
  1  2  1  0  0  0  0
  1 21  1  0  0  0  0
  1 22  1  0  0  0  0
  1 23  1  0  0  0  0
  2 20  1  0  0  0  0
  2  3  2  0  0  0  0
  3  4  1  0  0  0  0
  3 24  1  0  0  0  0
  4  5  1  0  0  0  0
  4 19  2  0  0  0  0
  5  6  1  0  0  0  0
  5 25  1  0  0  0  0
  6  7  2  0  0  0  0
  6  8  1  0  0  0  0
  8  9  1  0  0  0  0
  8 26  1  0  0  0  0
  9 10  1  0  0  0  0
  9 27  1  0  0  0  0
  9 28  1  0  0  0  0
 10 11  1  0  0  0  0
 10 29  1  0  0  0  0
 10 30  1  0  0  0  0
 11 12  1  0  0  0  0
 12 17  1  0  0  0  0
 12 13  1  0  0  0  0
 12 31  1  0  0  0  0
 13 14  1  0  0  0  0
 13 32  1  0  0  0  0
 13 33  1  0  0  0  0
 14 15  1  0  0  0  0
 14 34  1  0  0  0  0
 14 35  1  0  0  0  0
 15 16  1  0  0  0  0
 15 36  1  0  0  0  0
 15 37  1  0  0  0  0
 16 17  1  0  0  0  0
 16 38  1  0  0  0  0
 16 39  1  0  0  0  0
 17 18  1  0  0  0  0
 17 40  1  0  0  0  0
 18 41  1  0  0  0  0
 18 42  1  0  0  0  0
 18 43  1  0  0  0  0
 19 20  1  0  0  0  0
M  END
> <s_m_source_file>
AV-unprocessed.smi

> <i_m_source_file_index>
2104

> <i_lp_mmshare_version>
43012

> <i_f3d_flags>
0

> <s_epik_input>
W0NIM11jMVtjSF1jKG5vMSlbTkhdQyg9TylbTkhdW0NIMl1bQ0gyXU9bQ0BASF0yW0NIMl1bQ0gyXVtDSDJdW0NIMl1bQ0BIXTJbQ0gzXQ==

> <s_epik_cmdline>
J2VwaWtfcHl0aG9uJywgJy1waCcsICc3LjAnLCAnLXRuJywgJzgnLCAnLW1hJywgJzIwMCcsICctbWV0YWxfYmluZGluZycsICctaW1hZScsICc8aW5maWxlLm1hZT4nLCAnLW9tYWUnLCAnPG91dGZpbGUubWFlPic=

> <r_lp_tautomer_probability>
1

> <r_epik_Ionization_Penalty>
2.94418e-05

> <r_epik_Ionization_Penalty_Charging>
0

> <r_epik_Ionization_Penalty_Neutral>
2.94418e-05

> <r_epik_State_Penalty>
-0

> <r_epik_Charging_Adjusted_Penalty>
0

> <i_epik_Tot_Q>
0

> <i_epik_Tot_abs_Q>
0

> <r_epik_Metal_State_Penalty>
0.0104148

> <b_epik_Metal_Only>
0

> <s_lp_Force_Field>
OPLS_2005

> <r_lp_Energy>
8.17473

> <b_lp_Chiralities_Consistent>
1

> <s_lp_Variant>
AV-unprocessed.smi:2104-4

> <Gold.Version>
5.8.1

> <Gold.Id.Protein>
6NUR|6NUR_protein|mol2

> <Gold.PLP.Fitness>
43.6084

> <Gold.PLP.PLP>
-41.5410

> <Gold.PLP.part.hbond>
-1.0430

> <Gold.PLP.part.metal>
0.0000

> <Gold.PLP.part.buried>
-5.8744

> <Gold.PLP.part.nonpolar>
-34.5531

> <Gold.PLP.part.repulsive>
0.2009

> <Gold.PLP.ligand.clash>
0.0000

> <Gold.PLP.ligand.torsion>
0.4444

> <Gold.PLP.Chemscore.Hbond>
0.9750

> <Gold.PLP.Chemscore.CHOScore>
0.0000

> <Gold.PLP.Chemscore.Metal>
0.0000

> <Gold.Chemscore.Hbonds>
donor molecule, donor type, donor heavy atom, donor atom, acceptor molecule, acceptor atom, score
      P1  H  6896  6907       L1     7  0.71

> <Gold.PLP.Chemscore.Internal.Correction>
0.0311

> <Gold.Rescore>
     Score         DG    S(hbond)    S(metal)    S(lipo)     H(rot)  DE(clash)    DE(int)     intcor
     15.91     -17.64       0.99        0.00     113.99       1.75       0.01       1.72       ----

> <Gold.Chemscore.Fitness>
15.9109

> <Gold.Chemscore.DG>
-17.6383

> <Gold.Chemscore.ZeroCoef>
-5.4800

> <Gold.Chemscore.Hbond>
0.9903

> <Gold.Chemscore.Metal>
0.0000

> <Gold.Chemscore.Lipo>
113.9882

> <Gold.Chemscore.Internal_Hbond>
0.0000

> <Gold.Chemscore.DEClash>
0.0060

> <Gold.Chemscore.DEInternal>
1.7213

> <Gold.Chemscore.Rot>
1.7524

> <Gold.Chemscore.Internal.Correction>
   9.000000E+99

> <Gold.Chemscore.Hbonds>
donor molecule, donor type, donor heavy atom, donor atom, acceptor molecule, acceptor atom, score
      P1  H  6896  6907       L1     7  0.69

> <Gold.Chemscore.Hbond.Weighted>
-3.3078

> <Gold.Chemscore.Metal.Weighted>
-0.0000

> <Gold.Chemscore.Lipo.Weighted>
-13.3366

> <Gold.Chemscore.Internal_Hbond.Weighted>
0.0000

> <Gold.Chemscore.DEClash.Weighted>
0.0060

> <Gold.Chemscore.DEInternal.Weighted>
1.7213

> <Gold.Chemscore.Rot.Weighted>
4.4861

> <Gold.Chemscore.Internal.Correction.Weighted>
   9.000000E+99

> <Gold.Protein.RotatedTorsions>
[ 6907 6896 6895 6894 ] final  -17.74 input  -60.11 | X-H torsion
[ 7974 7965 7964 7962 ] final  -51.55 input  175.53 | X-H torsion
[ 8008 7997 7996 7995 ] final   16.60 input   59.86 | X-H torsion
[ 10167 10162 10161 10158 ] final  173.34 input  -65.29 | X-H torsion
[ 10718 10713 10712 10709 ] final -173.63 input   66.30 | X-H torsion
[ 10763 10752 10751 10750 ] final   15.47 input  -60.55 | X-H torsion
[ 11005 11000 10999 10996 ] final   90.12 input  -57.11 | X-H torsion

> <Gold.Protein.ActiveResidues>
 VAL166  LYS551  ARG553  GLY616  TRP617  ASP618  TYR619  PRO620  LYS621  CYS622 
 ASP623  PHE694  ASN695  SER759  ASP760  ASP761  ALA762  ILE779  LEU786  VAL792 
 PHE793  MET794  SER795  GLU796  ALA797  LYS798  CYS799  TRP800  GLU811  SER814 

> <Gold.Protein.RotatedAtoms>
  151.2887  135.0735  159.9196 H   0  0  0  0  0  0  0  0  0  0  0  0  # atno 6907 bound_to 6896
  152.5320  133.9954  159.7880 H   0  0  0  0  0  0  0  0  0  0  0  0  # atno 6908 bound_to 6896
  151.0220  133.5817  159.2701 H   0  0  0  0  0  0  0  0  0  0  0  0  # atno 6909 bound_to 6896
  145.9178  140.7860  142.9663 H   0  0  0  0  0  0  0  0  0  0  0  0  # atno 7974 bound_to 7965
  154.8793  140.2970  155.5435 H   0  0  0  0  0  0  0  0  0  0  0  0  # atno 8008 bound_to 7997
  156.3022  140.2445  156.3727 H   0  0  0  0  0  0  0  0  0  0  0  0  # atno 8009 bound_to 7997
  154.8734  140.0400  157.1727 H   0  0  0  0  0  0  0  0  0  0  0  0  # atno 8010 bound_to 7997
  139.5105  144.3271  152.0147 H   0  0  0  0  0  0  0  0  0  0  0  0  # atno 10167 bound_to 10162
  156.7732  130.9456  151.3120 H   0  0  0  0  0  0  0  0  0  0  0  0  # atno 10718 bound_to 10713
  153.1522  135.6780  153.8865 H   0  0  0  0  0  0  0  0  0  0  0  0  # atno 10763 bound_to 10752
  153.8288  135.3120  155.3418 H   0  0  0  0  0  0  0  0  0  0  0  0  # atno 10764 bound_to 10752
  154.7871  135.4856  154.0056 H   0  0  0  0  0  0  0  0  0  0  0  0  # atno 10765 bound_to 10752
  139.8862  134.8594  156.3239 H   0  0  0  0  0  0  0  0  0  0  0  0  # atno 11005 bound_to 11000
  144.6749  140.1927  143.7395 LP  0  0  0  0  0  0  0  0  0  0  0  0  # atno 17320 bound_to 7965
  145.8589  139.2213  143.1728 LP  0  0  0  0  0  0  0  0  0  0  0  0  # atno 17321 bound_to 7965
  140.2712  144.3962  150.6151 LP  0  0  0  0  0  0  0  0  0  0  0  0  # atno 17342 bound_to 10162
  140.6087  143.2168  151.6929 LP  0  0  0  0  0  0  0  0  0  0  0  0  # atno 17343 bound_to 10162
  157.6681  130.9026  149.9978 LP  0  0  0  0  0  0  0  0  0  0  0  0  # atno 17370 bound_to 10713
  156.1265  130.3644  149.9801 LP  0  0  0  0  0  0  0  0  0  0  0  0  # atno 17371 bound_to 10713
  140.9768  133.7292  156.0614 LP  0  0  0  0  0  0  0  0  0  0  0  0  # atno 17394 bound_to 11000
  140.7800  134.3736  157.5489 LP  0  0  0  0  0  0  0  0  0  0  0  0  # atno 17395 bound_to 11000

$$$$
