AV-unprocessed.smi:1165|AV-procd|sdf|4933|dock1
  -GOLD-   22720 3513D 1   1.00000     0.00000
 Structure written by MMmdl.
 40 41  0  0  0  0  0  0  0  0  2 V2000
  148.6860  132.9963  152.7040 C   0  0  0  0  0  0  0  0  0  0  0  0
  148.4271  132.2602  154.0314 C   0  0  1  0  0  0  0  0  0  0  0  0
  149.5447  132.4755  155.0695 C   0  0  0  0  0  0  0  0  0  0  0  0
  149.4628  133.8158  155.6689 N   0  0  0  0  0  0  0  0  0  0  0  0
  150.8459  134.3937  156.5567 S   0  0  0  0  0  0  0  0  0  0  0  0
  150.2966  134.9740  157.7916 O   0  0  0  0  0  0  0  0  0  0  0  0
  151.7685  133.2537  156.6963 O   0  0  0  0  0  0  0  0  0  0  0  0
  151.3591  135.5302  155.5088 N   0  5  0  0  0  0  0  0  0  0  0  0
  150.4841  136.6148  155.0741 C   0  0  0  0  0  0  0  0  0  0  0  0
  151.3134  137.8732  154.7398 C   0  0  0  0  0  0  0  0  0  0  0  0
  150.5328  139.1823  154.7991 C   0  0  0  0  0  0  0  0  0  0  0  0
  150.9184  140.2194  155.6763 C   0  0  0  0  0  0  0  0  0  0  0  0
  150.1631  141.4074  155.7001 C   0  0  0  0  0  0  0  0  0  0  0  0
  149.0470  141.5087  154.8466 C   0  0  0  0  0  0  0  0  0  0  0  0
  148.6606  140.5227  154.0089 N   0  0  0  0  0  0  0  0  0  0  0  0
  149.3925  139.3877  153.9905 C   0  0  0  0  0  0  0  0  0  0  0  0
  148.1207  134.1242  156.1917 C   0  0  0  0  0  0  0  0  0  0  0  0
  147.0518  133.9028  155.1085 C   0  0  2  0  0  0  0  0  0  0  0  0
  145.6332  134.0832  155.6607 C   0  0  0  0  0  0  0  0  0  0  0  0
  147.1542  132.5820  154.5873 O   0  0  0  0  0  0  0  0  0  0  0  0
  149.5933  132.6238  152.2278 H   0  0  0  0  0  0  0  0  0  0  0  0
  148.8159  134.0691  152.8452 H   0  0  0  0  0  0  0  0  0  0  0  0
  147.8619  132.8455  152.0066 H   0  0  0  0  0  0  0  0  0  0  0  0
  148.3927  131.1956  153.7982 H   0  0  0  0  0  0  0  0  0  0  0  0
  149.4646  131.7352  155.8662 H   0  0  0  0  0  0  0  0  0  0  0  0
  150.5169  132.3301  154.5996 H   0  0  0  0  0  0  0  0  0  0  0  0
  149.8923  136.3385  154.2011 H   0  0  0  0  0  0  0  0  0  0  0  0
  149.7640  136.8704  155.8520 H   0  0  0  0  0  0  0  0  0  0  0  0
  152.1463  137.9452  155.4401 H   0  0  0  0  0  0  0  0  0  0  0  0
  151.7656  137.7701  153.7523 H   0  0  0  0  0  0  0  0  0  0  0  0
  151.7823  140.1082  156.3153 H   0  0  0  0  0  0  0  0  0  0  0  0
  150.4351  142.2220  156.3546 H   0  0  0  0  0  0  0  0  0  0  0  0
  148.4462  142.4061  154.8382 H   0  0  0  0  0  0  0  0  0  0  0  0
  149.0584  138.6195  153.3086 H   0  0  0  0  0  0  0  0  0  0  0  0
  147.9275  133.4879  157.0564 H   0  0  0  0  0  0  0  0  0  0  0  0
  148.0774  135.1545  156.5431 H   0  0  0  0  0  0  0  0  0  0  0  0
  147.1935  134.6276  154.3065 H   0  0  0  0  0  0  0  0  0  0  0  0
  145.4946  135.0860  156.0656 H   0  0  0  0  0  0  0  0  0  0  0  0
  145.4261  133.3690  156.4580 H   0  0  0  0  0  0  0  0  0  0  0  0
  144.8887  133.9350  154.8784 H   0  0  0  0  0  0  0  0  0  0  0  0
  1  2  1  0  0  0  0
  1 21  1  0  0  0  0
  1 22  1  0  0  0  0
  1 23  1  0  0  0  0
  2 20  1  0  0  0  0
  2  3  1  0  0  0  0
  2 24  1  0  0  0  0
  3  4  1  0  0  0  0
  3 25  1  0  0  0  0
  3 26  1  0  0  0  0
  4  5  1  0  0  0  0
  4 17  1  0  0  0  0
  5  6  2  0  0  0  0
  5  7  2  0  0  0  0
  5  8  1  0  0  0  0
  8  9  1  0  0  0  0
  9 10  1  0  0  0  0
  9 27  1  0  0  0  0
  9 28  1  0  0  0  0
 10 11  1  0  0  0  0
 10 29  1  0  0  0  0
 10 30  1  0  0  0  0
 11 16  1  0  0  0  0
 11 12  2  0  0  0  0
 12 13  1  0  0  0  0
 12 31  1  0  0  0  0
 13 14  2  0  0  0  0
 13 32  1  0  0  0  0
 14 15  1  0  0  0  0
 14 33  1  0  0  0  0
 15 16  2  0  0  0  0
 16 34  1  0  0  0  0
 17 18  1  0  0  0  0
 17 35  1  0  0  0  0
 17 36  1  0  0  0  0
 18 19  1  0  0  0  0
 18 20  1  0  0  0  0
 18 37  1  0  0  0  0
 19 38  1  0  0  0  0
 19 39  1  0  0  0  0
 19 40  1  0  0  0  0
M  CHG  1   8  -1
M  END
> <s_m_source_file>
AV-unprocessed.smi

> <i_m_source_file_index>
1165

> <i_lp_mmshare_version>
43012

> <i_f3d_flags>
0

> <s_epik_input>
W0NIM11bQ0BASF0xW0NIMl1OKFtDSDJdW0NASF0oTzEpW0NIM10pUyg9TykoPU8pW05IXVtDSDJdW0NIMl1jMltjSF1bY0hdW2NIXW5bY0hdMg==

> <s_epik_cmdline>
J2VwaWtfcHl0aG9uJywgJy1waCcsICc3LjAnLCAnLXRuJywgJzgnLCAnLW1hJywgJzIwMCcsICctbWV0YWxfYmluZGluZycsICctaW1hZScsICc8aW5maWxlLm1hZT4nLCAnLW9tYWUnLCAnPG91dGZpbGUubWFlPic=

> <r_epik_Ionization_Penalty>
1.23471

> <r_epik_Ionization_Penalty_Charging>
1.20871

> <r_epik_Ionization_Penalty_Neutral>
0.025996

> <r_epik_State_Penalty>
1.46261

> <r_epik_Charging_Adjusted_Penalty>
2.67132

> <i_epik_Tot_Q>
-1

> <i_epik_Tot_abs_Q>
1

> <r_epik_Metal_State_Penalty>
0.521406

> <b_epik_Metal_Only>
0

> <s_lp_Force_Field>
OPLS_2005

> <r_lp_Energy>
6.37225

> <b_lp_Chiralities_Consistent>
1

> <s_lp_Variant>
AV-unprocessed.smi:1165-6

> <Gold.Version>
5.8.1

> <Gold.Id.Protein>
6NUR|6NUR_protein|mol2

> <Gold.PLP.Fitness>
41.7318

> <Gold.PLP.PLP>
-28.5590

> <Gold.PLP.part.hbond>
-2.0000

> <Gold.PLP.part.metal>
0.0000

> <Gold.PLP.part.buried>
-0.0350

> <Gold.PLP.part.nonpolar>
-26.6857

> <Gold.PLP.part.repulsive>
1.8337

> <Gold.PLP.ligand.clash>
0.0000

> <Gold.PLP.ligand.torsion>
1.1400

> <Gold.PLP.Chemscore.Hbond>
2.7520

> <Gold.PLP.Chemscore.CHOScore>
1.8516

> <Gold.PLP.Chemscore.Metal>
0.0000

> <Gold.Chemscore.Hbonds>
donor molecule, donor type, donor heavy atom, donor atom, acceptor molecule, acceptor atom, score
      P1  H  6896  6909       L1     6  0.67
      P1  H 10752 10764       L1     8  2.00
      L1  C    14    33       P1  8028  1.00
      L1  C    16    34       P1  7948  0.42
      L1  C    16    34       P1  7957  0.22

> <Gold.PLP.Chemscore.Internal.Correction>
1.6420

> <Gold.Rescore>
     Score         DG    S(hbond)    S(metal)    S(lipo)     H(rot)  DE(clash)    DE(int)     intcor
     13.74     -15.02       1.64        0.00      67.03       1.47       0.17       1.11       ----

> <Gold.Chemscore.Fitness>
13.7379

> <Gold.Chemscore.DG>
-15.0241

> <Gold.Chemscore.ZeroCoef>
-5.4800

> <Gold.Chemscore.Hbond>
1.6384

> <Gold.Chemscore.Metal>
0.0000

> <Gold.Chemscore.Lipo>
67.0345

> <Gold.Chemscore.Internal_Hbond>
0.0000

> <Gold.Chemscore.DEClash>
0.1722

> <Gold.Chemscore.DEInternal>
1.1140

> <Gold.Chemscore.Rot>
1.4731

> <Gold.Chemscore.Internal.Correction>
   9.000000E+99

> <Gold.Chemscore.Hbonds>
donor molecule, donor type, donor heavy atom, donor atom, acceptor molecule, acceptor atom, score
      P1  H  6896  6909       L1     6  0.68
      P1  H 10752 10764       L1     8  0.87

> <Gold.Chemscore.Hbond.Weighted>
-5.4723

> <Gold.Chemscore.Metal.Weighted>
-0.0000

> <Gold.Chemscore.Lipo.Weighted>
-7.8430

> <Gold.Chemscore.Internal_Hbond.Weighted>
0.0000

> <Gold.Chemscore.DEClash.Weighted>
0.1722

> <Gold.Chemscore.DEInternal.Weighted>
1.1140

> <Gold.Chemscore.Rot.Weighted>
3.7712

> <Gold.Chemscore.Internal.Correction.Weighted>
   9.000000E+99

> <Gold.Protein.RotatedTorsions>
[ 6907 6896 6895 6894 ] final   36.67 input  -60.11 | X-H torsion
[ 7974 7965 7964 7962 ] final  -14.37 input  175.53 | X-H torsion
[ 8008 7997 7996 7995 ] final   50.71 input   59.86 | X-H torsion
[ 10167 10162 10161 10158 ] final  -47.81 input  -65.29 | X-H torsion
[ 10718 10713 10712 10709 ] final -132.30 input   66.30 | X-H torsion
[ 10763 10752 10751 10750 ] final  -51.79 input  -60.55 | X-H torsion
[ 11005 11000 10999 10996 ] final  176.18 input  -57.11 | X-H torsion

> <Gold.Protein.ActiveResidues>
 VAL166  LYS551  ARG553  GLY616  TRP617  ASP618  TYR619  PRO620  LYS621  CYS622 
 ASP623  PHE694  ASN695  SER759  ASP760  ASP761  ALA762  ILE779  LEU786  VAL792 
 PHE793  MET794  SER795  GLU796  ALA797  LYS798  CYS799  TRP800  GLU811  SER814 

> <Gold.Protein.RotatedAtoms>
  152.1328  134.9122  160.0557 H   0  0  0  0  0  0  0  0  0  0  0  0  # atno 6907 bound_to 6896
  152.0219  133.3897  159.4270 H   0  0  0  0  0  0  0  0  0  0  0  0  # atno 6908 bound_to 6896
  150.6858  134.3538  159.4964 H   0  0  0  0  0  0  0  0  0  0  0  0  # atno 6909 bound_to 6896
  146.2077  140.3338  142.8401 H   0  0  0  0  0  0  0  0  0  0  0  0  # atno 7974 bound_to 7965
  155.4233  140.3447  155.4273 H   0  0  0  0  0  0  0  0  0  0  0  0  # atno 8008 bound_to 7997
  156.1380  140.1533  156.8995 H   0  0  0  0  0  0  0  0  0  0  0  0  # atno 8009 bound_to 7997
  154.4948  140.0831  156.7652 H   0  0  0  0  0  0  0  0  0  0  0  0  # atno 8010 bound_to 7997
  140.6759  143.2767  151.3981 H   0  0  0  0  0  0  0  0  0  0  0  0  # atno 10167 bound_to 10162
  156.2332  130.7050  151.0880 H   0  0  0  0  0  0  0  0  0  0  0  0  # atno 10718 bound_to 10713
  154.1322  135.6518  153.4924 H   0  0  0  0  0  0  0  0  0  0  0  0  # atno 10763 bound_to 10752
  153.0191  135.5295  154.6989 H   0  0  0  0  0  0  0  0  0  0  0  0  # atno 10764 bound_to 10752
  154.6227  135.2966  155.0278 H   0  0  0  0  0  0  0  0  0  0  0  0  # atno 10765 bound_to 10752
  140.3703  134.7035  157.4388 H   0  0  0  0  0  0  0  0  0  0  0  0  # atno 11005 bound_to 11000
  144.8833  140.7429  143.5972 LP  0  0  0  0  0  0  0  0  0  0  0  0  # atno 17320 bound_to 7965
  145.3259  139.1774  143.4563 LP  0  0  0  0  0  0  0  0  0  0  0  0  # atno 17321 bound_to 7965
  139.6051  144.1215  152.2240 LP  0  0  0  0  0  0  0  0  0  0  0  0  # atno 17342 bound_to 10162
  140.0611  144.5856  150.7262 LP  0  0  0  0  0  0  0  0  0  0  0  0  # atno 17343 bound_to 10162
  157.7142  131.0718  150.6388 LP  0  0  0  0  0  0  0  0  0  0  0  0  # atno 17370 bound_to 10713
  156.6457  130.4471  149.5737 LP  0  0  0  0  0  0  0  0  0  0  0  0  # atno 17371 bound_to 10713
  140.0557  134.6067  155.8808 LP  0  0  0  0  0  0  0  0  0  0  0  0  # atno 17394 bound_to 11000
  141.1956  133.6588  156.5653 LP  0  0  0  0  0  0  0  0  0  0  0  0  # atno 17395 bound_to 11000

$$$$
