AV-unprocessed.smi:3089|AV-procd|sdf|11772|dock1
  -GOLD-   2272017153D 1   1.00000     0.00000
 Structure written by MMmdl.
 24 24  0  0  0  0  0  0  0  0  1 V2000
  142.9578  135.5738  153.6234 C   0  0  0  0  0  0  0  0  0  0  0  0
  143.5035  135.0159  152.4048 N   0  0  0  0  0  0  0  0  0  0  0  0
  143.4271  133.7204  151.9423 C   0  0  0  0  0  0  0  0  0  0  0  0
  144.0865  133.6671  150.7450 C   0  0  0  0  0  0  0  0  0  0  0  0
  144.2873  132.4767  149.8307 C   0  0  1  0  0  0  0  0  0  0  0  0
  145.7779  132.0962  149.7922 C   0  0  0  0  0  0  0  0  0  0  0  0
  143.6176  131.3207  150.2975 O   0  0  0  0  0  0  0  0  0  0  0  0
  143.7753  132.7526  148.3995 C   0  0  0  0  0  0  0  0  0  0  0  0
  142.3173  132.6033  148.2534 N   0  0  0  0  0  0  0  0  0  0  0  0
  144.5409  135.0073  150.5677 C   0  0  0  0  0  0  0  0  0  0  0  0
  144.1901  135.8100  151.5593 N   0  0  0  0  0  0  0  0  0  0  0  0
  142.4255  134.8035  154.1818 H   0  0  0  0  0  0  0  0  0  0  0  0
  142.2634  136.3791  153.3819 H   0  0  0  0  0  0  0  0  0  0  0  0
  143.7638  135.9677  154.2431 H   0  0  0  0  0  0  0  0  0  0  0  0
  142.9134  132.9483  152.4959 H   0  0  0  0  0  0  0  0  0  0  0  0
  146.3875  132.9141  149.4064 H   0  0  0  0  0  0  0  0  0  0  0  0
  145.9536  131.2306  149.1521 H   0  0  0  0  0  0  0  0  0  0  0  0
  146.1512  131.8513  150.7877 H   0  0  0  0  0  0  0  0  0  0  0  0
  143.9324  131.1221  151.1659 H   0  0  0  0  0  0  0  0  0  0  0  0
  144.0458  133.7708  148.1175 H   0  0  0  0  0  0  0  0  0  0  0  0
  144.2883  132.1022  147.6900 H   0  0  0  0  0  0  0  0  0  0  0  0
  141.8285  133.2061  148.9137 H   0  0  0  0  0  0  0  0  0  0  0  0
  142.0251  132.8838  147.3182 H   0  0  0  0  0  0  0  0  0  0  0  0
  145.1130  135.4187  149.7490 H   0  0  0  0  0  0  0  0  0  0  0  0
  1  2  1  0  0  0  0
  1 12  1  0  0  0  0
  1 13  1  0  0  0  0
  1 14  1  0  0  0  0
  2 11  1  0  0  0  0
  2  3  1  0  0  0  0
  3  4  2  0  0  0  0
  3 15  1  0  0  0  0
  4  5  1  0  0  0  0
  4 10  1  0  0  0  0
  5  6  1  0  0  0  0
  5  7  1  0  0  0  0
  5  8  1  0  0  0  0
  6 16  1  0  0  0  0
  6 17  1  0  0  0  0
  6 18  1  0  0  0  0
  7 19  1  0  0  0  0
  8  9  1  0  0  0  0
  8 20  1  0  0  0  0
  8 21  1  0  0  0  0
  9 22  1  0  0  0  0
  9 23  1  0  0  0  0
 10 11  2  0  0  0  0
 10 24  1  0  0  0  0
M  END
> <s_m_source_file>
AV-unprocessed.smi

> <i_m_source_file_index>
3089

> <i_lp_mmshare_version>
43012

> <i_f3d_flags>
0

> <s_epik_input>
W0NIM11uMVtjSF1jKFtjSF1uMSlbQ0BAXShbQ0gzXSkoW09IXSlbQ0gyXVtOSDJd

> <s_epik_cmdline>
J2VwaWtfcHl0aG9uJywgJy1waCcsICc3LjAnLCAnLXRuJywgJzgnLCAnLW1hJywgJzIwMCcsICctbWV0YWxfYmluZGluZycsICctaW1hZScsICc8aW5maWxlLm1hZT4nLCAnLW9tYWUnLCAnPG91dGZpbGUubWFlPic=

> <r_lp_tautomer_probability>
1

> <r_epik_Ionization_Penalty>
2.22427

> <r_epik_Ionization_Penalty_Charging>
0

> <r_epik_Ionization_Penalty_Neutral>
2.22427

> <r_epik_State_Penalty>
2.36938

> <r_epik_Charging_Adjusted_Penalty>
2.36938

> <i_epik_Tot_Q>
0

> <i_epik_Tot_abs_Q>
0

> <r_epik_Metal_State_Penalty>
2.36933

> <b_epik_Metal_Only>
0

> <s_lp_Force_Field>
OPLS_2005

> <r_lp_Energy>
8.30458

> <b_lp_Chiralities_Consistent>
1

> <s_lp_Variant>
AV-unprocessed.smi:3089-3

> <Gold.Version>
5.8.1

> <Gold.Id.Protein>
6NUR|6NUR_protein|mol2

> <Gold.PLP.Fitness>
42.2729

> <Gold.PLP.PLP>
-29.0441

> <Gold.PLP.part.hbond>
-4.8749

> <Gold.PLP.part.metal>
0.0000

> <Gold.PLP.part.buried>
-5.5113

> <Gold.PLP.part.nonpolar>
-19.6734

> <Gold.PLP.part.repulsive>
0.1892

> <Gold.PLP.ligand.clash>
0.0000

> <Gold.PLP.ligand.torsion>
0.3641

> <Gold.PLP.Chemscore.Hbond>
2.8000

> <Gold.PLP.Chemscore.CHOScore>
1.8453

> <Gold.PLP.Chemscore.Metal>
0.0000

> <Gold.Chemscore.Hbonds>
donor molecule, donor type, donor heavy atom, donor atom, acceptor molecule, acceptor atom, score
      L1  H     9    22       P1 10186  1.00
      L1  H     9    23       P1 10195  1.00
      P1  H 10785 10796       L1     7  0.80
      L1  C     3    15       P1 10957  0.83
      L1  C    10    24       P1  7921  1.00

> <Gold.PLP.Chemscore.Internal.Correction>
0.0209

> <Gold.Rescore>
     Score         DG    S(hbond)    S(metal)    S(lipo)     H(rot)  DE(clash)    DE(int)     intcor
     16.79     -17.04       2.71        0.00      61.69       1.84       0.15       0.09       ----

> <Gold.Chemscore.Fitness>
16.7939

> <Gold.Chemscore.DG>
-17.0383

> <Gold.Chemscore.ZeroCoef>
-5.4800

> <Gold.Chemscore.Hbond>
2.7088

> <Gold.Chemscore.Metal>
0.0000

> <Gold.Chemscore.Lipo>
61.6913

> <Gold.Chemscore.Internal_Hbond>
0.0000

> <Gold.Chemscore.DEClash>
0.1497

> <Gold.Chemscore.DEInternal>
0.0947

> <Gold.Chemscore.Rot>
1.8386

> <Gold.Chemscore.Internal.Correction>
   9.000000E+99

> <Gold.Chemscore.Hbonds>
donor molecule, donor type, donor heavy atom, donor atom, acceptor molecule, acceptor atom, score
      L1  H     9    22       P1 10186  0.97
      L1  H     9    23       P1 10195  0.97
      P1  H 10785 10796       L1     7  0.58

> <Gold.Chemscore.Hbond.Weighted>
-9.0473

> <Gold.Chemscore.Metal.Weighted>
-0.0000

> <Gold.Chemscore.Lipo.Weighted>
-7.2179

> <Gold.Chemscore.Internal_Hbond.Weighted>
0.0000

> <Gold.Chemscore.DEClash.Weighted>
0.1497

> <Gold.Chemscore.DEInternal.Weighted>
0.0947

> <Gold.Chemscore.Rot.Weighted>
4.7069

> <Gold.Chemscore.Internal.Correction.Weighted>
   9.000000E+99

> <Gold.Protein.RotatedTorsions>
[ 6907 6896 6895 6894 ] final   68.15 input  -60.11 | X-H torsion
[ 7974 7965 7964 7962 ] final   69.36 input  175.53 | X-H torsion
[ 8008 7997 7996 7995 ] final  -76.65 input   59.86 | X-H torsion
[ 10167 10162 10161 10158 ] final  155.14 input  -65.29 | X-H torsion
[ 10718 10713 10712 10709 ] final   88.42 input   66.30 | X-H torsion
[ 10763 10752 10751 10750 ] final -136.23 input  -60.55 | X-H torsion
[ 11005 11000 10999 10996 ] final -115.94 input  -57.11 | X-H torsion

> <Gold.Protein.ActiveResidues>
 VAL166  LYS551  ARG553  GLY616  TRP617  ASP618  TYR619  PRO620  LYS621  CYS622 
 ASP623  PHE694  ASN695  SER759  ASP760  ASP761  ALA762  ILE779  LEU786  VAL792 
 PHE793  MET794  SER795  GLU796  ALA797  LYS798  CYS799  TRP800  GLU811  SER814 

> <Gold.Protein.RotatedAtoms>
  152.4601  134.5204  159.9780 H   0  0  0  0  0  0  0  0  0  0  0  0  # atno 6907 bound_to 6896
  151.5255  133.3453  159.2917 H   0  0  0  0  0  0  0  0  0  0  0  0  # atno 6908 bound_to 6896
  150.8560  134.7929  159.7108 H   0  0  0  0  0  0  0  0  0  0  0  0  # atno 6909 bound_to 6896
  145.7913  139.2935  143.1208 H   0  0  0  0  0  0  0  0  0  0  0  0  # atno 7974 bound_to 7965
  154.5524  140.0723  156.8689 H   0  0  0  0  0  0  0  0  0  0  0  0  # atno 8008 bound_to 7997
  155.2967  140.3381  155.4231 H   0  0  0  0  0  0  0  0  0  0  0  0  # atno 8009 bound_to 7997
  156.1973  140.1708  156.7958 H   0  0  0  0  0  0  0  0  0  0  0  0  # atno 8010 bound_to 7997
  139.4822  144.5125  151.8002 H   0  0  0  0  0  0  0  0  0  0  0  0  # atno 10167 bound_to 10162
  157.6949  131.0294  150.3272 H   0  0  0  0  0  0  0  0  0  0  0  0  # atno 10718 bound_to 10713
  154.8688  135.3679  154.5026 H   0  0  0  0  0  0  0  0  0  0  0  0  # atno 10763 bound_to 10752
  153.5666  135.7021  153.5528 H   0  0  0  0  0  0  0  0  0  0  0  0  # atno 10764 bound_to 10752
  153.3579  135.4054  155.1659 H   0  0  0  0  0  0  0  0  0  0  0  0  # atno 10765 bound_to 10752
  141.0454  133.9770  157.2925 H   0  0  0  0  0  0  0  0  0  0  0  0  # atno 11005 bound_to 11000
  145.9973  140.8551  143.0036 LP  0  0  0  0  0  0  0  0  0  0  0  0  # atno 17320 bound_to 7965
  144.6781  140.2302  143.7356 LP  0  0  0  0  0  0  0  0  0  0  0  0  # atno 17321 bound_to 7965
  140.4630  144.1695  150.5908 LP  0  0  0  0  0  0  0  0  0  0  0  0  # atno 17342 bound_to 10162
  140.4464  143.2504  151.9405 LP  0  0  0  0  0  0  0  0  0  0  0  0  # atno 17343 bound_to 10162
  156.3751  130.3870  149.7145 LP  0  0  0  0  0  0  0  0  0  0  0  0  # atno 17370 bound_to 10713
  156.4546  130.7923  151.2944 LP  0  0  0  0  0  0  0  0  0  0  0  0  # atno 17371 bound_to 10713
  139.9308  135.0200  156.8393 LP  0  0  0  0  0  0  0  0  0  0  0  0  # atno 17394 bound_to 11000
  140.6156  134.0042  155.7595 LP  0  0  0  0  0  0  0  0  0  0  0  0  # atno 17395 bound_to 11000

$$$$
