AV-unprocessed.smi:2454|AV-procd|sdf|9698|dock2
  -GOLD-   2272013333D 1   1.00000     0.00000
 Structure written by MMmdl.
 42 43  0  0  0  0  0  0  0  0  1 V2000
  152.9814  138.4111  154.5920 C   0  0  0  0  0  0  0  0  0  0  0  0
  153.0903  139.4708  155.5261 O   0  0  0  0  0  0  0  0  0  0  0  0
  151.9569  139.5689  156.3719 C   0  0  0  0  0  0  0  0  0  0  0  0
  150.7250  139.9839  155.5947 C   0  0  0  0  0  0  0  0  0  0  0  0
  150.0497  139.0759  154.7519 C   0  0  0  0  0  0  0  0  0  0  0  0
  148.9161  139.5545  154.0567 C   0  0  0  0  0  0  0  0  0  0  0  0
  148.2744  138.6007  153.2127 N   0  0  0  0  0  0  0  0  0  0  0  0
  146.9789  138.4484  152.8633 C   0  0  0  0  0  0  0  0  0  0  0  0
  146.1122  139.2100  153.2893 O   0  0  0  0  0  0  0  0  0  0  0  0
  146.7059  137.4278  152.0346 N   0  0  0  0  0  0  0  0  0  0  0  0
  145.3843  137.0453  151.5433 C   0  0  1  0  0  0  0  0  0  0  0  0
  145.4581  135.6762  150.8417 C   0  0  0  0  0  0  0  0  0  0  0  0
  145.7048  134.5297  151.8365 C   0  0  0  0  0  0  0  0  0  0  0  0
  144.6503  134.5238  152.9541 C   0  0  0  0  0  0  0  0  0  0  0  0
  144.5943  135.8766  153.6947 C   0  0  2  0  0  0  0  0  0  0  0  0
  143.5490  135.8708  154.8290 C   0  0  0  0  0  0  0  0  0  0  0  0
  143.5356  137.0407  155.4690 F   0  0  0  0  0  0  0  0  0  0  0  0
  142.3348  135.6390  154.3302 F   0  0  0  0  0  0  0  0  0  0  0  0
  143.8298  134.9046  155.7032 F   0  0  0  0  0  0  0  0  0  0  0  0
  144.3479  137.0236  152.6878 C   0  0  0  0  0  0  0  0  0  0  0  0
  148.5256  140.8451  154.2179 N   0  0  0  0  0  0  0  0  0  0  0  0
  149.2368  141.6210  155.0391 C   0  0  0  0  0  0  0  0  0  0  0  0
  150.3145  141.2621  155.7368 N   0  0  0  0  0  0  0  0  0  0  0  0
  153.8728  138.3817  153.9655 H   0  0  0  0  0  0  0  0  0  0  0  0
  152.1167  138.5459  153.9410 H   0  0  0  0  0  0  0  0  0  0  0  0
  152.8934  137.4482  155.0966 H   0  0  0  0  0  0  0  0  0  0  0  0
  151.7676  138.6078  156.8530 H   0  0  0  0  0  0  0  0  0  0  0  0
  152.1431  140.2935  157.1669 H   0  0  0  0  0  0  0  0  0  0  0  0
  150.3923  138.0569  154.6424 H   0  0  0  0  0  0  0  0  0  0  0  0
  148.9037  137.9456  152.7724 H   0  0  0  0  0  0  0  0  0  0  0  0
  147.4823  136.8546  151.7339 H   0  0  0  0  0  0  0  0  0  0  0  0
  145.0704  137.7828  150.8025 H   0  0  0  0  0  0  0  0  0  0  0  0
  144.5206  135.4936  150.3150 H   0  0  0  0  0  0  0  0  0  0  0  0
  146.2378  135.6834  150.0788 H   0  0  0  0  0  0  0  0  0  0  0  0
  145.6912  133.5754  151.3096 H   0  0  0  0  0  0  0  0  0  0  0  0
  146.7002  134.6242  152.2728 H   0  0  0  0  0  0  0  0  0  0  0  0
  143.6727  134.2954  152.5279 H   0  0  0  0  0  0  0  0  0  0  0  0
  144.8748  133.7206  153.6564 H   0  0  0  0  0  0  0  0  0  0  0  0
  145.5689  136.0405  154.1576 H   0  0  0  0  0  0  0  0  0  0  0  0
  144.3456  137.9843  153.2039 H   0  0  0  0  0  0  0  0  0  0  0  0
  143.3518  136.9147  152.2572 H   0  0  0  0  0  0  0  0  0  0  0  0
  148.9047  142.6426  155.1493 H   0  0  0  0  0  0  0  0  0  0  0  0
  1  2  1  0  0  0  0
  1 24  1  0  0  0  0
  1 25  1  0  0  0  0
  1 26  1  0  0  0  0
  2  3  1  0  0  0  0
  3  4  1  0  0  0  0
  3 27  1  0  0  0  0
  3 28  1  0  0  0  0
  4 23  1  0  0  0  0
  4  5  2  0  0  0  0
  5  6  1  0  0  0  0
  5 29  1  0  0  0  0
  6  7  1  0  0  0  0
  6 21  2  0  0  0  0
  7  8  1  0  0  0  0
  7 30  1  0  0  0  0
  8  9  2  0  0  0  0
  8 10  1  0  0  0  0
 10 11  1  0  0  0  0
 10 31  1  0  0  0  0
 11 20  1  0  0  0  0
 11 12  1  0  0  0  0
 11 32  1  0  0  0  0
 12 13  1  0  0  0  0
 12 33  1  0  0  0  0
 12 34  1  0  0  0  0
 13 14  1  0  0  0  0
 13 35  1  0  0  0  0
 13 36  1  0  0  0  0
 14 15  1  0  0  0  0
 14 37  1  0  0  0  0
 14 38  1  0  0  0  0
 15 16  1  0  0  0  0
 15 20  1  0  0  0  0
 15 39  1  0  0  0  0
 16 17  1  0  0  0  0
 16 18  1  0  0  0  0
 16 19  1  0  0  0  0
 20 40  1  0  0  0  0
 20 41  1  0  0  0  0
 21 22  1  0  0  0  0
 22 23  2  0  0  0  0
 22 42  1  0  0  0  0
M  END
> <s_m_source_file>
AV-unprocessed.smi

> <i_m_source_file_index>
2454

> <i_lp_mmshare_version>
43012

> <i_f3d_flags>
0

> <s_epik_input>
W0NIM11PW0NIMl1jMVtjSF1jKG5bY0hdbjEpW05IXUMoPU8pW05IXVtDQEBIXTJbQ0gyXVtDSDJdW0NIMl1bQ0BASF0oQyhGKShGKUYpW0NIMl0y

> <s_epik_cmdline>
J2VwaWtfcHl0aG9uJywgJy1waCcsICc3LjAnLCAnLXRuJywgJzgnLCAnLW1hJywgJzIwMCcsICctbWV0YWxfYmluZGluZycsICctaW1hZScsICc8aW5maWxlLm1hZT4nLCAnLW9tYWUnLCAnPG91dGZpbGUubWFlPic=

> <r_lp_tautomer_probability>
1

> <r_epik_Ionization_Penalty>
3.01554e-05

> <r_epik_Ionization_Penalty_Charging>
0

> <r_epik_Ionization_Penalty_Neutral>
3.01554e-05

> <r_epik_State_Penalty>
-0

> <r_epik_Charging_Adjusted_Penalty>
0

> <i_epik_Tot_Q>
0

> <i_epik_Tot_abs_Q>
0

> <r_epik_Metal_State_Penalty>
-0

> <b_epik_Metal_Only>
0

> <s_lp_Force_Field>
OPLS_2005

> <r_lp_Energy>
13.7545

> <b_lp_Chiralities_Consistent>
1

> <s_lp_Variant>
AV-unprocessed.smi:2454-4

> <Gold.Version>
5.8.1

> <Gold.Id.Protein>
6NUR|6NUR_protein|mol2

> <Gold.PLP.Fitness>
41.8360

> <Gold.PLP.PLP>
-31.2754

> <Gold.PLP.part.hbond>
-4.4129

> <Gold.PLP.part.metal>
0.0000

> <Gold.PLP.part.buried>
1.2403

> <Gold.PLP.part.nonpolar>
-31.2061

> <Gold.PLP.part.repulsive>
2.4863

> <Gold.PLP.ligand.clash>
0.0000

> <Gold.PLP.ligand.torsion>
0.5630

> <Gold.PLP.Chemscore.Hbond>
2.8800

> <Gold.PLP.Chemscore.CHOScore>
1.0000

> <Gold.PLP.Chemscore.Metal>
0.0000

> <Gold.Chemscore.Hbonds>
donor molecule, donor type, donor heavy atom, donor atom, acceptor molecule, acceptor atom, score
      L1  H     7    30       P1  7948  0.88
      L1  H    10    31       P1  7948  1.00
      P1  H  7997  8010       L1     2  1.00
      L1  C    22    42       P1  8028  1.00

> <Gold.PLP.Chemscore.Internal.Correction>
0.0467

> <Gold.Rescore>
     Score         DG    S(hbond)    S(metal)    S(lipo)     H(rot)  DE(clash)    DE(int)     intcor
     13.13     -17.15       2.87        0.00      52.84       1.60       1.95       2.08       ----

> <Gold.Chemscore.Fitness>
13.1308

> <Gold.Chemscore.DG>
-17.1549

> <Gold.Chemscore.ZeroCoef>
-5.4800

> <Gold.Chemscore.Hbond>
2.8734

> <Gold.Chemscore.Metal>
0.0000

> <Gold.Chemscore.Lipo>
52.8436

> <Gold.Chemscore.Internal_Hbond>
0.0000

> <Gold.Chemscore.DEClash>
1.9481

> <Gold.Chemscore.DEInternal>
2.0760

> <Gold.Chemscore.Rot>
1.6035

> <Gold.Chemscore.Internal.Correction>
   9.000000E+99

> <Gold.Chemscore.Hbonds>
donor molecule, donor type, donor heavy atom, donor atom, acceptor molecule, acceptor atom, score
      L1  H     7    30       P1  7948  0.86
      L1  H    10    31       P1  7948  0.96
      P1  H  7997  8010       L1     2  0.82

> <Gold.Chemscore.Hbond.Weighted>
-9.5972

> <Gold.Chemscore.Metal.Weighted>
-0.0000

> <Gold.Chemscore.Lipo.Weighted>
-6.1827

> <Gold.Chemscore.Internal_Hbond.Weighted>
0.0000

> <Gold.Chemscore.DEClash.Weighted>
1.9481

> <Gold.Chemscore.DEInternal.Weighted>
2.0760

> <Gold.Chemscore.Rot.Weighted>
4.1050

> <Gold.Chemscore.Internal.Correction.Weighted>
   9.000000E+99

> <Gold.Protein.RotatedTorsions>
[ 6907 6896 6895 6894 ] final  -50.76 input  -60.11 | X-H torsion
[ 7974 7965 7964 7962 ] final  -13.36 input  175.53 | X-H torsion
[ 8008 7997 7996 7995 ] final   88.83 input   59.86 | X-H torsion
[ 10167 10162 10161 10158 ] final  -35.29 input  -65.29 | X-H torsion
[ 10718 10713 10712 10709 ] final  148.34 input   66.30 | X-H torsion
[ 10763 10752 10751 10750 ] final  -69.24 input  -60.55 | X-H torsion
[ 11005 11000 10999 10996 ] final  174.72 input  -57.11 | X-H torsion

> <Gold.Protein.ActiveResidues>
 VAL166  LYS551  ARG553  GLY616  TRP617  ASP618  TYR619  PRO620  LYS621  CYS622 
 ASP623  PHE694  ASN695  SER759  ASP760  ASP761  ALA762  ILE779  LEU786  VAL792 
 PHE793  MET794  SER795  GLU796  ALA797  LYS798  CYS799  TRP800  GLU811  SER814 

> <Gold.Protein.RotatedAtoms>
  150.8676  134.8043  159.7130 H   0  0  0  0  0  0  0  0  0  0  0  0  # atno 6907 bound_to 6896
  152.4692  134.4998  159.9731 H   0  0  0  0  0  0  0  0  0  0  0  0  # atno 6908 bound_to 6896
  151.5092  133.3450  159.2917 H   0  0  0  0  0  0  0  0  0  0  0  0  # atno 6909 bound_to 6896
  146.2117  140.3191  142.8389 H   0  0  0  0  0  0  0  0  0  0  0  0  # atno 7974 bound_to 7965
  155.9925  140.3367  155.6767 H   0  0  0  0  0  0  0  0  0  0  0  0  # atno 8008 bound_to 7997
  155.6401  140.0694  157.2639 H   0  0  0  0  0  0  0  0  0  0  0  0  # atno 8009 bound_to 7997
  154.4224  140.1744  156.1551 H   0  0  0  0  0  0  0  0  0  0  0  0  # atno 8010 bound_to 7997
  140.7168  143.3488  151.2200 H   0  0  0  0  0  0  0  0  0  0  0  0  # atno 10167 bound_to 10162
  157.3099  131.0886  151.1325 H   0  0  0  0  0  0  0  0  0  0  0  0  # atno 10718 bound_to 10713
  154.4005  135.6032  153.5894 H   0  0  0  0  0  0  0  0  0  0  0  0  # atno 10763 bound_to 10752
  152.9788  135.5905  154.4189 H   0  0  0  0  0  0  0  0  0  0  0  0  # atno 10764 bound_to 10752
  154.3987  135.2842  155.2088 H   0  0  0  0  0  0  0  0  0  0  0  0  # atno 10765 bound_to 10752
  140.3544  134.7167  157.4289 H   0  0  0  0  0  0  0  0  0  0  0  0  # atno 11005 bound_to 11000
  144.8933  140.7551  143.5913 LP  0  0  0  0  0  0  0  0  0  0  0  0  # atno 17320 bound_to 7965
  145.3114  139.1817  143.4636 LP  0  0  0  0  0  0  0  0  0  0  0  0  # atno 17321 bound_to 7965
  139.7013  143.9528  152.2907 LP  0  0  0  0  0  0  0  0  0  0  0  0  # atno 17342 bound_to 10162
  139.9222  144.6793  150.8450 LP  0  0  0  0  0  0  0  0  0  0  0  0  # atno 17343 bound_to 10162
  157.2651  130.6677  149.5993 LP  0  0  0  0  0  0  0  0  0  0  0  0  # atno 17370 bound_to 10713
  155.9677  130.4496  150.5666 LP  0  0  0  0  0  0  0  0  0  0  0  0  # atno 17371 bound_to 10713
  140.0677  134.5907  155.8677 LP  0  0  0  0  0  0  0  0  0  0  0  0  # atno 17394 bound_to 11000
  141.2002  133.6611  156.5887 LP  0  0  0  0  0  0  0  0  0  0  0  0  # atno 17395 bound_to 11000

$$$$
