AV-unprocessed.smi:224|AV-procd|sdf|1717|dock8
  -GOLD-   2262020193D 1   1.00000     0.00000
 Structure written by MMmdl.
 56 59  0  0  0  0  0  0  0  0  2 V2000
  145.4653  135.8782  151.4075 C   0  0  0  0  0  0  0  0  0  0  0  0
  144.9461  134.5285  150.8951 C   0  0  2  0  0  0  0  0  0  0  0  0
  144.4711  134.7207  149.5774 O   0  0  0  0  0  0  0  0  0  0  0  0
  143.8033  133.9817  151.7740 C   0  0  0  0  0  0  0  0  0  0  0  0
  144.2858  133.5216  153.1072 N   0  3  1  0  0  0  0  0  0  0  0  0
  145.3344  132.4723  152.9619 C   0  0  0  0  0  0  0  0  0  0  0  0
  145.8012  131.9322  154.3198 C   0  0  0  0  0  0  0  0  0  0  0  0
  146.2686  133.0264  155.1587 N   0  0  0  0  0  0  0  0  0  0  0  0
  147.5749  133.3788  155.0204 C   0  0  0  0  0  0  0  0  0  0  0  0
  148.4137  132.5951  154.2916 N   0  0  0  0  0  0  0  0  0  0  0  0
  149.7032  132.9196  154.1617 C   0  0  0  0  0  0  0  0  0  0  0  0
  150.3525  133.9697  154.6653 N   0  0  0  0  0  0  0  0  0  0  0  0
  149.5158  134.7723  155.3826 C   0  0  0  0  0  0  0  0  0  0  0  0
  148.1277  134.5513  155.6115 C   0  0  0  0  0  0  0  0  0  0  0  0
  147.6092  135.5823  156.3863 N   0  0  0  0  0  0  0  0  0  0  0  0
  148.6324  136.3600  156.6117 C   0  0  0  0  0  0  0  0  0  0  0  0
  149.8153  135.9559  156.0356 N   0  0  0  0  0  0  0  0  0  0  0  0
  151.1035  136.6281  156.1231 C   0  0  0  0  0  0  0  0  0  0  0  0
  151.4806  137.4519  154.8648 C   0  0  1  0  0  0  0  0  0  0  0  0
  152.0750  136.5977  153.9052 O   0  0  0  0  0  0  0  0  0  0  0  0
  150.3034  138.1863  154.2183 C   0  0  0  0  0  0  0  0  0  0  0  0
  150.4498  139.6052  154.7483 C   0  0  0  0  0  0  0  0  0  0  0  0
  151.8534  139.7908  154.7287 O   0  0  0  0  0  0  0  0  0  0  0  0
  152.4564  138.5960  155.2099 C   0  0  0  0  0  0  0  0  0  0  0  0
  145.2637  134.0654  155.3624 C   0  0  0  0  0  0  0  0  0  0  0  0
  144.6980  134.6258  154.0327 C   0  0  2  0  0  0  0  0  0  0  0  0
  143.5350  135.5788  154.3785 C   0  0  0  0  0  0  0  0  0  0  0  0
  145.8686  135.7854  152.4165 H   0  0  0  0  0  0  0  0  0  0  0  0
  144.6725  136.6269  151.4337 H   0  0  0  0  0  0  0  0  0  0  0  0
  146.2630  136.2607  150.7698 H   0  0  0  0  0  0  0  0  0  0  0  0
  145.7820  133.8305  150.8607 H   0  0  0  0  0  0  0  0  0  0  0  0
  145.2036  134.7143  148.9810 H   0  0  0  0  0  0  0  0  0  0  0  0
  143.0372  134.7457  151.9168 H   0  0  0  0  0  0  0  0  0  0  0  0
  143.3079  133.1892  151.2188 H   0  0  0  0  0  0  0  0  0  0  0  0
  144.9610  131.6427  152.3627 H   0  0  0  0  0  0  0  0  0  0  0  0
  146.1888  132.8863  152.4236 H   0  0  0  0  0  0  0  0  0  0  0  0
  144.9748  131.4330  154.8271 H   0  0  0  0  0  0  0  0  0  0  0  0
  146.5690  131.1748  154.1686 H   0  0  0  0  0  0  0  0  0  0  0  0
  150.3001  132.2417  153.5695 H   0  0  0  0  0  0  0  0  0  0  0  0
  148.5498  137.2595  157.2046 H   0  0  0  0  0  0  0  0  0  0  0  0
  151.0882  137.2738  157.0023 H   0  0  0  0  0  0  0  0  0  0  0  0
  151.8658  135.8718  156.3159 H   0  0  0  0  0  0  0  0  0  0  0  0
  151.4236  136.3758  153.2575 H   0  0  0  0  0  0  0  0  0  0  0  0
  150.4113  138.2085  153.1325 H   0  0  0  0  0  0  0  0  0  0  0  0
  149.3265  137.7583  154.4361 H   0  0  0  0  0  0  0  0  0  0  0  0
  149.9363  140.3428  154.1312 H   0  0  0  0  0  0  0  0  0  0  0  0
  150.0775  139.6853  155.7709 H   0  0  0  0  0  0  0  0  0  0  0  0
  152.5904  138.6897  156.2885 H   0  0  0  0  0  0  0  0  0  0  0  0
  153.4462  138.4674  154.7701 H   0  0  0  0  0  0  0  0  0  0  0  0
  144.4535  133.6223  155.9431 H   0  0  0  0  0  0  0  0  0  0  0  0
  145.6649  134.8693  155.9816 H   0  0  0  0  0  0  0  0  0  0  0  0
  145.4795  135.2007  153.5344 H   0  0  0  0  0  0  0  0  0  0  0  0
  143.8287  136.2750  155.1649 H   0  0  0  0  0  0  0  0  0  0  0  0
  142.6652  135.0281  154.7384 H   0  0  0  0  0  0  0  0  0  0  0  0
  143.2201  136.1937  153.5373 H   0  0  0  0  0  0  0  0  0  0  0  0
  143.4972  133.0791  153.5567 H   0  0  0  0  0  0  0  0  0  0  0  0
  1  2  1  0  0  0  0
  1 28  1  0  0  0  0
  1 29  1  0  0  0  0
  1 30  1  0  0  0  0
  2  3  1  0  0  0  0
  2  4  1  0  0  0  0
  2 31  1  0  0  0  0
  3 32  1  0  0  0  0
  4  5  1  0  0  0  0
  4 33  1  0  0  0  0
  4 34  1  0  0  0  0
  5 26  1  0  0  0  0
  5  6  1  0  0  0  0
  5 56  1  0  0  0  0
  6  7  1  0  0  0  0
  6 35  1  0  0  0  0
  6 36  1  0  0  0  0
  7  8  1  0  0  0  0
  7 37  1  0  0  0  0
  7 38  1  0  0  0  0
  8  9  1  0  0  0  0
  8 25  1  0  0  0  0
  9 14  1  0  0  0  0
  9 10  2  0  0  0  0
 10 11  1  0  0  0  0
 11 12  2  0  0  0  0
 11 39  1  0  0  0  0
 12 13  1  0  0  0  0
 13 17  1  0  0  0  0
 13 14  2  0  0  0  0
 14 15  1  0  0  0  0
 15 16  2  0  0  0  0
 16 17  1  0  0  0  0
 16 40  1  0  0  0  0
 17 18  1  0  0  0  0
 18 19  1  0  0  0  0
 18 41  1  0  0  0  0
 18 42  1  0  0  0  0
 19 24  1  0  0  0  0
 19 20  1  0  0  0  0
 19 21  1  0  0  0  0
 20 43  1  0  0  0  0
 21 22  1  0  0  0  0
 21 44  1  0  0  0  0
 21 45  1  0  0  0  0
 22 23  1  0  0  0  0
 22 46  1  0  0  0  0
 22 47  1  0  0  0  0
 23 24  1  0  0  0  0
 24 48  1  0  0  0  0
 24 49  1  0  0  0  0
 25 26  1  0  0  0  0
 25 50  1  0  0  0  0
 25 51  1  0  0  0  0
 26 27  1  0  0  0  0
 26 52  1  0  0  0  0
 27 53  1  0  0  0  0
 27 54  1  0  0  0  0
 27 55  1  0  0  0  0
M  CHG  1   5   1
M  END
> <s_m_source_file>
AV-unprocessed.smi

> <i_m_source_file_index>
224

> <i_lp_mmshare_version>
43012

> <i_f3d_flags>
0

> <s_epik_input>
W0NIM11bQ0BIXShbT0hdKVtDSDJdTjFbQ0gyXVtDSDJdTihbQ0gyXVtDQEhdMVtDSDNdKWMobltjSF1uMiljKGMyMyluW2NIXW4zW0NIMl1bQ0BAXTQoW09IXSlbQ0gyXVtDSDJdT1tDSDJdNA==

> <s_epik_cmdline>
J2VwaWtfcHl0aG9uJywgJy1waCcsICc3LjAnLCAnLXRuJywgJzgnLCAnLW1hJywgJzIwMCcsICctbWV0YWxfYmluZGluZycsICctaW1hZScsICc8aW5maWxlLm1hZT4nLCAnLW9tYWUnLCAnPG91dGZpbGUubWFlPic=

> <r_lp_tautomer_probability>
1

> <r_epik_Ionization_Penalty>
0.00516958

> <r_epik_Ionization_Penalty_Charging>
0.00509693

> <r_epik_Ionization_Penalty_Neutral>
7.26542e-05

> <r_epik_State_Penalty>
-0

> <r_epik_Charging_Adjusted_Penalty>
0.00509693

> <i_epik_Tot_Q>
1

> <i_epik_Tot_abs_Q>
1

> <r_epik_Metal_State_Penalty>
-0

> <b_epik_Metal_Only>
0

> <s_lp_Force_Field>
OPLS_2005

> <r_lp_Energy>
50.0315

> <b_lp_Chiralities_Consistent>
1

> <s_lp_Variant>
AV-unprocessed.smi:224-11

> <Gold.Version>
5.8.1

> <Gold.Id.Protein>
6NUR|6NUR_protein|mol2

> <Gold.PLP.Fitness>
49.5535

> <Gold.PLP.PLP>
-33.8932

> <Gold.PLP.part.hbond>
-4.6375

> <Gold.PLP.part.metal>
0.0000

> <Gold.PLP.part.buried>
-6.3960

> <Gold.PLP.part.nonpolar>
-23.6612

> <Gold.PLP.part.repulsive>
0.3644

> <Gold.PLP.ligand.clash>
0.0000

> <Gold.PLP.ligand.torsion>
1.2088

> <Gold.PLP.Chemscore.Hbond>
5.8480

> <Gold.PLP.Chemscore.CHOScore>
0.0000

> <Gold.PLP.Chemscore.Metal>
0.0000

> <Gold.Chemscore.Hbonds>
donor molecule, donor type, donor heavy atom, donor atom, acceptor molecule, acceptor atom, score
      L1  H     3    32       P1  7921  1.00
      L1  H     5    56       P1 10957  2.00
      L1  H    20    43       P1  7949  0.88
      P1  H  7989  7998       L1    23  0.44
      P1  H 10752 10765       L1    20  0.49

> <Gold.PLP.Chemscore.Internal.Correction>
0.5338

> <Gold.Rescore>
     Score         DG    S(hbond)    S(metal)    S(lipo)     H(rot)  DE(clash)    DE(int)     intcor
     11.84     -14.19       2.97        0.00      63.23       3.36       0.19       2.16       ----

> <Gold.Chemscore.Fitness>
11.8356

> <Gold.Chemscore.DG>
-14.1871

> <Gold.Chemscore.ZeroCoef>
-5.4800

> <Gold.Chemscore.Hbond>
2.9683

> <Gold.Chemscore.Metal>
0.0000

> <Gold.Chemscore.Lipo>
63.2278

> <Gold.Chemscore.Internal_Hbond>
0.0000

> <Gold.Chemscore.DEClash>
0.1891

> <Gold.Chemscore.DEInternal>
2.1624

> <Gold.Chemscore.Rot>
3.3611

> <Gold.Chemscore.Internal.Correction>
   9.000000E+99

> <Gold.Chemscore.Hbonds>
donor molecule, donor type, donor heavy atom, donor atom, acceptor molecule, acceptor atom, score
      L1  H     3    32       P1  7921  0.99
      L1  H     5    56       P1 10957  0.88
      L1  H    20    43       P1  7949  0.71
      P1  H  7989  7998       L1    23  0.01
      P1  H 10752 10765       L1    20  0.39

> <Gold.Chemscore.Hbond.Weighted>
-9.9140

> <Gold.Chemscore.Metal.Weighted>
-0.0000

> <Gold.Chemscore.Lipo.Weighted>
-7.3977

> <Gold.Chemscore.Internal_Hbond.Weighted>
0.0000

> <Gold.Chemscore.DEClash.Weighted>
0.1891

> <Gold.Chemscore.DEInternal.Weighted>
2.1624

> <Gold.Chemscore.Rot.Weighted>
8.6045

> <Gold.Chemscore.Internal.Correction.Weighted>
   9.000000E+99

> <Gold.Protein.RotatedTorsions>
[ 6907 6896 6895 6894 ] final  -19.78 input  -60.11 | X-H torsion
[ 7974 7965 7964 7962 ] final    0.46 input  175.53 | X-H torsion
[ 8008 7997 7996 7995 ] final  -90.18 input   59.86 | X-H torsion
[ 10167 10162 10161 10158 ] final -160.05 input  -65.29 | X-H torsion
[ 10718 10713 10712 10709 ] final  118.63 input   66.30 | X-H torsion
[ 10763 10752 10751 10750 ] final  139.60 input  -60.55 | X-H torsion
[ 11005 11000 10999 10996 ] final -164.96 input  -57.11 | X-H torsion

> <Gold.Protein.ActiveResidues>
 VAL166  LYS551  ARG553  GLY616  TRP617  ASP618  TYR619  PRO620  LYS621  CYS622 
 ASP623  PHE694  ASN695  SER759  ASP760  ASP761  ALA762  ILE779  LEU786  VAL792 
 PHE793  MET794  SER795  GLU796  ALA797  LYS798  CYS799  TRP800  GLU811  SER814 

> <Gold.Protein.RotatedAtoms>
  151.2580  135.0644  159.9087 H   0  0  0  0  0  0  0  0  0  0  0  0  # atno 6907 bound_to 6896
  152.5370  134.0261  159.8014 H   0  0  0  0  0  0  0  0  0  0  0  0  # atno 6908 bound_to 6896
  151.0480  133.5599  159.2676 H   0  0  0  0  0  0  0  0  0  0  0  0  # atno 6909 bound_to 6896
  146.2434  140.1134  142.8343 H   0  0  0  0  0  0  0  0  0  0  0  0  # atno 7974 bound_to 7965
  154.6955  140.0533  157.0406 H   0  0  0  0  0  0  0  0  0  0  0  0  # atno 8008 bound_to 7997
  155.0757  140.3204  155.4598 H   0  0  0  0  0  0  0  0  0  0  0  0  # atno 8009 bound_to 7997
  156.2743  140.2074  156.5884 H   0  0  0  0  0  0  0  0  0  0  0  0  # atno 8010 bound_to 7997
  139.6569  143.9983  152.2199 H   0  0  0  0  0  0  0  0  0  0  0  0  # atno 10167 bound_to 10162
  157.6017  131.1050  150.7783 H   0  0  0  0  0  0  0  0  0  0  0  0  # atno 10718 bound_to 10713
  153.9089  135.3013  155.3448 H   0  0  0  0  0  0  0  0  0  0  0  0  # atno 10763 bound_to 10752
  154.7633  135.4923  153.9509 H   0  0  0  0  0  0  0  0  0  0  0  0  # atno 10764 bound_to 10752
  153.1204  135.6781  153.9447 H   0  0  0  0  0  0  0  0  0  0  0  0  # atno 10765 bound_to 10752
  140.5811  134.5141  157.5178 H   0  0  0  0  0  0  0  0  0  0  0  0  # atno 11005 bound_to 11000
  145.0467  140.8987  143.5020 LP  0  0  0  0  0  0  0  0  0  0  0  0  # atno 17320 bound_to 7965
  145.1225  139.2684  143.5581 LP  0  0  0  0  0  0  0  0  0  0  0  0  # atno 17321 bound_to 7965
  139.9712  144.6493  150.7988 LP  0  0  0  0  0  0  0  0  0  0  0  0  # atno 17342 bound_to 10162
  140.7563  143.3063  151.2954 LP  0  0  0  0  0  0  0  0  0  0  0  0  # atno 17343 bound_to 10162
  156.8181  130.4975  149.5347 LP  0  0  0  0  0  0  0  0  0  0  0  0  # atno 17370 bound_to 10713
  156.1092  130.6027  151.0020 LP  0  0  0  0  0  0  0  0  0  0  0  0  # atno 17371 bound_to 10713
  139.9317  134.7951  156.0913 LP  0  0  0  0  0  0  0  0  0  0  0  0  # atno 17394 bound_to 11000
  141.0996  133.6682  156.2723 LP  0  0  0  0  0  0  0  0  0  0  0  0  # atno 17395 bound_to 11000

$$$$
