AV-unprocessed.smi:3171|AV-procd|sdf|12111|dock9
  -GOLD-   2272017553D 1   1.00000     0.00000
 Structure written by MMmdl.
 33 34  0  0  0  0  0  0  0  0  1 V2000
  147.4932  138.7419  153.2839 C   0  0  0  0  0  0  0  0  0  0  0  0
  148.3879  139.6722  154.0837 C   0  0  0  0  0  0  0  0  0  0  0  0
  147.8659  140.8935  154.3299 N   0  0  0  0  0  0  0  0  0  0  0  0
  148.5546  141.7933  155.0335 N   0  0  0  0  0  0  0  0  0  0  0  0
  149.7877  141.5066  155.5167 C   0  0  0  0  0  0  0  0  0  0  0  0
  150.4464  142.5041  156.2604 N   0  0  0  0  0  0  0  0  0  0  0  0
  150.9424  142.2306  157.6044 C   0  0  0  0  0  0  0  0  0  0  0  0
  150.7727  143.4371  158.5417 C   0  0  2  0  0  0  0  0  0  0  0  0
  151.6875  144.6087  158.1960 C   0  0  0  0  0  0  0  0  0  0  0  0
  151.7764  145.3782  159.5033 C   0  0  0  0  0  0  0  0  0  0  0  0
  151.3606  144.3544  160.5642 C   0  0  0  0  0  0  0  0  0  0  0  0
  151.1882  143.1300  159.8631 O   0  0  0  0  0  0  0  0  0  0  0  0
  150.3951  140.2423  155.2981 C   0  0  0  0  0  0  0  0  0  0  0  0
  151.7208  139.9346  155.8308 C   0  0  0  0  0  0  0  0  0  0  0  0
  152.7704  139.6907  156.2528 N   0  0  0  0  0  0  0  0  0  0  0  0
  149.6699  139.2856  154.5437 C   0  0  0  0  0  0  0  0  0  0  0  0
  150.2411  137.9000  154.2523 C   0  0  0  0  0  0  0  0  0  0  0  0
  147.3271  137.8112  153.8269 H   0  0  0  0  0  0  0  0  0  0  0  0
  147.9490  138.5091  152.3215 H   0  0  0  0  0  0  0  0  0  0  0  0
  146.5183  139.1921  153.0919 H   0  0  0  0  0  0  0  0  0  0  0  0
  150.2406  143.4670  156.0362 H   0  0  0  0  0  0  0  0  0  0  0  0
  150.4833  141.3369  158.0280 H   0  0  0  0  0  0  0  0  0  0  0  0
  152.0045  142.0043  157.5088 H   0  0  0  0  0  0  0  0  0  0  0  0
  149.7336  143.7727  158.5561 H   0  0  0  0  0  0  0  0  0  0  0  0
  152.6775  144.2423  157.9202 H   0  0  0  0  0  0  0  0  0  0  0  0
  151.3097  145.2130  157.3709 H   0  0  0  0  0  0  0  0  0  0  0  0
  152.7840  145.7598  159.6718 H   0  0  0  0  0  0  0  0  0  0  0  0
  151.0905  146.2261  159.5057 H   0  0  0  0  0  0  0  0  0  0  0  0
  152.1054  144.2444  161.3529 H   0  0  0  0  0  0  0  0  0  0  0  0
  150.4155  144.6422  161.0264 H   0  0  0  0  0  0  0  0  0  0  0  0
  151.2652  137.9736  153.8845 H   0  0  0  0  0  0  0  0  0  0  0  0
  149.6764  137.3560  153.4971 H   0  0  0  0  0  0  0  0  0  0  0  0
  150.2474  137.2995  155.1623 H   0  0  0  0  0  0  0  0  0  0  0  0
  1  2  1  0  0  0  0
  1 18  1  0  0  0  0
  1 19  1  0  0  0  0
  1 20  1  0  0  0  0
  2 16  1  0  0  0  0
  2  3  2  0  0  0  0
  3  4  1  0  0  0  0
  4  5  2  0  0  0  0
  5  6  1  0  0  0  0
  5 13  1  0  0  0  0
  6  7  1  0  0  0  0
  6 21  1  0  0  0  0
  7  8  1  0  0  0  0
  7 22  1  0  0  0  0
  7 23  1  0  0  0  0
  8 12  1  0  0  0  0
  8  9  1  0  0  0  0
  8 24  1  0  0  0  0
  9 10  1  0  0  0  0
  9 25  1  0  0  0  0
  9 26  1  0  0  0  0
 10 11  1  0  0  0  0
 10 27  1  0  0  0  0
 10 28  1  0  0  0  0
 11 12  1  0  0  0  0
 11 29  1  0  0  0  0
 11 30  1  0  0  0  0
 13 14  1  0  0  0  0
 13 16  2  0  0  0  0
 14 15  3  0  0  0  0
 16 17  1  0  0  0  0
 17 31  1  0  0  0  0
 17 32  1  0  0  0  0
 17 33  1  0  0  0  0
M  END
> <s_m_source_file>
AV-unprocessed.smi

> <i_m_source_file_index>
3171

> <i_lp_mmshare_version>
43012

> <i_f3d_flags>
0

> <s_epik_input>
W0NIM11jMW5uYyhjKEMjTiljMVtDSDNdKVtOSF1bQ0gyXVtDQEBIXTJbQ0gyXVtDSDJdW0NIMl1PMg==

> <s_epik_cmdline>
J2VwaWtfcHl0aG9uJywgJy1waCcsICc3LjAnLCAnLXRuJywgJzgnLCAnLW1hJywgJzIwMCcsICctbWV0YWxfYmluZGluZycsICctaW1hZScsICc8aW5maWxlLm1hZT4nLCAnLW9tYWUnLCAnPG91dGZpbGUubWFlPic=

> <r_lp_tautomer_probability>
1

> <r_epik_Ionization_Penalty>
0.00108228

> <r_epik_Ionization_Penalty_Charging>
0

> <r_epik_Ionization_Penalty_Neutral>
0.00108228

> <r_epik_State_Penalty>
-0

> <r_epik_Charging_Adjusted_Penalty>
0

> <i_epik_Tot_Q>
0

> <i_epik_Tot_abs_Q>
0

> <r_epik_Metal_State_Penalty>
-0

> <b_epik_Metal_Only>
0

> <s_lp_Force_Field>
OPLS_2005

> <r_lp_Energy>
28.7028

> <b_lp_Chiralities_Consistent>
1

> <s_lp_Variant>
AV-unprocessed.smi:3171-1

> <Gold.Version>
5.8.1

> <Gold.Id.Protein>
6NUR|6NUR_protein|mol2

> <Gold.PLP.Fitness>
40.1215

> <Gold.PLP.PLP>
-35.7905

> <Gold.PLP.part.hbond>
-2.3516

> <Gold.PLP.part.metal>
0.0000

> <Gold.PLP.part.buried>
-3.3701

> <Gold.PLP.part.nonpolar>
-32.2352

> <Gold.PLP.part.repulsive>
1.2512

> <Gold.PLP.ligand.clash>
0.0000

> <Gold.PLP.ligand.torsion>
0.6833

> <Gold.PLP.Chemscore.Hbond>
1.8960

> <Gold.PLP.Chemscore.CHOScore>
0.0000

> <Gold.PLP.Chemscore.Metal>
0.0000

> <Gold.Chemscore.Hbonds>
donor molecule, donor type, donor heavy atom, donor atom, acceptor molecule, acceptor atom, score
      L1  H     6    21       P1  8028  0.93
      P1  H  7997  8008       L1    15  1.00

> <Gold.PLP.Chemscore.Internal.Correction>
0.0097

> <Gold.Rescore>
     Score         DG    S(hbond)    S(metal)    S(lipo)     H(rot)  DE(clash)    DE(int)     intcor
     17.70     -18.49       1.89        0.00      83.97       1.22       0.02       0.77       ----

> <Gold.Chemscore.Fitness>
17.7031

> <Gold.Chemscore.DG>
-18.4910

> <Gold.Chemscore.ZeroCoef>
-5.4800

> <Gold.Chemscore.Hbond>
1.8877

> <Gold.Chemscore.Metal>
0.0000

> <Gold.Chemscore.Lipo>
83.9674

> <Gold.Chemscore.Internal_Hbond>
0.0000

> <Gold.Chemscore.DEClash>
0.0208

> <Gold.Chemscore.DEInternal>
0.7671

> <Gold.Chemscore.Rot>
1.2181

> <Gold.Chemscore.Internal.Correction>
   9.000000E+99

> <Gold.Chemscore.Hbonds>
donor molecule, donor type, donor heavy atom, donor atom, acceptor molecule, acceptor atom, score
      L1  H     6    21       P1  8028  0.91
      P1  H  7997  8008       L1    15  1.00

> <Gold.Chemscore.Hbond.Weighted>
-6.3050

> <Gold.Chemscore.Metal.Weighted>
-0.0000

> <Gold.Chemscore.Lipo.Weighted>
-9.8242

> <Gold.Chemscore.Internal_Hbond.Weighted>
0.0000

> <Gold.Chemscore.DEClash.Weighted>
0.0208

> <Gold.Chemscore.DEInternal.Weighted>
0.7671

> <Gold.Chemscore.Rot.Weighted>
3.1182

> <Gold.Chemscore.Internal.Correction.Weighted>
   9.000000E+99

> <Gold.Protein.RotatedTorsions>
[ 6907 6896 6895 6894 ] final   -0.22 input  -60.11 | X-H torsion
[ 7974 7965 7964 7962 ] final  115.55 input  175.53 | X-H torsion
[ 8008 7997 7996 7995 ] final  -36.01 input   59.86 | X-H torsion
[ 10167 10162 10161 10158 ] final  -33.63 input  -65.29 | X-H torsion
[ 10718 10713 10712 10709 ] final  -95.89 input   66.30 | X-H torsion
[ 10763 10752 10751 10750 ] final -125.74 input  -60.55 | X-H torsion
[ 11005 11000 10999 10996 ] final  124.63 input  -57.11 | X-H torsion

> <Gold.Protein.ActiveResidues>
 VAL166  LYS551  ARG553  GLY616  TRP617  ASP618  TYR619  PRO620  LYS621  CYS622 
 ASP623  PHE694  ASN695  SER759  ASP760  ASP761  ALA762  ILE779  LEU786  VAL792 
 PHE793  MET794  SER795  GLU796  ALA797  LYS798  CYS799  TRP800  GLU811  SER814 

> <Gold.Protein.RotatedAtoms>
  151.5658  135.1064  159.9983 H   0  0  0  0  0  0  0  0  0  0  0  0  # atno 6907 bound_to 6896
  152.4425  133.7470  159.6683 H   0  0  0  0  0  0  0  0  0  0  0  0  # atno 6908 bound_to 6896
  150.8333  133.7987  159.3113 H   0  0  0  0  0  0  0  0  0  0  0  0  # atno 6909 bound_to 6896
  145.1906  139.3002  143.4370 H   0  0  0  0  0  0  0  0  0  0  0  0  # atno 7974 bound_to 7965
  154.4082  140.1642  156.2304 H   0  0  0  0  0  0  0  0  0  0  0  0  # atno 8008 bound_to 7997
  155.9287  140.3416  155.6208 H   0  0  0  0  0  0  0  0  0  0  0  0  # atno 8009 bound_to 7997
  155.7133  140.0759  157.2352 H   0  0  0  0  0  0  0  0  0  0  0  0  # atno 8010 bound_to 7997
  140.7201  143.3606  151.1971 H   0  0  0  0  0  0  0  0  0  0  0  0  # atno 10167 bound_to 10162
  156.0051  130.5128  150.6144 H   0  0  0  0  0  0  0  0  0  0  0  0  # atno 10718 bound_to 10713
  154.8739  135.4019  154.3317 H   0  0  0  0  0  0  0  0  0  0  0  0  # atno 10763 bound_to 10752
  153.4130  135.7021  153.6351 H   0  0  0  0  0  0  0  0  0  0  0  0  # atno 10764 bound_to 10752
  153.5046  135.3720  155.2527 H   0  0  0  0  0  0  0  0  0  0  0  0  # atno 10765 bound_to 10752
  139.9368  134.9639  156.8438 H   0  0  0  0  0  0  0  0  0  0  0  0  # atno 11005 bound_to 11000
  146.3437  140.2117  142.8590 LP  0  0  0  0  0  0  0  0  0  0  0  0  # atno 17320 bound_to 7965
  145.0045  140.8661  143.5261 LP  0  0  0  0  0  0  0  0  0  0  0  0  # atno 17321 bound_to 7965
  139.7157  143.9304  152.2966 LP  0  0  0  0  0  0  0  0  0  0  0  0  # atno 17342 bound_to 10162
  139.9044  144.6893  150.8630 LP  0  0  0  0  0  0  0  0  0  0  0  0  # atno 17343 bound_to 10162
  157.3970  131.0804  151.1342 LP  0  0  0  0  0  0  0  0  0  0  0  0  # atno 17370 bound_to 10713
  157.2016  130.6397  149.5740 LP  0  0  0  0  0  0  0  0  0  0  0  0  # atno 17371 bound_to 10713
  140.6055  134.0131  155.7555 LP  0  0  0  0  0  0  0  0  0  0  0  0  # atno 17394 bound_to 11000
  141.0985  133.9806  157.3119 LP  0  0  0  0  0  0  0  0  0  0  0  0  # atno 17395 bound_to 11000

$$$$
