AV-unprocessed.smi:242|AV-procd|sdf|1847|dock1
  -GOLD-   2262020463D 1   1.00000     0.00000
 Structure written by MMmdl.
 58 61  0  0  0  0  0  0  0  0  2 V2000
  147.7862  130.5384  153.1647 C   0  0  0  0  0  0  0  0  0  0  0  0
  146.4919  130.3181  152.3574 C   0  0  0  0  0  0  0  0  0  0  0  0
  146.5478  128.9358  151.6779 C   0  0  0  0  0  0  0  0  0  0  0  0
  146.2841  131.4122  151.3668 N   0  3  1  0  0  0  0  0  0  0  0  0
  145.0460  131.3231  150.5581 C   0  0  0  0  0  0  0  0  0  0  0  0
  144.7139  132.7591  150.1637 C   0  0  0  0  0  0  0  0  0  0  0  0
  145.0763  133.5251  151.4325 C   0  0  2  0  0  0  0  0  0  0  0  0
  145.2559  134.9675  151.2377 N   0  0  0  0  0  0  0  0  0  0  0  0
  144.3356  135.6385  150.3274 C   0  0  0  0  0  0  0  0  0  0  0  0
  145.4507  135.7078  152.3550 C   0  0  0  0  0  0  0  0  0  0  0  0
  145.1708  135.1862  153.5790 N   0  0  0  0  0  0  0  0  0  0  0  0
  145.3645  135.9214  154.6785 C   0  0  0  0  0  0  0  0  0  0  0  0
  145.8201  137.1723  154.7767 N   0  0  0  0  0  0  0  0  0  0  0  0
  146.0911  137.7004  153.5485 C   0  0  0  0  0  0  0  0  0  0  0  0
  145.9339  137.0417  152.2974 C   0  0  0  0  0  0  0  0  0  0  0  0
  146.3169  137.8839  151.2616 N   0  0  0  0  0  0  0  0  0  0  0  0
  146.6826  138.9809  151.8670 C   0  0  0  0  0  0  0  0  0  0  0  0
  146.5737  138.9601  153.2400 N   0  0  0  0  0  0  0  0  0  0  0  0
  146.9162  140.0366  154.1571 C   0  0  0  0  0  0  0  0  0  0  0  0
  148.1482  139.7422  155.0488 C   0  0  0  0  0  0  0  0  0  0  0  0
  147.6884  139.1025  156.2264 O   0  0  0  0  0  0  0  0  0  0  0  0
  149.1163  138.7867  154.3225 C   0  0  0  0  0  0  0  0  0  0  0  0
  150.4361  138.5999  155.0917 C   0  0  0  0  0  0  0  0  0  0  0  0
  151.0410  139.8644  155.3326 O   0  0  0  0  0  0  0  0  0  0  0  0
  150.2434  140.7066  156.1555 C   0  0  0  0  0  0  0  0  0  0  0  0
  148.9094  141.0227  155.4557 C   0  0  0  0  0  0  0  0  0  0  0  0
  146.3414  132.7911  151.9168 C   0  0  0  0  0  0  0  0  0  0  0  0
  147.9474  129.7241  153.8718 H   0  0  0  0  0  0  0  0  0  0  0  0
  147.7634  131.4591  153.7468 H   0  0  0  0  0  0  0  0  0  0  0  0
  148.6573  130.5819  152.5102 H   0  0  0  0  0  0  0  0  0  0  0  0
  145.6477  130.3221  153.0487 H   0  0  0  0  0  0  0  0  0  0  0  0
  146.7493  128.1510  152.4078 H   0  0  0  0  0  0  0  0  0  0  0  0
  147.3363  128.8949  150.9255 H   0  0  0  0  0  0  0  0  0  0  0  0
  145.6072  128.6771  151.1919 H   0  0  0  0  0  0  0  0  0  0  0  0
  145.1749  130.6743  149.6910 H   0  0  0  0  0  0  0  0  0  0  0  0
  144.2336  130.9210  151.1663 H   0  0  0  0  0  0  0  0  0  0  0  0
  145.3435  133.0747  149.3299 H   0  0  0  0  0  0  0  0  0  0  0  0
  143.6706  132.8829  149.8717 H   0  0  0  0  0  0  0  0  0  0  0  0
  144.2780  133.3650  152.1594 H   0  0  0  0  0  0  0  0  0  0  0  0
  144.5474  136.7066  150.2574 H   0  0  0  0  0  0  0  0  0  0  0  0
  143.3055  135.5157  150.6646 H   0  0  0  0  0  0  0  0  0  0  0  0
  144.4182  135.2244  149.3227 H   0  0  0  0  0  0  0  0  0  0  0  0
  145.1201  135.4390  155.6135 H   0  0  0  0  0  0  0  0  0  0  0  0
  147.0419  139.8437  151.3250 H   0  0  0  0  0  0  0  0  0  0  0  0
  147.0782  140.9446  153.5743 H   0  0  0  0  0  0  0  0  0  0  0  0
  146.0434  140.2313  154.7817 H   0  0  0  0  0  0  0  0  0  0  0  0
  147.6713  139.7367  156.9268 H   0  0  0  0  0  0  0  0  0  0  0  0
  148.6428  137.8191  154.1516 H   0  0  0  0  0  0  0  0  0  0  0  0
  149.3488  139.1904  153.3361 H   0  0  0  0  0  0  0  0  0  0  0  0
  150.2720  138.0759  156.0344 H   0  0  0  0  0  0  0  0  0  0  0  0
  151.1237  137.9883  154.5074 H   0  0  0  0  0  0  0  0  0  0  0  0
  150.0768  140.2347  157.1248 H   0  0  0  0  0  0  0  0  0  0  0  0
  150.7906  141.6299  156.3457 H   0  0  0  0  0  0  0  0  0  0  0  0
  149.1177  141.6146  154.5633 H   0  0  0  0  0  0  0  0  0  0  0  0
  148.2981  141.6505  156.1049 H   0  0  0  0  0  0  0  0  0  0  0  0
  146.3936  132.8112  153.0056 H   0  0  0  0  0  0  0  0  0  0  0  0
  147.2457  133.2644  151.5317 H   0  0  0  0  0  0  0  0  0  0  0  0
  147.0467  131.3513  150.7072 H   0  0  0  0  0  0  0  0  0  0  0  0
  1  2  1  0  0  0  0
  1 28  1  0  0  0  0
  1 29  1  0  0  0  0
  1 30  1  0  0  0  0
  2  3  1  0  0  0  0
  2  4  1  0  0  0  0
  2 31  1  0  0  0  0
  3 32  1  0  0  0  0
  3 33  1  0  0  0  0
  3 34  1  0  0  0  0
  4 27  1  0  0  0  0
  4  5  1  0  0  0  0
  4 58  1  0  0  0  0
  5  6  1  0  0  0  0
  5 35  1  0  0  0  0
  5 36  1  0  0  0  0
  6  7  1  0  0  0  0
  6 37  1  0  0  0  0
  6 38  1  0  0  0  0
  7  8  1  0  0  0  0
  7 27  1  0  0  0  0
  7 39  1  0  0  0  0
  8  9  1  0  0  0  0
  8 10  1  0  0  0  0
  9 40  1  0  0  0  0
  9 41  1  0  0  0  0
  9 42  1  0  0  0  0
 10 15  1  0  0  0  0
 10 11  2  0  0  0  0
 11 12  1  0  0  0  0
 12 13  2  0  0  0  0
 12 43  1  0  0  0  0
 13 14  1  0  0  0  0
 14 18  1  0  0  0  0
 14 15  2  0  0  0  0
 15 16  1  0  0  0  0
 16 17  2  0  0  0  0
 17 18  1  0  0  0  0
 17 44  1  0  0  0  0
 18 19  1  0  0  0  0
 19 20  1  0  0  0  0
 19 45  1  0  0  0  0
 19 46  1  0  0  0  0
 20 26  1  0  0  0  0
 20 21  1  0  0  0  0
 20 22  1  0  0  0  0
 21 47  1  0  0  0  0
 22 23  1  0  0  0  0
 22 48  1  0  0  0  0
 22 49  1  0  0  0  0
 23 24  1  0  0  0  0
 23 50  1  0  0  0  0
 23 51  1  0  0  0  0
 24 25  1  0  0  0  0
 25 26  1  0  0  0  0
 25 52  1  0  0  0  0
 25 53  1  0  0  0  0
 26 54  1  0  0  0  0
 26 55  1  0  0  0  0
 27 56  1  0  0  0  0
 27 57  1  0  0  0  0
M  CHG  1   4   1
M  END
> <s_m_source_file>
AV-unprocessed.smi

> <i_m_source_file_index>
242

> <i_lp_mmshare_version>
43012

> <i_f3d_flags>
0

> <s_epik_input>
W0NIM11bQ0hdKFtDSDNdKU4xW0NIMl1bQ0gyXVtDQEhdKFtDSDJdMSlOKFtDSDNdKWMobltjSF1uMiljKGMyMyluW2NIXW4zW0NIMl1DNChbT0hdKVtDSDJdW0NIMl1PW0NIMl1bQ0gyXTQ=

> <s_epik_cmdline>
J2VwaWtfcHl0aG9uJywgJy1waCcsICc3LjAnLCAnLXRuJywgJzgnLCAnLW1hJywgJzIwMCcsICctbWV0YWxfYmluZGluZycsICctaW1hZScsICc8aW5maWxlLm1hZT4nLCAnLW9tYWUnLCAnPG91dGZpbGUubWFlPic=

> <r_lp_tautomer_probability>
1

> <r_epik_Ionization_Penalty>
0.000825961

> <r_epik_Ionization_Penalty_Charging>
0.00034898

> <r_epik_Ionization_Penalty_Neutral>
0.000476981

> <r_epik_State_Penalty>
-0

> <r_epik_Charging_Adjusted_Penalty>
0.00034898

> <i_epik_Tot_Q>
1

> <i_epik_Tot_abs_Q>
1

> <r_epik_Metal_State_Penalty>
-0

> <b_epik_Metal_Only>
0

> <s_lp_Force_Field>
OPLS_2005

> <r_lp_Energy>
48.0366

> <b_lp_Chiralities_Consistent>
1

> <s_lp_Variant>
AV-unprocessed.smi:242-4

> <Gold.Version>
5.8.1

> <Gold.Id.Protein>
6NUR|6NUR_protein|mol2

> <Gold.PLP.Fitness>
50.5288

> <Gold.PLP.PLP>
-42.8860

> <Gold.PLP.part.hbond>
-3.0000

> <Gold.PLP.part.metal>
0.0000

> <Gold.PLP.part.buried>
-0.1022

> <Gold.PLP.part.nonpolar>
-42.0263

> <Gold.PLP.part.repulsive>
2.3961

> <Gold.PLP.ligand.clash>
0.0000

> <Gold.PLP.ligand.torsion>
1.0772

> <Gold.PLP.Chemscore.Hbond>
2.5000

> <Gold.PLP.Chemscore.CHOScore>
0.5848

> <Gold.PLP.Chemscore.Metal>
0.0000

> <Gold.Chemscore.Hbonds>
donor molecule, donor type, donor heavy atom, donor atom, acceptor molecule, acceptor atom, score
      L1  H     4    58       P1 10747  0.99
      P1  H  7954  7966       L1    16  0.21
      P1  H  7989  7998       L1    24  0.65
      L1  C    17    44       P1  7957  0.72

> <Gold.PLP.Chemscore.Internal.Correction>
0.5428

> <Gold.Rescore>
     Score         DG    S(hbond)    S(metal)    S(lipo)     H(rot)  DE(clash)    DE(int)     intcor
     13.30     -16.77       1.85        0.00      98.28       2.50       2.40       1.07       ----

> <Gold.Chemscore.Fitness>
13.3027

> <Gold.Chemscore.DG>
-16.7716

> <Gold.Chemscore.ZeroCoef>
-5.4800

> <Gold.Chemscore.Hbond>
1.8537

> <Gold.Chemscore.Metal>
0.0000

> <Gold.Chemscore.Lipo>
98.2832

> <Gold.Chemscore.Internal_Hbond>
0.0000

> <Gold.Chemscore.DEClash>
2.3990

> <Gold.Chemscore.DEInternal>
1.0699

> <Gold.Chemscore.Rot>
2.4996

> <Gold.Chemscore.Internal.Correction>
   9.000000E+99

> <Gold.Chemscore.Hbonds>
donor molecule, donor type, donor heavy atom, donor atom, acceptor molecule, acceptor atom, score
      L1  H     4    58       P1 10747  0.88
      P1  H  7954  7966       L1    16  0.02
      P1  H  7989  7998       L1    24  0.45

> <Gold.Chemscore.Hbond.Weighted>
-6.1914

> <Gold.Chemscore.Metal.Weighted>
-0.0000

> <Gold.Chemscore.Lipo.Weighted>
-11.4991

> <Gold.Chemscore.Internal_Hbond.Weighted>
0.0000

> <Gold.Chemscore.DEClash.Weighted>
2.3990

> <Gold.Chemscore.DEInternal.Weighted>
1.0699

> <Gold.Chemscore.Rot.Weighted>
6.3990

> <Gold.Chemscore.Internal.Correction.Weighted>
   9.000000E+99

> <Gold.Protein.RotatedTorsions>
[ 6907 6896 6895 6894 ] final -146.94 input  -60.11 | X-H torsion
[ 7974 7965 7964 7962 ] final  162.46 input  175.53 | X-H torsion
[ 8008 7997 7996 7995 ] final  175.89 input   59.86 | X-H torsion
[ 10167 10162 10161 10158 ] final  -21.80 input  -65.29 | X-H torsion
[ 10718 10713 10712 10709 ] final   41.49 input   66.30 | X-H torsion
[ 10763 10752 10751 10750 ] final -175.56 input  -60.55 | X-H torsion
[ 11005 11000 10999 10996 ] final   31.02 input  -57.11 | X-H torsion

> <Gold.Protein.ActiveResidues>
 VAL166  LYS551  ARG553  GLY616  TRP617  ASP618  TYR619  PRO620  LYS621  CYS622 
 ASP623  PHE694  ASN695  SER759  ASP760  ASP761  ALA762  ILE779  LEU786  VAL792 
 PHE793  MET794  SER795  GLU796  ALA797  LYS798  CYS799  TRP800  GLU811  SER814 

> <Gold.Protein.RotatedAtoms>
  151.1487  133.4922  159.2595 H   0  0  0  0  0  0  0  0  0  0  0  0  # atno 6907 bound_to 6896
  151.1577  135.0258  159.8706 H   0  0  0  0  0  0  0  0  0  0  0  0  # atno 6908 bound_to 6896
  152.5463  134.1364  159.8514 H   0  0  0  0  0  0  0  0  0  0  0  0  # atno 6909 bound_to 6896
  144.7635  139.8043  143.6323 H   0  0  0  0  0  0  0  0  0  0  0  0  # atno 7974 bound_to 7965
  156.0823  140.1397  156.9697 H   0  0  0  0  0  0  0  0  0  0  0  0  # atno 8008 bound_to 7997
  154.4592  140.0949  156.6894 H   0  0  0  0  0  0  0  0  0  0  0  0  # atno 8009 bound_to 7997
  155.5055  140.3452  155.4381 H   0  0  0  0  0  0  0  0  0  0  0  0  # atno 8010 bound_to 7997
  140.7283  143.4594  151.0402 H   0  0  0  0  0  0  0  0  0  0  0  0  # atno 10167 bound_to 10162
  157.3942  130.7823  149.7294 H   0  0  0  0  0  0  0  0  0  0  0  0  # atno 10718 bound_to 10713
  154.5830  135.2838  155.0714 H   0  0  0  0  0  0  0  0  0  0  0  0  # atno 10763 bound_to 10752
  154.2043  135.6419  153.5100 H   0  0  0  0  0  0  0  0  0  0  0  0  # atno 10764 bound_to 10752
  153.0094  135.5476  154.6490 H   0  0  0  0  0  0  0  0  0  0  0  0  # atno 10765 bound_to 10752
  140.2883  134.2894  155.7782 H   0  0  0  0  0  0  0  0  0  0  0  0  # atno 11005 bound_to 11000
  146.1722  139.4877  142.9920 LP  0  0  0  0  0  0  0  0  0  0  0  0  # atno 17320 bound_to 7965
  145.6542  141.0256  143.1744 LP  0  0  0  0  0  0  0  0  0  0  0  0  # atno 17321 bound_to 7965
  139.8277  143.7734  152.3179 LP  0  0  0  0  0  0  0  0  0  0  0  0  # atno 17342 bound_to 10162
  139.7838  144.7435  151.0050 LP  0  0  0  0  0  0  0  0  0  0  0  0  # atno 17343 bound_to 10162
  155.9806  130.4028  150.3519 LP  0  0  0  0  0  0  0  0  0  0  0  0  # atno 17370 bound_to 10713
  157.1639  131.0352  151.2828 LP  0  0  0  0  0  0  0  0  0  0  0  0  # atno 17371 bound_to 10713
  141.2151  133.7568  156.9585 LP  0  0  0  0  0  0  0  0  0  0  0  0  # atno 17394 bound_to 11000
  140.1219  134.9411  157.2216 LP  0  0  0  0  0  0  0  0  0  0  0  0  # atno 17395 bound_to 11000

$$$$
