AV-unprocessed.smi:2416|AV-procd|sdf|9546|dock7
  -GOLD-   2272013183D 1   1.00000     0.00000
 Structure written by MMmdl.
 40 41  0  0  0  0  0  0  0  0  1 V2000
  138.1793  141.0792  156.4761 C   0  0  0  0  0  0  0  0  0  0  0  0
  138.3240  140.0082  155.5508 O   0  0  0  0  0  0  0  0  0  0  0  0
  138.8437  140.3247  154.2516 C   0  0  1  0  0  0  0  0  0  0  0  0
  137.9193  141.3137  153.5307 C   0  0  0  0  0  0  0  0  0  0  0  0
  140.3514  140.6285  154.3392 C   0  0  0  0  0  0  0  0  0  0  0  0
  140.5855  139.1207  154.2779 C   0  0  2  0  0  0  0  0  0  0  0  0
  141.7647  138.7711  153.4927 N   0  0  0  0  0  0  0  0  0  0  0  0
  142.1987  137.5195  153.2904 C   0  0  0  0  0  0  0  0  0  0  0  0
  141.6364  136.5245  153.7486 O   0  0  0  0  0  0  0  0  0  0  0  0
  143.3098  137.5074  152.5332 N   0  0  0  0  0  0  0  0  0  0  0  0
  144.0511  136.3845  152.0785 C   0  0  0  0  0  0  0  0  0  0  0  0
  143.3426  135.1614  152.0778 C   0  0  0  0  0  0  0  0  0  0  0  0
  143.9885  133.9863  151.6465 C   0  0  0  0  0  0  0  0  0  0  0  0
  145.3286  134.0665  151.2284 C   0  0  0  0  0  0  0  0  0  0  0  0
  145.9911  132.9640  150.8052 F   0  0  0  0  0  0  0  0  0  0  0  0
  145.9631  135.3221  151.2615 C   0  0  0  0  0  0  0  0  0  0  0  0
  145.3447  136.4493  151.6738 N   0  0  0  0  0  0  0  0  0  0  0  0
  139.2312  138.9900  153.5333 C   0  0  0  0  0  0  0  0  0  0  0  0
  138.3899  137.7573  153.8831 C   0  0  0  0  0  0  0  0  0  0  0  0
  139.2791  139.0408  151.9943 C   0  0  0  0  0  0  0  0  0  0  0  0
  137.9140  140.6718  157.4516 H   0  0  0  0  0  0  0  0  0  0  0  0
  137.3788  141.7589  156.1844 H   0  0  0  0  0  0  0  0  0  0  0  0
  139.0979  141.6523  156.5976 H   0  0  0  0  0  0  0  0  0  0  0  0
  138.2327  141.4858  152.5017 H   0  0  0  0  0  0  0  0  0  0  0  0
  137.9150  142.2917  154.0113 H   0  0  0  0  0  0  0  0  0  0  0  0
  136.8928  140.9474  153.5026 H   0  0  0  0  0  0  0  0  0  0  0  0
  140.7252  141.1652  153.4654 H   0  0  0  0  0  0  0  0  0  0  0  0
  140.6970  141.0961  155.2603 H   0  0  0  0  0  0  0  0  0  0  0  0
  140.5682  138.6695  155.2728 H   0  0  0  0  0  0  0  0  0  0  0  0
  142.2844  139.5332  153.0828 H   0  0  0  0  0  0  0  0  0  0  0  0
  143.6650  138.4072  152.2460 H   0  0  0  0  0  0  0  0  0  0  0  0
  142.3130  135.1193  152.4031 H   0  0  0  0  0  0  0  0  0  0  0  0
  143.4641  133.0420  151.6371 H   0  0  0  0  0  0  0  0  0  0  0  0
  146.9919  135.4254  150.9500 H   0  0  0  0  0  0  0  0  0  0  0  0
  138.7642  136.8609  153.3878 H   0  0  0  0  0  0  0  0  0  0  0  0
  137.3489  137.8881  153.5861 H   0  0  0  0  0  0  0  0  0  0  0  0
  138.3982  137.5474  154.9529 H   0  0  0  0  0  0  0  0  0  0  0  0
  139.7256  138.1386  151.5750 H   0  0  0  0  0  0  0  0  0  0  0  0
  139.8639  139.8844  151.6275 H   0  0  0  0  0  0  0  0  0  0  0  0
  138.2801  139.1325  151.5668 H   0  0  0  0  0  0  0  0  0  0  0  0
  1  2  1  0  0  0  0
  1 21  1  0  0  0  0
  1 22  1  0  0  0  0
  1 23  1  0  0  0  0
  2  3  1  0  0  0  0
  3 18  1  0  0  0  0
  3  4  1  0  0  0  0
  3  5  1  0  0  0  0
  4 24  1  0  0  0  0
  4 25  1  0  0  0  0
  4 26  1  0  0  0  0
  5  6  1  0  0  0  0
  5 27  1  0  0  0  0
  5 28  1  0  0  0  0
  6  7  1  0  0  0  0
  6 18  1  0  0  0  0
  6 29  1  0  0  0  0
  7  8  1  0  0  0  0
  7 30  1  0  0  0  0
  8  9  2  0  0  0  0
  8 10  1  0  0  0  0
 10 11  1  0  0  0  0
 10 31  1  0  0  0  0
 11 17  1  0  0  0  0
 11 12  2  0  0  0  0
 12 13  1  0  0  0  0
 12 32  1  0  0  0  0
 13 14  2  0  0  0  0
 13 33  1  0  0  0  0
 14 15  1  0  0  0  0
 14 16  1  0  0  0  0
 16 17  2  0  0  0  0
 16 34  1  0  0  0  0
 18 19  1  0  0  0  0
 18 20  1  0  0  0  0
 19 35  1  0  0  0  0
 19 36  1  0  0  0  0
 19 37  1  0  0  0  0
 20 38  1  0  0  0  0
 20 39  1  0  0  0  0
 20 40  1  0  0  0  0
M  END
> <s_m_source_file>
AV-unprocessed.smi

> <i_m_source_file_index>
2416

> <i_lp_mmshare_version>
43012

> <i_f3d_flags>
0

> <s_epik_input>
W0NIM11PW0NAQF0xKFtDSDNdKVtDSDJdW0NASF0oQzEoW0NIM10pW0NIM10pW05IXUMoPU8pW05IXWMyW2NIXVtjSF1jKEYpW2NIXW4y

> <s_epik_cmdline>
J2VwaWtfcHl0aG9uJywgJy1waCcsICc3LjAnLCAnLXRuJywgJzgnLCAnLW1hJywgJzIwMCcsICctbWV0YWxfYmluZGluZycsICctaW1hZScsICc8aW5maWxlLm1hZT4nLCAnLW9tYWUnLCAnPG91dGZpbGUubWFlPic=

> <r_lp_tautomer_probability>
1

> <r_epik_Ionization_Penalty>
3.67756e-05

> <r_epik_Ionization_Penalty_Charging>
0

> <r_epik_Ionization_Penalty_Neutral>
3.67756e-05

> <r_epik_State_Penalty>
-0

> <r_epik_Charging_Adjusted_Penalty>
0

> <i_epik_Tot_Q>
0

> <i_epik_Tot_abs_Q>
0

> <r_epik_Metal_State_Penalty>
-0

> <b_epik_Metal_Only>
0

> <s_lp_Force_Field>
OPLS_2005

> <r_lp_Energy>
27.4539

> <b_lp_Chiralities_Consistent>
1

> <s_lp_Variant>
AV-unprocessed.smi:2416-3

> <Gold.Version>
5.8.1

> <Gold.Id.Protein>
6NUR|6NUR_protein|mol2

> <Gold.PLP.Fitness>
37.7183

> <Gold.PLP.PLP>
-29.1122

> <Gold.PLP.part.hbond>
-3.0000

> <Gold.PLP.part.metal>
0.0000

> <Gold.PLP.part.buried>
0.8378

> <Gold.PLP.part.nonpolar>
-26.9864

> <Gold.PLP.part.repulsive>
0.3726

> <Gold.PLP.ligand.clash>
0.0128

> <Gold.PLP.ligand.torsion>
0.3278

> <Gold.PLP.Chemscore.Hbond>
1.9672

> <Gold.PLP.Chemscore.CHOScore>
1.0000

> <Gold.PLP.Chemscore.Metal>
0.0000

> <Gold.Chemscore.Hbonds>
donor molecule, donor type, donor heavy atom, donor atom, acceptor molecule, acceptor atom, score
      L1  H     7    30       P1 10175  1.00
      L1  H    10    31       P1 10175  0.97
      L1  C    16    34       P1  7948  1.00

> <Gold.PLP.Chemscore.Internal.Correction>
0.3729

> <Gold.Rescore>
     Score         DG    S(hbond)    S(metal)    S(lipo)     H(rot)  DE(clash)    DE(int)     intcor
     12.38     -16.51       1.84        0.00      69.42       1.27       2.33       1.81       ----

> <Gold.Chemscore.Fitness>
12.3764

> <Gold.Chemscore.DG>
-16.5128

> <Gold.Chemscore.ZeroCoef>
-5.4800

> <Gold.Chemscore.Hbond>
1.8414

> <Gold.Chemscore.Metal>
0.0000

> <Gold.Chemscore.Lipo>
69.4179

> <Gold.Chemscore.Internal_Hbond>
0.0000

> <Gold.Chemscore.DEClash>
2.3266

> <Gold.Chemscore.DEInternal>
1.8098

> <Gold.Chemscore.Rot>
1.2653

> <Gold.Chemscore.Internal.Correction>
   9.000000E+99

> <Gold.Chemscore.Hbonds>
donor molecule, donor type, donor heavy atom, donor atom, acceptor molecule, acceptor atom, score
      L1  H     7    30       P1 10175  0.94
      L1  H    10    31       P1 10175  0.86

> <Gold.Chemscore.Hbond.Weighted>
-6.1501

> <Gold.Chemscore.Metal.Weighted>
-0.0000

> <Gold.Chemscore.Lipo.Weighted>
-8.1219

> <Gold.Chemscore.Internal_Hbond.Weighted>
0.0000

> <Gold.Chemscore.DEClash.Weighted>
2.3266

> <Gold.Chemscore.DEInternal.Weighted>
1.8098

> <Gold.Chemscore.Rot.Weighted>
3.2392

> <Gold.Chemscore.Internal.Correction.Weighted>
   9.000000E+99

> <Gold.Protein.RotatedTorsions>
[ 6907 6896 6895 6894 ] final  -56.52 input  -60.11 | X-H torsion
[ 7974 7965 7964 7962 ] final  -61.13 input  175.53 | X-H torsion
[ 8008 7997 7996 7995 ] final  126.92 input   59.86 | X-H torsion
[ 10167 10162 10161 10158 ] final   81.14 input  -65.29 | X-H torsion
[ 10718 10713 10712 10709 ] final  -11.55 input   66.30 | X-H torsion
[ 10763 10752 10751 10750 ] final  102.89 input  -60.55 | X-H torsion
[ 11005 11000 10999 10996 ] final   71.71 input  -57.11 | X-H torsion

> <Gold.Protein.ActiveResidues>
 VAL166  LYS551  ARG553  GLY616  TRP617  ASP618  TYR619  PRO620  LYS621  CYS622 
 ASP623  PHE694  ASN695  SER759  ASP760  ASP761  ALA762  ILE779  LEU786  VAL792 
 PHE793  MET794  SER795  GLU796  ALA797  LYS798  CYS799  TRP800  GLU811  SER814 

> <Gold.Protein.RotatedAtoms>
  150.8161  134.7344  159.6730 H   0  0  0  0  0  0  0  0  0  0  0  0  # atno 6907 bound_to 6896
  152.4280  134.5829  159.9962 H   0  0  0  0  0  0  0  0  0  0  0  0  # atno 6908 bound_to 6896
  151.6025  133.3317  159.3086 H   0  0  0  0  0  0  0  0  0  0  0  0  # atno 6909 bound_to 6896
  145.8072  140.8620  143.0201 H   0  0  0  0  0  0  0  0  0  0  0  0  # atno 7974 bound_to 7965
  156.2877  140.2681  156.2190 H   0  0  0  0  0  0  0  0  0  0  0  0  # atno 8008 bound_to 7997
  155.0188  140.0386  157.2447 H   0  0  0  0  0  0  0  0  0  0  0  0  # atno 8009 bound_to 7997
  154.7454  140.2733  155.6342 H   0  0  0  0  0  0  0  0  0  0  0  0  # atno 8010 bound_to 7997
  139.9424  144.6081  150.8239 H   0  0  0  0  0  0  0  0  0  0  0  0  # atno 10167 bound_to 10162
  156.6574  130.4972  149.6042 H   0  0  0  0  0  0  0  0  0  0  0  0  # atno 10718 bound_to 10713
  153.3455  135.3995  155.1606 H   0  0  0  0  0  0  0  0  0  0  0  0  # atno 10763 bound_to 10752
  154.8652  135.3644  154.5289 H   0  0  0  0  0  0  0  0  0  0  0  0  # atno 10764 bound_to 10752
  153.5737  135.7078  153.5553 H   0  0  0  0  0  0  0  0  0  0  0  0  # atno 10765 bound_to 10752
  139.9529  134.7195  156.0821 H   0  0  0  0  0  0  0  0  0  0  0  0  # atno 11005 bound_to 11000
  144.6761  140.0343  143.7482 LP  0  0  0  0  0  0  0  0  0  0  0  0  # atno 17320 bound_to 7965
  145.9816  139.2945  143.1038 LP  0  0  0  0  0  0  0  0  0  0  0  0  # atno 17321 bound_to 7965
  140.7607  143.3157  151.2738 LP  0  0  0  0  0  0  0  0  0  0  0  0  # atno 17342 bound_to 10162
  139.6694  144.0047  152.2743 LP  0  0  0  0  0  0  0  0  0  0  0  0  # atno 17343 bound_to 10162
  156.2037  130.6636  151.1195 LP  0  0  0  0  0  0  0  0  0  0  0  0  # atno 17370 bound_to 10713
  157.7121  131.0729  150.6463 LP  0  0  0  0  0  0  0  0  0  0  0  0  # atno 17371 bound_to 10713
  141.1195  133.6617  156.3179 LP  0  0  0  0  0  0  0  0  0  0  0  0  # atno 17394 bound_to 11000
  140.5677  134.5871  157.5450 LP  0  0  0  0  0  0  0  0  0  0  0  0  # atno 17395 bound_to 11000

$$$$
