#       Name:                AV-unprocessed.smi:1425
#       Creating user name   scv26
#       Creation time:       Fri Mar 27 05:45:46 2020


#       File generated by GOLD software.
#

@<TRIPOS>MOLECULE
AV-unprocessed.smi:1425
    39    40     1
SMALL
NO_CHARGES


@<TRIPOS>ATOM
      1 ****        -2.5161  -3.4671  -0.4322 C.3            1 S1                 0.0000
      2 ****        -3.3361  -2.1874  -0.4599 C.ar           1 S1                 0.0000
      3 ****        -4.7395  -2.2641  -0.3340 C.ar           1 S1                 0.0000
      4 ****        -5.4962  -1.0803  -0.3605 C.ar           1 S1                 0.0000
      5 ****        -4.8129   0.1383  -0.5130 C.ar           1 S1                 0.0000
      6 ****        -3.4721   0.2208  -0.6339 N.ar           1 S1                 0.0000
      7 ****        -2.7267  -0.9128  -0.6103 C.ar           1 S1                 0.0000
      8 ****        -1.3091  -0.9043  -0.7386 N.am           1 S1                 0.0000
      9 ****        -0.4868   0.1495  -0.8856 C.2            1 S1                 0.0000
     10 ****        -0.8353   1.3303  -0.9008 O.2            1 S1                 0.0000
     11 ****         0.7878  -0.2483  -1.0115 N.am           1 S1                 0.0000
     12 ****         1.9384   0.6315  -1.1947 C.3            1 S1                 0.0000
     13 ****         2.7143   0.8431   0.1191 C.3            1 S1                 0.0000
     14 ****         4.0019   1.6641  -0.0890 C.3            1 S1                 0.0000
     15 ****         4.5676   2.0456   1.2824 C.3            1 S1                 0.0000
     16 ****         3.1104   2.3022   2.3611 S.o2           1 S1                 0.0000
     17 ****         3.2542   1.4694   3.5648 O.2            1 S1                 0.0000
     18 ****         2.8248   3.7411   2.4654 O.2            1 S1                 0.0000
     19 ****         1.8949   1.5349   1.2230 C.3            1 S1                 0.0000
     20 ****        -3.1518  -4.3437  -0.3048 H              1 S1                 0.0000
     21 ****        -1.8042  -3.4469   0.3936 H              1 S1                 0.0000
     22 ****        -1.9635  -3.5869  -1.3645 H              1 S1                 0.0000
     23 ****        -5.2336  -3.2178  -0.2191 H              1 S1                 0.0000
     24 ****        -6.5717  -1.1057  -0.2669 H              1 S1                 0.0000
     25 ****        -5.3561   1.0712  -0.5393 H              1 S1                 0.0000
     26 ****        -0.8715  -1.8134  -0.7311 H              1 S1                 0.0000
     27 ****         0.9781  -1.2393  -0.9843 H              1 S1                 0.0000
     28 ****         2.5920   0.1661  -1.9330 H              1 S1                 0.0000
     29 ****         1.6369   1.5901  -1.6209 H              1 S1                 0.0000
     30 ****         3.0168  -0.1334   0.5002 H              1 S1                 0.0000
     31 ****         4.7365   1.1207  -0.6840 H              1 S1                 0.0000
     32 ****         3.7610   2.5764  -0.6363 H              1 S1                 0.0000
     33 ****         5.1567   1.2285   1.6996 H              1 S1                 0.0000
     34 ****         5.1836   2.9445   1.2574 H              1 S1                 0.0000
     35 ****         1.2779   2.3339   0.8105 H              1 S1                 0.0000
     36 ****         1.2491   0.8481   1.7703 H              1 S1                 0.0000
     37 ****        -3.0302   1.1116  -0.7402 LP             1 S1                 0.0000
     38 ****        -1.8012   1.5679  -0.7984 LP             1 S1                 0.0000
     39 ****        -0.1524   2.0518  -1.0155 LP             1 S1                 0.0000
@<TRIPOS>BOND
    1    1    2 1     
    2    1   20 1     
    3    1   21 1     
    4    1   22 1     
    5    2    7 ar    
    6    2    3 ar    
    7    3    4 ar    
    8    3   23 1     
    9    4    5 ar    
   10    4   24 1     
   11    5    6 ar    
   12    5   25 1     
   13    6    7 ar    
   14    7    8 1     
   15    8    9 am    
   16    8   26 1     
   17    9   10 2     
   18    9   11 am    
   19   11   12 1     
   20   11   27 1     
   21   12   13 1     
   22   12   28 1     
   23   12   29 1     
   24   13   19 1     
   25   13   14 1     
   26   13   30 1     
   27   14   15 1     
   28   14   31 1     
   29   14   32 1     
   30   15   16 1     
   31   15   33 1     
   32   15   34 1     
   33   16   17 2     
   34   16   18 2     
   35   16   19 1     
   36   19   35 1     
   37   19   36 1     
   38    6   37 1     
   39   10   38 1     
   40   10   39 1     
@<TRIPOS>SUBSTRUCTURE
      1 S1             1
@<TRIPOS>SET
LONE_PAIRS      STATIC     ATOMS    <user>   **** ""
5 37 38 39 17 18
DONOR_HYDROGENS      STATIC     ATOMS    <user>   **** ""
2 26 27
ATOM$BLUE        STATIC     ATOMS    COLORGROUP SYSTEM
5 37 38 39 17 18
ATOM$RED        STATIC     ATOMS    COLORGROUP SYSTEM
2 26 27
