AV-unprocessed.smi:2287|AV-procd|sdf|9205|dock3
  -GOLD-   2272012423D 1   1.00000     0.00000
 Structure written by MMmdl.
 38 39  0  0  0  0  0  0  0  0  2 V2000
  146.3190  134.3318  153.1651 C   0  0  0  0  0  0  0  0  0  0  0  0
  146.4285  134.7157  151.7388 N   0  3  0  0  0  0  0  0  0  0  0  0
  146.4602  133.5268  150.8584 C   0  0  0  0  0  0  0  0  0  0  0  0
  145.4005  135.6983  151.3119 C   0  0  0  0  0  0  0  0  0  0  0  0
  145.3899  136.9605  152.1897 C   0  0  0  0  0  0  0  0  0  0  0  0
  146.7453  137.3209  152.5849 N   0  0  0  0  0  0  0  0  0  0  0  0
  147.0507  138.3695  153.3607 C   0  0  0  0  0  0  0  0  0  0  0  0
  146.2079  139.1484  153.8043 O   0  0  0  0  0  0  0  0  0  0  0  0
  148.3762  138.4551  153.5653 N   0  0  0  0  0  0  0  0  0  0  0  0
  149.0896  139.3727  154.3832 C   0  0  0  0  0  0  0  0  0  0  0  0
  148.5028  140.3787  155.1909 C   0  0  0  0  0  0  0  0  0  0  0  0
  149.2517  141.1952  155.9634 N   0  0  0  0  0  0  0  0  0  0  0  0
  150.5753  141.0191  155.9282 C   0  0  0  0  0  0  0  0  0  0  0  0
  151.3938  141.8935  156.8271 C   0  0  0  0  0  0  0  0  0  0  0  0
  151.3220  141.7428  158.3329 C   0  0  0  0  0  0  0  0  0  0  0  0
  150.7402  142.9641  157.6769 C   0  0  0  0  0  0  0  0  0  0  0  0
  151.2364  140.0977  155.2223 N   0  0  0  0  0  0  0  0  0  0  0  0
  150.4957  139.2761  154.4481 C   0  0  0  0  0  0  0  0  0  0  0  0
  145.3578  133.8587  153.3705 H   0  0  0  0  0  0  0  0  0  0  0  0
  146.4235  135.1947  153.8218 H   0  0  0  0  0  0  0  0  0  0  0  0
  147.1070  133.6270  153.4329 H   0  0  0  0  0  0  0  0  0  0  0  0
  145.5134  132.9867  150.8975 H   0  0  0  0  0  0  0  0  0  0  0  0
  147.2559  132.8441  151.1587 H   0  0  0  0  0  0  0  0  0  0  0  0
  146.6483  133.8152  149.8237 H   0  0  0  0  0  0  0  0  0  0  0  0
  145.6079  136.0027  150.2846 H   0  0  0  0  0  0  0  0  0  0  0  0
  144.4174  135.2244  151.3017 H   0  0  0  0  0  0  0  0  0  0  0  0
  144.9539  137.8066  151.6583 H   0  0  0  0  0  0  0  0  0  0  0  0
  144.7808  136.7871  153.0787 H   0  0  0  0  0  0  0  0  0  0  0  0
  147.4967  136.7332  152.2543 H   0  0  0  0  0  0  0  0  0  0  0  0
  148.9476  137.7878  153.0679 H   0  0  0  0  0  0  0  0  0  0  0  0
  147.4375  140.5337  155.2537 H   0  0  0  0  0  0  0  0  0  0  0  0
  152.3627  142.1171  156.3847 H   0  0  0  0  0  0  0  0  0  0  0  0
  150.6246  141.0125  158.7386 H   0  0  0  0  0  0  0  0  0  0  0  0
  152.2475  141.8641  158.8922 H   0  0  0  0  0  0  0  0  0  0  0  0
  151.2757  143.9035  157.7973 H   0  0  0  0  0  0  0  0  0  0  0  0
  149.6553  143.0464  157.6464 H   0  0  0  0  0  0  0  0  0  0  0  0
  151.0324  138.5317  153.8781 H   0  0  0  0  0  0  0  0  0  0  0  0
  147.3242  135.1692  151.6255 H   0  0  0  0  0  0  0  0  0  0  0  0
  1  2  1  0  0  0  0
  1 19  1  0  0  0  0
  1 20  1  0  0  0  0
  1 21  1  0  0  0  0
  2  3  1  0  0  0  0
  2  4  1  0  0  0  0
  2 38  1  0  0  0  0
  3 22  1  0  0  0  0
  3 23  1  0  0  0  0
  3 24  1  0  0  0  0
  4  5  1  0  0  0  0
  4 25  1  0  0  0  0
  4 26  1  0  0  0  0
  5  6  1  0  0  0  0
  5 27  1  0  0  0  0
  5 28  1  0  0  0  0
  6  7  1  0  0  0  0
  6 29  1  0  0  0  0
  7  8  2  0  0  0  0
  7  9  1  0  0  0  0
  9 10  1  0  0  0  0
  9 30  1  0  0  0  0
 10 18  1  0  0  0  0
 10 11  2  0  0  0  0
 11 12  1  0  0  0  0
 11 31  1  0  0  0  0
 12 13  2  0  0  0  0
 13 14  1  0  0  0  0
 13 17  1  0  0  0  0
 14 16  1  0  0  0  0
 14 15  1  0  0  0  0
 14 32  1  0  0  0  0
 15 16  1  0  0  0  0
 15 33  1  0  0  0  0
 15 34  1  0  0  0  0
 16 35  1  0  0  0  0
 16 36  1  0  0  0  0
 17 18  2  0  0  0  0
 18 37  1  0  0  0  0
M  CHG  1   2   1
M  END
> <s_m_source_file>
AV-unprocessed.smi

> <i_m_source_file_index>
2287

> <i_lp_mmshare_version>
43012

> <i_f3d_flags>
0

> <s_epik_input>
W0NIM11OKFtDSDNdKVtDSDJdW0NIMl1bTkhdQyg9TylbTkhdYzFbY0hdbmMobltjSF0xKVtDSF0yW0NIMl1bQ0gyXTI=

> <s_epik_cmdline>
J2VwaWtfcHl0aG9uJywgJy1waCcsICc3LjAnLCAnLXRuJywgJzgnLCAnLW1hJywgJzIwMCcsICctbWV0YWxfYmluZGluZycsICctaW1hZScsICc8aW5maWxlLm1hZT4nLCAnLW9tYWUnLCAnPG91dGZpbGUubWFlPic=

> <r_lp_tautomer_probability>
1

> <r_epik_Ionization_Penalty>
0.00435795

> <r_epik_Ionization_Penalty_Charging>
0.00433655

> <r_epik_Ionization_Penalty_Neutral>
2.14019e-05

> <r_epik_State_Penalty>
0.00312208

> <r_epik_Charging_Adjusted_Penalty>
0.00745864

> <i_epik_Tot_Q>
1

> <i_epik_Tot_abs_Q>
1

> <r_epik_Metal_State_Penalty>
-0

> <b_epik_Metal_Only>
0

> <s_lp_Force_Field>
OPLS_2005

> <r_lp_Energy>
7.96618

> <b_lp_Chiralities_Consistent>
1

> <s_lp_Variant>
AV-unprocessed.smi:2287-1

> <Gold.Version>
5.8.1

> <Gold.Id.Protein>
6NUR|6NUR_protein|mol2

> <Gold.PLP.Fitness>
40.8711

> <Gold.PLP.PLP>
-28.9631

> <Gold.PLP.part.hbond>
-4.7562

> <Gold.PLP.part.metal>
0.0000

> <Gold.PLP.part.buried>
-4.4644

> <Gold.PLP.part.nonpolar>
-20.9053

> <Gold.PLP.part.repulsive>
0.4073

> <Gold.PLP.ligand.clash>
0.0000

> <Gold.PLP.ligand.torsion>
0.2204

> <Gold.PLP.Chemscore.Hbond>
4.0440

> <Gold.PLP.Chemscore.CHOScore>
0.0000

> <Gold.PLP.Chemscore.Metal>
0.0000

> <Gold.Chemscore.Hbonds>
donor molecule, donor type, donor heavy atom, donor atom, acceptor molecule, acceptor atom, score
      L1  H     2    38       P1  7948  2.00
      L1  H     6    29       P1  7948  1.00
      L1  H     9    30       P1  7948  0.94
      P1  H  7989  7998       L1    17  0.10

> <Gold.PLP.Chemscore.Internal.Correction>
0.2168

> <Gold.Rescore>
     Score         DG    S(hbond)    S(metal)    S(lipo)     H(rot)  DE(clash)    DE(int)     intcor
     16.39     -17.90       2.87        0.00      61.91       1.73       0.14       1.37       ----

> <Gold.Chemscore.Fitness>
16.3889

> <Gold.Chemscore.DG>
-17.8954

> <Gold.Chemscore.ZeroCoef>
-5.4800

> <Gold.Chemscore.Hbond>
2.8714

> <Gold.Chemscore.Metal>
0.0000

> <Gold.Chemscore.Lipo>
61.9112

> <Gold.Chemscore.Internal_Hbond>
0.0000

> <Gold.Chemscore.DEClash>
0.1363

> <Gold.Chemscore.DEInternal>
1.3702

> <Gold.Chemscore.Rot>
1.7260

> <Gold.Chemscore.Internal.Correction>
   9.000000E+99

> <Gold.Chemscore.Hbonds>
donor molecule, donor type, donor heavy atom, donor atom, acceptor molecule, acceptor atom, score
      L1  H     2    38       P1  7948  0.88
      L1  H     6    29       P1  7948  0.97
      L1  H     9    30       P1  7948  0.90

> <Gold.Chemscore.Hbond.Weighted>
-9.5904

> <Gold.Chemscore.Metal.Weighted>
-0.0000

> <Gold.Chemscore.Lipo.Weighted>
-7.2436

> <Gold.Chemscore.Internal_Hbond.Weighted>
0.0000

> <Gold.Chemscore.DEClash.Weighted>
0.1363

> <Gold.Chemscore.DEInternal.Weighted>
1.3702

> <Gold.Chemscore.Rot.Weighted>
4.4186

> <Gold.Chemscore.Internal.Correction.Weighted>
   9.000000E+99

> <Gold.Protein.RotatedTorsions>
[ 6907 6896 6895 6894 ] final  164.39 input  -60.11 | X-H torsion
[ 7974 7965 7964 7962 ] final  -24.78 input  175.53 | X-H torsion
[ 8008 7997 7996 7995 ] final  -38.04 input   59.86 | X-H torsion
[ 10167 10162 10161 10158 ] final  158.06 input  -65.29 | X-H torsion
[ 10718 10713 10712 10709 ] final   61.26 input   66.30 | X-H torsion
[ 10763 10752 10751 10750 ] final   23.98 input  -60.55 | X-H torsion
[ 11005 11000 10999 10996 ] final  160.41 input  -57.11 | X-H torsion

> <Gold.Protein.ActiveResidues>
 VAL166  LYS551  ARG553  GLY616  TRP617  ASP618  TYR619  PRO620  LYS621  CYS622 
 ASP623  PHE694  ASN695  SER759  ASP760  ASP761  ALA762  ILE779  LEU786  VAL792 
 PHE793  MET794  SER795  GLU796  ALA797  LYS798  CYS799  TRP800  GLU811  SER814 

> <Gold.Protein.RotatedAtoms>
  151.9107  133.3560  159.3862 H   0  0  0  0  0  0  0  0  0  0  0  0  # atno 6907 bound_to 6896
  150.7059  134.4735  159.5446 H   0  0  0  0  0  0  0  0  0  0  0  0  # atno 6908 bound_to 6896
  152.2341  134.8293  160.0520 H   0  0  0  0  0  0  0  0  0  0  0  0  # atno 6909 bound_to 6896
  146.1533  140.4798  142.8602 H   0  0  0  0  0  0  0  0  0  0  0  0  # atno 7974 bound_to 7965
  154.4043  140.1588  156.2635 H   0  0  0  0  0  0  0  0  0  0  0  0  # atno 8008 bound_to 7997
  155.9016  140.3433  155.6008 H   0  0  0  0  0  0  0  0  0  0  0  0  # atno 8009 bound_to 7997
  155.7442  140.0796  157.2222 H   0  0  0  0  0  0  0  0  0  0  0  0  # atno 8010 bound_to 7997
  139.4825  144.4859  151.8378 H   0  0  0  0  0  0  0  0  0  0  0  0  # atno 10167 bound_to 10162
  157.5814  130.8985  149.9439 H   0  0  0  0  0  0  0  0  0  0  0  0  # atno 10718 bound_to 10713
  153.0797  135.6615  154.0070 H   0  0  0  0  0  0  0  0  0  0  0  0  # atno 10763 bound_to 10752
  153.9695  135.2966  155.3429 H   0  0  0  0  0  0  0  0  0  0  0  0  # atno 10764 bound_to 10752
  154.7194  135.5171  153.8859 H   0  0  0  0  0  0  0  0  0  0  0  0  # atno 10765 bound_to 10752
  140.2056  134.8305  157.3066 H   0  0  0  0  0  0  0  0  0  0  0  0  # atno 11005 bound_to 11000
  144.7931  140.6071  143.6528 LP  0  0  0  0  0  0  0  0  0  0  0  0  # atno 17320 bound_to 7965
  145.4770  139.1498  143.3783 LP  0  0  0  0  0  0  0  0  0  0  0  0  # atno 17321 bound_to 7965
  140.4339  144.2078  150.5888 LP  0  0  0  0  0  0  0  0  0  0  0  0  # atno 17342 bound_to 10162
  140.4751  143.2399  151.9034 LP  0  0  0  0  0  0  0  0  0  0  0  0  # atno 17343 bound_to 10162
  156.0861  130.3668  150.0485 LP  0  0  0  0  0  0  0  0  0  0  0  0  # atno 17370 bound_to 10713
  156.8624  130.9496  151.3617 LP  0  0  0  0  0  0  0  0  0  0  0  0  # atno 17371 bound_to 10713
  140.2006  134.4259  155.7665 LP  0  0  0  0  0  0  0  0  0  0  0  0  # atno 17394 bound_to 11000
  141.2227  133.7070  156.8177 LP  0  0  0  0  0  0  0  0  0  0  0  0  # atno 17395 bound_to 11000

$$$$
