AV-unprocessed.smi:897|AV-procd|sdf|4079|dock9
  -GOLD-   22720 1563D 1   1.00000     0.00000
 Structure written by MMmdl.
 35 37  0  0  0  0  0  0  0  0  1 V2000
  152.7225  143.6618  159.0341 C   0  0  0  0  0  0  0  0  0  0  0  0
  152.8221  142.1742  159.2981 C   0  0  0  0  0  0  0  0  0  0  0  0
  153.6042  141.6765  160.3568 C   0  0  0  0  0  0  0  0  0  0  0  0
  153.6631  140.2824  160.5569 C   0  0  0  0  0  0  0  0  0  0  0  0
  154.5102  139.7329  161.6946 C   0  0  0  0  0  0  0  0  0  0  0  0
  152.9278  139.4364  159.6858 C   0  0  0  0  0  0  0  0  0  0  0  0
  152.9576  137.9854  159.8625 C   0  0  0  0  0  0  0  0  0  0  0  0
  152.9808  136.8371  160.0025 N   0  0  0  0  0  0  0  0  0  0  0  0
  152.1650  140.0369  158.6461 C   0  0  0  0  0  0  0  0  0  0  0  0
  151.4217  139.2405  157.7546 N   0  0  0  0  0  0  0  0  0  0  0  0
  150.3962  139.8117  156.8879 C   0  0  2  0  0  0  0  0  0  0  0  0
  149.7785  138.7855  155.9291 C   0  0  0  0  0  0  0  0  0  0  0  0
  150.0285  139.4362  154.5632 C   0  0  1  0  0  0  0  0  0  0  0  0
  149.1818  140.6995  154.3561 C   0  0  0  0  0  0  0  0  0  0  0  0
  149.8796  141.6980  155.2794 C   0  0  0  0  0  0  0  0  0  0  0  0
  150.9851  140.8342  155.9013 C   0  0  2  0  0  0  0  0  0  0  0  0
  151.3035  140.0091  154.7918 O   0  0  0  0  0  0  0  0  0  0  0  0
  152.1226  141.3786  158.4645 N   0  0  0  0  0  0  0  0  0  0  0  0
  153.3899  144.2254  159.6870 H   0  0  0  0  0  0  0  0  0  0  0  0
  151.7032  144.0089  159.2062 H   0  0  0  0  0  0  0  0  0  0  0  0
  152.9922  143.8839  158.0012 H   0  0  0  0  0  0  0  0  0  0  0  0
  154.1486  142.3509  161.0016 H   0  0  0  0  0  0  0  0  0  0  0  0
  153.8887  139.1872  162.4050 H   0  0  0  0  0  0  0  0  0  0  0  0
  155.0152  140.5329  162.2362 H   0  0  0  0  0  0  0  0  0  0  0  0
  155.2743  139.0565  161.3109 H   0  0  0  0  0  0  0  0  0  0  0  0
  151.4528  138.2358  157.8525 H   0  0  0  0  0  0  0  0  0  0  0  0
  149.6352  140.2931  157.5040 H   0  0  0  0  0  0  0  0  0  0  0  0
  150.2899  137.8231  155.9845 H   0  0  0  0  0  0  0  0  0  0  0  0
  148.7190  138.6158  156.1228 H   0  0  0  0  0  0  0  0  0  0  0  0
  149.9937  138.7364  153.7279 H   0  0  0  0  0  0  0  0  0  0  0  0
  149.2324  141.0375  153.3205 H   0  0  0  0  0  0  0  0  0  0  0  0
  148.1342  140.5420  154.6149 H   0  0  0  0  0  0  0  0  0  0  0  0
  150.3089  142.5172  154.7015 H   0  0  0  0  0  0  0  0  0  0  0  0
  149.2108  142.1235  156.0285 H   0  0  0  0  0  0  0  0  0  0  0  0
  151.8219  141.4138  156.2932 H   0  0  0  0  0  0  0  0  0  0  0  0
  1  2  1  0  0  0  0
  1 19  1  0  0  0  0
  1 20  1  0  0  0  0
  1 21  1  0  0  0  0
  2 18  1  0  0  0  0
  2  3  2  0  0  0  0
  3  4  1  0  0  0  0
  3 22  1  0  0  0  0
  4  5  1  0  0  0  0
  4  6  2  0  0  0  0
  5 23  1  0  0  0  0
  5 24  1  0  0  0  0
  5 25  1  0  0  0  0
  6  7  1  0  0  0  0
  6  9  1  0  0  0  0
  7  8  3  0  0  0  0
  9 10  1  0  0  0  0
  9 18  2  0  0  0  0
 10 11  1  0  0  0  0
 10 26  1  0  0  0  0
 11 16  1  0  0  0  0
 11 12  1  0  0  0  0
 11 27  1  0  0  0  0
 12 13  1  0  0  0  0
 12 28  1  0  0  0  0
 12 29  1  0  0  0  0
 13 17  1  0  0  0  0
 13 14  1  0  0  0  0
 13 30  1  0  0  0  0
 14 15  1  0  0  0  0
 14 31  1  0  0  0  0
 14 32  1  0  0  0  0
 15 16  1  0  0  0  0
 15 33  1  0  0  0  0
 15 34  1  0  0  0  0
 16 17  1  0  0  0  0
 16 35  1  0  0  0  0
M  END
> <s_m_source_file>
AV-unprocessed.smi

> <i_m_source_file_index>
897

> <i_lp_mmshare_version>
43012

> <i_f3d_flags>
0

> <s_epik_input>
W0NIM11jMVtjSF1jKFtDSDNdKWMoQyNOKWMobjEpW05IXVtDQEhdKFtDSDJdW0NAQEhdMjMpW0NAQEhdKE8zKVtDSDJdW0NIMl0y

> <s_epik_cmdline>
J2VwaWtfcHl0aG9uJywgJy1waCcsICc3LjAnLCAnLXRuJywgJzgnLCAnLW1hJywgJzIwMCcsICctbWV0YWxfYmluZGluZycsICctaW1hZScsICc8aW5maWxlLm1hZT4nLCAnLW9tYWUnLCAnPG91dGZpbGUubWFlPic=

> <r_lp_tautomer_probability>
1

> <r_epik_Ionization_Penalty>
0.000502654

> <r_epik_Ionization_Penalty_Charging>
0

> <r_epik_Ionization_Penalty_Neutral>
0.000502654

> <r_epik_State_Penalty>
-0

> <r_epik_Charging_Adjusted_Penalty>
0

> <i_epik_Tot_Q>
0

> <i_epik_Tot_abs_Q>
0

> <r_epik_Metal_State_Penalty>
-0

> <b_epik_Metal_Only>
0

> <s_lp_Force_Field>
OPLS_2005

> <r_lp_Energy>
43.6406

> <b_lp_Chiralities_Consistent>
1

> <s_lp_Variant>
AV-unprocessed.smi:897-1

> <Gold.Version>
5.8.1

> <Gold.Id.Protein>
6NUR|6NUR_protein|mol2

> <Gold.PLP.Fitness>
42.2416

> <Gold.PLP.PLP>
-36.3648

> <Gold.PLP.part.hbond>
-1.9702

> <Gold.PLP.part.metal>
0.0000

> <Gold.PLP.part.buried>
-3.9268

> <Gold.PLP.part.nonpolar>
-31.1295

> <Gold.PLP.part.repulsive>
0.1214

> <Gold.PLP.ligand.clash>
0.0000

> <Gold.PLP.ligand.torsion>
0.0586

> <Gold.PLP.Chemscore.Hbond>
1.9913

> <Gold.PLP.Chemscore.CHOScore>
0.0000

> <Gold.PLP.Chemscore.Metal>
0.0000

> <Gold.Chemscore.Hbonds>
donor molecule, donor type, donor heavy atom, donor atom, acceptor molecule, acceptor atom, score
      P1  H  6896  6909       L1     8  1.00
      P1  H  7989  7998       L1    17  1.00

> <Gold.PLP.Chemscore.Internal.Correction>
0.0202

> <Gold.Rescore>
     Score         DG    S(hbond)    S(metal)    S(lipo)     H(rot)  DE(clash)    DE(int)     intcor
     17.88     -19.26       1.70        0.00      91.03       1.00       0.00       1.38       ----

> <Gold.Chemscore.Fitness>
17.8766

> <Gold.Chemscore.DG>
-19.2558

> <Gold.Chemscore.ZeroCoef>
-5.4800

> <Gold.Chemscore.Hbond>
1.7023

> <Gold.Chemscore.Metal>
0.0000

> <Gold.Chemscore.Lipo>
91.0265

> <Gold.Chemscore.Internal_Hbond>
0.0000

> <Gold.Chemscore.DEClash>
0.0000

> <Gold.Chemscore.DEInternal>
1.3792

> <Gold.Chemscore.Rot>
1.0000

> <Gold.Chemscore.Internal.Correction>
   9.000000E+99

> <Gold.Chemscore.Hbonds>
donor molecule, donor type, donor heavy atom, donor atom, acceptor molecule, acceptor atom, score
      P1  H  6896  6909       L1     8  0.94
      P1  H  7989  7998       L1    17  0.44

> <Gold.Chemscore.Hbond.Weighted>
-5.6857

> <Gold.Chemscore.Metal.Weighted>
-0.0000

> <Gold.Chemscore.Lipo.Weighted>
-10.6501

> <Gold.Chemscore.Internal_Hbond.Weighted>
0.0000

> <Gold.Chemscore.DEClash.Weighted>
0.0000

> <Gold.Chemscore.DEInternal.Weighted>
1.3792

> <Gold.Chemscore.Rot.Weighted>
2.5600

> <Gold.Chemscore.Internal.Correction.Weighted>
   9.000000E+99

> <Gold.Protein.RotatedTorsions>
[ 6907 6896 6895 6894 ] final  145.13 input  -60.11 | X-H torsion
[ 7974 7965 7964 7962 ] final -116.41 input  175.53 | X-H torsion
[ 8008 7997 7996 7995 ] final  134.26 input   59.86 | X-H torsion
[ 10167 10162 10161 10158 ] final  165.49 input  -65.29 | X-H torsion
[ 10718 10713 10712 10709 ] final   63.51 input   66.30 | X-H torsion
[ 10763 10752 10751 10750 ] final  -78.27 input  -60.55 | X-H torsion
[ 11005 11000 10999 10996 ] final   12.42 input  -57.11 | X-H torsion

> <Gold.Protein.ActiveResidues>
 VAL166  LYS551  ARG553  GLY616  TRP617  ASP618  TYR619  PRO620  LYS621  CYS622 
 ASP623  PHE694  ASN695  SER759  ASP760  ASP761  ALA762  ILE779  LEU786  VAL792 
 PHE793  MET794  SER795  GLU796  ALA797  LYS798  CYS799  TRP800  GLU811  SER814 

> <Gold.Protein.RotatedAtoms>
  152.1849  133.4732  159.4976 H   0  0  0  0  0  0  0  0  0  0  0  0  # atno 6907 bound_to 6896
  150.6941  134.1787  159.4249 H   0  0  0  0  0  0  0  0  0  0  0  0  # atno 6908 bound_to 6896
  151.9699  135.0081  160.0603 H   0  0  0  0  0  0  0  0  0  0  0  0  # atno 6909 bound_to 6896
  145.0971  140.8528  143.3948 H   0  0  0  0  0  0  0  0  0  0  0  0  # atno 7974 bound_to 7965
  156.2998  140.2500  156.3388 H   0  0  0  0  0  0  0  0  0  0  0  0  # atno 8008 bound_to 7997
  154.9075  140.0404  157.1947 H   0  0  0  0  0  0  0  0  0  0  0  0  # atno 8009 bound_to 7997
  154.8439  140.2895  155.5646 H   0  0  0  0  0  0  0  0  0  0  0  0  # atno 8010 bound_to 7997
  139.4907  144.4127  151.9280 H   0  0  0  0  0  0  0  0  0  0  0  0  # atno 10167 bound_to 10162
  157.5976  130.9109  149.9725 H   0  0  0  0  0  0  0  0  0  0  0  0  # atno 10718 bound_to 10713
  154.5238  135.5735  153.6702 H   0  0  0  0  0  0  0  0  0  0  0  0  # atno 10763 bound_to 10752
  152.9923  135.6188  154.2720 H   0  0  0  0  0  0  0  0  0  0  0  0  # atno 10764 bound_to 10752
  154.2642  135.2855  155.2745 H   0  0  0  0  0  0  0  0  0  0  0  0  # atno 10765 bound_to 10752
  140.4921  134.0830  155.7774 H   0  0  0  0  0  0  0  0  0  0  0  0  # atno 11005 bound_to 11000
  145.0998  139.2830  143.5692 LP  0  0  0  0  0  0  0  0  0  0  0  0  # atno 17320 bound_to 7965
  146.3530  140.0562  142.8632 LP  0  0  0  0  0  0  0  0  0  0  0  0  # atno 17321 bound_to 7965
  140.3569  144.3021  150.5940 LP  0  0  0  0  0  0  0  0  0  0  0  0  # atno 17342 bound_to 10162
  140.5437  143.2219  151.8042 LP  0  0  0  0  0  0  0  0  0  0  0  0  # atno 17343 bound_to 10162
  156.1042  130.3654  150.0163 LP  0  0  0  0  0  0  0  0  0  0  0  0  # atno 17370 bound_to 10713
  156.8273  130.9380  151.3638 LP  0  0  0  0  0  0  0  0  0  0  0  0  # atno 17371 bound_to 10713
  141.1479  133.9023  157.2171 LP  0  0  0  0  0  0  0  0  0  0  0  0  # atno 17394 bound_to 11000
  139.9763  135.0113  156.9639 LP  0  0  0  0  0  0  0  0  0  0  0  0  # atno 17395 bound_to 11000

$$$$
