#       Name:                AV-unprocessed.smi:430
#       Creating user name   scv26
#       Creation time:       Thu Mar 26 22:51:04 2020


#       File generated by GOLD software.
#

@<TRIPOS>MOLECULE
AV-unprocessed.smi:430
    43    44     1
SMALL
NO_CHARGES


@<TRIPOS>ATOM
      1 ****        -5.1089   2.0844   2.1412 C.3            1 S1                 0.0000
      2 ****        -3.9874   1.3755   2.9167 C.3            1 S1                 0.0000
      3 ****        -2.5780   1.7788   2.4712 C.2            1 S1                 0.0000
      4 ****        -2.4061   2.6228   1.5909 O.2            1 S1                 0.0000
      5 ****        -1.5679   1.1562   3.0973 N.am           1 S1                 0.0000
      6 ****        -0.1498   1.3923   2.8425 C.3            1 S1                 0.0000
      7 ****         0.4065   0.7060   1.6014 C.ar           1 S1                 0.0000
      8 ****         1.5883   1.1873   1.0064 C.ar           1 S1                 0.0000
      9 ****         2.1003   0.5378  -0.1329 C.ar           1 S1                 0.0000
     10 ****         1.4132  -0.5869  -0.6557 C.ar           1 S1                 0.0000
     11 ****         1.8754  -1.2909  -1.7909 N.3            1 S1                 0.0000
     12 ****         3.1773  -0.9391  -2.3517 C.3            1 S1                 0.0000
     13 ****         3.6453  -2.0139  -3.3474 C.3            1 S1                 0.0000
     14 ****         2.6478  -2.2147  -4.3422 O.3            1 S1                 0.0000
     15 ****         1.4300  -2.6866  -3.7767 C.3            1 S1                 0.0000
     16 ****         0.8711  -1.6430  -2.7944 C.3            1 S1                 0.0000
     17 ****         0.2792  -1.0492  -0.0755 N.ar           1 S1                 0.0000
     18 ****        -0.2056  -0.4240   1.0176 C.ar           1 S1                 0.0000
     19 ****        -6.0865   1.7734   2.5092 H              1 S1                 0.0000
     20 ****        -5.0679   1.8487   1.0772 H              1 S1                 0.0000
     21 ****        -5.0467   3.1677   2.2506 H              1 S1                 0.0000
     22 ****        -4.0893   1.5914   3.9807 H              1 S1                 0.0000
     23 ****        -4.0938   0.2958   2.8043 H              1 S1                 0.0000
     24 ****        -1.7967   0.4758   3.8076 H              1 S1                 0.0000
     25 ****         0.0365   2.4658   2.7788 H              1 S1                 0.0000
     26 ****         0.4108   1.0349   3.7062 H              1 S1                 0.0000
     27 ****         2.0993   2.0462   1.4163 H              1 S1                 0.0000
     28 ****         3.0016   0.9233  -0.5845 H              1 S1                 0.0000
     29 ****         3.1055   0.0283  -2.8504 H              1 S1                 0.0000
     30 ****         3.9203  -0.8489  -1.5585 H              1 S1                 0.0000
     31 ****         4.5708  -1.6998  -3.8300 H              1 S1                 0.0000
     32 ****         3.8575  -2.9535  -2.8346 H              1 S1                 0.0000
     33 ****         0.7137  -2.8673  -4.5781 H              1 S1                 0.0000
     34 ****         1.5942  -3.6424  -3.2762 H              1 S1                 0.0000
     35 ****        -0.0331  -2.0442  -2.3367 H              1 S1                 0.0000
     36 ****         0.5820  -0.7398  -3.3330 H              1 S1                 0.0000
     37 ****        -1.1071  -0.8490   1.4332 H              1 S1                 0.0000
     38 ****        -3.1938   3.0573   1.1541 LP             1 S1                 0.0000
     39 ****        -1.4789   2.8736   1.3129 LP             1 S1                 0.0000
     40 ****         2.0867  -2.1525  -1.3294 LP             1 S1                 0.0000
     41 ****         2.9801  -2.8869  -5.0037 LP             1 S1                 0.0000
     42 ****         2.4744  -1.3467  -4.8075 LP             1 S1                 0.0000
     43 ****        -0.1934  -1.8453  -0.4535 LP             1 S1                 0.0000
@<TRIPOS>BOND
    1    1    2 1     
    2    1   19 1     
    3    1   20 1     
    4    1   21 1     
    5    2    3 1     
    6    2   22 1     
    7    2   23 1     
    8    3    4 2     
    9    3    5 am    
   10    5    6 1     
   11    5   24 1     
   12    6    7 1     
   13    6   25 1     
   14    6   26 1     
   15    7   18 ar    
   16    7    8 ar    
   17    8    9 ar    
   18    8   27 1     
   19    9   10 ar    
   20    9   28 1     
   21   10   11 1     
   22   10   17 ar    
   23   11   16 1     
   24   11   12 1     
   25   12   13 1     
   26   12   29 1     
   27   12   30 1     
   28   13   14 1     
   29   13   31 1     
   30   13   32 1     
   31   14   15 1     
   32   15   16 1     
   33   15   33 1     
   34   15   34 1     
   35   16   35 1     
   36   16   36 1     
   37   17   18 ar    
   38   18   37 1     
   39    4   38 1     
   40    4   39 1     
   41   11   40 1     
   42   14   41 1     
   43   14   42 1     
   44   17   43 1     
@<TRIPOS>SUBSTRUCTURE
      1 S1             1
@<TRIPOS>SET
LONE_PAIRS      STATIC     ATOMS    <user>   **** ""
6 38 39 40 41 42 43
DONOR_HYDROGENS      STATIC     ATOMS    <user>   **** ""
1 24
ATOM$BLUE        STATIC     ATOMS    COLORGROUP SYSTEM
6 38 39 40 41 42 43
ATOM$RED        STATIC     ATOMS    COLORGROUP SYSTEM
1 24
