#       Name:                AV-unprocessed.smi:2770
#       Creating user name   scv26
#       Creation time:       Fri Mar 27 15:10:53 2020


#       File generated by GOLD software.
#

@<TRIPOS>MOLECULE
AV-unprocessed.smi:2770
    40    41     1
SMALL
NO_CHARGES


@<TRIPOS>ATOM
      1 ****        -4.6638  -3.3899  -0.0666 C.3            1 S1                 0.0000
      2 ****        -3.2515  -3.0428  -0.0274 N.am           1 S1                 0.0000
      3 ****        -2.7760  -1.7934  -0.1344 C.2            1 S1                 0.0000
      4 ****        -3.5030  -0.8099  -0.2798 O.2            1 S1                 0.0000
      5 ****        -1.2500  -1.6425  -0.0859 C.3            1 S1                 0.0000
      6 ****        -0.7961  -0.1679   0.0054 C.3            1 S1                 0.0000
      7 ****         0.6525  -0.0952   0.1438 N.3            1 S1                 0.0000
      8 ****         1.1434   1.2168   0.1297 C.ar           1 S1                 0.0000
      9 ****         0.8399   2.1742   1.1257 C.ar           1 S1                 0.0000
     10 ****         1.3831   3.4716   1.0238 C.ar           1 S1                 0.0000
     11 ****         2.2181   3.7875  -0.0674 C.ar           1 S1                 0.0000
     12 ****         2.4897   2.7965  -1.0342 C.ar           1 S1                 0.0000
     13 ****         3.3745   3.0561  -2.2349 C.3            1 S1                 0.0000
     14 ****         1.9480   1.5654  -0.8990 N.pl3          1 S1                 1.0000
     15 ****         1.1491  -0.8826   1.2640 C.3            1 S1                 0.0000
     16 ****         0.6588  -2.3346   1.1404 C.3            1 S1                 0.0000
     17 ****        -0.7629  -2.3493   1.0552 O.3            1 S1                 0.0000
     18 ****        -4.7825  -4.4722  -0.0146 H              1 S1                 0.0000
     19 ****        -5.1259  -3.0406  -0.9910 H              1 S1                 0.0000
     20 ****        -5.1948  -2.9474   0.7770 H              1 S1                 0.0000
     21 ****        -2.5920  -3.7984   0.0913 H              1 S1                 0.0000
     22 ****        -0.8437  -2.0977  -0.9912 H              1 S1                 0.0000
     23 ****        -1.1004   0.3756  -0.8904 H              1 S1                 0.0000
     24 ****        -1.2708   0.3203   0.8581 H              1 S1                 0.0000
     25 ****         0.1993   1.9225   1.9583 H              1 S1                 0.0000
     26 ****         1.1613   4.2159   1.7744 H              1 S1                 0.0000
     27 ****         2.6420   4.7772  -0.1584 H              1 S1                 0.0000
     28 ****         3.7303   4.0869  -2.2457 H              1 S1                 0.0000
     29 ****         2.8238   2.8766  -3.1588 H              1 S1                 0.0000
     30 ****         4.2426   2.3964  -2.2172 H              1 S1                 0.0000
     31 ****         2.2393  -0.8551   1.2808 H              1 S1                 0.0000
     32 ****         0.7997  -0.4527   2.2038 H              1 S1                 0.0000
     33 ****         1.0916  -2.8206   0.2644 H              1 S1                 0.0000
     34 ****         0.9688  -2.9125   2.0110 H              1 S1                 0.0000
     35 ****         2.1565   0.8642  -1.6102 H              1 S1                 0.0000
     36 ****        -4.4955  -0.9238  -0.3228 LP             1 S1                 0.0000
     37 ****        -3.1007   0.1026  -0.3549 LP             1 S1                 0.0000
     38 ****         1.0275  -0.5236  -0.6783 LP             1 S1                 0.0000
     39 ****        -1.0709  -3.2990   0.9997 LP             1 S1                 0.0000
     40 ****        -1.1379  -1.9249   1.8794 LP             1 S1                 0.0000
@<TRIPOS>BOND
    1    1    2 1     
    2    1   18 1     
    3    1   19 1     
    4    1   20 1     
    5    2    3 am    
    6    2   21 1     
    7    3    4 2     
    8    3    5 1     
    9    5   17 1     
   10    5    6 1     
   11    5   22 1     
   12    6    7 1     
   13    6   23 1     
   14    6   24 1     
   15    7    8 1     
   16    7   15 1     
   17    8   14 ar    
   18    8    9 ar    
   19    9   10 ar    
   20    9   25 1     
   21   10   11 ar    
   22   10   26 1     
   23   11   12 ar    
   24   11   27 1     
   25   12   13 1     
   26   12   14 ar    
   27   13   28 1     
   28   13   29 1     
   29   13   30 1     
   30   14   35 1     
   31   15   16 1     
   32   15   31 1     
   33   15   32 1     
   34   16   17 1     
   35   16   33 1     
   36   16   34 1     
   37    4   36 1     
   38    4   37 1     
   39    7   38 1     
   40   17   39 1     
   41   17   40 1     
@<TRIPOS>SUBSTRUCTURE
      1 S1             1
@<TRIPOS>SET
LONE_PAIRS      STATIC     ATOMS    <user>   **** ""
5 36 37 38 39 40
DONOR_HYDROGENS      STATIC     ATOMS    <user>   **** ""
2 21 35
ATOM$BLUE        STATIC     ATOMS    COLORGROUP SYSTEM
5 36 37 38 39 40
ATOM$RED        STATIC     ATOMS    COLORGROUP SYSTEM
2 21 35
