AV-unprocessed.smi:3329|AV-procd|sdf|12797|dock8
  -GOLD-   2272019153D 1   1.00000     0.00000
 Structure written by MMmdl.
 41 42  0  0  0  0  0  0  0  0  1 V2000
  144.6392  130.9419  151.0312 C   0  0  0  0  0  0  0  0  0  0  0  0
  144.9839  132.3993  150.9231 C   0  0  0  0  0  0  0  0  0  0  0  0
  146.2760  132.9979  150.9461 C   0  0  0  0  0  0  0  0  0  0  0  0
  146.2355  134.3150  150.8251 N   0  0  0  0  0  0  0  0  0  0  0  0
  144.9207  134.6028  150.7231 N   0  0  0  0  0  0  0  0  0  0  0  0
  144.4938  135.9797  150.5696 C   0  0  0  0  0  0  0  0  0  0  0  0
  145.6856  136.9184  150.3316 C   0  0  0  0  0  0  0  0  0  0  0  0
  146.1521  137.4379  151.6077 N   0  0  0  0  0  0  0  0  0  0  0  0
  146.4680  138.8650  151.5025 C   0  0  0  0  0  0  0  0  0  0  0  0
  146.7847  139.4628  152.8716 C   0  0  0  0  0  0  0  0  0  0  0  0
  147.2878  138.7573  153.7447 O   0  0  0  0  0  0  0  0  0  0  0  0
  146.4939  140.7649  153.0345 N   0  0  0  0  0  0  0  0  0  0  0  0
  146.7033  141.5962  154.2230 C   0  0  1  0  0  0  0  0  0  0  0  0
  146.0146  142.9615  154.0249 C   0  0  0  0  0  0  0  0  0  0  0  0
  146.0333  140.9215  155.3504 C   0  0  0  0  0  0  0  0  0  0  0  0
  145.5070  140.3951  156.2368 N   0  0  0  0  0  0  0  0  0  0  0  0
  148.1824  141.8114  154.5638 C   0  0  0  0  0  0  0  0  0  0  0  0
  149.2336  140.7440  154.3576 C   0  0  0  0  0  0  0  0  0  0  0  0
  148.8415  141.1592  155.7589 C   0  0  0  0  0  0  0  0  0  0  0  0
  144.1428  133.4664  150.7804 C   0  0  0  0  0  0  0  0  0  0  0  0
  145.5222  130.3084  150.9445 H   0  0  0  0  0  0  0  0  0  0  0  0
  143.9453  130.6329  150.2492 H   0  0  0  0  0  0  0  0  0  0  0  0
  144.1704  130.7102  151.9877 H   0  0  0  0  0  0  0  0  0  0  0  0
  147.2375  132.5157  151.0450 H   0  0  0  0  0  0  0  0  0  0  0  0
  143.7953  136.0322  149.7332 H   0  0  0  0  0  0  0  0  0  0  0  0
  143.9415  136.2757  151.4629 H   0  0  0  0  0  0  0  0  0  0  0  0
  146.4940  136.3809  149.8333 H   0  0  0  0  0  0  0  0  0  0  0  0
  145.3879  137.7424  149.6814 H   0  0  0  0  0  0  0  0  0  0  0  0
  146.9547  136.9037  151.9089 H   0  0  0  0  0  0  0  0  0  0  0  0
  147.3122  139.0086  150.8255 H   0  0  0  0  0  0  0  0  0  0  0  0
  145.6190  139.4034  151.0782 H   0  0  0  0  0  0  0  0  0  0  0  0
  146.0820  141.2379  152.2431 H   0  0  0  0  0  0  0  0  0  0  0  0
  146.0660  143.5604  154.9347 H   0  0  0  0  0  0  0  0  0  0  0  0
  144.9600  142.8413  153.7741 H   0  0  0  0  0  0  0  0  0  0  0  0
  146.4801  143.5448  153.2300 H   0  0  0  0  0  0  0  0  0  0  0  0
  148.5192  142.8290  154.3777 H   0  0  0  0  0  0  0  0  0  0  0  0
  148.9137  139.7621  154.0155 H   0  0  0  0  0  0  0  0  0  0  0  0
  150.2065  141.0663  153.9924 H   0  0  0  0  0  0  0  0  0  0  0  0
  149.5532  141.7581  156.3235 H   0  0  0  0  0  0  0  0  0  0  0  0
  148.2620  140.4526  156.3493 H   0  0  0  0  0  0  0  0  0  0  0  0
  143.0658  133.5105  150.7135 H   0  0  0  0  0  0  0  0  0  0  0  0
  1  2  1  0  0  0  0
  1 21  1  0  0  0  0
  1 22  1  0  0  0  0
  1 23  1  0  0  0  0
  2 20  2  0  0  0  0
  2  3  1  0  0  0  0
  3  4  2  0  0  0  0
  3 24  1  0  0  0  0
  4  5  1  0  0  0  0
  5  6  1  0  0  0  0
  5 20  1  0  0  0  0
  6  7  1  0  0  0  0
  6 25  1  0  0  0  0
  6 26  1  0  0  0  0
  7  8  1  0  0  0  0
  7 27  1  0  0  0  0
  7 28  1  0  0  0  0
  8  9  1  0  0  0  0
  8 29  1  0  0  0  0
  9 10  1  0  0  0  0
  9 30  1  0  0  0  0
  9 31  1  0  0  0  0
 10 11  2  0  0  0  0
 10 12  1  0  0  0  0
 12 13  1  0  0  0  0
 12 32  1  0  0  0  0
 13 14  1  0  0  0  0
 13 15  1  0  0  0  0
 13 17  1  0  0  0  0
 14 33  1  0  0  0  0
 14 34  1  0  0  0  0
 14 35  1  0  0  0  0
 15 16  3  0  0  0  0
 17 19  1  0  0  0  0
 17 18  1  0  0  0  0
 17 36  1  0  0  0  0
 18 19  1  0  0  0  0
 18 37  1  0  0  0  0
 18 38  1  0  0  0  0
 19 39  1  0  0  0  0
 19 40  1  0  0  0  0
 20 41  1  0  0  0  0
M  END
> <s_m_source_file>
AV-unprocessed.smi

> <i_m_source_file_index>
3329

> <i_lp_mmshare_version>
43012

> <i_f3d_flags>
0

> <s_epik_input>
W0NIM11jMVtjSF1ubihbY0hdMSlbQ0gyXVtDSDJdW05IXVtDSDJdQyg9TylbTkhdW0NAQF0oW0NIM10pKEMjTilbQ0hdMltDSDJdW0NIMl0y

> <s_epik_cmdline>
J2VwaWtfcHl0aG9uJywgJy1waCcsICc3LjAnLCAnLXRuJywgJzgnLCAnLW1hJywgJzIwMCcsICctbWV0YWxfYmluZGluZycsICctaW1hZScsICc8aW5maWxlLm1hZT4nLCAnLW9tYWUnLCAnPG91dGZpbGUubWFlPic=

> <r_lp_tautomer_probability>
1

> <r_epik_Ionization_Penalty>
0.481866

> <r_epik_Ionization_Penalty_Charging>
0

> <r_epik_Ionization_Penalty_Neutral>
0.481866

> <r_epik_State_Penalty>
0.48398

> <r_epik_Charging_Adjusted_Penalty>
0.48398

> <i_epik_Tot_Q>
0

> <i_epik_Tot_abs_Q>
0

> <r_epik_Metal_State_Penalty>
0.5042

> <b_epik_Metal_Only>
0

> <s_lp_Force_Field>
OPLS_2005

> <r_lp_Energy>
12.8497

> <b_lp_Chiralities_Consistent>
1

> <s_lp_Variant>
AV-unprocessed.smi:3329-3

> <Gold.Version>
5.8.1

> <Gold.Id.Protein>
6NUR|6NUR_protein|mol2

> <Gold.PLP.Fitness>
43.3503

> <Gold.PLP.PLP>
-37.8476

> <Gold.PLP.part.hbond>
-2.5535

> <Gold.PLP.part.metal>
0.0000

> <Gold.PLP.part.buried>
3.4975

> <Gold.PLP.part.nonpolar>
-40.1095

> <Gold.PLP.part.repulsive>
0.4833

> <Gold.PLP.ligand.clash>
0.0000

> <Gold.PLP.ligand.torsion>
2.4493

> <Gold.PLP.Chemscore.Hbond>
1.0000

> <Gold.PLP.Chemscore.CHOScore>
1.9258

> <Gold.PLP.Chemscore.Metal>
0.0000

> <Gold.Chemscore.Hbonds>
donor molecule, donor type, donor heavy atom, donor atom, acceptor molecule, acceptor atom, score
      L1  H     8    29       P1  7948  0.86
      L1  C     3    24       P1 10747  1.00
      L1  C    20    41       P1 10186  1.00

> <Gold.PLP.Chemscore.Internal.Correction>
1.6238

> <Gold.Rescore>
     Score         DG    S(hbond)    S(metal)    S(lipo)     H(rot)  DE(clash)    DE(int)     intcor
      7.74     -13.94       0.97        0.00      95.28       2.31       1.40       4.80       ----

> <Gold.Chemscore.Fitness>
7.7369

> <Gold.Chemscore.DG>
-13.9435

> <Gold.Chemscore.ZeroCoef>
-5.4800

> <Gold.Chemscore.Hbond>
0.9693

> <Gold.Chemscore.Metal>
0.0000

> <Gold.Chemscore.Lipo>
95.2760

> <Gold.Chemscore.Internal_Hbond>
0.0000

> <Gold.Chemscore.DEClash>
1.4020

> <Gold.Chemscore.DEInternal>
4.8046

> <Gold.Chemscore.Rot>
2.3129

> <Gold.Chemscore.Internal.Correction>
   9.000000E+99

> <Gold.Chemscore.Hbonds>
donor molecule, donor type, donor heavy atom, donor atom, acceptor molecule, acceptor atom, score
      L1  H     8    29       P1  7948  0.82

> <Gold.Chemscore.Hbond.Weighted>
-3.2373

> <Gold.Chemscore.Metal.Weighted>
-0.0000

> <Gold.Chemscore.Lipo.Weighted>
-11.1473

> <Gold.Chemscore.Internal_Hbond.Weighted>
0.0000

> <Gold.Chemscore.DEClash.Weighted>
1.4020

> <Gold.Chemscore.DEInternal.Weighted>
4.8046

> <Gold.Chemscore.Rot.Weighted>
5.9211

> <Gold.Chemscore.Internal.Correction.Weighted>
   9.000000E+99

> <Gold.Protein.RotatedTorsions>
[ 6907 6896 6895 6894 ] final -175.51 input  -60.11 | X-H torsion
[ 7974 7965 7964 7962 ] final -176.84 input  175.53 | X-H torsion
[ 8008 7997 7996 7995 ] final  -84.69 input   59.86 | X-H torsion
[ 10167 10162 10161 10158 ] final  -30.54 input  -65.29 | X-H torsion
[ 10718 10713 10712 10709 ] final   51.78 input   66.30 | X-H torsion
[ 10763 10752 10751 10750 ] final  -50.44 input  -60.55 | X-H torsion
[ 11005 11000 10999 10996 ] final  -70.41 input  -57.11 | X-H torsion

> <Gold.Protein.ActiveResidues>
 VAL166  LYS551  ARG553  GLY616  TRP617  ASP618  TYR619  PRO620  LYS621  CYS622 
 ASP623  PHE694  ASN695  SER759  ASP760  ASP761  ALA762  ILE779  LEU786  VAL792 
 PHE793  MET794  SER795  GLU796  ALA797  LYS798  CYS799  TRP800  GLU811  SER814 

> <Gold.Protein.RotatedAtoms>
  151.5898  133.3368  159.3025 H   0  0  0  0  0  0  0  0  0  0  0  0  # atno 6907 bound_to 6896
  150.8267  134.7504  159.6830 H   0  0  0  0  0  0  0  0  0  0  0  0  # atno 6908 bound_to 6896
  152.4355  134.5701  159.9970 H   0  0  0  0  0  0  0  0  0  0  0  0  # atno 6909 bound_to 6896
  144.7127  140.1110  143.6411 H   0  0  0  0  0  0  0  0  0  0  0  0  # atno 7974 bound_to 7965
  154.6325  140.0601  156.9749 H   0  0  0  0  0  0  0  0  0  0  0  0  # atno 8008 bound_to 7997
  155.1643  140.3285  155.4387 H   0  0  0  0  0  0  0  0  0  0  0  0  # atno 8009 bound_to 7997
  156.2490  140.1925  156.6748 H   0  0  0  0  0  0  0  0  0  0  0  0  # atno 8010 bound_to 7997
  140.7248  143.3841  151.1548 H   0  0  0  0  0  0  0  0  0  0  0  0  # atno 10167 bound_to 10162
  157.5013  130.8440  149.8320 H   0  0  0  0  0  0  0  0  0  0  0  0  # atno 10718 bound_to 10713
  154.1105  135.6550  153.4884 H   0  0  0  0  0  0  0  0  0  0  0  0  # atno 10763 bound_to 10752
  153.0258  135.5246  154.7197 H   0  0  0  0  0  0  0  0  0  0  0  0  # atno 10764 bound_to 10752
  154.6375  135.2984  155.0112 H   0  0  0  0  0  0  0  0  0  0  0  0  # atno 10765 bound_to 10752
  141.1573  133.6789  156.6748 H   0  0  0  0  0  0  0  0  0  0  0  0  # atno 11005 bound_to 11000
  145.9455  139.2698  143.1243 LP  0  0  0  0  0  0  0  0  0  0  0  0  # atno 17320 bound_to 7965
  145.9379  140.9001  143.0323 LP  0  0  0  0  0  0  0  0  0  0  0  0  # atno 17321 bound_to 7965
  139.7435  143.8888  152.3057 LP  0  0  0  0  0  0  0  0  0  0  0  0  # atno 17342 bound_to 10162
  139.8717  144.7064  150.8979 LP  0  0  0  0  0  0  0  0  0  0  0  0  # atno 17343 bound_to 10162
  156.0231  130.3788  150.1903 LP  0  0  0  0  0  0  0  0  0  0  0  0  # atno 17370 bound_to 10713
  157.0092  130.9946  151.3370 LP  0  0  0  0  0  0  0  0  0  0  0  0  # atno 17371 bound_to 10713
  140.3147  134.8057  157.4204 LP  0  0  0  0  0  0  0  0  0  0  0  0  # atno 17394 bound_to 11000
  140.1148  134.5297  155.8234 LP  0  0  0  0  0  0  0  0  0  0  0  0  # atno 17395 bound_to 11000

$$$$
