#       Name:                AV-unprocessed.smi:1826
#       Creating user name   scv26
#       Creation time:       Fri Mar 27 09:09:44 2020


#       File generated by GOLD software.
#

@<TRIPOS>MOLECULE
AV-unprocessed.smi:1826
    44    46     1
SMALL
NO_CHARGES


@<TRIPOS>ATOM
      1 ****        -2.5787  -0.7108  -3.3374 O.3            1 S1                 0.0000
      2 ****        -1.5189   0.2195  -3.3615 C.3            1 S1                 0.0000
      3 ****        -1.6142   1.2172  -2.2549 C.2            1 S1                 0.0000
      4 ****        -2.1021   2.4853  -2.3631 N.pl3          1 S1                 1.0000
      5 ****        -2.0397   3.1230  -1.1232 C.ar           1 S1                 0.0000
      6 ****        -2.4144   4.4065  -0.7377 C.ar           1 S1                 0.0000
      7 ****        -2.2156   4.7434   0.6175 C.ar           1 S1                 0.0000
      8 ****        -1.6651   3.8205   1.5308 C.ar           1 S1                 0.0000
      9 ****        -1.2895   2.5218   1.1284 C.ar           1 S1                 0.0000
     10 ****        -1.4888   2.1979  -0.2132 C.ar           1 S1                 0.0000
     11 ****        -1.2416   1.0380  -0.9546 N.pl3          1 S1                 0.0000
     12 ****        -0.6588  -0.1331  -0.2817 C.3            1 S1                 0.0000
     13 ****         0.8693  -0.0287  -0.1044 C.3            1 S1                 0.0000
     14 ****         1.4864   0.1712  -1.3618 O.3            1 S1                 0.0000
     15 ****         1.4227  -1.2438   0.6228 C.ar           1 S1                 0.0000
     16 ****         1.7494  -1.1582   1.9923 C.ar           1 S1                 0.0000
     17 ****         2.2537  -2.2825   2.6744 C.ar           1 S1                 0.0000
     18 ****         2.4324  -3.5081   1.9973 C.ar           1 S1                 0.0000
     19 ****         2.9876  -4.7190   2.7330 C.3            1 S1                 0.0000
     20 ****         2.5299  -5.8524   2.1999 F              1 S1                 0.0000
     21 ****         4.3173  -4.7113   2.6479 F              1 S1                 0.0000
     22 ****         2.6398  -4.6942   4.0201 F              1 S1                 0.0000
     23 ****         2.1078  -3.5917   0.6261 C.ar           1 S1                 0.0000
     24 ****         1.6027  -2.4682  -0.0563 C.ar           1 S1                 0.0000
     25 ****        -2.4566  -1.3247  -4.0457 H              1 S1                 0.0000
     26 ****        -0.5712  -0.3144  -3.2907 H              1 S1                 0.0000
     27 ****        -1.5228   0.7386  -4.3203 H              1 S1                 0.0000
     28 ****        -2.8366   5.1151  -1.4353 H              1 S1                 0.0000
     29 ****        -2.4908   5.7293   0.9635 H              1 S1                 0.0000
     30 ****        -1.5280   4.1146   2.5613 H              1 S1                 0.0000
     31 ****        -0.8685   1.8218   1.8349 H              1 S1                 0.0000
     32 ****        -1.1549  -0.2574   0.6818 H              1 S1                 0.0000
     33 ****        -0.9139  -1.0149  -0.8706 H              1 S1                 0.0000
     34 ****         1.0968   0.8555   0.4921 H              1 S1                 0.0000
     35 ****         2.4106   0.3113  -1.2222 H              1 S1                 0.0000
     36 ****         1.6151  -0.2293   2.5271 H              1 S1                 0.0000
     37 ****         2.5046  -2.1985   3.7216 H              1 S1                 0.0000
     38 ****         2.2453  -4.5191   0.0897 H              1 S1                 0.0000
     39 ****         1.3527  -2.5504  -1.1041 H              1 S1                 0.0000
     40 ****        -2.4541   2.8817  -3.2249 H              1 S1                 0.0000
     41 ****        -3.4495  -0.2328  -3.4521 LP             1 S1                 0.0000
     42 ****        -2.5789  -1.1989  -2.4646 LP             1 S1                 0.0000
     43 ****         1.0876   0.9711  -1.8102 LP             1 S1                 0.0000
     44 ****         1.3503  -0.6356  -1.9367 LP             1 S1                 0.0000
@<TRIPOS>BOND
    1    1    2 1     
    2    1   25 1     
    3    2    3 1     
    4    2   26 1     
    5    2   27 1     
    6    3   11 1     
    7    3    4 2     
    8    4    5 1     
    9    4   40 1     
   10    5   10 ar    
   11    5    6 ar    
   12    6    7 ar    
   13    6   28 1     
   14    7    8 ar    
   15    7   29 1     
   16    8    9 ar    
   17    8   30 1     
   18    9   10 ar    
   19    9   31 1     
   20   10   11 1     
   21   11   12 1     
   22   12   13 1     
   23   12   32 1     
   24   12   33 1     
   25   13   14 1     
   26   13   15 1     
   27   13   34 1     
   28   14   35 1     
   29   15   24 ar    
   30   15   16 ar    
   31   16   17 ar    
   32   16   36 1     
   33   17   18 ar    
   34   17   37 1     
   35   18   19 1     
   36   18   23 ar    
   37   19   20 1     
   38   19   21 1     
   39   19   22 1     
   40   23   24 ar    
   41   23   38 1     
   42   24   39 1     
   43    1   41 1     
   44    1   42 1     
   45   14   43 1     
   46   14   44 1     
@<TRIPOS>SUBSTRUCTURE
      1 S1             1
@<TRIPOS>SET
LONE_PAIRS      STATIC     ATOMS    <user>   **** ""
4 41 42 43 44
DONOR_HYDROGENS      STATIC     ATOMS    <user>   **** ""
3 25 40 35
ATOM$BLUE        STATIC     ATOMS    COLORGROUP SYSTEM
4 41 42 43 44
ATOM$RED        STATIC     ATOMS    COLORGROUP SYSTEM
3 25 40 35
