#       Name:                AV-unprocessed.smi:1010
#       Creating user name   scv26
#       Creation time:       Fri Mar 27 02:36:25 2020


#       File generated by GOLD software.
#

@<TRIPOS>MOLECULE
AV-unprocessed.smi:1010
    61    63     1
SMALL
NO_CHARGES


@<TRIPOS>ATOM
      1 ****        -3.7564   0.1740   1.5377 C.3            1 S1                 0.0000
      2 ****        -2.3410  -0.0819   1.8088 N.3            1 S1                 0.0000
      3 ****        -1.9636   0.7467   2.9554 C.3            1 S1                 0.0000
      4 ****        -1.9191  -1.5091   1.8962 C.3            1 S1                 0.0000
      5 ****        -0.3581  -1.5487   1.8799 C.3            1 S1                 0.0000
      6 ****         0.2015  -0.8632   0.7196 N.am           1 S1                 0.0000
      7 ****         1.5094  -0.7299   0.4714 C.2            1 S1                 0.0000
      8 ****         2.3896  -1.1943   1.1959 O.2            1 S1                 0.0000
      9 ****         1.7162  -0.0141  -0.6460 N.am           1 S1                 0.0000
     10 ****         2.9530   0.3936  -1.2206 C.ar           1 S1                 0.0000
     11 ****         4.1289  -0.3847  -1.0854 C.ar           1 S1                 0.0000
     12 ****         5.3293   0.0738  -1.6545 C.ar           1 S1                 0.0000
     13 ****         5.3122   1.2967  -2.3449 C.ar           1 S1                 0.0000
     14 ****         4.1981   2.0391  -2.5007 N.ar           1 S1                 0.0000
     15 ****         3.0285   1.6033  -1.9703 C.ar           1 S1                 0.0000
     16 ****         1.8913   2.4168  -2.1824 N.3            1 S1                 0.0000
     17 ****         2.0385   3.7875  -2.6602 C.3            1 S1                 0.0000
     18 ****         0.6413   4.2001  -3.1138 C.3            1 S1                 0.0000
     19 ****         0.0864   2.8985  -3.6844 C.3            1 S1                 0.0000
     20 ****         0.7107   1.8167  -2.7964 C.3            1 S1                 0.0000
     21 ****        -2.4583  -2.1862   3.1871 C.3            1 S1                 0.0000
     22 ****        -2.2347  -3.7113   3.1923 C.3            1 S1                 0.0000
     23 ****        -2.8095  -4.3049   2.0352 O.3            1 S1                 0.0000
     24 ****        -2.2305  -3.8359   0.8242 C.3            1 S1                 0.0000
     25 ****        -2.4772  -2.3224   0.6883 C.3            1 S1                 0.0000
     26 ****        -4.0553  -0.1928   0.5571 H              1 S1                 0.0000
     27 ****        -3.9541   1.2465   1.5218 H              1 S1                 0.0000
     28 ****        -4.4060  -0.2676   2.2929 H              1 S1                 0.0000
     29 ****        -0.8962   0.7141   3.1628 H              1 S1                 0.0000
     30 ****        -2.5007   0.4536   3.8576 H              1 S1                 0.0000
     31 ****        -2.2013   1.7927   2.7590 H              1 S1                 0.0000
     32 ****         0.0621  -1.1197   2.7894 H              1 S1                 0.0000
     33 ****         0.0112  -2.5729   1.8689 H              1 S1                 0.0000
     34 ****        -0.4564  -0.4439   0.0788 H              1 S1                 0.0000
     35 ****         0.8921   0.3776  -1.0776 H              1 S1                 0.0000
     36 ****         4.1288  -1.3283  -0.5616 H              1 S1                 0.0000
     37 ****         6.2408  -0.4978  -1.5615 H              1 S1                 0.0000
     38 ****         6.2149   1.6862  -2.7915 H              1 S1                 0.0000
     39 ****         2.4203   4.4423  -1.8765 H              1 S1                 0.0000
     40 ****         2.7225   3.8304  -3.5088 H              1 S1                 0.0000
     41 ****         0.0468   4.5141  -2.2547 H              1 S1                 0.0000
     42 ****         0.6522   5.0154  -3.8375 H              1 S1                 0.0000
     43 ****        -1.0033   2.8654  -3.6886 H              1 S1                 0.0000
     44 ****         0.4305   2.7740  -4.7121 H              1 S1                 0.0000
     45 ****         0.9549   0.9216  -3.3700 H              1 S1                 0.0000
     46 ****         0.0103   1.5354  -2.0099 H              1 S1                 0.0000
     47 ****        -1.9904  -1.7613   4.0753 H              1 S1                 0.0000
     48 ****        -3.5283  -2.0093   3.2919 H              1 S1                 0.0000
     49 ****        -1.1749  -3.9602   3.2545 H              1 S1                 0.0000
     50 ****        -2.7051  -4.1485   4.0731 H              1 S1                 0.0000
     51 ****        -1.1709  -4.0878   0.7821 H              1 S1                 0.0000
     52 ****        -2.7021  -4.3604  -0.0069 H              1 S1                 0.0000
     53 ****        -3.5585  -2.2220   0.6138 H              1 S1                 0.0000
     54 ****        -2.0714  -1.9575  -0.2557 H              1 S1                 0.0000
     55 ****        -1.8161   0.1848   1.0005 LP             1 S1                 0.0000
     56 ****         2.1418  -1.7028   2.0205 LP             1 S1                 0.0000
     57 ****         3.3524  -1.0630   0.9599 LP             1 S1                 0.0000
     58 ****         4.2336   2.9032  -3.0027 LP             1 S1                 0.0000
     59 ****         1.7329   2.4939  -1.1980 LP             1 S1                 0.0000
     60 ****        -3.7874  -4.0964   2.0225 LP             1 S1                 0.0000
     61 ****        -2.6804  -5.2951   2.0876 LP             1 S1                 0.0000
@<TRIPOS>BOND
    1    1    2 1     
    2    1   26 1     
    3    1   27 1     
    4    1   28 1     
    5    2    3 1     
    6    2    4 1     
    7    3   29 1     
    8    3   30 1     
    9    3   31 1     
   10    4   25 1     
   11    4    5 1     
   12    4   21 1     
   13    5    6 1     
   14    5   32 1     
   15    5   33 1     
   16    6    7 am    
   17    6   34 1     
   18    7    8 2     
   19    7    9 am    
   20    9   10 1     
   21    9   35 1     
   22   10   15 ar    
   23   10   11 ar    
   24   11   12 ar    
   25   11   36 1     
   26   12   13 ar    
   27   12   37 1     
   28   13   14 ar    
   29   13   38 1     
   30   14   15 ar    
   31   15   16 1     
   32   16   20 1     
   33   16   17 1     
   34   17   18 1     
   35   17   39 1     
   36   17   40 1     
   37   18   19 1     
   38   18   41 1     
   39   18   42 1     
   40   19   20 1     
   41   19   43 1     
   42   19   44 1     
   43   20   45 1     
   44   20   46 1     
   45   21   22 1     
   46   21   47 1     
   47   21   48 1     
   48   22   23 1     
   49   22   49 1     
   50   22   50 1     
   51   23   24 1     
   52   24   25 1     
   53   24   51 1     
   54   24   52 1     
   55   25   53 1     
   56   25   54 1     
   57    2   55 1     
   58    8   56 1     
   59    8   57 1     
   60   14   58 1     
   61   16   59 1     
   62   23   60 1     
   63   23   61 1     
@<TRIPOS>SUBSTRUCTURE
      1 S1             1
@<TRIPOS>SET
LONE_PAIRS      STATIC     ATOMS    <user>   **** ""
7 55 56 57 58 59 60 61
DONOR_HYDROGENS      STATIC     ATOMS    <user>   **** ""
2 34 35
ATOM$BLUE        STATIC     ATOMS    COLORGROUP SYSTEM
7 55 56 57 58 59 60 61
ATOM$RED        STATIC     ATOMS    COLORGROUP SYSTEM
2 34 35
