#       Name:                AV-unprocessed.smi:1911
#       Creating user name   scv26
#       Creation time:       Fri Mar 27 09:48:06 2020


#       File generated by GOLD software.
#

@<TRIPOS>MOLECULE
AV-unprocessed.smi:1911
    57    59     1
SMALL
NO_CHARGES


@<TRIPOS>ATOM
      1 ****        -4.7147  -6.5267  -0.2214 N.am           1 S1                 0.0000
      2 ****        -4.8439  -5.3844   0.4570 C.2            1 S1                 0.0000
      3 ****        -5.9189  -4.7948   0.5493 O.2            1 S1                 0.0000
      4 ****        -3.5872  -4.8410   1.1444 C.3            1 S1                 0.0000
      5 ****        -3.6705  -3.3867   1.4367 N.4            1 S1                 1.0000
      6 ****        -3.4299  -2.5366   0.2403 C.3            1 S1                 0.0000
      7 ****        -3.6728  -1.0507   0.5577 C.3            1 S1                 0.0000
      8 ****        -2.8265  -0.5671   1.7521 C.3            1 S1                 0.0000
      9 ****        -1.4071  -0.4672   1.4122 N.am           1 S1                 0.0000
     10 ****        -0.8396   0.5514   0.7496 C.2            1 S1                 0.0000
     11 ****        -1.4739   1.5100   0.3109 O.2            1 S1                 0.0000
     12 ****         0.4856   0.3678   0.6202 N.am           1 S1                 0.0000
     13 ****         1.4523   1.2407   0.0508 C.ar           1 S1                 0.0000
     14 ****         2.7093   0.7032  -0.2877 C.ar           1 S1                 0.0000
     15 ****         3.6982   1.5464  -0.8285 C.ar           1 S1                 0.0000
     16 ****         3.4048   2.9181  -1.0130 C.ar           1 S1                 0.0000
     17 ****         4.3650   3.8051  -1.5380 N.pl3          1 S1                 0.0000
     18 ****         5.6335   3.3586  -2.0883 C.3            1 S1                 0.0000
     19 ****         6.3115   4.6369  -2.5809 C.3            1 S1                 0.0000
     20 ****         5.1347   5.5216  -2.9937 C.3            1 S1                 0.0000
     21 ****         4.0192   5.1372  -2.0155 C.3            1 S1                 0.0000
     22 ****         2.2012   3.4388  -0.6766 N.ar           1 S1                 0.0000
     23 ****         1.2556   2.6265  -0.1595 C.ar           1 S1                 0.0000
     24 ****        -3.0288  -1.5096   2.9511 C.3            1 S1                 0.0000
     25 ****        -2.8043  -2.9854   2.5740 C.3            1 S1                 0.0000
     26 ****        -5.5177  -6.9263  -0.6866 H              1 S1                 0.0000
     27 ****        -3.8204  -6.9939  -0.2661 H              1 S1                 0.0000
     28 ****        -3.4791  -5.3980   2.0761 H              1 S1                 0.0000
     29 ****        -2.6987  -5.0538   0.5477 H              1 S1                 0.0000
     30 ****        -2.4089  -2.6844  -0.1151 H              1 S1                 0.0000
     31 ****        -4.0906  -2.8384  -0.5727 H              1 S1                 0.0000
     32 ****        -3.4760  -0.4420  -0.3256 H              1 S1                 0.0000
     33 ****        -4.7290  -0.9076   0.7901 H              1 S1                 0.0000
     34 ****        -3.1711   0.4263   2.0457 H              1 S1                 0.0000
     35 ****        -0.8071  -1.2129   1.7330 H              1 S1                 0.0000
     36 ****         0.8472  -0.5129   0.9550 H              1 S1                 0.0000
     37 ****         2.9183  -0.3457  -0.1355 H              1 S1                 0.0000
     38 ****         4.6606   1.1317  -1.0878 H              1 S1                 0.0000
     39 ****         6.2417   2.8458  -1.3428 H              1 S1                 0.0000
     40 ****         5.4475   2.6749  -2.9175 H              1 S1                 0.0000
     41 ****         6.8522   5.1075  -1.7586 H              1 S1                 0.0000
     42 ****         7.0184   4.4580  -3.3911 H              1 S1                 0.0000
     43 ****         5.3714   6.5855  -2.9683 H              1 S1                 0.0000
     44 ****         4.8316   5.2701  -4.0107 H              1 S1                 0.0000
     45 ****         3.0441   5.1618  -2.5031 H              1 S1                 0.0000
     46 ****         3.9949   5.8206  -1.1662 H              1 S1                 0.0000
     47 ****         0.3363   3.1236   0.1066 H              1 S1                 0.0000
     48 ****        -2.3677  -1.2265   3.7712 H              1 S1                 0.0000
     49 ****        -4.0455  -1.3919   3.3289 H              1 S1                 0.0000
     50 ****        -3.0232  -3.6096   3.4411 H              1 S1                 0.0000
     51 ****        -1.7585  -3.1589   2.3158 H              1 S1                 0.0000
     52 ****        -4.6221  -3.2172   1.7319 H              1 S1                 0.0000
     53 ****        -6.7342  -5.1693   0.1076 LP             1 S1                 0.0000
     54 ****        -5.9780  -3.9407   1.0661 LP             1 S1                 0.0000
     55 ****        -2.4643   1.5563   0.4416 LP             1 S1                 0.0000
     56 ****        -0.9991   2.2430  -0.1763 LP             1 S1                 0.0000
     57 ****         2.0153   4.4124  -0.8095 LP             1 S1                 0.0000
@<TRIPOS>BOND
    1    1    2 am    
    2    1   26 1     
    3    1   27 1     
    4    2    3 2     
    5    2    4 1     
    6    4    5 1     
    7    4   28 1     
    8    4   29 1     
    9    5   25 1     
   10    5    6 1     
   11    5   52 1     
   12    6    7 1     
   13    6   30 1     
   14    6   31 1     
   15    7    8 1     
   16    7   32 1     
   17    7   33 1     
   18    8    9 1     
   19    8   24 1     
   20    8   34 1     
   21    9   10 am    
   22    9   35 1     
   23   10   11 2     
   24   10   12 am    
   25   12   13 1     
   26   12   36 1     
   27   13   23 ar    
   28   13   14 ar    
   29   14   15 ar    
   30   14   37 1     
   31   15   16 ar    
   32   15   38 1     
   33   16   17 1     
   34   16   22 ar    
   35   17   21 1     
   36   17   18 1     
   37   18   19 1     
   38   18   39 1     
   39   18   40 1     
   40   19   20 1     
   41   19   41 1     
   42   19   42 1     
   43   20   21 1     
   44   20   43 1     
   45   20   44 1     
   46   21   45 1     
   47   21   46 1     
   48   22   23 ar    
   49   23   47 1     
   50   24   25 1     
   51   24   48 1     
   52   24   49 1     
   53   25   50 1     
   54   25   51 1     
   55    3   53 1     
   56    3   54 1     
   57   11   55 1     
   58   11   56 1     
   59   22   57 1     
@<TRIPOS>SUBSTRUCTURE
      1 S1             1
@<TRIPOS>SET
LONE_PAIRS      STATIC     ATOMS    <user>   **** ""
5 53 54 55 56 57
DONOR_HYDROGENS      STATIC     ATOMS    <user>   **** ""
5 26 27 52 35 36
ATOM$BLUE        STATIC     ATOMS    COLORGROUP SYSTEM
5 53 54 55 56 57
ATOM$RED        STATIC     ATOMS    COLORGROUP SYSTEM
5 26 27 52 35 36
