AV-unprocessed.smi:3122|AV-procd|sdf|11896|dock4
  -GOLD-   2272017283D 1   1.00000     0.00000
 Structure written by MMmdl.
 30 31  0  0  0  0  0  0  0  0  2 V2000
  153.3834  142.5936  160.3795 C   0  0  0  0  0  0  0  0  0  0  0  0
  153.1229  141.0841  160.4805 C   0  0  0  0  0  0  0  0  0  0  0  0
  154.2462  140.3482  161.2256 C   0  0  0  0  0  0  0  0  0  0  0  0
  152.8555  140.4818  159.1370 C   0  0  0  0  0  0  0  0  0  0  0  0
  153.4686  139.4342  158.5785 N   0  0  0  0  0  0  0  0  0  0  0  0
  152.9290  139.3089  157.3188 N   0  0  0  0  0  0  0  0  0  0  0  0
  152.0635  140.3184  157.1919 C   0  0  0  0  0  0  0  0  0  0  0  0
  151.1656  140.6116  156.0335 C   0  0  2  0  0  0  0  0  0  0  0  0
  150.3636  141.9121  156.2294 C   0  0  0  0  0  0  0  0  0  0  0  0
  149.4269  142.1017  155.1045 N   0  3  0  0  0  0  0  0  0  0  0  0
  148.5538  140.9248  154.9237 C   0  0  0  0  0  0  0  0  0  0  0  0
  149.4046  139.6509  154.7771 C   0  0  0  0  0  0  0  0  0  0  0  0
  150.2642  139.5147  155.9040 O   0  0  0  0  0  0  0  0  0  0  0  0
  151.9679  141.0891  158.3063 O   0  0  0  0  0  0  0  0  0  0  0  0
  152.5422  143.1071  159.9129 H   0  0  0  0  0  0  0  0  0  0  0  0
  154.2730  142.8031  159.7843 H   0  0  0  0  0  0  0  0  0  0  0  0
  153.5323  143.0332  161.3660 H   0  0  0  0  0  0  0  0  0  0  0  0
  152.2149  140.9558  161.0714 H   0  0  0  0  0  0  0  0  0  0  0  0
  154.0107  139.2900  161.3428 H   0  0  0  0  0  0  0  0  0  0  0  0
  154.3947  140.7651  162.2222 H   0  0  0  0  0  0  0  0  0  0  0  0
  155.1938  140.4217  160.6907 H   0  0  0  0  0  0  0  0  0  0  0  0
  151.7820  140.6802  155.1351 H   0  0  0  0  0  0  0  0  0  0  0  0
  149.7975  141.8736  157.1615 H   0  0  0  0  0  0  0  0  0  0  0  0
  151.0308  142.7722  156.2931 H   0  0  0  0  0  0  0  0  0  0  0  0
  148.8584  142.9196  155.2739 H   0  0  0  0  0  0  0  0  0  0  0  0
  147.8883  140.8363  155.7834 H   0  0  0  0  0  0  0  0  0  0  0  0
  147.9264  141.0709  154.0442 H   0  0  0  0  0  0  0  0  0  0  0  0
  148.7606  138.7734  154.7158 H   0  0  0  0  0  0  0  0  0  0  0  0
  149.9932  139.6790  153.8587 H   0  0  0  0  0  0  0  0  0  0  0  0
  149.9602  142.2414  154.2581 H   0  0  0  0  0  0  0  0  0  0  0  0
  1  2  1  0  0  0  0
  1 15  1  0  0  0  0
  1 16  1  0  0  0  0
  1 17  1  0  0  0  0
  2  3  1  0  0  0  0
  2  4  1  0  0  0  0
  2 18  1  0  0  0  0
  3 19  1  0  0  0  0
  3 20  1  0  0  0  0
  3 21  1  0  0  0  0
  4 14  1  0  0  0  0
  4  5  2  0  0  0  0
  5  6  1  0  0  0  0
  6  7  2  0  0  0  0
  7  8  1  0  0  0  0
  7 14  1  0  0  0  0
  8 13  1  0  0  0  0
  8  9  1  0  0  0  0
  8 22  1  0  0  0  0
  9 10  1  0  0  0  0
  9 23  1  0  0  0  0
  9 24  1  0  0  0  0
 10 11  1  0  0  0  0
 10 25  1  0  0  0  0
 10 30  1  0  0  0  0
 11 12  1  0  0  0  0
 11 26  1  0  0  0  0
 11 27  1  0  0  0  0
 12 13  1  0  0  0  0
 12 28  1  0  0  0  0
 12 29  1  0  0  0  0
M  CHG  1  10   1
M  END
> <s_m_source_file>
AV-unprocessed.smi

> <i_m_source_file_index>
3122

> <i_lp_mmshare_version>
43012

> <i_f3d_flags>
0

> <s_epik_input>
W0NIM11bQ0hdKFtDSDNdKWMxbm5jKG8xKVtDQEBIXTJbQ0gyXVtOSF1bQ0gyXVtDSDJdTzI=

> <s_epik_cmdline>
J2VwaWtfcHl0aG9uJywgJy1waCcsICc3LjAnLCAnLXRuJywgJzgnLCAnLW1hJywgJzIwMCcsICctbWV0YWxfYmluZGluZycsICctaW1hZScsICc8aW5maWxlLm1hZT4nLCAnLW9tYWUnLCAnPG91dGZpbGUubWFlPic=

> <r_lp_tautomer_probability>
1

> <r_epik_Ionization_Penalty>
0.0380945

> <r_epik_Ionization_Penalty_Charging>
0.0380945

> <r_epik_Ionization_Penalty_Neutral>
3.26791e-13

> <r_epik_State_Penalty>
0.0319257

> <r_epik_Charging_Adjusted_Penalty>
0.0700202

> <i_epik_Tot_Q>
1

> <i_epik_Tot_abs_Q>
1

> <r_epik_Metal_State_Penalty>
0.0319257

> <b_epik_Metal_Only>
0

> <s_lp_Force_Field>
OPLS_2005

> <r_lp_Energy>
10.6056

> <b_lp_Chiralities_Consistent>
1

> <s_lp_Variant>
AV-unprocessed.smi:3122-1

> <Gold.Version>
5.8.1

> <Gold.Id.Protein>
6NUR|6NUR_protein|mol2

> <Gold.PLP.Fitness>
34.8920

> <Gold.PLP.PLP>
-26.7328

> <Gold.PLP.part.hbond>
-3.0000

> <Gold.PLP.part.metal>
0.0000

> <Gold.PLP.part.buried>
-0.9567

> <Gold.PLP.part.nonpolar>
-20.4078

> <Gold.PLP.part.repulsive>
0.2505

> <Gold.PLP.ligand.clash>
0.0000

> <Gold.PLP.ligand.torsion>
0.1687

> <Gold.PLP.Chemscore.Hbond>
2.8000

> <Gold.PLP.Chemscore.CHOScore>
0.0000

> <Gold.PLP.Chemscore.Metal>
0.0000

> <Gold.Chemscore.Hbonds>
donor molecule, donor type, donor heavy atom, donor atom, acceptor molecule, acceptor atom, score
      L1  H    10    25       P1  8028  1.82
      P1  H  7997  8010       L1     6  0.65

> <Gold.PLP.Chemscore.Internal.Correction>
0.0966

> <Gold.Rescore>
     Score         DG    S(hbond)    S(metal)    S(lipo)     H(rot)  DE(clash)    DE(int)     intcor
     11.90     -12.10       0.99        0.00      56.04       1.26       0.13       0.06       ----

> <Gold.Chemscore.Fitness>
11.9046

> <Gold.Chemscore.DG>
-12.0985

> <Gold.Chemscore.ZeroCoef>
-5.4800

> <Gold.Chemscore.Hbond>
0.9862

> <Gold.Chemscore.Metal>
0.0000

> <Gold.Chemscore.Lipo>
56.0405

> <Gold.Chemscore.Internal_Hbond>
0.0000

> <Gold.Chemscore.DEClash>
0.1297

> <Gold.Chemscore.DEInternal>
0.0642

> <Gold.Chemscore.Rot>
1.2625

> <Gold.Chemscore.Internal.Correction>
   9.000000E+99

> <Gold.Chemscore.Hbonds>
donor molecule, donor type, donor heavy atom, donor atom, acceptor molecule, acceptor atom, score
      L1  H    10    25       P1  8028  0.90
      P1  H  7997  8010       L1     6  0.02

> <Gold.Chemscore.Hbond.Weighted>
-3.2938

> <Gold.Chemscore.Metal.Weighted>
-0.0000

> <Gold.Chemscore.Lipo.Weighted>
-6.5567

> <Gold.Chemscore.Internal_Hbond.Weighted>
0.0000

> <Gold.Chemscore.DEClash.Weighted>
0.1297

> <Gold.Chemscore.DEInternal.Weighted>
0.0642

> <Gold.Chemscore.Rot.Weighted>
3.2320

> <Gold.Chemscore.Internal.Correction.Weighted>
   9.000000E+99

> <Gold.Protein.RotatedTorsions>
[ 6907 6896 6895 6894 ] final -135.14 input  -60.11 | X-H torsion
[ 7974 7965 7964 7962 ] final  127.99 input  175.53 | X-H torsion
[ 8008 7997 7996 7995 ] final   75.35 input   59.86 | X-H torsion
[ 10167 10162 10161 10158 ] final  161.30 input  -65.29 | X-H torsion
[ 10718 10713 10712 10709 ] final -101.98 input   66.30 | X-H torsion
[ 10763 10752 10751 10750 ] final   54.52 input  -60.55 | X-H torsion
[ 11005 11000 10999 10996 ] final   20.39 input  -57.11 | X-H torsion

> <Gold.Protein.ActiveResidues>
 VAL166  LYS551  ARG553  GLY616  TRP617  ASP618  TYR619  PRO620  LYS621  CYS622 
 ASP623  PHE694  ASN695  SER759  ASP760  ASP761  ALA762  ILE779  LEU786  VAL792 
 PHE793  MET794  SER795  GLU796  ALA797  LYS798  CYS799  TRP800  GLU811  SER814 

> <Gold.Protein.RotatedAtoms>
  150.9943  133.6118  159.2703 H   0  0  0  0  0  0  0  0  0  0  0  0  # atno 6907 bound_to 6896
  151.3328  135.0844  159.9354 H   0  0  0  0  0  0  0  0  0  0  0  0  # atno 6908 bound_to 6896
  152.5255  133.9569  159.7753 H   0  0  0  0  0  0  0  0  0  0  0  0  # atno 6909 bound_to 6896
  145.0444  139.3935  143.5085 H   0  0  0  0  0  0  0  0  0  0  0  0  # atno 7974 bound_to 7965
  155.8116  140.3473  155.5461 H   0  0  0  0  0  0  0  0  0  0  0  0  # atno 8008 bound_to 7997
  155.8435  140.0945  157.1740 H   0  0  0  0  0  0  0  0  0  0  0  0  # atno 8009 bound_to 7997
  154.4005  140.1390  156.3744 H   0  0  0  0  0  0  0  0  0  0  0  0  # atno 8010 bound_to 7997
  139.4848  144.4550  151.8780 H   0  0  0  0  0  0  0  0  0  0  0  0  # atno 10167 bound_to 10162
  156.0213  130.5399  150.7042 H   0  0  0  0  0  0  0  0  0  0  0  0  # atno 10718 bound_to 10713
  152.9805  135.5742  154.4917 H   0  0  0  0  0  0  0  0  0  0  0  0  # atno 10763 bound_to 10752
  154.4450  135.2777  155.1823 H   0  0  0  0  0  0  0  0  0  0  0  0  # atno 10764 bound_to 10752
  154.3475  135.6216  153.5680 H   0  0  0  0  0  0  0  0  0  0  0  0  # atno 10765 bound_to 10752
  140.4031  134.1697  155.7664 H   0  0  0  0  0  0  0  0  0  0  0  0  # atno 11005 bound_to 11000
  146.3512  140.0062  142.8671 LP  0  0  0  0  0  0  0  0  0  0  0  0  # atno 17320 bound_to 7965
  145.1606  140.9671  143.4379 LP  0  0  0  0  0  0  0  0  0  0  0  0  # atno 17321 bound_to 7965
  140.4009  144.2494  150.5893 LP  0  0  0  0  0  0  0  0  0  0  0  0  # atno 17342 bound_to 10162
  140.5058  143.2304  151.8610 LP  0  0  0  0  0  0  0  0  0  0  0  0  # atno 17343 bound_to 10162
  157.4695  131.0891  151.0658 LP  0  0  0  0  0  0  0  0  0  0  0  0  # atno 17370 bound_to 10713
  157.1122  130.6026  149.5485 LP  0  0  0  0  0  0  0  0  0  0  0  0  # atno 17371 bound_to 10713
  141.1849  133.8334  157.1123 LP  0  0  0  0  0  0  0  0  0  0  0  0  # atno 17394 bound_to 11000
  140.0322  134.9896  157.0801 LP  0  0  0  0  0  0  0  0  0  0  0  0  # atno 17395 bound_to 11000

$$$$
