AV-unprocessed.smi:3149|AV-procd|sdf|11999|dock10
  -GOLD-   2272017403D 1   1.00000     0.00000
 Structure written by MMmdl.
 38 39  0  0  0  0  0  0  0  0  2 V2000
  147.2993  141.9437  155.3850 C   0  0  0  0  0  0  0  0  0  0  0  0
  148.5231  141.0327  155.5751 C   0  0  2  0  0  0  0  0  0  0  0  0
  149.6552  141.8577  156.0570 N   0  3  0  0  0  0  0  0  0  0  0  0
  149.7719  141.9618  157.5253 C   0  0  0  0  0  0  0  0  0  0  0  0
  151.2395  141.9960  157.9573 C   0  0  0  0  0  0  0  0  0  0  0  0
  151.9089  140.9631  157.9621 O   0  0  0  0  0  0  0  0  0  0  0  0
  151.7975  143.2396  158.2618 N   0  0  0  0  0  0  0  0  0  0  0  0
  152.7486  143.4006  159.3517 C   0  0  0  0  0  0  0  0  0  0  0  0
  152.1875  144.8196  159.4879 C   0  0  0  0  0  0  0  0  0  0  0  0
  150.9639  144.3515  158.6941 C   0  0  0  0  0  0  0  0  0  0  0  0
  148.9183  140.2778  154.2767 C   0  0  2  0  0  0  0  0  0  0  0  0
  147.7797  139.4084  153.7092 C   0  0  0  0  0  0  0  0  0  0  0  0
  150.1130  139.4641  154.4743 N   0  0  0  0  0  0  0  0  0  0  0  0
  150.2714  138.1125  154.2449 C   0  0  0  0  0  0  0  0  0  0  0  0
  151.5641  137.7950  154.5485 C   0  0  0  0  0  0  0  0  0  0  0  0
  152.1278  139.0325  154.9657 C   0  0  0  0  0  0  0  0  0  0  0  0
  151.2585  140.0288  154.9195 N   0  0  0  0  0  0  0  0  0  0  0  0
  146.4049  141.3729  155.1364 H   0  0  0  0  0  0  0  0  0  0  0  0
  147.4641  142.6720  154.5902 H   0  0  0  0  0  0  0  0  0  0  0  0
  147.0786  142.4956  156.2994 H   0  0  0  0  0  0  0  0  0  0  0  0
  148.2663  140.2980  156.3404 H   0  0  0  0  0  0  0  0  0  0  0  0
  150.5114  141.4561  155.7025 H   0  0  0  0  0  0  0  0  0  0  0  0
  149.2738  142.8680  157.8716 H   0  0  0  0  0  0  0  0  0  0  0  0
  149.2640  141.1125  157.9825 H   0  0  0  0  0  0  0  0  0  0  0  0
  152.5349  142.7682  160.2158 H   0  0  0  0  0  0  0  0  0  0  0  0
  153.7931  143.3545  159.0417 H   0  0  0  0  0  0  0  0  0  0  0  0
  151.9680  145.1181  160.5135 H   0  0  0  0  0  0  0  0  0  0  0  0
  152.7808  145.5718  158.9648 H   0  0  0  0  0  0  0  0  0  0  0  0
  150.6620  145.0194  157.8867 H   0  0  0  0  0  0  0  0  0  0  0  0
  150.1281  144.0537  159.3307 H   0  0  0  0  0  0  0  0  0  0  0  0
  149.1679  141.0208  153.5175 H   0  0  0  0  0  0  0  0  0  0  0  0
  146.9339  140.0133  153.3835 H   0  0  0  0  0  0  0  0  0  0  0  0
  147.4142  138.6944  154.4481 H   0  0  0  0  0  0  0  0  0  0  0  0
  148.1174  138.8421  152.8406 H   0  0  0  0  0  0  0  0  0  0  0  0
  149.4614  137.4952  153.8850 H   0  0  0  0  0  0  0  0  0  0  0  0
  152.0351  136.8252  154.4843 H   0  0  0  0  0  0  0  0  0  0  0  0
  153.1358  139.2353  155.2965 H   0  0  0  0  0  0  0  0  0  0  0  0
  149.5620  142.7906  155.6812 H   0  0  0  0  0  0  0  0  0  0  0  0
  1  2  1  0  0  0  0
  1 18  1  0  0  0  0
  1 19  1  0  0  0  0
  1 20  1  0  0  0  0
  2  3  1  0  0  0  0
  2 11  1  0  0  0  0
  2 21  1  0  0  0  0
  3  4  1  0  0  0  0
  3 22  1  0  0  0  0
  3 38  1  0  0  0  0
  4  5  1  0  0  0  0
  4 23  1  0  0  0  0
  4 24  1  0  0  0  0
  5  6  2  0  0  0  0
  5  7  1  0  0  0  0
  7 10  1  0  0  0  0
  7  8  1  0  0  0  0
  8  9  1  0  0  0  0
  8 25  1  0  0  0  0
  8 26  1  0  0  0  0
  9 10  1  0  0  0  0
  9 27  1  0  0  0  0
  9 28  1  0  0  0  0
 10 29  1  0  0  0  0
 10 30  1  0  0  0  0
 11 12  1  0  0  0  0
 11 13  1  0  0  0  0
 11 31  1  0  0  0  0
 12 32  1  0  0  0  0
 12 33  1  0  0  0  0
 12 34  1  0  0  0  0
 13 17  1  0  0  0  0
 13 14  1  0  0  0  0
 14 15  2  0  0  0  0
 14 35  1  0  0  0  0
 15 16  1  0  0  0  0
 15 36  1  0  0  0  0
 16 17  2  0  0  0  0
 16 37  1  0  0  0  0
M  CHG  1   3   1
M  END
> <s_m_source_file>
AV-unprocessed.smi

> <i_m_source_file_index>
3149

> <i_lp_mmshare_version>
43012

> <i_f3d_flags>
0

> <s_epik_input>
bjFbY0hdW2NIXVtjSF1uMVtDQEBIXShbQ0gzXSlbQ0BIXShbQ0gzXSlbTkhdW0NIMl1DKD1PKU4yW0NIMl1bQ0gyXVtDSDJdMg==

> <s_epik_cmdline>
J2VwaWtfcHl0aG9uJywgJy1waCcsICc3LjAnLCAnLXRuJywgJzgnLCAnLW1hJywgJzIwMCcsICctbWV0YWxfYmluZGluZycsICctaW1hZScsICc8aW5maWxlLm1hZT4nLCAnLW9tYWUnLCAnPG91dGZpbGUubWFlPic=

> <r_lp_tautomer_probability>
1

> <r_epik_Ionization_Penalty>
0.141739

> <r_epik_Ionization_Penalty_Charging>
0.141731

> <r_epik_Ionization_Penalty_Neutral>
8.82171e-06

> <r_epik_State_Penalty>
0.131043

> <r_epik_Charging_Adjusted_Penalty>
0.272773

> <i_epik_Tot_Q>
1

> <i_epik_Tot_abs_Q>
1

> <r_epik_Metal_State_Penalty>
0.131384

> <b_epik_Metal_Only>
0

> <s_lp_Force_Field>
OPLS_2005

> <r_lp_Energy>
21.2317

> <b_lp_Chiralities_Consistent>
1

> <s_lp_Variant>
AV-unprocessed.smi:3149-1

> <Gold.Version>
5.8.1

> <Gold.Id.Protein>
6NUR|6NUR_protein|mol2

> <Gold.PLP.Fitness>
50.2483

> <Gold.PLP.PLP>
-40.0558

> <Gold.PLP.part.hbond>
-2.0000

> <Gold.PLP.part.metal>
0.0000

> <Gold.PLP.part.buried>
-3.6329

> <Gold.PLP.part.nonpolar>
-35.7703

> <Gold.PLP.part.repulsive>
0.1663

> <Gold.PLP.ligand.clash>
0.0000

> <Gold.PLP.ligand.torsion>
1.3649

> <Gold.PLP.Chemscore.Hbond>
3.0000

> <Gold.PLP.Chemscore.CHOScore>
1.0000

> <Gold.PLP.Chemscore.Metal>
0.0000

> <Gold.Chemscore.Hbonds>
donor molecule, donor type, donor heavy atom, donor atom, acceptor molecule, acceptor atom, score
      L1  H     3    38       P1  8028  1.95
      P1  H  7989  7998       L1    17  0.85
      L1  C    14    35       P1  7948  1.00

> <Gold.PLP.Chemscore.Internal.Correction>
0.9223

> <Gold.Rescore>
     Score         DG    S(hbond)    S(metal)    S(lipo)     H(rot)  DE(clash)    DE(int)     intcor
     13.67     -16.59       1.79        0.00      84.51       1.85       0.01       2.92       ----

> <Gold.Chemscore.Fitness>
13.6659

> <Gold.Chemscore.DG>
-16.5891

> <Gold.Chemscore.ZeroCoef>
-5.4800

> <Gold.Chemscore.Hbond>
1.7868

> <Gold.Chemscore.Metal>
0.0000

> <Gold.Chemscore.Lipo>
84.5148

> <Gold.Chemscore.Internal_Hbond>
0.0000

> <Gold.Chemscore.DEClash>
0.0073

> <Gold.Chemscore.DEInternal>
2.9159

> <Gold.Chemscore.Rot>
1.8544

> <Gold.Chemscore.Internal.Correction>
   9.000000E+99

> <Gold.Chemscore.Hbonds>
donor molecule, donor type, donor heavy atom, donor atom, acceptor molecule, acceptor atom, score
      L1  H     3    38       P1  8028  0.89
      P1  H  7989  7998       L1    17  0.07

> <Gold.Chemscore.Hbond.Weighted>
-5.9680

> <Gold.Chemscore.Metal.Weighted>
-0.0000

> <Gold.Chemscore.Lipo.Weighted>
-9.8882

> <Gold.Chemscore.Internal_Hbond.Weighted>
0.0000

> <Gold.Chemscore.DEClash.Weighted>
0.0073

> <Gold.Chemscore.DEInternal.Weighted>
2.9159

> <Gold.Chemscore.Rot.Weighted>
4.7472

> <Gold.Chemscore.Internal.Correction.Weighted>
   9.000000E+99

> <Gold.Protein.RotatedTorsions>
[ 6907 6896 6895 6894 ] final   67.68 input  -60.11 | X-H torsion
[ 7974 7965 7964 7962 ] final  -53.75 input  175.53 | X-H torsion
[ 8008 7997 7996 7995 ] final  -88.53 input   59.86 | X-H torsion
[ 10167 10162 10161 10158 ] final  -27.92 input  -65.29 | X-H torsion
[ 10718 10713 10712 10709 ] final  135.65 input   66.30 | X-H torsion
[ 10763 10752 10751 10750 ] final  107.61 input  -60.55 | X-H torsion
[ 11005 11000 10999 10996 ] final  149.28 input  -57.11 | X-H torsion

> <Gold.Protein.ActiveResidues>
 VAL166  LYS551  ARG553  GLY616  TRP617  ASP618  TYR619  PRO620  LYS621  CYS622 
 ASP623  PHE694  ASN695  SER759  ASP760  ASP761  ALA762  ILE779  LEU786  VAL792 
 PHE793  MET794  SER795  GLU796  ALA797  LYS798  CYS799  TRP800  GLU811  SER814 

> <Gold.Protein.RotatedAtoms>
  152.4568  134.5273  159.9800 H   0  0  0  0  0  0  0  0  0  0  0  0  # atno 6907 bound_to 6896
  151.5332  133.3439  159.2930 H   0  0  0  0  0  0  0  0  0  0  0  0  # atno 6908 bound_to 6896
  150.8516  134.7872  159.7075 H   0  0  0  0  0  0  0  0  0  0  0  0  # atno 6909 bound_to 6896
  145.8933  140.8053  142.9780 H   0  0  0  0  0  0  0  0  0  0  0  0  # atno 7974 bound_to 7965
  154.6759  140.0552  157.0215 H   0  0  0  0  0  0  0  0  0  0  0  0  # atno 8008 bound_to 7997
  155.1021  140.3230  155.4525 H   0  0  0  0  0  0  0  0  0  0  0  0  # atno 8009 bound_to 7997
  156.2676  140.2029  156.6147 H   0  0  0  0  0  0  0  0  0  0  0  0  # atno 8010 bound_to 7997
  140.7274  143.4053  151.1196 H   0  0  0  0  0  0  0  0  0  0  0  0  # atno 10167 bound_to 10162
  157.4548  131.1069  150.9990 H   0  0  0  0  0  0  0  0  0  0  0  0  # atno 10718 bound_to 10713
  153.4091  135.3839  155.2038 H   0  0  0  0  0  0  0  0  0  0  0  0  # atno 10763 bound_to 10752
  154.8736  135.3790  154.4523 H   0  0  0  0  0  0  0  0  0  0  0  0  # atno 10764 bound_to 10752
  153.5029  135.7088  153.5884 H   0  0  0  0  0  0  0  0  0  0  0  0  # atno 10765 bound_to 10752
  140.1032  134.8970  157.1826 H   0  0  0  0  0  0  0  0  0  0  0  0  # atno 11005 bound_to 11000
  144.6731  140.1563  143.7426 LP  0  0  0  0  0  0  0  0  0  0  0  0  # atno 17320 bound_to 7965
  145.8881  139.2360  143.1565 LP  0  0  0  0  0  0  0  0  0  0  0  0  # atno 17321 bound_to 7965
  139.7679  143.8538  152.3114 LP  0  0  0  0  0  0  0  0  0  0  0  0  # atno 17342 bound_to 10162
  139.8447  144.7193  150.9288 LP  0  0  0  0  0  0  0  0  0  0  0  0  # atno 17343 bound_to 10162
  157.0808  130.5902  149.5420 LP  0  0  0  0  0  0  0  0  0  0  0  0  # atno 17370 bound_to 10713
  156.0002  130.5080  150.7636 LP  0  0  0  0  0  0  0  0  0  0  0  0  # atno 17371 bound_to 10713
  140.3192  134.2936  155.7250 LP  0  0  0  0  0  0  0  0  0  0  0  0  # atno 17394 bound_to 11000
  141.2111  133.7699  156.9886 LP  0  0  0  0  0  0  0  0  0  0  0  0  # atno 17395 bound_to 11000

$$$$
