AV-unprocessed.smi:3194|AV-procd|sdf|12210|dock1
  -GOLD-   2272018 43D 1   1.00000     0.00000
 Structure written by MMmdl.
 28 28  0  0  0  0  0  0  0  0  1 V2000
  149.3876  140.9483  157.2954 C   0  0  0  0  0  0  0  0  0  0  0  0
  150.6086  141.5378  156.5677 C   0  0  2  0  0  0  0  0  0  0  0  0
  151.5313  140.4741  155.9437 C   0  0  0  0  0  0  0  0  0  0  0  0
  151.0090  139.9779  154.7277 O   0  0  0  0  0  0  0  0  0  0  0  0
  151.3819  142.4115  157.4457 N   0  0  0  0  0  0  0  0  0  0  0  0
  150.8824  143.3821  158.2294 C   0  0  0  0  0  0  0  0  0  0  0  0
  149.6799  143.6407  158.2947 O   0  0  0  0  0  0  0  0  0  0  0  0
  151.8927  144.1905  159.0575 C   0  0  0  0  0  0  0  0  0  0  0  0
  152.8389  144.6604  158.2411 F   0  0  0  0  0  0  0  0  0  0  0  0
  151.2738  145.2380  159.6087 F   0  0  0  0  0  0  0  0  0  0  0  0
  152.5126  143.3122  160.1413 C   0  0  0  0  0  0  0  0  0  0  0  0
  152.3949  143.6514  161.5086 C   0  0  0  0  0  0  0  0  0  0  0  0
  152.9973  142.8139  162.4670 C   0  0  0  0  0  0  0  0  0  0  0  0
  153.6951  141.6728  162.0285 C   0  0  0  0  0  0  0  0  0  0  0  0
  153.7613  141.4198  160.6445 C   0  0  0  0  0  0  0  0  0  0  0  0
  153.1881  142.2166  159.7177 N   0  0  0  0  0  0  0  0  0  0  0  0
  150.2370  142.1435  155.7392 H   0  0  0  0  0  0  0  0  0  0  0  0
  148.8207  140.2906  156.6360 H   0  0  0  0  0  0  0  0  0  0  0  0
  148.7126  141.7354  157.6323 H   0  0  0  0  0  0  0  0  0  0  0  0
  149.6811  140.3696  158.1718 H   0  0  0  0  0  0  0  0  0  0  0  0
  152.5098  140.9088  155.7373 H   0  0  0  0  0  0  0  0  0  0  0  0
  151.6933  139.6456  156.6344 H   0  0  0  0  0  0  0  0  0  0  0  0
  150.0738  140.1147  154.7239 H   0  0  0  0  0  0  0  0  0  0  0  0
  152.3824  142.2716  157.4518 H   0  0  0  0  0  0  0  0  0  0  0  0
  151.8599  144.5361  161.8206 H   0  0  0  0  0  0  0  0  0  0  0  0
  152.9267  143.0440  163.5198 H   0  0  0  0  0  0  0  0  0  0  0  0
  154.1695  141.0083  162.7354 H   0  0  0  0  0  0  0  0  0  0  0  0
  154.2897  140.5548  160.2716 H   0  0  0  0  0  0  0  0  0  0  0  0
  1  2  1  0  0  0  0
  1 18  1  0  0  0  0
  1 19  1  0  0  0  0
  1 20  1  0  0  0  0
  2 17  1  0  0  0  0
  2  3  1  0  0  0  0
  2  5  1  0  0  0  0
  3  4  1  0  0  0  0
  3 21  1  0  0  0  0
  3 22  1  0  0  0  0
  4 23  1  0  0  0  0
  5  6  1  0  0  0  0
  5 24  1  0  0  0  0
  6  7  2  0  0  0  0
  6  8  1  0  0  0  0
  8  9  1  0  0  0  0
  8 10  1  0  0  0  0
  8 11  1  0  0  0  0
 11 16  1  0  0  0  0
 11 12  2  0  0  0  0
 12 13  1  0  0  0  0
 12 25  1  0  0  0  0
 13 14  2  0  0  0  0
 13 26  1  0  0  0  0
 14 15  1  0  0  0  0
 14 27  1  0  0  0  0
 15 16  2  0  0  0  0
 15 28  1  0  0  0  0
M  END
> <s_m_source_file>
AV-unprocessed.smi

> <i_m_source_file_index>
3194

> <i_lp_mmshare_version>
43012

> <i_f3d_flags>
0

> <s_epik_input>
W09IXVtDSDJdW0NASF0oW0NIM10pW05IXUMoPU8pQyhGKShGKWMxW2NIXVtjSF1bY0hdW2NIXW4x

> <s_epik_cmdline>
J2VwaWtfcHl0aG9uJywgJy1waCcsICc3LjAnLCAnLXRuJywgJzgnLCAnLW1hJywgJzIwMCcsICctbWV0YWxfYmluZGluZycsICctaW1hZScsICc8aW5maWxlLm1hZT4nLCAnLW9tYWUnLCAnPG91dGZpbGUubWFlPic=

> <r_lp_tautomer_probability>
1

> <r_epik_Ionization_Penalty>
3.67967e-05

> <r_epik_Ionization_Penalty_Charging>
0

> <r_epik_Ionization_Penalty_Neutral>
3.67967e-05

> <r_epik_State_Penalty>
-0

> <r_epik_Charging_Adjusted_Penalty>
0

> <i_epik_Tot_Q>
0

> <i_epik_Tot_abs_Q>
0

> <r_epik_Metal_State_Penalty>
0.0311521

> <b_epik_Metal_Only>
0

> <s_lp_Force_Field>
OPLS_2005

> <r_lp_Energy>
12.3204

> <b_lp_Chiralities_Consistent>
1

> <s_lp_Variant>
AV-unprocessed.smi:3194-2

> <Gold.Version>
5.8.1

> <Gold.Id.Protein>
6NUR|6NUR_protein|mol2

> <Gold.PLP.Fitness>
45.6287

> <Gold.PLP.PLP>
-44.7364

> <Gold.PLP.part.hbond>
-1.0000

> <Gold.PLP.part.metal>
0.0000

> <Gold.PLP.part.buried>
-6.3359

> <Gold.PLP.part.nonpolar>
-37.6529

> <Gold.PLP.part.repulsive>
0.7620

> <Gold.PLP.ligand.clash>
1.1816

> <Gold.PLP.ligand.torsion>
0.4956

> <Gold.PLP.Chemscore.Hbond>
1.0000

> <Gold.PLP.Chemscore.CHOScore>
0.0000

> <Gold.PLP.Chemscore.Metal>
0.0000

> <Gold.Chemscore.Hbonds>
donor molecule, donor type, donor heavy atom, donor atom, acceptor molecule, acceptor atom, score
      P1  H  7989  7998       L1     4  1.00

> <Gold.PLP.Chemscore.Internal.Correction>
0.0651

> <Gold.Rescore>
     Score         DG    S(hbond)    S(metal)    S(lipo)     H(rot)  DE(clash)    DE(int)     intcor
      9.51     -12.32       0.96        0.00      85.80       2.50       0.09       2.72       ----

> <Gold.Chemscore.Fitness>
9.5090

> <Gold.Chemscore.DG>
-12.3168

> <Gold.Chemscore.ZeroCoef>
-5.4800

> <Gold.Chemscore.Hbond>
0.9551

> <Gold.Chemscore.Metal>
0.0000

> <Gold.Chemscore.Lipo>
85.8023

> <Gold.Chemscore.Internal_Hbond>
0.0000

> <Gold.Chemscore.DEClash>
0.0852

> <Gold.Chemscore.DEInternal>
2.7226

> <Gold.Chemscore.Rot>
2.4970

> <Gold.Chemscore.Internal.Correction>
   9.000000E+99

> <Gold.Chemscore.Hbonds>
donor molecule, donor type, donor heavy atom, donor atom, acceptor molecule, acceptor atom, score
      P1  H  7989  7998       L1     4  0.39

> <Gold.Chemscore.Hbond.Weighted>
-3.1902

> <Gold.Chemscore.Metal.Weighted>
-0.0000

> <Gold.Chemscore.Lipo.Weighted>
-10.0389

> <Gold.Chemscore.Internal_Hbond.Weighted>
0.0000

> <Gold.Chemscore.DEClash.Weighted>
0.0852

> <Gold.Chemscore.DEInternal.Weighted>
2.7226

> <Gold.Chemscore.Rot.Weighted>
6.3922

> <Gold.Chemscore.Internal.Correction.Weighted>
   9.000000E+99

> <Gold.Protein.RotatedTorsions>
[ 6907 6896 6895 6894 ] final  -41.53 input  -60.11 | X-H torsion
[ 7974 7965 7964 7962 ] final   93.64 input  175.53 | X-H torsion
[ 8008 7997 7996 7995 ] final -106.86 input   59.86 | X-H torsion
[ 10167 10162 10161 10158 ] final  173.33 input  -65.29 | X-H torsion
[ 10718 10713 10712 10709 ] final -125.65 input   66.30 | X-H torsion
[ 10763 10752 10751 10750 ] final   27.62 input  -60.55 | X-H torsion
[ 11005 11000 10999 10996 ] final  -88.99 input  -57.11 | X-H torsion

> <Gold.Protein.ActiveResidues>
 VAL166  LYS551  ARG553  GLY616  TRP617  ASP618  TYR619  PRO620  LYS621  CYS622 
 ASP623  PHE694  ASN695  SER759  ASP760  ASP761  ALA762  ILE779  LEU786  VAL792 
 PHE793  MET794  SER795  GLU796  ALA797  LYS798  CYS799  TRP800  GLU811  SER814 

> <Gold.Protein.RotatedAtoms>
  150.9656  134.9037  159.7756 H   0  0  0  0  0  0  0  0  0  0  0  0  # atno 6907 bound_to 6896
  152.5172  134.3612  159.9295 H   0  0  0  0  0  0  0  0  0  0  0  0  # atno 6908 bound_to 6896
  151.3622  133.3844  159.2725 H   0  0  0  0  0  0  0  0  0  0  0  0  # atno 6909 bound_to 6896
  145.4762  139.2280  143.2908 H   0  0  0  0  0  0  0  0  0  0  0  0  # atno 7974 bound_to 7965
  154.9208  140.0407  157.1997 H   0  0  0  0  0  0  0  0  0  0  0  0  # atno 8008 bound_to 7997
  154.8255  140.2890  155.5736 H   0  0  0  0  0  0  0  0  0  0  0  0  # atno 8009 bound_to 7997
  156.2983  140.2510  156.3171 H   0  0  0  0  0  0  0  0  0  0  0  0  # atno 8010 bound_to 7997
  139.5105  144.3273  152.0145 H   0  0  0  0  0  0  0  0  0  0  0  0  # atno 10167 bound_to 10162
  156.1694  130.6657  151.0159 H   0  0  0  0  0  0  0  0  0  0  0  0  # atno 10718 bound_to 10713
  153.0544  135.6533  154.0613 H   0  0  0  0  0  0  0  0  0  0  0  0  # atno 10763 bound_to 10752
  154.0294  135.2913  155.3372 H   0  0  0  0  0  0  0  0  0  0  0  0  # atno 10764 bound_to 10752
  154.6851  135.5305  153.8383 H   0  0  0  0  0  0  0  0  0  0  0  0  # atno 10765 bound_to 10752
  141.1592  133.7603  156.9531 H   0  0  0  0  0  0  0  0  0  0  0  0  # atno 11005 bound_to 11000
  146.2368  140.5544  142.8951 LP  0  0  0  0  0  0  0  0  0  0  0  0  # atno 17320 bound_to 7965
  144.7916  140.6042  143.6538 LP  0  0  0  0  0  0  0  0  0  0  0  0  # atno 17321 bound_to 7965
  140.2713  144.3961  150.6150 LP  0  0  0  0  0  0  0  0  0  0  0  0  # atno 17342 bound_to 10162
  140.6086  143.2168  151.6931 LP  0  0  0  0  0  0  0  0  0  0  0  0  # atno 17343 bound_to 10162
  157.6792  131.0842  150.7415 LP  0  0  0  0  0  0  0  0  0  0  0  0  # atno 17370 bound_to 10713
  156.7475  130.4758  149.5464 LP  0  0  0  0  0  0  0  0  0  0  0  0  # atno 17371 bound_to 10713
  140.1244  134.9396  157.2249 LP  0  0  0  0  0  0  0  0  0  0  0  0  # atno 17394 bound_to 11000
  140.3032  134.3108  155.7285 LP  0  0  0  0  0  0  0  0  0  0  0  0  # atno 17395 bound_to 11000

$$$$
