AV-unprocessed.smi:1350|AV-procd|sdf|5522|dock8
  -GOLD-   22720 5113D 1   1.00000     0.00000
 Structure written by MMmdl.
 44 46  0  0  0  0  0  0  0  0  2 V2000
  147.8071  132.7875  158.4133 C   0  0  0  0  0  0  0  0  0  0  0  0
  147.9165  134.1845  158.6451 O   0  0  0  0  0  0  0  0  0  0  0  0
  147.4409  134.6948  159.8363 C   0  0  0  0  0  0  0  0  0  0  0  0
  146.7866  133.9017  160.8146 C   0  0  0  0  0  0  0  0  0  0  0  0
  146.3224  134.4752  162.0133 C   0  0  0  0  0  0  0  0  0  0  0  0
  146.5045  135.8477  162.2547 C   0  0  0  0  0  0  0  0  0  0  0  0
  147.1510  136.6452  161.2940 C   0  0  0  0  0  0  0  0  0  0  0  0
  147.6164  136.0792  160.0884 C   0  0  0  0  0  0  0  0  0  0  0  0
  148.3204  136.9858  159.0917 C   0  0  0  0  0  0  0  0  0  0  0  0
  149.6833  136.6256  158.9367 O   0  0  0  0  0  0  0  0  0  0  0  0
  150.5710  137.6705  159.2991 C   0  0  0  0  0  0  0  0  0  0  0  0
  150.4441  138.8120  158.2807 C   0  0  2  0  0  0  0  0  0  0  0  0
  150.3330  138.2536  156.9865 O   0  0  0  0  0  0  0  0  0  0  0  0
  151.6430  139.7805  158.3272 C   0  0  0  0  0  0  0  0  0  0  0  0
  151.3329  141.0936  157.7480 N   0  0  0  0  0  0  0  0  0  0  0  0
  150.6855  141.4135  156.5948 C   0  0  0  0  0  0  0  0  0  0  0  0
  150.6443  142.7724  156.5100 N   0  3  0  0  0  0  0  0  0  0  0  0
  151.2758  143.3284  157.6249 C   0  0  0  0  0  0  0  0  0  0  0  0
  151.4851  144.6553  157.9879 C   0  0  0  0  0  0  0  0  0  0  0  0
  152.1691  144.8788  159.2012 C   0  0  0  0  0  0  0  0  0  0  0  0
  152.6161  143.8069  160.0018 C   0  0  0  0  0  0  0  0  0  0  0  0
  152.3989  142.4656  159.6237 C   0  0  0  0  0  0  0  0  0  0  0  0
  151.7219  142.2542  158.4235 C   0  0  0  0  0  0  0  0  0  0  0  0
  148.2225  132.5527  157.4335 H   0  0  0  0  0  0  0  0  0  0  0  0
  146.7658  132.4624  158.4153 H   0  0  0  0  0  0  0  0  0  0  0  0
  148.3677  132.2150  159.1535 H   0  0  0  0  0  0  0  0  0  0  0  0
  146.6274  132.8439  160.6710 H   0  0  0  0  0  0  0  0  0  0  0  0
  145.8273  133.8591  162.7492 H   0  0  0  0  0  0  0  0  0  0  0  0
  146.1510  136.2878  163.1754 H   0  0  0  0  0  0  0  0  0  0  0  0
  147.2914  137.6991  161.4850 H   0  0  0  0  0  0  0  0  0  0  0  0
  147.8066  136.8957  158.1335 H   0  0  0  0  0  0  0  0  0  0  0  0
  148.2522  138.0327  159.3873 H   0  0  0  0  0  0  0  0  0  0  0  0
  150.3505  138.0290  160.3061 H   0  0  0  0  0  0  0  0  0  0  0  0
  151.5931  137.2875  159.3031 H   0  0  0  0  0  0  0  0  0  0  0  0
  149.5212  139.3582  158.4787 H   0  0  0  0  0  0  0  0  0  0  0  0
  150.9927  138.6437  156.4338 H   0  0  0  0  0  0  0  0  0  0  0  0
  151.9883  139.9298  159.3513 H   0  0  0  0  0  0  0  0  0  0  0  0
  152.4875  139.3677  157.7737 H   0  0  0  0  0  0  0  0  0  0  0  0
  150.2741  140.7161  155.8794 H   0  0  0  0  0  0  0  0  0  0  0  0
  151.1434  145.4783  157.3776 H   0  0  0  0  0  0  0  0  0  0  0  0
  152.3539  145.8929  159.5249 H   0  0  0  0  0  0  0  0  0  0  0  0
  153.1356  144.0176  160.9253 H   0  0  0  0  0  0  0  0  0  0  0  0
  152.7427  141.6504  160.2434 H   0  0  0  0  0  0  0  0  0  0  0  0
  150.2135  143.2799  155.7478 H   0  0  0  0  0  0  0  0  0  0  0  0
  1  2  1  0  0  0  0
  1 24  1  0  0  0  0
  1 25  1  0  0  0  0
  1 26  1  0  0  0  0
  2  3  1  0  0  0  0
  3  8  1  0  0  0  0
  3  4  2  0  0  0  0
  4  5  1  0  0  0  0
  4 27  1  0  0  0  0
  5  6  2  0  0  0  0
  5 28  1  0  0  0  0
  6  7  1  0  0  0  0
  6 29  1  0  0  0  0
  7  8  2  0  0  0  0
  7 30  1  0  0  0  0
  8  9  1  0  0  0  0
  9 10  1  0  0  0  0
  9 31  1  0  0  0  0
  9 32  1  0  0  0  0
 10 11  1  0  0  0  0
 11 12  1  0  0  0  0
 11 33  1  0  0  0  0
 11 34  1  0  0  0  0
 12 13  1  0  0  0  0
 12 14  1  0  0  0  0
 12 35  1  0  0  0  0
 13 36  1  0  0  0  0
 14 15  1  0  0  0  0
 14 37  1  0  0  0  0
 14 38  1  0  0  0  0
 15 23  1  0  0  0  0
 15 16  1  0  0  0  0
 16 17  2  0  0  0  0
 16 39  1  0  0  0  0
 17 18  1  0  0  0  0
 17 44  1  0  0  0  0
 18 23  2  0  0  0  0
 18 19  1  0  0  0  0
 19 20  2  0  0  0  0
 19 40  1  0  0  0  0
 20 21  1  0  0  0  0
 20 41  1  0  0  0  0
 21 22  2  0  0  0  0
 21 42  1  0  0  0  0
 22 23  1  0  0  0  0
 22 43  1  0  0  0  0
M  CHG  1  17   1
M  END
> <s_m_source_file>
AV-unprocessed.smi

> <i_m_source_file_index>
1350

> <i_lp_mmshare_version>
43012

> <i_f3d_flags>
0

> <s_epik_input>
W0NIM11PYzFbY0hdW2NIXVtjSF1bY0hdYzFbQ0gyXU9bQ0gyXVtDQEhdKFtPSF0pW0NIMl1uKFtjSF1uMiljKGMyMylbY0hdW2NIXVtjSF1bY0hdMw==

> <s_epik_cmdline>
J2VwaWtfcHl0aG9uJywgJy1waCcsICc3LjAnLCAnLXRuJywgJzgnLCAnLW1hJywgJzIwMCcsICctbWV0YWxfYmluZGluZycsICctaW1hZScsICc8aW5maWxlLm1hZT4nLCAnLW9tYWUnLCAnPG91dGZpbGUubWFlPic=

> <r_lp_tautomer_probability>
1

> <r_epik_Ionization_Penalty>
1.28975

> <r_epik_Ionization_Penalty_Charging>
1.28975

> <r_epik_Ionization_Penalty_Neutral>
1.07667e-06

> <r_epik_State_Penalty>
1.36276

> <r_epik_Charging_Adjusted_Penalty>
2.65251

> <i_epik_Tot_Q>
1

> <i_epik_Tot_abs_Q>
1

> <r_epik_Metal_State_Penalty>
5.39298

> <b_epik_Metal_Only>
0

> <s_lp_Force_Field>
OPLS_2005

> <r_lp_Energy>
23.7531

> <b_lp_Chiralities_Consistent>
1

> <s_lp_Variant>
AV-unprocessed.smi:1350-3

> <Gold.Version>
5.8.1

> <Gold.Id.Protein>
6NUR|6NUR_protein|mol2

> <Gold.PLP.Fitness>
60.5424

> <Gold.PLP.PLP>
-53.3405

> <Gold.PLP.part.hbond>
-2.0000

> <Gold.PLP.part.metal>
0.0000

> <Gold.PLP.part.buried>
-6.1543

> <Gold.PLP.part.nonpolar>
-44.9617

> <Gold.PLP.part.repulsive>
0.0558

> <Gold.PLP.ligand.clash>
0.0000

> <Gold.PLP.ligand.torsion>
0.9614

> <Gold.PLP.Chemscore.Hbond>
2.9840

> <Gold.PLP.Chemscore.CHOScore>
0.0000

> <Gold.PLP.Chemscore.Metal>
0.0000

> <Gold.Chemscore.Hbonds>
donor molecule, donor type, donor heavy atom, donor atom, acceptor molecule, acceptor atom, score
      L1  H    17    44       P1  8028  1.38
      P1  H  6896  6907       L1    10  0.46

> <Gold.PLP.Chemscore.Internal.Correction>
0.1727

> <Gold.Rescore>
     Score         DG    S(hbond)    S(metal)    S(lipo)     H(rot)  DE(clash)    DE(int)     intcor
     17.72     -19.97       1.79        0.00     132.60       2.74       0.18       2.07       ----

> <Gold.Chemscore.Fitness>
17.7217

> <Gold.Chemscore.DG>
-19.9738

> <Gold.Chemscore.ZeroCoef>
-5.4800

> <Gold.Chemscore.Hbond>
1.7937

> <Gold.Chemscore.Metal>
0.0000

> <Gold.Chemscore.Lipo>
132.6045

> <Gold.Chemscore.Internal_Hbond>
0.0000

> <Gold.Chemscore.DEClash>
0.1771

> <Gold.Chemscore.DEInternal>
2.0750

> <Gold.Chemscore.Rot>
2.7390

> <Gold.Chemscore.Internal.Correction>
   9.000000E+99

> <Gold.Chemscore.Hbonds>
donor molecule, donor type, donor heavy atom, donor atom, acceptor molecule, acceptor atom, score
      L1  H    17    44       P1  8028  0.67
      P1  H  6896  6907       L1    10  0.14

> <Gold.Chemscore.Hbond.Weighted>
-5.9908

> <Gold.Chemscore.Metal.Weighted>
-0.0000

> <Gold.Chemscore.Lipo.Weighted>
-15.5147

> <Gold.Chemscore.Internal_Hbond.Weighted>
0.0000

> <Gold.Chemscore.DEClash.Weighted>
0.1771

> <Gold.Chemscore.DEInternal.Weighted>
2.0750

> <Gold.Chemscore.Rot.Weighted>
7.0118

> <Gold.Chemscore.Internal.Correction.Weighted>
   9.000000E+99

> <Gold.Protein.RotatedTorsions>
[ 6907 6896 6895 6894 ] final  -54.16 input  -60.11 | X-H torsion
[ 7974 7965 7964 7962 ] final  119.37 input  175.53 | X-H torsion
[ 8008 7997 7996 7995 ] final -107.07 input   59.86 | X-H torsion
[ 10167 10162 10161 10158 ] final  178.29 input  -65.29 | X-H torsion
[ 10718 10713 10712 10709 ] final  104.18 input   66.30 | X-H torsion
[ 10763 10752 10751 10750 ] final  -92.44 input  -60.55 | X-H torsion
[ 11005 11000 10999 10996 ] final  175.98 input  -57.11 | X-H torsion

> <Gold.Protein.ActiveResidues>
 VAL166  LYS551  ARG553  GLY616  TRP617  ASP618  TYR619  PRO620  LYS621  CYS622 
 ASP623  PHE694  ASN695  SER759  ASP760  ASP761  ALA762  ILE779  LEU786  VAL792 
 PHE793  MET794  SER795  GLU796  ALA797  LYS798  CYS799  TRP800  GLU811  SER814 

> <Gold.Protein.RotatedAtoms>
  150.8362  134.7636  159.6894 H   0  0  0  0  0  0  0  0  0  0  0  0  # atno 6907 bound_to 6896
  152.4458  134.5493  159.9872 H   0  0  0  0  0  0  0  0  0  0  0  0  # atno 6908 bound_to 6896
  151.5643  133.3361  159.3013 H   0  0  0  0  0  0  0  0  0  0  0  0  # atno 6909 bound_to 6896
  145.1440  139.3251  143.4601 H   0  0  0  0  0  0  0  0  0  0  0  0  # atno 7974 bound_to 7965
  154.9239  140.0406  157.2013 H   0  0  0  0  0  0  0  0  0  0  0  0  # atno 8008 bound_to 7997
  154.8226  140.2886  155.5755 H   0  0  0  0  0  0  0  0  0  0  0  0  # atno 8009 bound_to 7997
  156.2981  140.2516  156.3136 H   0  0  0  0  0  0  0  0  0  0  0  0  # atno 8010 bound_to 7997
  139.5288  144.2698  152.0638 H   0  0  0  0  0  0  0  0  0  0  0  0  # atno 10167 bound_to 10162
  157.6748  131.0797  150.5668 H   0  0  0  0  0  0  0  0  0  0  0  0  # atno 10718 bound_to 10713
  154.6861  135.5231  153.8328 H   0  0  0  0  0  0  0  0  0  0  0  0  # atno 10763 bound_to 10752
  153.0598  135.6564  154.0498 H   0  0  0  0  0  0  0  0  0  0  0  0  # atno 10764 bound_to 10752
  154.0379  135.2979  155.3339 H   0  0  0  0  0  0  0  0  0  0  0  0  # atno 10765 bound_to 10752
  140.3681  134.7054  157.4374 H   0  0  0  0  0  0  0  0  0  0  0  0  # atno 11005 bound_to 11000
  146.3502  140.1488  142.8593 LP  0  0  0  0  0  0  0  0  0  0  0  0  # atno 17320 bound_to 7965
  145.0502  140.9012  143.5000 LP  0  0  0  0  0  0  0  0  0  0  0  0  # atno 17321 bound_to 7965
  140.2158  144.4517  150.6364 LP  0  0  0  0  0  0  0  0  0  0  0  0  # atno 17342 bound_to 10162
  140.6451  143.2211  151.6204 LP  0  0  0  0  0  0  0  0  0  0  0  0  # atno 17343 bound_to 10162
  156.5970  130.4344  149.5913 LP  0  0  0  0  0  0  0  0  0  0  0  0  # atno 17370 bound_to 10713
  156.2537  130.6922  151.1668 LP  0  0  0  0  0  0  0  0  0  0  0  0  # atno 17371 bound_to 10713
  140.0573  134.6045  155.8790 LP  0  0  0  0  0  0  0  0  0  0  0  0  # atno 17394 bound_to 11000
  141.1963  133.6591  156.5686 LP  0  0  0  0  0  0  0  0  0  0  0  0  # atno 17395 bound_to 11000

$$$$
