AV-unprocessed.smi:311|AV-procd|sdf|2299|dock4
  -GOLD-   2262022203D 1   1.00000     0.00000
 Structure written by MMmdl.
 44 46  0  0  0  0  0  0  0  0  2 V2000
  149.4669  133.8764  154.6705 C   0  0  0  0  0  0  0  0  0  0  0  0
  150.1956  133.0059  155.6534 C   0  0  0  0  0  0  0  0  0  0  0  0
  150.7012  133.5412  156.7518 N   0  0  0  0  0  0  0  0  0  0  0  0
  151.3133  132.4916  157.4434 O   0  0  0  0  0  0  0  0  0  0  0  0
  151.1477  131.3514  156.7267 C   0  0  0  0  0  0  0  0  0  0  0  0
  151.7489  130.1122  157.2982 C   0  0  0  0  0  0  0  0  0  0  0  0
  150.4460  131.6057  155.5797 C   0  0  0  0  0  0  0  0  0  0  0  0
  150.0423  130.6507  154.4857 C   0  0  0  0  0  0  0  0  0  0  0  0
  148.5186  130.6339  154.3790 C   0  0  0  0  0  0  0  0  0  0  0  0
  147.8309  130.5383  155.3951 O   0  0  0  0  0  0  0  0  0  0  0  0
  148.0061  130.7693  153.1465 N   0  0  0  0  0  0  0  0  0  0  0  0
  146.5887  130.9267  152.8408 C   0  0  2  0  0  0  0  0  0  0  0  0
  145.9804  129.7022  152.1355 C   0  0  0  0  0  0  0  0  0  0  0  0
  144.9833  130.2771  151.1089 C   0  0  0  0  0  0  0  0  0  0  0  0
  145.0091  131.7390  151.3109 N   0  3  2  0  0  0  0  0  0  0  0  0
  144.6290  132.5866  150.1596 C   0  0  0  0  0  0  0  0  0  0  0  0
  144.6431  134.0672  150.5907 C   0  0  0  0  0  0  0  0  0  0  0  0
  145.9887  134.4648  151.2314 C   0  0  0  0  0  0  0  0  0  0  0  0
  146.3755  133.4927  152.3625 C   0  0  0  0  0  0  0  0  0  0  0  0
  146.3488  132.0502  151.8305 C   0  0  1  0  0  0  0  0  0  0  0  0
  149.7694  133.6482  153.6484 H   0  0  0  0  0  0  0  0  0  0  0  0
  149.6648  134.9347  154.8434 H   0  0  0  0  0  0  0  0  0  0  0  0
  148.3901  133.7236  154.7403 H   0  0  0  0  0  0  0  0  0  0  0  0
  151.2022  129.2273  156.9726 H   0  0  0  0  0  0  0  0  0  0  0  0
  151.7316  130.1365  158.3879 H   0  0  0  0  0  0  0  0  0  0  0  0
  152.7853  130.0062  156.9779 H   0  0  0  0  0  0  0  0  0  0  0  0
  150.4788  130.9346  153.5272 H   0  0  0  0  0  0  0  0  0  0  0  0
  150.3911  129.6376  154.6883 H   0  0  0  0  0  0  0  0  0  0  0  0
  148.6514  130.8323  152.3721 H   0  0  0  0  0  0  0  0  0  0  0  0
  146.0133  131.1219  153.7486 H   0  0  0  0  0  0  0  0  0  0  0  0
  146.7454  129.1216  151.6179 H   0  0  0  0  0  0  0  0  0  0  0  0
  145.4925  129.0376  152.8495 H   0  0  0  0  0  0  0  0  0  0  0  0
  145.3065  130.0301  150.0964 H   0  0  0  0  0  0  0  0  0  0  0  0
  143.9740  129.8880  151.2465 H   0  0  0  0  0  0  0  0  0  0  0  0
  145.3215  132.4228  149.3325 H   0  0  0  0  0  0  0  0  0  0  0  0
  143.6352  132.3054  149.8099 H   0  0  0  0  0  0  0  0  0  0  0  0
  144.4335  134.7081  149.7337 H   0  0  0  0  0  0  0  0  0  0  0  0
  143.8397  134.2414  151.3077 H   0  0  0  0  0  0  0  0  0  0  0  0
  146.7680  134.4611  150.4682 H   0  0  0  0  0  0  0  0  0  0  0  0
  145.9364  135.4845  151.6142 H   0  0  0  0  0  0  0  0  0  0  0  0
  147.3676  133.7408  152.7415 H   0  0  0  0  0  0  0  0  0  0  0  0
  145.6836  133.5986  153.1991 H   0  0  0  0  0  0  0  0  0  0  0  0
  147.0674  131.9540  151.0132 H   0  0  0  0  0  0  0  0  0  0  0  0
  144.3605  131.9381  152.0593 H   0  0  0  0  0  0  0  0  0  0  0  0
  1  2  1  0  0  0  0
  1 21  1  0  0  0  0
  1 22  1  0  0  0  0
  1 23  1  0  0  0  0
  2  7  1  0  0  0  0
  2  3  2  0  0  0  0
  3  4  1  0  0  0  0
  4  5  1  0  0  0  0
  5  6  1  0  0  0  0
  5  7  2  0  0  0  0
  6 24  1  0  0  0  0
  6 25  1  0  0  0  0
  6 26  1  0  0  0  0
  7  8  1  0  0  0  0
  8  9  1  0  0  0  0
  8 27  1  0  0  0  0
  8 28  1  0  0  0  0
  9 10  2  0  0  0  0
  9 11  1  0  0  0  0
 11 12  1  0  0  0  0
 11 29  1  0  0  0  0
 12 20  1  0  0  0  0
 12 13  1  0  0  0  0
 12 30  1  0  0  0  0
 13 14  1  0  0  0  0
 13 31  1  0  0  0  0
 13 32  1  0  0  0  0
 14 15  1  0  0  0  0
 14 33  1  0  0  0  0
 14 34  1  0  0  0  0
 15 20  1  0  0  0  0
 15 16  1  0  0  0  0
 15 44  1  0  0  0  0
 16 17  1  0  0  0  0
 16 35  1  0  0  0  0
 16 36  1  0  0  0  0
 17 18  1  0  0  0  0
 17 37  1  0  0  0  0
 17 38  1  0  0  0  0
 18 19  1  0  0  0  0
 18 39  1  0  0  0  0
 18 40  1  0  0  0  0
 19 20  1  0  0  0  0
 19 41  1  0  0  0  0
 19 42  1  0  0  0  0
 20 43  1  0  0  0  0
M  CHG  1  15   1
M  END
> <s_m_source_file>
AV-unprocessed.smi

> <i_m_source_file_index>
311

> <i_lp_mmshare_version>
43012

> <i_f3d_flags>
0

> <s_epik_input>
W0NIM11jMW5vYyhbQ0gzXSljMVtDSDJdQyg9TylbTkhdW0NASF0oW0NIMl1bQ0gyXTIpW0NAQEhdKE4yMylbQ0gyXVtDSDJdW0NIMl1bQ0gyXTM=

> <s_epik_cmdline>
J2VwaWtfcHl0aG9uJywgJy1waCcsICc3LjAnLCAnLXRuJywgJzgnLCAnLW1hJywgJzIwMCcsICctbWV0YWxfYmluZGluZycsICctaW1hZScsICc8aW5maWxlLm1hZT4nLCAnLW9tYWUnLCAnPG91dGZpbGUubWFlPic=

> <r_epik_Ionization_Penalty>
0.00173669

> <r_epik_Ionization_Penalty_Charging>
0.0017366

> <r_epik_Ionization_Penalty_Neutral>
9.2145e-08

> <r_epik_State_Penalty>
0.00117499

> <r_epik_Charging_Adjusted_Penalty>
0.00291159

> <i_epik_Tot_Q>
1

> <i_epik_Tot_abs_Q>
1

> <r_epik_Metal_State_Penalty>
-0

> <b_epik_Metal_Only>
0

> <s_lp_Force_Field>
OPLS_2005

> <r_lp_Energy>
27.517

> <b_lp_Chiralities_Consistent>
1

> <s_lp_Variant>
AV-unprocessed.smi:311-3

> <Gold.Version>
5.8.1

> <Gold.Id.Protein>
6NUR|6NUR_protein|mol2

> <Gold.PLP.Fitness>
38.1625

> <Gold.PLP.PLP>
-32.7276

> <Gold.PLP.part.hbond>
-2.0000

> <Gold.PLP.part.metal>
0.0000

> <Gold.PLP.part.buried>
-5.9243

> <Gold.PLP.part.nonpolar>
-25.6116

> <Gold.PLP.part.repulsive>
0.0491

> <Gold.PLP.ligand.clash>
0.0000

> <Gold.PLP.ligand.torsion>
0.2651

> <Gold.PLP.Chemscore.Hbond>
1.9833

> <Gold.PLP.Chemscore.CHOScore>
0.0000

> <Gold.PLP.Chemscore.Metal>
0.0000

> <Gold.Chemscore.Hbonds>
donor molecule, donor type, donor heavy atom, donor atom, acceptor molecule, acceptor atom, score
      L1  H    11    29       P1 10747  0.83
      P1  H  6896  6908       L1     4  1.00

> <Gold.PLP.Chemscore.Internal.Correction>
0.0154

> <Gold.Rescore>
     Score         DG    S(hbond)    S(metal)    S(lipo)     H(rot)  DE(clash)    DE(int)     intcor
     16.64     -17.62       1.52        0.00      90.19       1.36       0.54       0.44       ----

> <Gold.Chemscore.Fitness>
16.6375

> <Gold.Chemscore.DG>
-17.6247

> <Gold.Chemscore.ZeroCoef>
-5.4800

> <Gold.Chemscore.Hbond>
1.5165

> <Gold.Chemscore.Metal>
0.0000

> <Gold.Chemscore.Lipo>
90.1940

> <Gold.Chemscore.Internal_Hbond>
0.0000

> <Gold.Chemscore.DEClash>
0.5440

> <Gold.Chemscore.DEInternal>
0.4433

> <Gold.Chemscore.Rot>
1.3567

> <Gold.Chemscore.Internal.Correction>
   9.000000E+99

> <Gold.Chemscore.Hbonds>
donor molecule, donor type, donor heavy atom, donor atom, acceptor molecule, acceptor atom, score
      L1  H    11    29       P1 10747  0.61
      P1  H  6896  6908       L1     4  0.25

> <Gold.Chemscore.Hbond.Weighted>
-5.0651

> <Gold.Chemscore.Metal.Weighted>
-0.0000

> <Gold.Chemscore.Lipo.Weighted>
-10.5527

> <Gold.Chemscore.Internal_Hbond.Weighted>
0.0000

> <Gold.Chemscore.DEClash.Weighted>
0.5440

> <Gold.Chemscore.DEInternal.Weighted>
0.4433

> <Gold.Chemscore.Rot.Weighted>
3.4731

> <Gold.Chemscore.Internal.Correction.Weighted>
   9.000000E+99

> <Gold.Protein.RotatedTorsions>
[ 6907 6896 6895 6894 ] final   68.10 input  -60.11 | X-H torsion
[ 7974 7965 7964 7962 ] final   89.51 input  175.53 | X-H torsion
[ 8008 7997 7996 7995 ] final  -35.82 input   59.86 | X-H torsion
[ 10167 10162 10161 10158 ] final    6.31 input  -65.29 | X-H torsion
[ 10718 10713 10712 10709 ] final   43.65 input   66.30 | X-H torsion
[ 10763 10752 10751 10750 ] final  113.09 input  -60.55 | X-H torsion
[ 11005 11000 10999 10996 ] final -170.38 input  -57.11 | X-H torsion

> <Gold.Protein.ActiveResidues>
 VAL166  LYS551  ARG553  GLY616  TRP617  ASP618  TYR619  PRO620  LYS621  CYS622 
 ASP623  PHE694  ASN695  SER759  ASP760  ASP761  ALA762  ILE779  LEU786  VAL792 
 PHE793  MET794  SER795  GLU796  ALA797  LYS798  CYS799  TRP800  GLU811  SER814 

> <Gold.Protein.RotatedAtoms>
  152.4597  134.5212  159.9782 H   0  0  0  0  0  0  0  0  0  0  0  0  # atno 6907 bound_to 6896
  151.5264  133.3451  159.2918 H   0  0  0  0  0  0  0  0  0  0  0  0  # atno 6908 bound_to 6896
  150.8555  134.7922  159.7104 H   0  0  0  0  0  0  0  0  0  0  0  0  # atno 6909 bound_to 6896
  145.5313  139.2283  143.2617 H   0  0  0  0  0  0  0  0  0  0  0  0  # atno 7974 bound_to 7965
  154.4086  140.1647  156.2274 H   0  0  0  0  0  0  0  0  0  0  0  0  # atno 8008 bound_to 7997
  155.9312  140.3414  155.6227 H   0  0  0  0  0  0  0  0  0  0  0  0  # atno 8009 bound_to 7997
  155.7104  140.0756  157.2364 H   0  0  0  0  0  0  0  0  0  0  0  0  # atno 8010 bound_to 7997
  140.6434  143.7719  150.7463 H   0  0  0  0  0  0  0  0  0  0  0  0  # atno 10167 bound_to 10162
  157.4183  130.7954  149.7492 H   0  0  0  0  0  0  0  0  0  0  0  0  # atno 10718 bound_to 10713
  153.4874  135.3666  155.2474 H   0  0  0  0  0  0  0  0  0  0  0  0  # atno 10763 bound_to 10752
  154.8753  135.3969  154.3629 H   0  0  0  0  0  0  0  0  0  0  0  0  # atno 10764 bound_to 10752
  153.4243  135.7081  153.6339 H   0  0  0  0  0  0  0  0  0  0  0  0  # atno 10765 bound_to 10752
  140.5201  134.5718  157.5045 H   0  0  0  0  0  0  0  0  0  0  0  0  # atno 11005 bound_to 11000
  146.2042  140.6130  142.9089 LP  0  0  0  0  0  0  0  0  0  0  0  0  # atno 17320 bound_to 7965
  144.7624  140.5453  143.6726 LP  0  0  0  0  0  0  0  0  0  0  0  0  # atno 17321 bound_to 7965
  140.1355  143.4487  152.2227 LP  0  0  0  0  0  0  0  0  0  0  0  0  # atno 17342 bound_to 10162
  139.5644  144.7426  151.4064 LP  0  0  0  0  0  0  0  0  0  0  0  0  # atno 17343 bound_to 10162
  155.9872  130.3968  150.3175 LP  0  0  0  0  0  0  0  0  0  0  0  0  # atno 17370 bound_to 10713
  157.1321  131.0274  151.2965 LP  0  0  0  0  0  0  0  0  0  0  0  0  # atno 17371 bound_to 10713
  139.9611  134.7452  156.0236 LP  0  0  0  0  0  0  0  0  0  0  0  0  # atno 17394 bound_to 11000
  141.1339  133.6580  156.3539 LP  0  0  0  0  0  0  0  0  0  0  0  0  # atno 17395 bound_to 11000

$$$$
