AV-unprocessed.smi:342|AV-procd|sdf|2385|dock6
  -GOLD-   2262022313D 1   1.00000     0.00000
 Structure written by MMmdl.
 41 43  0  0  0  0  0  0  0  0  1 V2000
  148.5064  142.2727  156.9638 O   0  0  0  0  0  0  0  0  0  0  0  0
  148.8576  141.2627  156.0385 C   0  0  1  0  0  0  0  0  0  0  0  0
  147.9017  141.3449  154.8309 C   0  0  0  0  0  0  0  0  0  0  0  0
  147.6649  140.0860  154.1221 N   0  0  0  0  0  0  0  0  0  0  0  0
  146.7585  139.2273  154.8775 C   0  0  0  0  0  0  0  0  0  0  0  0
  146.4908  137.8950  154.1568 C   0  0  0  0  0  0  0  0  0  0  0  0
  145.9666  138.1545  152.8591 O   0  0  0  0  0  0  0  0  0  0  0  0
  146.8396  138.9519  152.0664 C   0  0  0  0  0  0  0  0  0  0  0  0
  147.1168  140.2863  152.7810 C   0  0  0  0  0  0  0  0  0  0  0  0
  150.3268  141.4472  155.6068 C   0  0  0  0  0  0  0  0  0  0  0  0
  151.2721  141.1658  156.6805 N   0  0  0  0  0  0  0  0  0  0  0  0
  152.0149  140.0462  156.8873 C   0  0  0  0  0  0  0  0  0  0  0  0
  151.9446  138.8512  155.9766 C   0  0  0  0  0  0  0  0  0  0  0  0
  152.3781  139.1578  154.7528 F   0  0  0  0  0  0  0  0  0  0  0  0
  152.7081  137.8629  156.4430 F   0  0  0  0  0  0  0  0  0  0  0  0
  150.6922  138.4097  155.8631 F   0  0  0  0  0  0  0  0  0  0  0  0
  152.7979  140.0684  157.9685 N   0  0  0  0  0  0  0  0  0  0  0  0
  152.5358  141.3086  158.5144 C   0  0  0  0  0  0  0  0  0  0  0  0
  153.0540  141.9294  159.6733 C   0  0  0  0  0  0  0  0  0  0  0  0
  152.6245  143.2205  160.0442 C   0  0  0  0  0  0  0  0  0  0  0  0
  151.6714  143.9065  159.2642 C   0  0  0  0  0  0  0  0  0  0  0  0
  151.1430  143.3058  158.1054 C   0  0  0  0  0  0  0  0  0  0  0  0
  151.5786  142.0184  157.7370 C   0  0  0  0  0  0  0  0  0  0  0  0
  148.7711  143.1087  156.6118 H   0  0  0  0  0  0  0  0  0  0  0  0
  148.7651  140.3011  156.5396 H   0  0  0  0  0  0  0  0  0  0  0  0
  146.9499  141.7466  155.1824 H   0  0  0  0  0  0  0  0  0  0  0  0
  148.2852  142.0801  154.1217 H   0  0  0  0  0  0  0  0  0  0  0  0
  147.1779  139.0225  155.8633 H   0  0  0  0  0  0  0  0  0  0  0  0
  145.8114  139.7431  155.0431 H   0  0  0  0  0  0  0  0  0  0  0  0
  147.4065  137.3068  154.0772 H   0  0  0  0  0  0  0  0  0  0  0  0
  145.7732  137.2972  154.7188 H   0  0  0  0  0  0  0  0  0  0  0  0
  147.7698  138.4121  151.8823 H   0  0  0  0  0  0  0  0  0  0  0  0
  146.3759  139.1309  151.0961 H   0  0  0  0  0  0  0  0  0  0  0  0
  146.1913  140.8610  152.8414 H   0  0  0  0  0  0  0  0  0  0  0  0
  147.8053  140.8659  152.1681 H   0  0  0  0  0  0  0  0  0  0  0  0
  150.5547  140.7750  154.7789 H   0  0  0  0  0  0  0  0  0  0  0  0
  150.4852  142.4554  155.2268 H   0  0  0  0  0  0  0  0  0  0  0  0
  153.7823  141.4105  160.2786 H   0  0  0  0  0  0  0  0  0  0  0  0
  153.0271  143.6855  160.9321 H   0  0  0  0  0  0  0  0  0  0  0  0
  151.3458  144.8943  159.5557 H   0  0  0  0  0  0  0  0  0  0  0  0
  150.4126  143.8295  157.5072 H   0  0  0  0  0  0  0  0  0  0  0  0
  1  2  1  0  0  0  0
  1 24  1  0  0  0  0
  2  3  1  0  0  0  0
  2 10  1  0  0  0  0
  2 25  1  0  0  0  0
  3  4  1  0  0  0  0
  3 26  1  0  0  0  0
  3 27  1  0  0  0  0
  4  9  1  0  0  0  0
  4  5  1  0  0  0  0
  5  6  1  0  0  0  0
  5 28  1  0  0  0  0
  5 29  1  0  0  0  0
  6  7  1  0  0  0  0
  6 30  1  0  0  0  0
  6 31  1  0  0  0  0
  7  8  1  0  0  0  0
  8  9  1  0  0  0  0
  8 32  1  0  0  0  0
  8 33  1  0  0  0  0
  9 34  1  0  0  0  0
  9 35  1  0  0  0  0
 10 11  1  0  0  0  0
 10 36  1  0  0  0  0
 10 37  1  0  0  0  0
 11 23  1  0  0  0  0
 11 12  1  0  0  0  0
 12 13  1  0  0  0  0
 12 17  2  0  0  0  0
 13 14  1  0  0  0  0
 13 15  1  0  0  0  0
 13 16  1  0  0  0  0
 17 18  1  0  0  0  0
 18 23  2  0  0  0  0
 18 19  1  0  0  0  0
 19 20  2  0  0  0  0
 19 38  1  0  0  0  0
 20 21  1  0  0  0  0
 20 39  1  0  0  0  0
 21 22  2  0  0  0  0
 21 40  1  0  0  0  0
 22 23  1  0  0  0  0
 22 41  1  0  0  0  0
M  END
> <s_m_source_file>
AV-unprocessed.smi

> <i_m_source_file_index>
342

> <i_lp_mmshare_version>
43012

> <i_f3d_flags>
0

> <s_epik_input>
W2NIXTFbY0hdW2NIXVtjSF1jKGMxMiluKGMobjIpQyhGKShGKUYpW0NIMl1bQ0BIXShbT0hdKVtDSDJdTjNbQ0gyXVtDSDJdT1tDSDJdW0NIMl0z

> <s_epik_cmdline>
J2VwaWtfcHl0aG9uJywgJy1waCcsICc3LjAnLCAnLXRuJywgJzgnLCAnLW1hJywgJzIwMCcsICctbWV0YWxfYmluZGluZycsICctaW1hZScsICc8aW5maWxlLm1hZT4nLCAnLW9tYWUnLCAnPG91dGZpbGUubWFlPic=

> <r_epik_Ionization_Penalty>
0.263195

> <r_epik_Ionization_Penalty_Charging>
0

> <r_epik_Ionization_Penalty_Neutral>
0.263195

> <r_epik_State_Penalty>
0.254683

> <r_epik_Charging_Adjusted_Penalty>
0.254683

> <i_epik_Tot_Q>
0

> <i_epik_Tot_abs_Q>
0

> <r_epik_Metal_State_Penalty>
0.254691

> <b_epik_Metal_Only>
0

> <s_lp_Force_Field>
OPLS_2005

> <r_lp_Energy>
34.5572

> <b_lp_Chiralities_Consistent>
1

> <s_lp_Variant>
AV-unprocessed.smi:342-2

> <Gold.Version>
5.8.1

> <Gold.Id.Protein>
6NUR|6NUR_protein|mol2

> <Gold.PLP.Fitness>
45.9763

> <Gold.PLP.PLP>
-41.6340

> <Gold.PLP.part.hbond>
-2.0000

> <Gold.PLP.part.metal>
0.0000

> <Gold.PLP.part.buried>
-1.8759

> <Gold.PLP.part.nonpolar>
-36.6974

> <Gold.PLP.part.repulsive>
0.3808

> <Gold.PLP.ligand.clash>
0.0000

> <Gold.PLP.ligand.torsion>
0.8050

> <Gold.PLP.Chemscore.Hbond>
1.9675

> <Gold.PLP.Chemscore.CHOScore>
0.0000

> <Gold.PLP.Chemscore.Metal>
0.0000

> <Gold.Chemscore.Hbonds>
donor molecule, donor type, donor heavy atom, donor atom, acceptor molecule, acceptor atom, score
      L1  H     1    24       P1  8028  1.00
      P1  H  7997  8008       L1    17  0.90

> <Gold.PLP.Chemscore.Internal.Correction>
0.0498

> <Gold.Rescore>
     Score         DG    S(hbond)    S(metal)    S(lipo)     H(rot)  DE(clash)    DE(int)     intcor
     15.60     -16.57       1.20        0.00     109.59       2.24       0.17       0.81       ----

> <Gold.Chemscore.Fitness>
15.5951

> <Gold.Chemscore.DG>
-16.5710

> <Gold.Chemscore.ZeroCoef>
-5.4800

> <Gold.Chemscore.Hbond>
1.2004

> <Gold.Chemscore.Metal>
0.0000

> <Gold.Chemscore.Lipo>
109.5868

> <Gold.Chemscore.Internal_Hbond>
0.0000

> <Gold.Chemscore.DEClash>
0.1689

> <Gold.Chemscore.DEInternal>
0.8069

> <Gold.Chemscore.Rot>
2.2421

> <Gold.Chemscore.Internal.Correction>
   9.000000E+99

> <Gold.Chemscore.Hbonds>
donor molecule, donor type, donor heavy atom, donor atom, acceptor molecule, acceptor atom, score
      L1  H     1    24       P1  8028  0.91
      P1  H  7997  8008       L1    17  0.14

> <Gold.Chemscore.Hbond.Weighted>
-4.0092

> <Gold.Chemscore.Metal.Weighted>
-0.0000

> <Gold.Chemscore.Lipo.Weighted>
-12.8217

> <Gold.Chemscore.Internal_Hbond.Weighted>
0.0000

> <Gold.Chemscore.DEClash.Weighted>
0.1689

> <Gold.Chemscore.DEInternal.Weighted>
0.8069

> <Gold.Chemscore.Rot.Weighted>
5.7399

> <Gold.Chemscore.Internal.Correction.Weighted>
   9.000000E+99

> <Gold.Protein.RotatedTorsions>
[ 6907 6896 6895 6894 ] final    2.42 input  -60.11 | X-H torsion
[ 7974 7965 7964 7962 ] final  131.80 input  175.53 | X-H torsion
[ 8008 7997 7996 7995 ] final  -88.56 input   59.86 | X-H torsion
[ 10167 10162 10161 10158 ] final -133.71 input  -65.29 | X-H torsion
[ 10718 10713 10712 10709 ] final  -66.22 input   66.30 | X-H torsion
[ 10763 10752 10751 10750 ] final  -65.48 input  -60.55 | X-H torsion
[ 11005 11000 10999 10996 ] final   41.11 input  -57.11 | X-H torsion

> <Gold.Protein.ActiveResidues>
 VAL166  LYS551  ARG553  GLY616  TRP617  ASP618  TYR619  PRO620  LYS621  CYS622 
 ASP623  PHE694  ASN695  SER759  ASP760  ASP761  ALA762  ILE779  LEU786  VAL792 
 PHE793  MET794  SER795  GLU796  ALA797  LYS798  CYS799  TRP800  GLU811  SER814 

> <Gold.Protein.RotatedAtoms>
  151.6086  135.1042  160.0075 H   0  0  0  0  0  0  0  0  0  0  0  0  # atno 6907 bound_to 6896
  152.4220  133.7128  159.6499 H   0  0  0  0  0  0  0  0  0  0  0  0  # atno 6908 bound_to 6896
  150.8108  133.8352  159.3205 H   0  0  0  0  0  0  0  0  0  0  0  0  # atno 6909 bound_to 6896
  145.0035  139.4289  143.5280 H   0  0  0  0  0  0  0  0  0  0  0  0  # atno 7974 bound_to 7965
  154.6763  140.0552  157.0219 H   0  0  0  0  0  0  0  0  0  0  0  0  # atno 8008 bound_to 7997
  155.1016  140.3229  155.4527 H   0  0  0  0  0  0  0  0  0  0  0  0  # atno 8009 bound_to 7997
  156.2677  140.2030  156.6142 H   0  0  0  0  0  0  0  0  0  0  0  0  # atno 8010 bound_to 7997
  139.8955  143.6670  152.2604 H   0  0  0  0  0  0  0  0  0  0  0  0  # atno 10167 bound_to 10162
  156.0625  130.4259  150.1677 H   0  0  0  0  0  0  0  0  0  0  0  0  # atno 10718 bound_to 10713
  154.3456  135.6147  153.5617 H   0  0  0  0  0  0  0  0  0  0  0  0  # atno 10763 bound_to 10752
  152.9801  135.5780  154.4802 H   0  0  0  0  0  0  0  0  0  0  0  0  # atno 10764 bound_to 10752
  154.4514  135.2853  155.1755 H   0  0  0  0  0  0  0  0  0  0  0  0  # atno 10765 bound_to 10752
  140.1866  134.4038  155.8170 H   0  0  0  0  0  0  0  0  0  0  0  0  # atno 11005 bound_to 11000
  146.3456  139.9437  142.8737 LP  0  0  0  0  0  0  0  0  0  0  0  0  # atno 17320 bound_to 7965
  145.2121  140.9900  143.4094 LP  0  0  0  0  0  0  0  0  0  0  0  0  # atno 17321 bound_to 7965
  139.7071  144.7626  151.1174 LP  0  0  0  0  0  0  0  0  0  0  0  0  # atno 17342 bound_to 10162
  140.7718  143.5379  150.9346 LP  0  0  0  0  0  0  0  0  0  0  0  0  # atno 17343 bound_to 10162
  156.9743  130.9844  151.3452 LP  0  0  0  0  0  0  0  0  0  0  0  0  # atno 17370 bound_to 10713
  157.5643  130.8267  149.8307 LP  0  0  0  0  0  0  0  0  0  0  0  0  # atno 17371 bound_to 10713
  141.2225  133.7026  156.8023 LP  0  0  0  0  0  0  0  0  0  0  0  0  # atno 17394 bound_to 11000
  140.2207  134.8759  157.3374 LP  0  0  0  0  0  0  0  0  0  0  0  0  # atno 17395 bound_to 11000

$$$$
