AV-unprocessed.smi:473|AV-procd|sdf|2661|dock10
  -GOLD-   2262023 73D 1   1.00000     0.00000
 Structure written by MMmdl.
 42 44  0  0  0  0  0  0  0  0  1 V2000
  151.1859  145.2531  159.9452 C   0  0  0  0  0  0  0  0  0  0  0  0
  151.4229  143.8466  159.4242 C   0  0  0  0  0  0  0  0  0  0  0  0
  151.0033  143.5190  158.1151 C   0  0  0  0  0  0  0  0  0  0  0  0
  151.2078  142.2234  157.5919 C   0  0  0  0  0  0  0  0  0  0  0  0
  150.8837  141.6912  156.3555 N   0  0  0  0  0  0  0  0  0  0  0  0
  151.3306  140.4443  156.4755 C   0  0  0  0  0  0  0  0  0  0  0  0
  151.9064  140.1053  157.6451 N   0  0  0  0  0  0  0  0  0  0  0  0
  152.4636  138.8152  158.0105 C   0  0  0  0  0  0  0  0  0  0  0  0
  151.7368  138.1778  159.2107 C   0  0  2  0  0  0  0  0  0  0  0  0
  152.3948  136.9750  159.5591 O   0  0  0  0  0  0  0  0  0  0  0  0
  150.2682  137.8606  158.8887 C   0  0  0  0  0  0  0  0  0  0  0  0
  149.6769  137.2182  160.0105 O   0  0  0  0  0  0  0  0  0  0  0  0
  148.5573  136.4024  159.6889 C   0  0  0  0  0  0  0  0  0  0  0  0
  147.7766  136.1310  160.9384 C   0  0  0  0  0  0  0  0  0  0  0  0
  147.4671  134.9836  161.6148 C   0  0  0  0  0  0  0  0  0  0  0  0
  146.7052  135.3776  162.7493 C   0  0  0  0  0  0  0  0  0  0  0  0
  146.6129  136.7387  162.6866 C   0  0  0  0  0  0  0  0  0  0  0  0
  147.2646  137.2147  161.5912 O   0  0  0  0  0  0  0  0  0  0  0  0
  151.8473  141.2567  158.4218 C   0  0  0  0  0  0  0  0  0  0  0  0
  152.2682  141.5699  159.7262 C   0  0  0  0  0  0  0  0  0  0  0  0
  152.0575  142.8694  160.2327 C   0  0  0  0  0  0  0  0  0  0  0  0
  152.5194  143.1994  161.6411 C   0  0  0  0  0  0  0  0  0  0  0  0
  150.6903  145.8755  159.1997 H   0  0  0  0  0  0  0  0  0  0  0  0
  152.1321  145.7294  160.2029 H   0  0  0  0  0  0  0  0  0  0  0  0
  150.5554  145.2301  160.8342 H   0  0  0  0  0  0  0  0  0  0  0  0
  150.5206  144.2629  157.4986 H   0  0  0  0  0  0  0  0  0  0  0  0
  151.2362  139.7359  155.6654 H   0  0  0  0  0  0  0  0  0  0  0  0
  152.3966  138.1622  157.1394 H   0  0  0  0  0  0  0  0  0  0  0  0
  153.5259  138.9390  158.2269 H   0  0  0  0  0  0  0  0  0  0  0  0
  151.7827  138.8637  160.0577 H   0  0  0  0  0  0  0  0  0  0  0  0
  153.3061  137.1664  159.7191 H   0  0  0  0  0  0  0  0  0  0  0  0
  149.7346  138.7912  158.6909 H   0  0  0  0  0  0  0  0  0  0  0  0
  150.1832  137.2467  157.9904 H   0  0  0  0  0  0  0  0  0  0  0  0
  147.9337  136.8646  158.9222 H   0  0  0  0  0  0  0  0  0  0  0  0
  148.9230  135.4604  159.2804 H   0  0  0  0  0  0  0  0  0  0  0  0
  147.7529  133.9829  161.3264 H   0  0  0  0  0  0  0  0  0  0  0  0
  146.2812  134.7457  163.5157 H   0  0  0  0  0  0  0  0  0  0  0  0
  146.1474  137.4893  163.3084 H   0  0  0  0  0  0  0  0  0  0  0  0
  152.7516  140.8157  160.3297 H   0  0  0  0  0  0  0  0  0  0  0  0
  152.9650  142.3311  162.1272 H   0  0  0  0  0  0  0  0  0  0  0  0
  151.6792  143.5298  162.2520 H   0  0  0  0  0  0  0  0  0  0  0  0
  153.2671  143.9924  161.6212 H   0  0  0  0  0  0  0  0  0  0  0  0
  1  2  1  0  0  0  0
  1 23  1  0  0  0  0
  1 24  1  0  0  0  0
  1 25  1  0  0  0  0
  2 21  1  0  0  0  0
  2  3  2  0  0  0  0
  3  4  1  0  0  0  0
  3 26  1  0  0  0  0
  4 19  2  0  0  0  0
  4  5  1  0  0  0  0
  5  6  2  0  0  0  0
  6  7  1  0  0  0  0
  6 27  1  0  0  0  0
  7  8  1  0  0  0  0
  7 19  1  0  0  0  0
  8  9  1  0  0  0  0
  8 28  1  0  0  0  0
  8 29  1  0  0  0  0
  9 10  1  0  0  0  0
  9 11  1  0  0  0  0
  9 30  1  0  0  0  0
 10 31  1  0  0  0  0
 11 12  1  0  0  0  0
 11 32  1  0  0  0  0
 11 33  1  0  0  0  0
 12 13  1  0  0  0  0
 13 14  1  0  0  0  0
 13 34  1  0  0  0  0
 13 35  1  0  0  0  0
 14 18  1  0  0  0  0
 14 15  2  0  0  0  0
 15 16  1  0  0  0  0
 15 36  1  0  0  0  0
 16 17  2  0  0  0  0
 16 37  1  0  0  0  0
 17 18  1  0  0  0  0
 17 38  1  0  0  0  0
 19 20  1  0  0  0  0
 20 21  2  0  0  0  0
 20 39  1  0  0  0  0
 21 22  1  0  0  0  0
 22 40  1  0  0  0  0
 22 41  1  0  0  0  0
 22 42  1  0  0  0  0
M  END
> <s_m_source_file>
AV-unprocessed.smi

> <i_m_source_file_index>
473

> <i_lp_mmshare_version>
43012

> <i_f3d_flags>
0

> <s_epik_input>
W0NIM11jKFtjSF0xKWMoW0NIM10pW2NIXWMoYzEyKW4oW2NIXW4yKVtDSDJdW0NASF0oW09IXSlbQ0gyXU9bQ0gyXWMzW2NIXVtjSF1bY0hdbzM=

> <s_epik_cmdline>
J2VwaWtfcHl0aG9uJywgJy1waCcsICc3LjAnLCAnLXRuJywgJzgnLCAnLW1hJywgJzIwMCcsICctbWV0YWxfYmluZGluZycsICctaW1hZScsICc8aW5maWxlLm1hZT4nLCAnLW9tYWUnLCAnPG91dGZpbGUubWFlPic=

> <r_epik_Ionization_Penalty>
0.112477

> <r_epik_Ionization_Penalty_Charging>
0

> <r_epik_Ionization_Penalty_Neutral>
0.112477

> <r_epik_State_Penalty>
0.102177

> <r_epik_Charging_Adjusted_Penalty>
0.102177

> <i_epik_Tot_Q>
0

> <i_epik_Tot_abs_Q>
0

> <r_epik_Metal_State_Penalty>
0.000111506

> <b_epik_Metal_Only>
0

> <s_lp_Force_Field>
OPLS_2005

> <r_lp_Energy>
9.85232

> <b_lp_Chiralities_Consistent>
1

> <s_lp_Variant>
AV-unprocessed.smi:473-1

> <Gold.Version>
5.8.1

> <Gold.Id.Protein>
6NUR|6NUR_protein|mol2

> <Gold.PLP.Fitness>
61.3429

> <Gold.PLP.PLP>
-53.4672

> <Gold.PLP.part.hbond>
-4.0000

> <Gold.PLP.part.metal>
0.0000

> <Gold.PLP.part.buried>
-7.2275

> <Gold.PLP.part.nonpolar>
-42.3784

> <Gold.PLP.part.repulsive>
0.0616

> <Gold.PLP.ligand.clash>
0.0000

> <Gold.PLP.ligand.torsion>
0.2234

> <Gold.PLP.Chemscore.Hbond>
2.7600

> <Gold.PLP.Chemscore.CHOScore>
0.0000

> <Gold.PLP.Chemscore.Metal>
0.0000

> <Gold.Chemscore.Hbonds>
donor molecule, donor type, donor heavy atom, donor atom, acceptor molecule, acceptor atom, score
      P1  H  6896  6909       L1    10  0.92
      P1  H  6931  6943       L1    18  0.75
      P1  H  6934  6947       L1    18  0.91

> <Gold.PLP.Chemscore.Internal.Correction>
0.0424

> <Gold.Rescore>
     Score         DG    S(hbond)    S(metal)    S(lipo)     H(rot)  DE(clash)    DE(int)     intcor
     22.96     -23.28       2.50        0.00     133.47       2.41       0.04       0.28       ----

> <Gold.Chemscore.Fitness>
22.9606

> <Gold.Chemscore.DG>
-23.2789

> <Gold.Chemscore.ZeroCoef>
-5.4800

> <Gold.Chemscore.Hbond>
2.4994

> <Gold.Chemscore.Metal>
0.0000

> <Gold.Chemscore.Lipo>
133.4731

> <Gold.Chemscore.Internal_Hbond>
0.0000

> <Gold.Chemscore.DEClash>
0.0365

> <Gold.Chemscore.DEInternal>
0.2819

> <Gold.Chemscore.Rot>
2.4083

> <Gold.Chemscore.Internal.Correction>
   9.000000E+99

> <Gold.Chemscore.Hbonds>
donor molecule, donor type, donor heavy atom, donor atom, acceptor molecule, acceptor atom, score
      P1  H  6896  6909       L1    10  0.51
      P1  H  6931  6943       L1    18  0.15
      P1  H  6934  6947       L1    18  0.89

> <Gold.Chemscore.Hbond.Weighted>
-8.3479

> <Gold.Chemscore.Metal.Weighted>
-0.0000

> <Gold.Chemscore.Lipo.Weighted>
-15.6164

> <Gold.Chemscore.Internal_Hbond.Weighted>
0.0000

> <Gold.Chemscore.DEClash.Weighted>
0.0365

> <Gold.Chemscore.DEInternal.Weighted>
0.2819

> <Gold.Chemscore.Rot.Weighted>
6.1653

> <Gold.Chemscore.Internal.Correction.Weighted>
   9.000000E+99

> <Gold.Protein.RotatedTorsions>
[ 6907 6896 6895 6894 ] final  153.86 input  -60.11 | X-H torsion
[ 7974 7965 7964 7962 ] final  138.30 input  175.53 | X-H torsion
[ 8008 7997 7996 7995 ] final  -24.25 input   59.86 | X-H torsion
[ 10167 10162 10161 10158 ] final   55.53 input  -65.29 | X-H torsion
[ 10718 10713 10712 10709 ] final  -41.77 input   66.30 | X-H torsion
[ 10763 10752 10751 10750 ] final -125.72 input  -60.55 | X-H torsion
[ 11005 11000 10999 10996 ] final  142.11 input  -57.11 | X-H torsion

> <Gold.Protein.ActiveResidues>
 VAL166  LYS551  ARG553  GLY616  TRP617  ASP618  TYR619  PRO620  LYS621  CYS622 
 ASP623  PHE694  ASN695  SER759  ASP760  ASP761  ALA762  ILE779  LEU786  VAL792 
 PHE793  MET794  SER795  GLU796  ALA797  LYS798  CYS799  TRP800  GLU811  SER814 

> <Gold.Protein.RotatedAtoms>
  152.0667  133.4087  159.4441 H   0  0  0  0  0  0  0  0  0  0  0  0  # atno 6907 bound_to 6896
  150.6864  134.3138  159.4767 H   0  0  0  0  0  0  0  0  0  0  0  0  # atno 6908 bound_to 6896
  152.0965  134.9370  160.0621 H   0  0  0  0  0  0  0  0  0  0  0  0  # atno 6909 bound_to 6896
  144.9385  139.4959  143.5583 H   0  0  0  0  0  0  0  0  0  0  0  0  # atno 7974 bound_to 7965
  154.4540  140.1959  156.0435 H   0  0  0  0  0  0  0  0  0  0  0  0  # atno 8008 bound_to 7997
  156.0707  140.3285  155.7545 H   0  0  0  0  0  0  0  0  0  0  0  0  # atno 8009 bound_to 7997
  155.5267  140.0574  157.2887 H   0  0  0  0  0  0  0  0  0  0  0  0  # atno 8010 bound_to 7997
  140.2184  144.3814  150.6460 H   0  0  0  0  0  0  0  0  0  0  0  0  # atno 10167 bound_to 10162
  156.2668  130.4202  149.8482 H   0  0  0  0  0  0  0  0  0  0  0  0  # atno 10718 bound_to 10713
  154.8739  135.4020  154.3314 H   0  0  0  0  0  0  0  0  0  0  0  0  # atno 10763 bound_to 10752
  153.4127  135.7021  153.6353 H   0  0  0  0  0  0  0  0  0  0  0  0  # atno 10764 bound_to 10752
  153.5049  135.3719  155.2528 H   0  0  0  0  0  0  0  0  0  0  0  0  # atno 10765 bound_to 10752
  140.0452  134.9284  157.0916 H   0  0  0  0  0  0  0  0  0  0  0  0  # atno 11005 bound_to 11000
  146.3276  139.8388  142.8894 LP  0  0  0  0  0  0  0  0  0  0  0  0  # atno 17320 bound_to 7965
  145.3028  141.0199  143.3599 LP  0  0  0  0  0  0  0  0  0  0  0  0  # atno 17321 bound_to 7965
  140.6273  143.2183  151.6570 LP  0  0  0  0  0  0  0  0  0  0  0  0  # atno 17342 bound_to 10162
  139.5153  144.3382  152.0764 LP  0  0  0  0  0  0  0  0  0  0  0  0  # atno 17343 bound_to 10162
  156.5978  130.8533  151.3424 LP  0  0  0  0  0  0  0  0  0  0  0  0  # atno 17370 bound_to 10713
  157.7270  130.9637  150.1680 LP  0  0  0  0  0  0  0  0  0  0  0  0  # atno 17371 bound_to 10713
  140.4005  134.2087  155.7163 LP  0  0  0  0  0  0  0  0  0  0  0  0  # atno 17394 bound_to 11000
  141.1903  133.8219  157.0923 LP  0  0  0  0  0  0  0  0  0  0  0  0  # atno 17395 bound_to 11000

$$$$
