AV-unprocessed.smi:1795|AV-procd|sdf|7237|dock8
  -GOLD-   22720 8483D 1   1.00000     0.00000
 Structure written by MMmdl.
 47 48  0  0  0  0  0  0  0  0  1 V2000
  150.3483  140.9152  157.1902 C   0  0  0  0  0  0  0  0  0  0  0  0
  150.5539  141.1355  155.6813 C   0  0  2  0  0  0  0  0  0  0  0  0
  149.2681  140.9363  154.8542 C   0  0  0  0  0  0  0  0  0  0  0  0
  148.8699  139.5308  154.7126 N   0  0  0  0  0  0  0  0  0  0  0  0
  147.6447  139.3670  153.8945 C   0  0  2  0  0  0  0  0  0  0  0  0
  146.5892  140.4700  154.1655 C   0  0  0  0  0  0  0  0  0  0  0  0
  146.9718  137.9733  154.0699 C   0  0  0  0  0  0  0  0  0  0  0  0
  146.7368  137.2754  152.8090 N   0  0  0  0  0  0  0  0  0  0  0  0
  145.5350  136.8986  152.3478 C   0  0  0  0  0  0  0  0  0  0  0  0
  144.4808  137.1359  152.9388 O   0  0  0  0  0  0  0  0  0  0  0  0
  145.5320  136.1551  151.0050 C   0  0  0  0  0  0  0  0  0  0  0  0
  145.3493  134.7015  151.1499 N   0  0  0  0  0  0  0  0  0  0  0  0
  146.4442  133.8789  150.8169 C   0  0  0  0  0  0  0  0  0  0  0  0
  146.3829  132.5414  150.9146 C   0  0  0  0  0  0  0  0  0  0  0  0
  145.1511  131.9466  151.3763 C   0  0  0  0  0  0  0  0  0  0  0  0
  144.0963  132.7238  151.6935 C   0  0  0  0  0  0  0  0  0  0  0  0
  144.1583  134.1861  151.5867 C   0  0  0  0  0  0  0  0  0  0  0  0
  143.1993  134.9040  151.8727 O   0  0  0  0  0  0  0  0  0  0  0  0
  150.0156  138.7920  154.1729 C   0  0  0  0  0  0  0  0  0  0  0  0
  151.2858  138.9462  155.0290 C   0  0  1  0  0  0  0  0  0  0  0  0
  152.4913  138.2381  154.4016 C   0  0  0  0  0  0  0  0  0  0  0  0
  151.6072  140.3264  155.1638 O   0  0  0  0  0  0  0  0  0  0  0  0
  149.6273  141.6284  157.5908 H   0  0  0  0  0  0  0  0  0  0  0  0
  151.2833  141.0506  157.7336 H   0  0  0  0  0  0  0  0  0  0  0  0
  149.9732  139.9164  157.4122 H   0  0  0  0  0  0  0  0  0  0  0  0
  150.8749  142.1697  155.5541 H   0  0  0  0  0  0  0  0  0  0  0  0
  148.4830  141.5165  155.3357 H   0  0  0  0  0  0  0  0  0  0  0  0
  149.4143  141.3710  153.8642 H   0  0  0  0  0  0  0  0  0  0  0  0
  147.9316  139.4564  152.8455 H   0  0  0  0  0  0  0  0  0  0  0  0
  145.6713  140.3183  153.5986 H   0  0  0  0  0  0  0  0  0  0  0  0
  146.9383  141.4585  153.8706 H   0  0  0  0  0  0  0  0  0  0  0  0
  146.3199  140.5072  155.2216 H   0  0  0  0  0  0  0  0  0  0  0  0
  147.5691  137.3039  154.6874 H   0  0  0  0  0  0  0  0  0  0  0  0
  146.0130  138.0867  154.5769 H   0  0  0  0  0  0  0  0  0  0  0  0
  147.5510  137.0461  152.2575 H   0  0  0  0  0  0  0  0  0  0  0  0
  144.7446  136.5832  150.3831 H   0  0  0  0  0  0  0  0  0  0  0  0
  146.4613  136.3600  150.4697 H   0  0  0  0  0  0  0  0  0  0  0  0
  147.3257  134.4008  150.4739 H   0  0  0  0  0  0  0  0  0  0  0  0
  147.2309  131.9265  150.6513 H   0  0  0  0  0  0  0  0  0  0  0  0
  145.0736  130.8730  151.4657 H   0  0  0  0  0  0  0  0  0  0  0  0
  143.1823  132.2606  152.0353 H   0  0  0  0  0  0  0  0  0  0  0  0
  149.8010  137.7268  154.1265 H   0  0  0  0  0  0  0  0  0  0  0  0
  150.2174  139.1201  153.1519 H   0  0  0  0  0  0  0  0  0  0  0  0
  151.1137  138.5150  156.0156 H   0  0  0  0  0  0  0  0  0  0  0  0
  152.3041  137.1700  154.2871 H   0  0  0  0  0  0  0  0  0  0  0  0
  153.3786  138.3546  155.0242 H   0  0  0  0  0  0  0  0  0  0  0  0
  152.7200  138.6458  153.4165 H   0  0  0  0  0  0  0  0  0  0  0  0
  1  2  1  0  0  0  0
  1 23  1  0  0  0  0
  1 24  1  0  0  0  0
  1 25  1  0  0  0  0
  2 22  1  0  0  0  0
  2  3  1  0  0  0  0
  2 26  1  0  0  0  0
  3  4  1  0  0  0  0
  3 27  1  0  0  0  0
  3 28  1  0  0  0  0
  4  5  1  0  0  0  0
  4 19  1  0  0  0  0
  5  6  1  0  0  0  0
  5  7  1  0  0  0  0
  5 29  1  0  0  0  0
  6 30  1  0  0  0  0
  6 31  1  0  0  0  0
  6 32  1  0  0  0  0
  7  8  1  0  0  0  0
  7 33  1  0  0  0  0
  7 34  1  0  0  0  0
  8  9  1  0  0  0  0
  8 35  1  0  0  0  0
  9 10  2  0  0  0  0
  9 11  1  0  0  0  0
 11 12  1  0  0  0  0
 11 36  1  0  0  0  0
 11 37  1  0  0  0  0
 12 17  1  0  0  0  0
 12 13  1  0  0  0  0
 13 14  2  0  0  0  0
 13 38  1  0  0  0  0
 14 15  1  0  0  0  0
 14 39  1  0  0  0  0
 15 16  2  0  0  0  0
 15 40  1  0  0  0  0
 16 17  1  0  0  0  0
 16 41  1  0  0  0  0
 17 18  2  0  0  0  0
 19 20  1  0  0  0  0
 19 42  1  0  0  0  0
 19 43  1  0  0  0  0
 20 21  1  0  0  0  0
 20 22  1  0  0  0  0
 20 44  1  0  0  0  0
 21 45  1  0  0  0  0
 21 46  1  0  0  0  0
 21 47  1  0  0  0  0
M  END
> <s_m_source_file>
AV-unprocessed.smi

> <i_m_source_file_index>
1795

> <i_lp_mmshare_version>
43012

> <i_f3d_flags>
0

> <s_epik_input>
W0NIM11bQ0BASF0xW0NIMl1OKFtDSDJdW0NASF0oTzEpW0NIM10pW0NASF0oW0NIM10pW0NIMl1bTkhdQyg9TylbQ0gyXW4yW2NIXVtjSF1bY0hdW2NIXWMyPU8=

> <s_epik_cmdline>
J2VwaWtfcHl0aG9uJywgJy1waCcsICc3LjAnLCAnLXRuJywgJzgnLCAnLW1hJywgJzIwMCcsICctbWV0YWxfYmluZGluZycsICctaW1hZScsICc8aW5maWxlLm1hZT4nLCAnLW9tYWUnLCAnPG91dGZpbGUubWFlPic=

> <r_lp_tautomer_probability>
1

> <r_epik_Ionization_Penalty>
0.237383

> <r_epik_Ionization_Penalty_Charging>
3.58805e-07

> <r_epik_Ionization_Penalty_Neutral>
0.237382

> <r_epik_State_Penalty>
0.228245

> <r_epik_Charging_Adjusted_Penalty>
0.228245

> <i_epik_Tot_Q>
0

> <i_epik_Tot_abs_Q>
0

> <r_epik_Metal_State_Penalty>
0.228221

> <b_epik_Metal_Only>
0

> <s_lp_Force_Field>
OPLS_2005

> <r_lp_Energy>
40.3044

> <b_lp_Chiralities_Consistent>
1

> <s_lp_Variant>
AV-unprocessed.smi:1795-1

> <Gold.Version>
5.8.1

> <Gold.Id.Protein>
6NUR|6NUR_protein|mol2

> <Gold.PLP.Fitness>
42.8399

> <Gold.PLP.PLP>
-39.0420

> <Gold.PLP.part.hbond>
-2.0000

> <Gold.PLP.part.metal>
0.0000

> <Gold.PLP.part.buried>
-5.2344

> <Gold.PLP.part.nonpolar>
-32.5940

> <Gold.PLP.part.repulsive>
0.5663

> <Gold.PLP.ligand.clash>
0.0000

> <Gold.PLP.ligand.torsion>
1.3035

> <Gold.PLP.Chemscore.Hbond>
1.9120

> <Gold.PLP.Chemscore.CHOScore>
0.2064

> <Gold.PLP.Chemscore.Metal>
0.0000

> <Gold.Chemscore.Hbonds>
donor molecule, donor type, donor heavy atom, donor atom, acceptor molecule, acceptor atom, score
      L1  H     8    35       P1  7948  1.00
      P1  H  7989  7998       L1    22  0.91
      L1  C    13    38       P1  7948  0.21

> <Gold.PLP.Chemscore.Internal.Correction>
0.0495

> <Gold.Rescore>
     Score         DG    S(hbond)    S(metal)    S(lipo)     H(rot)  DE(clash)    DE(int)     intcor
     12.80     -15.67       1.17        0.00      93.70       1.83       0.17       2.69       ----

> <Gold.Chemscore.Fitness>
12.8024

> <Gold.Chemscore.DG>
-15.6658

> <Gold.Chemscore.ZeroCoef>
-5.4800

> <Gold.Chemscore.Hbond>
1.1662

> <Gold.Chemscore.Metal>
0.0000

> <Gold.Chemscore.Lipo>
93.7010

> <Gold.Chemscore.Internal_Hbond>
0.0000

> <Gold.Chemscore.DEClash>
0.1745

> <Gold.Chemscore.DEInternal>
2.6889

> <Gold.Chemscore.Rot>
1.8251

> <Gold.Chemscore.Internal.Correction>
   9.000000E+99

> <Gold.Chemscore.Hbonds>
donor molecule, donor type, donor heavy atom, donor atom, acceptor molecule, acceptor atom, score
      L1  H     8    35       P1  7948  0.99
      P1  H  7989  7998       L1    22  0.10

> <Gold.Chemscore.Hbond.Weighted>
-3.8952

> <Gold.Chemscore.Metal.Weighted>
-0.0000

> <Gold.Chemscore.Lipo.Weighted>
-10.9630

> <Gold.Chemscore.Internal_Hbond.Weighted>
0.0000

> <Gold.Chemscore.DEClash.Weighted>
0.1745

> <Gold.Chemscore.DEInternal.Weighted>
2.6889

> <Gold.Chemscore.Rot.Weighted>
4.6724

> <Gold.Chemscore.Internal.Correction.Weighted>
   9.000000E+99

> <Gold.Protein.RotatedTorsions>
[ 6907 6896 6895 6894 ] final -139.82 input  -60.11 | X-H torsion
[ 7974 7965 7964 7962 ] final  -14.70 input  175.53 | X-H torsion
[ 8008 7997 7996 7995 ] final  -70.74 input   59.86 | X-H torsion
[ 10167 10162 10161 10158 ] final -124.11 input  -65.29 | X-H torsion
[ 10718 10713 10712 10709 ] final  -79.64 input   66.30 | X-H torsion
[ 10763 10752 10751 10750 ] final   60.13 input  -60.55 | X-H torsion
[ 11005 11000 10999 10996 ] final  161.78 input  -57.11 | X-H torsion

> <Gold.Protein.ActiveResidues>
 VAL166  LYS551  ARG553  GLY616  TRP617  ASP618  TYR619  PRO620  LYS621  CYS622 
 ASP623  PHE694  ASN695  SER759  ASP760  ASP761  ALA762  ILE779  LEU786  VAL792 
 PHE793  MET794  SER795  GLU796  ALA797  LYS798  CYS799  TRP800  GLU811  SER814 

> <Gold.Protein.RotatedAtoms>
  151.0527  133.5611  159.2640 H   0  0  0  0  0  0  0  0  0  0  0  0  # atno 6907 bound_to 6896
  151.2616  135.0655  159.9110 H   0  0  0  0  0  0  0  0  0  0  0  0  # atno 6908 bound_to 6896
  152.5384  134.0271  159.8062 H   0  0  0  0  0  0  0  0  0  0  0  0  # atno 6909 bound_to 6896
  146.2063  140.3386  142.8406 H   0  0  0  0  0  0  0  0  0  0  0  0  # atno 7974 bound_to 7965
  154.5034  140.0828  156.7845 H   0  0  0  0  0  0  0  0  0  0  0  0  # atno 8008 bound_to 7997
  155.3949  140.3434  155.4235 H   0  0  0  0  0  0  0  0  0  0  0  0  # atno 8009 bound_to 7997
  156.1486  140.1551  156.8794 H   0  0  0  0  0  0  0  0  0  0  0  0  # atno 8010 bound_to 7997
  139.9963  143.5587  152.2321 H   0  0  0  0  0  0  0  0  0  0  0  0  # atno 10167 bound_to 10162
  156.0088  130.4551  150.3680 H   0  0  0  0  0  0  0  0  0  0  0  0  # atno 10718 bound_to 10713
  152.9913  135.5547  154.5825 H   0  0  0  0  0  0  0  0  0  0  0  0  # atno 10763 bound_to 10752
  154.5203  135.2807  155.1270 H   0  0  0  0  0  0  0  0  0  0  0  0  # atno 10764 bound_to 10752
  154.2626  135.6378  153.5333 H   0  0  0  0  0  0  0  0  0  0  0  0  # atno 10765 bound_to 10752
  140.2192  134.8209  157.3203 H   0  0  0  0  0  0  0  0  0  0  0  0  # atno 11005 bound_to 11000
  144.8801  140.7389  143.5992 LP  0  0  0  0  0  0  0  0  0  0  0  0  # atno 17320 bound_to 7965
  145.3306  139.1760  143.4539 LP  0  0  0  0  0  0  0  0  0  0  0  0  # atno 17321 bound_to 7965
  139.6303  144.7643  151.2550 LP  0  0  0  0  0  0  0  0  0  0  0  0  # atno 17342 bound_to 10162
  140.7436  143.6490  150.8265 LP  0  0  0  0  0  0  0  0  0  0  0  0  # atno 17343 bound_to 10162
  157.1765  131.0382  151.2769 LP  0  0  0  0  0  0  0  0  0  0  0  0  # atno 17370 bound_to 10713
  157.4183  130.7423  149.6893 LP  0  0  0  0  0  0  0  0  0  0  0  0  # atno 17371 bound_to 10713
  140.1867  134.4422  155.7739 LP  0  0  0  0  0  0  0  0  0  0  0  0  # atno 17394 bound_to 11000
  141.2223  133.7008  156.7960 LP  0  0  0  0  0  0  0  0  0  0  0  0  # atno 17395 bound_to 11000

$$$$
