#       Name:                AV-unprocessed.smi:828
#       Creating user name   scv26
#       Creation time:       Fri Mar 27 01:31:44 2020


#       File generated by GOLD software.
#

@<TRIPOS>MOLECULE
AV-unprocessed.smi:828
    39    40     1
SMALL
NO_CHARGES


@<TRIPOS>ATOM
      1 ****        -5.8725   3.5813   0.2336 C.3            1 S1                 0.0000
      2 ****        -4.8410   2.7213   0.8794 C.2            1 S1                 0.0000
      3 ****        -4.5144   2.8317   2.1693 N.2            1 S1                 0.0000
      4 ****        -3.5305   1.9263   2.5389 N.2            1 S1                 0.0000
      5 ****        -3.1204   1.1523   1.5241 C.2            1 S1                 0.0000
      6 ****        -2.1757   0.2092   1.6744 N.pl3          1 S1                -1.0000
      7 ****        -0.9003   0.4669   1.3090 C.2            1 S1                 0.0000
      8 ****        -0.4773   1.5174   0.8214 O.2            1 S1                 0.0000
      9 ****        -0.0658  -0.5621   1.5136 N.am           1 S1                 0.0000
     10 ****         1.3595  -0.5943   1.2010 C.3            1 S1                 0.0000
     11 ****         1.6325  -1.2694  -0.1574 C.3            1 S1                 0.0000
     12 ****         1.0173  -0.5462  -1.3606 C.3            1 S1                 0.0000
     13 ****         1.8759  -1.0243  -2.5221 C.3            1 S1                 0.0000
     14 ****         3.2728  -1.1341  -1.9079 C.3            1 S1                 0.0000
     15 ****         3.0841  -1.3367  -0.4512 N.4            1 S1                 1.0000
     16 ****         3.7552  -2.5453   0.0756 C.3            1 S1                 0.0000
     17 ****        -3.9548   1.4829   0.0061 S.3            1 S1                 0.0000
     18 ****        -5.4930   4.5968   0.1190 H              1 S1                 0.0000
     19 ****        -6.7748   3.6091   0.8448 H              1 S1                 0.0000
     20 ****        -6.1303   3.1903  -0.7507 H              1 S1                 0.0000
     21 ****        -0.4611  -1.3972   1.9205 H              1 S1                 0.0000
     22 ****         1.7897   0.4085   1.2257 H              1 S1                 0.0000
     23 ****         1.8515  -1.1526   1.9973 H              1 S1                 0.0000
     24 ****         1.2352  -2.2865  -0.1426 H              1 S1                 0.0000
     25 ****        -0.0412  -0.7710  -1.4965 H              1 S1                 0.0000
     26 ****         1.1207   0.5344  -1.2511 H              1 S1                 0.0000
     27 ****         1.5354  -2.0078  -2.8487 H              1 S1                 0.0000
     28 ****         1.8412  -0.3535  -3.3810 H              1 S1                 0.0000
     29 ****         3.8523  -1.9307  -2.3769 H              1 S1                 0.0000
     30 ****         3.8216  -0.2026  -2.0498 H              1 S1                 0.0000
     31 ****         3.3581  -3.4491  -0.3884 H              1 S1                 0.0000
     32 ****         3.6172  -2.6248   1.1540 H              1 S1                 0.0000
     33 ****         4.8268  -2.5015  -0.1214 H              1 S1                 0.0000
     34 ****         3.5056  -0.5371  -0.0004 H              1 S1                 0.0000
     35 ****        -4.9306   3.4904   2.7960 LP             1 S1                 0.0000
     36 ****        -3.1647   1.8580   3.4671 LP             1 S1                 0.0000
     37 ****        -2.4160  -0.6832   2.0564 LP             1 S1                 0.0000
     38 ****        -1.1020   2.2818   0.6621 LP             1 S1                 0.0000
     39 ****         0.4905   1.6049   0.5851 LP             1 S1                 0.0000
@<TRIPOS>BOND
    1    1    2 1     
    2    1   18 1     
    3    1   19 1     
    4    1   20 1     
    5    2   17 1     
    6    2    3 2     
    7    3    4 1     
    8    4    5 2     
    9    5    6 1     
   10    5   17 1     
   11    6    7 1     
   12    7    8 2     
   13    7    9 am    
   14    9   10 1     
   15    9   21 1     
   16   10   11 1     
   17   10   22 1     
   18   10   23 1     
   19   11   15 1     
   20   11   12 1     
   21   11   24 1     
   22   12   13 1     
   23   12   25 1     
   24   12   26 1     
   25   13   14 1     
   26   13   27 1     
   27   13   28 1     
   28   14   15 1     
   29   14   29 1     
   30   14   30 1     
   31   15   16 1     
   32   15   34 1     
   33   16   31 1     
   34   16   32 1     
   35   16   33 1     
   36    3   35 1     
   37    4   36 1     
   38    6   37 1     
   39    8   38 1     
   40    8   39 1     
@<TRIPOS>SUBSTRUCTURE
      1 S1             1
@<TRIPOS>SET
LONE_PAIRS      STATIC     ATOMS    <user>   **** ""
5 35 36 37 38 39
DONOR_HYDROGENS      STATIC     ATOMS    <user>   **** ""
2 21 34
ATOM$BLUE        STATIC     ATOMS    COLORGROUP SYSTEM
5 35 36 37 38 39
ATOM$RED        STATIC     ATOMS    COLORGROUP SYSTEM
2 21 34
