AV-unprocessed.smi:2645|AV-procd|sdf|10279|dock2
  -GOLD-   2272014293D 1   1.00000     0.00000
 Structure written by MMmdl.
 49 51  0  0  0  0  0  0  0  0  1 V2000
  144.5735  136.7993  151.8080 O   0  0  0  0  0  0  0  0  0  0  0  0
  145.7720  136.5165  151.7776 C   0  0  0  0  0  0  0  0  0  0  0  0
  146.7479  137.4289  151.8953 N   0  0  0  0  0  0  0  0  0  0  0  0
  146.5324  138.8605  152.0681 C   0  0  0  0  0  0  0  0  0  0  0  0
  146.7773  139.2880  153.5290 C   0  0  0  0  0  0  0  0  0  0  0  0
  148.1332  139.7915  153.7436 N   0  0  0  0  0  0  0  0  0  0  0  0
  149.0427  138.7123  154.1505 C   0  0  0  0  0  0  0  0  0  0  0  0
  150.4550  139.2731  154.4044 C   0  0  0  0  0  0  0  0  0  0  0  0
  150.3785  140.2873  155.4600 N   0  0  0  0  0  0  0  0  0  0  0  0
  150.9462  140.2114  156.6880 C   0  0  0  0  0  0  0  0  0  0  0  0
  151.6203  139.2410  157.0363 O   0  0  0  0  0  0  0  0  0  0  0  0
  150.7797  141.3963  157.6604 C   0  0  0  0  0  0  0  0  0  0  0  0
  151.3397  142.7527  157.1836 C   0  0  0  0  0  0  0  0  0  0  0  0
  151.9152  142.9559  158.5876 C   0  0  0  0  0  0  0  0  0  0  0  0
  151.8306  141.4397  158.7831 C   0  0  0  0  0  0  0  0  0  0  0  0
  149.5054  141.3876  155.0420 C   0  0  0  0  0  0  0  0  0  0  0  0
  148.0934  140.8276  154.7813 C   0  0  0  0  0  0  0  0  0  0  0  0
  146.2761  135.2787  151.6261 N   0  0  0  0  0  0  0  0  0  0  0  0
  145.5695  134.0600  151.4424 C   0  0  0  0  0  0  0  0  0  0  0  0
  146.3530  132.8892  151.5571 C   0  0  0  0  0  0  0  0  0  0  0  0
  145.7460  131.6296  151.3878 C   0  0  0  0  0  0  0  0  0  0  0  0
  144.3693  131.5732  151.1066 C   0  0  0  0  0  0  0  0  0  0  0  0
  143.6621  132.7856  151.0088 C   0  0  0  0  0  0  0  0  0  0  0  0
  144.2419  133.9936  151.1710 N   0  0  0  0  0  0  0  0  0  0  0  0
  147.7060  137.1128  151.8601 H   0  0  0  0  0  0  0  0  0  0  0  0
  147.1760  139.4006  151.3733 H   0  0  0  0  0  0  0  0  0  0  0  0
  145.5049  139.0854  151.7813 H   0  0  0  0  0  0  0  0  0  0  0  0
  146.0668  140.0804  153.7693 H   0  0  0  0  0  0  0  0  0  0  0  0
  146.5719  138.4662  154.2168 H   0  0  0  0  0  0  0  0  0  0  0  0
  148.6663  138.2206  155.0491 H   0  0  0  0  0  0  0  0  0  0  0  0
  149.1040  137.9540  153.3712 H   0  0  0  0  0  0  0  0  0  0  0  0
  151.1360  138.4554  154.6314 H   0  0  0  0  0  0  0  0  0  0  0  0
  150.8460  139.7314  153.4947 H   0  0  0  0  0  0  0  0  0  0  0  0
  149.7588  141.5102  158.0291 H   0  0  0  0  0  0  0  0  0  0  0  0
  152.1233  142.6911  156.4266 H   0  0  0  0  0  0  0  0  0  0  0  0
  150.5786  143.4828  156.9073 H   0  0  0  0  0  0  0  0  0  0  0  0
  152.9265  143.3630  158.6125 H   0  0  0  0  0  0  0  0  0  0  0  0
  151.2395  143.5053  159.2450 H   0  0  0  0  0  0  0  0  0  0  0  0
  151.4599  141.1394  159.7634 H   0  0  0  0  0  0  0  0  0  0  0  0
  152.7616  140.9268  158.5335 H   0  0  0  0  0  0  0  0  0  0  0  0
  149.4469  142.1858  155.7827 H   0  0  0  0  0  0  0  0  0  0  0  0
  149.9060  141.8476  154.1372 H   0  0  0  0  0  0  0  0  0  0  0  0
  147.4367  141.6381  154.4627 H   0  0  0  0  0  0  0  0  0  0  0  0
  147.6758  140.4197  155.7035 H   0  0  0  0  0  0  0  0  0  0  0  0
  147.2821  135.1999  151.6355 H   0  0  0  0  0  0  0  0  0  0  0  0
  147.4100  132.9506  151.7729 H   0  0  0  0  0  0  0  0  0  0  0  0
  146.3273  130.7231  151.4712 H   0  0  0  0  0  0  0  0  0  0  0  0
  143.8681  130.6264  150.9699 H   0  0  0  0  0  0  0  0  0  0  0  0
  142.6037  132.7863  150.7939 H   0  0  0  0  0  0  0  0  0  0  0  0
  1  2  2  0  0  0  0
  2  3  1  0  0  0  0
  2 18  1  0  0  0  0
  3  4  1  0  0  0  0
  3 25  1  0  0  0  0
  4  5  1  0  0  0  0
  4 26  1  0  0  0  0
  4 27  1  0  0  0  0
  5  6  1  0  0  0  0
  5 28  1  0  0  0  0
  5 29  1  0  0  0  0
  6 17  1  0  0  0  0
  6  7  1  0  0  0  0
  7  8  1  0  0  0  0
  7 30  1  0  0  0  0
  7 31  1  0  0  0  0
  8  9  1  0  0  0  0
  8 32  1  0  0  0  0
  8 33  1  0  0  0  0
  9 10  1  0  0  0  0
  9 16  1  0  0  0  0
 10 11  2  0  0  0  0
 10 12  1  0  0  0  0
 12 15  1  0  0  0  0
 12 13  1  0  0  0  0
 12 34  1  0  0  0  0
 13 14  1  0  0  0  0
 13 35  1  0  0  0  0
 13 36  1  0  0  0  0
 14 15  1  0  0  0  0
 14 37  1  0  0  0  0
 14 38  1  0  0  0  0
 15 39  1  0  0  0  0
 15 40  1  0  0  0  0
 16 17  1  0  0  0  0
 16 41  1  0  0  0  0
 16 42  1  0  0  0  0
 17 43  1  0  0  0  0
 17 44  1  0  0  0  0
 18 19  1  0  0  0  0
 18 45  1  0  0  0  0
 19 24  1  0  0  0  0
 19 20  2  0  0  0  0
 20 21  1  0  0  0  0
 20 46  1  0  0  0  0
 21 22  2  0  0  0  0
 21 47  1  0  0  0  0
 22 23  1  0  0  0  0
 22 48  1  0  0  0  0
 23 24  2  0  0  0  0
 23 49  1  0  0  0  0
M  END
> <s_m_source_file>
AV-unprocessed.smi

> <i_m_source_file_index>
2645

> <i_lp_mmshare_version>
43012

> <i_f3d_flags>
0

> <s_epik_input>
bjFbY0hdW2NIXVtjSF1bY0hdYzFbTkhdQyg9TylbTkhdW0NIMl1bQ0gyXU4yW0NIMl1bQ0gyXU4oW0NIMl1bQ0gyXTIpQyg9TylbQ0hdM1tDSDJdW0NIMl1bQ0gyXTM=

> <s_epik_cmdline>
J2VwaWtfcHl0aG9uJywgJy1waCcsICc3LjAnLCAnLXRuJywgJzgnLCAnLW1hJywgJzIwMCcsICctbWV0YWxfYmluZGluZycsICctaW1hZScsICc8aW5maWxlLm1hZT4nLCAnLW9tYWUnLCAnPG91dGZpbGUubWFlPic=

> <r_epik_Ionization_Penalty>
0.278001

> <r_epik_Ionization_Penalty_Charging>
0

> <r_epik_Ionization_Penalty_Neutral>
0.278001

> <r_epik_State_Penalty>
0.270395

> <r_epik_Charging_Adjusted_Penalty>
0.270395

> <i_epik_Tot_Q>
0

> <i_epik_Tot_abs_Q>
0

> <r_epik_Metal_State_Penalty>
0.270393

> <b_epik_Metal_Only>
0

> <s_lp_Force_Field>
OPLS_2005

> <r_lp_Energy>
44.6335

> <b_lp_Chiralities_Consistent>
1

> <s_lp_Variant>
AV-unprocessed.smi:2645-1

> <Gold.Version>
5.8.1

> <Gold.Id.Protein>
6NUR|6NUR_protein|mol2

> <Gold.PLP.Fitness>
50.3536

> <Gold.PLP.PLP>
-43.2178

> <Gold.PLP.part.hbond>
-1.9366

> <Gold.PLP.part.metal>
0.0000

> <Gold.PLP.part.buried>
-7.1960

> <Gold.PLP.part.nonpolar>
-38.9176

> <Gold.PLP.part.repulsive>
4.2720

> <Gold.PLP.ligand.clash>
0.0000

> <Gold.PLP.ligand.torsion>
1.0644

> <Gold.PLP.Chemscore.Hbond>
1.9280

> <Gold.PLP.Chemscore.CHOScore>
1.0000

> <Gold.PLP.Chemscore.Metal>
0.0000

> <Gold.Chemscore.Hbonds>
donor molecule, donor type, donor heavy atom, donor atom, acceptor molecule, acceptor atom, score
      L1  H     3    25       P1  7948  0.93
      L1  H    18    45       P1  7948  0.90
      L1  C    23    49       P1 10186  0.84

> <Gold.PLP.Chemscore.Internal.Correction>
0.4806

> <Gold.Rescore>
     Score         DG    S(hbond)    S(metal)    S(lipo)     H(rot)  DE(clash)    DE(int)     intcor
     15.82     -20.00       1.83        0.00     110.15       1.75       1.84       2.34       ----

> <Gold.Chemscore.Fitness>
15.8230

> <Gold.Chemscore.DG>
-20.0018

> <Gold.Chemscore.ZeroCoef>
-5.4800

> <Gold.Chemscore.Hbond>
1.8315

> <Gold.Chemscore.Metal>
0.0000

> <Gold.Chemscore.Lipo>
110.1512

> <Gold.Chemscore.Internal_Hbond>
0.0000

> <Gold.Chemscore.DEClash>
1.8366

> <Gold.Chemscore.DEInternal>
2.3422

> <Gold.Chemscore.Rot>
1.7512

> <Gold.Chemscore.Internal.Correction>
   9.000000E+99

> <Gold.Chemscore.Hbonds>
donor molecule, donor type, donor heavy atom, donor atom, acceptor molecule, acceptor atom, score
      L1  H     3    25       P1  7948  0.88
      L1  H    18    45       P1  7948  0.81

> <Gold.Chemscore.Hbond.Weighted>
-6.1172

> <Gold.Chemscore.Metal.Weighted>
-0.0000

> <Gold.Chemscore.Lipo.Weighted>
-12.8877

> <Gold.Chemscore.Internal_Hbond.Weighted>
0.0000

> <Gold.Chemscore.DEClash.Weighted>
1.8366

> <Gold.Chemscore.DEInternal.Weighted>
2.3422

> <Gold.Chemscore.Rot.Weighted>
4.4830

> <Gold.Chemscore.Internal.Correction.Weighted>
   9.000000E+99

> <Gold.Protein.RotatedTorsions>
[ 6907 6896 6895 6894 ] final  157.51 input  -60.11 | X-H torsion
[ 7974 7965 7964 7962 ] final  -29.29 input  175.53 | X-H torsion
[ 8008 7997 7996 7995 ] final   27.95 input   59.86 | X-H torsion
[ 10167 10162 10161 10158 ] final  129.86 input  -65.29 | X-H torsion
[ 10718 10713 10712 10709 ] final   19.55 input   66.30 | X-H torsion
[ 10763 10752 10751 10750 ] final  169.58 input  -60.55 | X-H torsion
[ 11005 11000 10999 10996 ] final  -30.72 input  -57.11 | X-H torsion

> <Gold.Protein.ActiveResidues>
 VAL166  LYS551  ARG553  GLY616  TRP617  ASP618  TYR619  PRO620  LYS621  CYS622 
 ASP623  PHE694  ASN695  SER759  ASP760  ASP761  ALA762  ILE779  LEU786  VAL792 
 PHE793  MET794  SER795  GLU796  ALA797  LYS798  CYS799  TRP800  GLU811  SER814 

> <Gold.Protein.RotatedAtoms>
  152.0140  133.3872  159.4231 H   0  0  0  0  0  0  0  0  0  0  0  0  # atno 6907 bound_to 6896
  150.6896  134.3699  159.4996 H   0  0  0  0  0  0  0  0  0  0  0  0  # atno 6908 bound_to 6896
  152.1463  134.9023  160.0601 H   0  0  0  0  0  0  0  0  0  0  0  0  # atno 6909 bound_to 6896
  146.1227  140.5393  142.8728 H   0  0  0  0  0  0  0  0  0  0  0  0  # atno 7974 bound_to 7965
  155.0510  140.3180  155.4692 H   0  0  0  0  0  0  0  0  0  0  0  0  # atno 8008 bound_to 7997
  156.2834  140.2146  156.5579 H   0  0  0  0  0  0  0  0  0  0  0  0  # atno 8009 bound_to 7997
  154.7210  140.0489  157.0627 H   0  0  0  0  0  0  0  0  0  0  0  0  # atno 8010 bound_to 7997
  139.5457  144.6771  151.4480 H   0  0  0  0  0  0  0  0  0  0  0  0  # atno 10167 bound_to 10162
  157.1120  130.6513  149.5900 H   0  0  0  0  0  0  0  0  0  0  0  0  # atno 10718 bound_to 10713
  154.3852  135.2753  155.2187 H   0  0  0  0  0  0  0  0  0  0  0  0  # atno 10763 bound_to 10752
  154.4277  135.5985  153.6052 H   0  0  0  0  0  0  0  0  0  0  0  0  # atno 10764 bound_to 10752
  152.9833  135.5988  154.4100 H   0  0  0  0  0  0  0  0  0  0  0  0  # atno 10765 bound_to 10752
  140.9407  133.7280  156.1072 H   0  0  0  0  0  0  0  0  0  0  0  0  # atno 11005 bound_to 11000
  144.7612  140.5427  143.6734 LP  0  0  0  0  0  0  0  0  0  0  0  0  # atno 17320 bound_to 7965
  145.5432  139.1475  143.3435 LP  0  0  0  0  0  0  0  0  0  0  0  0  # atno 17321 bound_to 7965
  140.6705  143.8305  150.6993 LP  0  0  0  0  0  0  0  0  0  0  0  0  # atno 17342 bound_to 10162
  140.1727  143.4181  152.1989 LP  0  0  0  0  0  0  0  0  0  0  0  0  # atno 17343 bound_to 10162
  155.9848  130.4875  150.7001 LP  0  0  0  0  0  0  0  0  0  0  0  0  # atno 17370 bound_to 10713
  157.4551  131.0877  151.0805 LP  0  0  0  0  0  0  0  0  0  0  0  0  # atno 17371 bound_to 10713
  140.7738  134.3803  157.5502 LP  0  0  0  0  0  0  0  0  0  0  0  0  # atno 17394 bound_to 11000
  139.8819  134.9038  156.2864 LP  0  0  0  0  0  0  0  0  0  0  0  0  # atno 17395 bound_to 11000

$$$$
