AV-unprocessed.smi:2803|AV-procd|sdf|10808|dock1
  -GOLD-   2272015243D 1   1.00000     0.00000
 Structure written by MMmdl.
 42 43  0  0  0  0  0  0  0  0  1 V2000
  149.0326  141.1879  157.2853 C   0  0  0  0  0  0  0  0  0  0  0  0
  150.4627  140.6117  157.3109 C   0  0  2  0  0  0  0  0  0  0  0  0
  150.7981  140.1990  155.9356 C   0  0  0  0  0  0  0  0  0  0  0  0
  151.0590  139.8770  154.8549 N   0  0  0  0  0  0  0  0  0  0  0  0
  150.4963  139.4066  158.1437 N   0  0  0  0  0  0  0  0  0  0  0  0
  149.7079  138.3217  158.0658 C   0  0  0  0  0  0  0  0  0  0  0  0
  148.8018  138.1936  157.2422 O   0  0  0  0  0  0  0  0  0  0  0  0
  149.9798  137.2249  159.1035 C   0  0  0  0  0  0  0  0  0  0  0  0
  148.7783  136.4743  159.4728 N   0  0  0  0  0  0  0  0  0  0  0  0
  148.0156  135.7770  158.5682 C   0  0  0  0  0  0  0  0  0  0  0  0
  147.0132  135.2001  159.1335 N   0  0  0  0  0  0  0  0  0  0  0  0
  147.1435  135.5426  160.4503 N   0  0  0  0  0  0  0  0  0  0  0  0
  146.1541  135.0597  161.4474 C   0  0  0  0  0  0  0  0  0  0  0  0
  145.0680  134.2225  160.7377 C   0  0  0  0  0  0  0  0  0  0  0  0
  145.4499  136.2301  162.1783 C   0  0  0  0  0  0  0  0  0  0  0  0
  146.8673  134.1987  162.5127 C   0  0  0  0  0  0  0  0  0  0  0  0
  148.2214  136.3207  160.6703 C   0  0  0  0  0  0  0  0  0  0  0  0
  148.6174  136.7956  161.7347 O   0  0  0  0  0  0  0  0  0  0  0  0
  151.4460  141.6925  157.7726 C   0  0  0  0  0  0  0  0  0  0  0  0
  151.0995  142.7032  158.8436 C   0  0  0  0  0  0  0  0  0  0  0  0
  151.2825  143.1512  157.4100 C   0  0  0  0  0  0  0  0  0  0  0  0
  148.9606  142.0195  156.5833 H   0  0  0  0  0  0  0  0  0  0  0  0
  148.7227  141.5641  158.2603 H   0  0  0  0  0  0  0  0  0  0  0  0
  148.3074  140.4353  156.9743 H   0  0  0  0  0  0  0  0  0  0  0  0
  151.2032  139.4004  158.8650 H   0  0  0  0  0  0  0  0  0  0  0  0
  150.7195  136.5260  158.7087 H   0  0  0  0  0  0  0  0  0  0  0  0
  150.4315  137.6846  159.9841 H   0  0  0  0  0  0  0  0  0  0  0  0
  148.2992  135.7657  157.5144 H   0  0  0  0  0  0  0  0  0  0  0  0
  144.2988  133.8986  161.4395 H   0  0  0  0  0  0  0  0  0  0  0  0
  145.4747  133.3226  160.2769 H   0  0  0  0  0  0  0  0  0  0  0  0
  144.5746  134.7993  159.9546 H   0  0  0  0  0  0  0  0  0  0  0  0
  144.9038  136.8705  161.4844 H   0  0  0  0  0  0  0  0  0  0  0  0
  146.1610  136.8533  162.7221 H   0  0  0  0  0  0  0  0  0  0  0  0
  144.7271  135.8617  162.9071 H   0  0  0  0  0  0  0  0  0  0  0  0
  146.1725  133.8761  163.2886 H   0  0  0  0  0  0  0  0  0  0  0  0
  147.6664  134.7573  163.0013 H   0  0  0  0  0  0  0  0  0  0  0  0
  147.3078  133.2967  162.0882 H   0  0  0  0  0  0  0  0  0  0  0  0
  152.4753  141.3423  157.8143 H   0  0  0  0  0  0  0  0  0  0  0  0
  150.0888  142.7075  159.2462 H   0  0  0  0  0  0  0  0  0  0  0  0
  151.8805  142.9658  159.5543 H   0  0  0  0  0  0  0  0  0  0  0  0
  152.1849  143.7089  157.1690 H   0  0  0  0  0  0  0  0  0  0  0  0
  150.3933  143.4500  156.8589 H   0  0  0  0  0  0  0  0  0  0  0  0
  1  2  1  0  0  0  0
  1 22  1  0  0  0  0
  1 23  1  0  0  0  0
  1 24  1  0  0  0  0
  2  3  1  0  0  0  0
  2  5  1  0  0  0  0
  2 19  1  0  0  0  0
  3  4  3  0  0  0  0
  5  6  1  0  0  0  0
  5 25  1  0  0  0  0
  6  7  2  0  0  0  0
  6  8  1  0  0  0  0
  8  9  1  0  0  0  0
  8 26  1  0  0  0  0
  8 27  1  0  0  0  0
  9 17  1  0  0  0  0
  9 10  1  0  0  0  0
 10 11  2  0  0  0  0
 10 28  1  0  0  0  0
 11 12  1  0  0  0  0
 12 13  1  0  0  0  0
 12 17  1  0  0  0  0
 13 14  1  0  0  0  0
 13 15  1  0  0  0  0
 13 16  1  0  0  0  0
 14 29  1  0  0  0  0
 14 30  1  0  0  0  0
 14 31  1  0  0  0  0
 15 32  1  0  0  0  0
 15 33  1  0  0  0  0
 15 34  1  0  0  0  0
 16 35  1  0  0  0  0
 16 36  1  0  0  0  0
 16 37  1  0  0  0  0
 17 18  2  0  0  0  0
 19 21  1  0  0  0  0
 19 20  1  0  0  0  0
 19 38  1  0  0  0  0
 20 21  1  0  0  0  0
 20 39  1  0  0  0  0
 20 40  1  0  0  0  0
 21 41  1  0  0  0  0
 21 42  1  0  0  0  0
M  END
> <s_m_source_file>
AV-unprocessed.smi

> <i_m_source_file_index>
2803

> <i_lp_mmshare_version>
43012

> <i_f3d_flags>
0

> <s_epik_input>
W0NIMl0xW0NIMl1bQ0hdMVtDQF0oW0NIM10pKEMjTilbTkhdQyg9TylbQ0gyXW4yW2NIXW5uKGMyPU8pQyhbQ0gzXSkoW0NIM10pW0NIM10=

> <s_epik_cmdline>
J2VwaWtfcHl0aG9uJywgJy1waCcsICc3LjAnLCAnLXRuJywgJzgnLCAnLW1hJywgJzIwMCcsICctbWV0YWxfYmluZGluZycsICctaW1hZScsICc8aW5maWxlLm1hZT4nLCAnLW9tYWUnLCAnPG91dGZpbGUubWFlPic=

> <r_lp_tautomer_probability>
1

> <r_epik_Ionization_Penalty>
4.88615e-06

> <r_epik_Ionization_Penalty_Charging>
4.80261e-08

> <r_epik_Ionization_Penalty_Neutral>
4.83813e-06

> <r_epik_State_Penalty>
-0

> <r_epik_Charging_Adjusted_Penalty>
4.80261e-08

> <i_epik_Tot_Q>
0

> <i_epik_Tot_abs_Q>
0

> <r_epik_Metal_State_Penalty>
-0

> <b_epik_Metal_Only>
0

> <s_lp_Force_Field>
OPLS_2005

> <r_lp_Energy>
31.1455

> <b_lp_Chiralities_Consistent>
1

> <s_lp_Variant>
AV-unprocessed.smi:2803-2

> <Gold.Version>
5.8.1

> <Gold.Id.Protein>
6NUR|6NUR_protein|mol2

> <Gold.PLP.Fitness>
35.9871

> <Gold.PLP.PLP>
-30.8191

> <Gold.PLP.part.hbond>
-2.0000

> <Gold.PLP.part.metal>
0.0000

> <Gold.PLP.part.buried>
-5.7032

> <Gold.PLP.part.nonpolar>
-23.9979

> <Gold.PLP.part.repulsive>
0.1859

> <Gold.PLP.ligand.clash>
0.0000

> <Gold.PLP.ligand.torsion>
1.1833

> <Gold.PLP.Chemscore.Hbond>
2.0000

> <Gold.PLP.Chemscore.CHOScore>
0.0000

> <Gold.PLP.Chemscore.Metal>
0.0000

> <Gold.Chemscore.Hbonds>
donor molecule, donor type, donor heavy atom, donor atom, acceptor molecule, acceptor atom, score
      P1  H  6931  6943       L1    18  0.96
      P1  H  7989  7998       L1     4  1.00

> <Gold.PLP.Chemscore.Internal.Correction>
1.5346

> <Gold.Rescore>
     Score         DG    S(hbond)    S(metal)    S(lipo)     H(rot)  DE(clash)    DE(int)     intcor
     10.69     -14.23       1.98        0.00      63.16       2.05       0.01       3.53       ----

> <Gold.Chemscore.Fitness>
10.6949

> <Gold.Chemscore.DG>
-14.2307

> <Gold.Chemscore.ZeroCoef>
-5.4800

> <Gold.Chemscore.Hbond>
1.9753

> <Gold.Chemscore.Metal>
0.0000

> <Gold.Chemscore.Lipo>
63.1638

> <Gold.Chemscore.Internal_Hbond>
0.0000

> <Gold.Chemscore.DEClash>
0.0098

> <Gold.Chemscore.DEInternal>
3.5261

> <Gold.Chemscore.Rot>
2.0457

> <Gold.Chemscore.Internal.Correction>
   9.000000E+99

> <Gold.Chemscore.Hbonds>
donor molecule, donor type, donor heavy atom, donor atom, acceptor molecule, acceptor atom, score
      P1  H  6931  6943       L1    18  0.91
      P1  H  7989  7998       L1     4  1.00

> <Gold.Chemscore.Hbond.Weighted>
-6.5975

> <Gold.Chemscore.Metal.Weighted>
-0.0000

> <Gold.Chemscore.Lipo.Weighted>
-7.3902

> <Gold.Chemscore.Internal_Hbond.Weighted>
0.0000

> <Gold.Chemscore.DEClash.Weighted>
0.0098

> <Gold.Chemscore.DEInternal.Weighted>
3.5261

> <Gold.Chemscore.Rot.Weighted>
5.2370

> <Gold.Chemscore.Internal.Correction.Weighted>
   9.000000E+99

> <Gold.Protein.RotatedTorsions>
[ 6907 6896 6895 6894 ] final  -59.62 input  -60.11 | X-H torsion
[ 7974 7965 7964 7962 ] final  171.99 input  175.53 | X-H torsion
[ 8008 7997 7996 7995 ] final   97.86 input   59.86 | X-H torsion
[ 10167 10162 10161 10158 ] final   55.21 input  -65.29 | X-H torsion
[ 10718 10713 10712 10709 ] final  156.56 input   66.30 | X-H torsion
[ 10763 10752 10751 10750 ] final -146.98 input  -60.55 | X-H torsion
[ 11005 11000 10999 10996 ] final   84.76 input  -57.11 | X-H torsion

> <Gold.Protein.ActiveResidues>
 VAL166  LYS551  ARG553  GLY616  TRP617  ASP618  TYR619  PRO620  LYS621  CYS622 
 ASP623  PHE694  ASN695  SER759  ASP760  ASP761  ALA762  ILE779  LEU786  VAL792 
 PHE793  MET794  SER795  GLU796  ALA797  LYS798  CYS799  TRP800  GLU811  SER814 

> <Gold.Protein.RotatedAtoms>
  150.7916  134.6944  159.6514 H   0  0  0  0  0  0  0  0  0  0  0  0  # atno 6907 bound_to 6896
  152.4023  134.6263  160.0073 H   0  0  0  0  0  0  0  0  0  0  0  0  # atno 6908 bound_to 6896
  151.6530  133.3283  159.3192 H   0  0  0  0  0  0  0  0  0  0  0  0  # atno 6909 bound_to 6896
  144.7280  139.9431  143.6429 H   0  0  0  0  0  0  0  0  0  0  0  0  # atno 7974 bound_to 7965
  156.0945  140.3252  155.7859 H   0  0  0  0  0  0  0  0  0  0  0  0  # atno 8008 bound_to 7997
  155.4941  140.0564  157.2966 H   0  0  0  0  0  0  0  0  0  0  0  0  # atno 8009 bound_to 7997
  154.4658  140.1988  156.0139 H   0  0  0  0  0  0  0  0  0  0  0  0  # atno 8010 bound_to 7997
  140.2219  144.3779  150.6447 H   0  0  0  0  0  0  0  0  0  0  0  0  # atno 10167 bound_to 10162
  157.2033  131.0681  151.2012 H   0  0  0  0  0  0  0  0  0  0  0  0  # atno 10718 bound_to 10713
  154.8309  135.3372  154.6746 H   0  0  0  0  0  0  0  0  0  0  0  0  # atno 10763 bound_to 10752
  153.7366  135.6948  153.4981 H   0  0  0  0  0  0  0  0  0  0  0  0  # atno 10764 bound_to 10752
  153.2273  135.4428  155.0508 H   0  0  0  0  0  0  0  0  0  0  0  0  # atno 10765 bound_to 10752
  139.8991  134.8239  156.2489 H   0  0  0  0  0  0  0  0  0  0  0  0  # atno 11005 bound_to 11000
  146.0769  139.3757  143.0488 LP  0  0  0  0  0  0  0  0  0  0  0  0  # atno 17320 bound_to 7965
  145.7893  140.9821  143.1057 LP  0  0  0  0  0  0  0  0  0  0  0  0  # atno 17321 bound_to 7965
  140.6249  143.2180  151.6618 LP  0  0  0  0  0  0  0  0  0  0  0  0  # atno 17342 bound_to 10162
  139.5141  144.3421  152.0730 LP  0  0  0  0  0  0  0  0  0  0  0  0  # atno 17343 bound_to 10162
  157.3745  130.7199  149.6588 LP  0  0  0  0  0  0  0  0  0  0  0  0  # atno 17370 bound_to 10713
  155.9698  130.4189  150.4352 LP  0  0  0  0  0  0  0  0  0  0  0  0  # atno 17371 bound_to 10713
  141.0237  133.7027  156.1311 LP  0  0  0  0  0  0  0  0  0  0  0  0  # atno 17394 bound_to 11000
  140.7197  134.4371  157.5576 LP  0  0  0  0  0  0  0  0  0  0  0  0  # atno 17395 bound_to 11000

$$$$
