#       Name:                AV-unprocessed.smi:155
#       Creating user name   scv26
#       Creation time:       Thu Mar 26 18:53:22 2020


#       File generated by GOLD software.
#

@<TRIPOS>MOLECULE
AV-unprocessed.smi:155
    72    75     1
SMALL
NO_CHARGES


@<TRIPOS>ATOM
      1 ****        -5.5035   1.2084  -0.1355 C.3            1 S1                 0.0000
      2 ****        -5.3321  -0.2381  -0.1659 N.3            1 S1                 0.0000
      3 ****        -6.2977  -0.8316   0.7531 C.3            1 S1                 0.0000
      4 ****        -5.5269  -0.7137  -1.5360 C.3            1 S1                 0.0000
      5 ****        -5.0237  -2.1593  -1.7299 C.3            1 S1                 0.0000
      6 ****        -3.5511  -2.2543  -1.5677 N.4            1 S1                 1.0000
      7 ****        -3.1247  -3.5889  -1.0730 C.3            1 S1                 0.0000
      8 ****        -1.5990  -3.8077  -1.0358 C.3            1 S1                 0.0000
      9 ****        -0.7836  -2.5891  -0.5765 C.3            1 S1                 0.0000
     10 ****        -0.5048  -1.6808  -1.6874 N.3            1 S1                 0.0000
     11 ****         0.6071  -0.9368  -1.5103 C.ar           1 S1                 0.0000
     12 ****         1.5912  -1.0544  -2.4347 N.ar           1 S1                 0.0000
     13 ****         2.7128  -0.3377  -2.3077 C.ar           1 S1                 0.0000
     14 ****         3.0412   0.5389  -1.3551 N.ar           1 S1                 0.0000
     15 ****         2.0459   0.6635  -0.4307 C.ar           1 S1                 0.0000
     16 ****         0.8044  -0.0309  -0.4312 C.ar           1 S1                 0.0000
     17 ****         0.0404   0.3579   0.6629 N.2            1 S1                 0.0000
     18 ****         0.7909   1.2312   1.2785 C.2            1 S1                 0.0000
     19 ****         2.0129   1.4710   0.6915 N.pl3          1 S1                 0.0000
     20 ****         3.0408   2.3849   1.1574 C.3            1 S1                 0.0000
     21 ****         4.2002   1.6560   1.8641 C.3            1 S1                 0.0000
     22 ****         3.6916   0.9448   2.9767 O.3            1 S1                 0.0000
     23 ****         5.2896   2.6297   2.3495 C.3            1 S1                 0.0000
     24 ****         6.4977   1.9574   3.0041 C.3            1 S1                 0.0000
     25 ****         7.6200   2.9637   2.8035 C.3            1 S1                 0.0000
     26 ****         7.0879   3.9039   1.7185 C.3            1 S1                 0.0000
     27 ****         5.8930   3.2943   1.2502 O.3            1 S1                 0.0000
     28 ****        -1.5943  -0.8998  -2.2668 C.3            1 S1                 0.0000
     29 ****        -2.7817  -1.7560  -2.7359 C.3            1 S1                 0.0000
     30 ****        -4.7727   1.6961  -0.7819 H              1 S1                 0.0000
     31 ****        -5.3553   1.5929   0.8743 H              1 S1                 0.0000
     32 ****        -6.5012   1.4987  -0.4685 H              1 S1                 0.0000
     33 ****        -6.1747  -1.9115   0.8236 H              1 S1                 0.0000
     34 ****        -7.3228  -0.6235   0.4429 H              1 S1                 0.0000
     35 ****        -6.1614  -0.4299   1.7578 H              1 S1                 0.0000
     36 ****        -6.5834  -0.6452  -1.7999 H              1 S1                 0.0000
     37 ****        -5.0007  -0.0539  -2.2262 H              1 S1                 0.0000
     38 ****        -5.5265  -2.8272  -1.0308 H              1 S1                 0.0000
     39 ****        -5.2963  -2.5208  -2.7225 H              1 S1                 0.0000
     40 ****        -3.5250  -3.7101  -0.0655 H              1 S1                 0.0000
     41 ****        -3.5806  -4.3696  -1.6839 H              1 S1                 0.0000
     42 ****        -1.3994  -4.6393  -0.3592 H              1 S1                 0.0000
     43 ****        -1.2398  -4.1411  -2.0107 H              1 S1                 0.0000
     44 ****        -1.2966  -2.0645   0.2306 H              1 S1                 0.0000
     45 ****         0.1644  -2.9415  -0.1661 H              1 S1                 0.0000
     46 ****         3.4534  -0.4876  -3.0796 H              1 S1                 0.0000
     47 ****         0.4736   1.7255   2.1856 H              1 S1                 0.0000
     48 ****         3.4116   2.9431   0.2970 H              1 S1                 0.0000
     49 ****         2.5826   3.1138   1.8274 H              1 S1                 0.0000
     50 ****         4.6443   0.9331   1.1783 H              1 S1                 0.0000
     51 ****         3.0675   0.3081   2.6635 H              1 S1                 0.0000
     52 ****         4.8653   3.3758   3.0246 H              1 S1                 0.0000
     53 ****         6.3278   1.7161   4.0538 H              1 S1                 0.0000
     54 ****         6.7419   1.0314   2.4821 H              1 S1                 0.0000
     55 ****         7.8277   3.5162   3.7203 H              1 S1                 0.0000
     56 ****         8.5405   2.4672   2.4953 H              1 S1                 0.0000
     57 ****         6.8503   4.8815   2.1405 H              1 S1                 0.0000
     58 ****         7.7980   4.0484   0.9040 H              1 S1                 0.0000
     59 ****        -1.9339  -0.1502  -1.5502 H              1 S1                 0.0000
     60 ****        -1.2044  -0.3504  -3.1256 H              1 S1                 0.0000
     61 ****        -2.4659  -2.5725  -3.3870 H              1 S1                 0.0000
     62 ****        -3.4158  -1.1211  -3.3546 H              1 S1                 0.0000
     63 ****        -3.3356  -1.6135  -0.8167 H              1 S1                 0.0000
     64 ****        -4.4115  -0.5015   0.1222 LP             1 S1                 0.0000
     65 ****        -0.3408  -2.3564  -2.4062 LP             1 S1                 0.0000
     66 ****         1.4787  -1.6758  -3.2101 LP             1 S1                 0.0000
     67 ****         3.9061   1.0398  -1.3236 LP             1 S1                 0.0000
     68 ****        -0.8730   0.0418   0.9193 LP             1 S1                 0.0000
     69 ****         3.2410   1.5785   3.6054 LP             1 S1                 0.0000
     70 ****         4.4392   0.4800   3.4509 LP             1 S1                 0.0000
     71 ****         5.2726   3.9917   0.8913 LP             1 S1                 0.0000
     72 ****         6.1066   2.6353   0.5290 LP             1 S1                 0.0000
@<TRIPOS>BOND
    1    1    2 1     
    2    1   30 1     
    3    1   31 1     
    4    1   32 1     
    5    2    3 1     
    6    2    4 1     
    7    3   33 1     
    8    3   34 1     
    9    3   35 1     
   10    4    5 1     
   11    4   36 1     
   12    4   37 1     
   13    5    6 1     
   14    5   38 1     
   15    5   39 1     
   16    6   29 1     
   17    6    7 1     
   18    6   63 1     
   19    7    8 1     
   20    7   40 1     
   21    7   41 1     
   22    8    9 1     
   23    8   42 1     
   24    8   43 1     
   25    9   10 1     
   26    9   44 1     
   27    9   45 1     
   28   10   11 1     
   29   10   28 1     
   30   11   16 ar    
   31   11   12 ar    
   32   12   13 ar    
   33   13   14 ar    
   34   13   46 1     
   35   14   15 ar    
   36   15   19 1     
   37   15   16 ar    
   38   16   17 1     
   39   17   18 2     
   40   18   19 1     
   41   18   47 1     
   42   19   20 1     
   43   20   21 1     
   44   20   48 1     
   45   20   49 1     
   46   21   22 1     
   47   21   23 1     
   48   21   50 1     
   49   22   51 1     
   50   23   27 1     
   51   23   24 1     
   52   23   52 1     
   53   24   25 1     
   54   24   53 1     
   55   24   54 1     
   56   25   26 1     
   57   25   55 1     
   58   25   56 1     
   59   26   27 1     
   60   26   57 1     
   61   26   58 1     
   62   28   29 1     
   63   28   59 1     
   64   28   60 1     
   65   29   61 1     
   66   29   62 1     
   67    2   64 1     
   68   10   65 1     
   69   12   66 1     
   70   14   67 1     
   71   17   68 1     
   72   22   69 1     
   73   22   70 1     
   74   27   71 1     
   75   27   72 1     
@<TRIPOS>SUBSTRUCTURE
      1 S1             1
@<TRIPOS>SET
LONE_PAIRS      STATIC     ATOMS    <user>   **** ""
9 64 65 66 67 68 69 70 71 72
DONOR_HYDROGENS      STATIC     ATOMS    <user>   **** ""
2 63 51
ATOM$BLUE        STATIC     ATOMS    COLORGROUP SYSTEM
9 64 65 66 67 68 69 70 71 72
ATOM$RED        STATIC     ATOMS    COLORGROUP SYSTEM
2 63 51
