AV-unprocessed.smi:1703|AV-procd|sdf|6862|dock8
  -GOLD-   22720 8 53D 1   1.00000     0.00000
 Structure written by MMmdl.
 49 51  0  0  0  0  0  0  0  0  2 V2000
  151.8550  145.2487  160.6457 C   0  0  0  0  0  0  0  0  0  0  0  0
  151.8541  143.7487  160.3309 C   0  0  1  0  0  0  0  0  0  0  0  0
  152.1445  143.4717  158.8396 C   0  0  0  0  0  0  0  0  0  0  0  0
  152.2757  142.0177  158.5643 N   0  3  2  0  0  0  0  0  0  0  0  0
  150.9868  141.2802  158.4714 C   0  0  0  0  0  0  0  0  0  0  0  0
  151.0671  140.0705  157.5201 C   0  0  1  0  0  0  0  0  0  0  0  0
  150.0648  139.1397  157.8823 O   0  0  0  0  0  0  0  0  0  0  0  0
  150.8762  140.4945  156.0501 C   0  0  0  0  0  0  0  0  0  0  0  0
  149.6550  139.9641  155.4585 N   0  0  0  0  0  0  0  0  0  0  0  0
  149.4514  138.7405  154.9075 C   0  0  0  0  0  0  0  0  0  0  0  0
  150.5325  137.7062  154.8280 C   0  0  0  0  0  0  0  0  0  0  0  0
  150.1428  136.5629  154.0978 O   0  0  0  0  0  0  0  0  0  0  0  0
  148.2260  138.5144  154.4334 N   0  0  0  0  0  0  0  0  0  0  0  0
  147.5739  139.7034  154.6952 C   0  0  0  0  0  0  0  0  0  0  0  0
  146.2435  140.0991  154.4290 C   0  0  0  0  0  0  0  0  0  0  0  0
  145.7950  141.3856  154.7930 C   0  0  0  0  0  0  0  0  0  0  0  0
  146.6680  142.2929  155.4274 C   0  0  0  0  0  0  0  0  0  0  0  0
  147.9976  141.9190  155.7016 C   0  0  0  0  0  0  0  0  0  0  0  0
  148.4407  140.6335  155.3359 C   0  0  0  0  0  0  0  0  0  0  0  0
  153.2500  141.3992  159.4957 C   0  0  0  0  0  0  0  0  0  0  0  0
  152.8991  141.7150  160.9634 C   0  0  1  0  0  0  0  0  0  0  0  0
  153.9380  141.1504  161.9380 C   0  0  0  0  0  0  0  0  0  0  0  0
  152.8559  143.1282  161.1298 O   0  0  0  0  0  0  0  0  0  0  0  0
  151.0947  145.7720  160.0651 H   0  0  0  0  0  0  0  0  0  0  0  0
  152.8207  145.7006  160.4173 H   0  0  0  0  0  0  0  0  0  0  0  0
  151.6460  145.4259  161.7009 H   0  0  0  0  0  0  0  0  0  0  0  0
  150.8787  143.3469  160.6076 H   0  0  0  0  0  0  0  0  0  0  0  0
  151.3787  143.9229  158.2098 H   0  0  0  0  0  0  0  0  0  0  0  0
  153.0849  143.9495  158.5610 H   0  0  0  0  0  0  0  0  0  0  0  0
  150.6960  140.9201  159.4595 H   0  0  0  0  0  0  0  0  0  0  0  0
  150.1929  141.9566  158.1558 H   0  0  0  0  0  0  0  0  0  0  0  0
  152.0320  139.5756  157.6193 H   0  0  0  0  0  0  0  0  0  0  0  0
  149.3626  139.1875  157.2515 H   0  0  0  0  0  0  0  0  0  0  0  0
  150.8537  141.5821  155.9708 H   0  0  0  0  0  0  0  0  0  0  0  0
  151.7271  140.1707  155.4507 H   0  0  0  0  0  0  0  0  0  0  0  0
  151.4265  138.1366  154.3779 H   0  0  0  0  0  0  0  0  0  0  0  0
  150.8081  137.3957  155.8364 H   0  0  0  0  0  0  0  0  0  0  0  0
  149.7673  136.8439  153.2776 H   0  0  0  0  0  0  0  0  0  0  0  0
  145.5668  139.4115  153.9436 H   0  0  0  0  0  0  0  0  0  0  0  0
  144.7761  141.6775  154.5844 H   0  0  0  0  0  0  0  0  0  0  0  0
  146.3163  143.2763  155.7030 H   0  0  0  0  0  0  0  0  0  0  0  0
  148.6665  142.6129  156.1879 H   0  0  0  0  0  0  0  0  0  0  0  0
  153.3077  140.3228  159.3297 H   0  0  0  0  0  0  0  0  0  0  0  0
  154.2399  141.7956  159.2648 H   0  0  0  0  0  0  0  0  0  0  0  0
  151.9256  141.2915  161.2161 H   0  0  0  0  0  0  0  0  0  0  0  0
  154.0053  140.0653  161.8551 H   0  0  0  0  0  0  0  0  0  0  0  0
  153.6750  141.3885  162.9688 H   0  0  0  0  0  0  0  0  0  0  0  0
  154.9285  141.5628  161.7434 H   0  0  0  0  0  0  0  0  0  0  0  0
  152.6854  141.9340  157.6443 H   0  0  0  0  0  0  0  0  0  0  0  0
  1  2  1  0  0  0  0
  1 24  1  0  0  0  0
  1 25  1  0  0  0  0
  1 26  1  0  0  0  0
  2 23  1  0  0  0  0
  2  3  1  0  0  0  0
  2 27  1  0  0  0  0
  3  4  1  0  0  0  0
  3 28  1  0  0  0  0
  3 29  1  0  0  0  0
  4  5  1  0  0  0  0
  4 20  1  0  0  0  0
  4 49  1  0  0  0  0
  5  6  1  0  0  0  0
  5 30  1  0  0  0  0
  5 31  1  0  0  0  0
  6  7  1  0  0  0  0
  6  8  1  0  0  0  0
  6 32  1  0  0  0  0
  7 33  1  0  0  0  0
  8  9  1  0  0  0  0
  8 34  1  0  0  0  0
  8 35  1  0  0  0  0
  9 19  1  0  0  0  0
  9 10  1  0  0  0  0
 10 11  1  0  0  0  0
 10 13  2  0  0  0  0
 11 12  1  0  0  0  0
 11 36  1  0  0  0  0
 11 37  1  0  0  0  0
 12 38  1  0  0  0  0
 13 14  1  0  0  0  0
 14 19  2  0  0  0  0
 14 15  1  0  0  0  0
 15 16  2  0  0  0  0
 15 39  1  0  0  0  0
 16 17  1  0  0  0  0
 16 40  1  0  0  0  0
 17 18  2  0  0  0  0
 17 41  1  0  0  0  0
 18 19  1  0  0  0  0
 18 42  1  0  0  0  0
 20 21  1  0  0  0  0
 20 43  1  0  0  0  0
 20 44  1  0  0  0  0
 21 22  1  0  0  0  0
 21 23  1  0  0  0  0
 21 45  1  0  0  0  0
 22 46  1  0  0  0  0
 22 47  1  0  0  0  0
 22 48  1  0  0  0  0
M  CHG  1   4   1
M  END
> <s_m_source_file>
AV-unprocessed.smi

> <i_m_source_file_index>
1703

> <i_lp_mmshare_version>
43012

> <i_f3d_flags>
0

> <s_epik_input>
W0NIM11bQ0BASF0xW0NIMl1OKFtDSDJdW0NASF0oTzEpW0NIM10pW0NIMl1bQ0BIXShbT0hdKVtDSDJdbihjKG4yKVtDSDJdW09IXSljKGMyMylbY0hdW2NIXVtjSF1bY0hdMw==

> <s_epik_cmdline>
J2VwaWtfcHl0aG9uJywgJy1waCcsICc3LjAnLCAnLXRuJywgJzgnLCAnLW1hJywgJzIwMCcsICctbWV0YWxfYmluZGluZycsICctaW1hZScsICc8aW5maWxlLm1hZT4nLCAnLW9tYWUnLCAnPG91dGZpbGUubWFlPic=

> <r_epik_Ionization_Penalty>
0.655661

> <r_epik_Ionization_Penalty_Charging>
0.608065

> <r_epik_Ionization_Penalty_Neutral>
0.0475963

> <r_epik_State_Penalty>
0.695267

> <r_epik_Charging_Adjusted_Penalty>
1.30333

> <i_epik_Tot_Q>
1

> <i_epik_Tot_abs_Q>
1

> <r_epik_Metal_State_Penalty>
0.653591

> <b_epik_Metal_Only>
0

> <s_lp_Force_Field>
OPLS_2005

> <r_lp_Energy>
23.9002

> <b_lp_Chiralities_Consistent>
1

> <s_lp_Variant>
AV-unprocessed.smi:1703-10

> <Gold.Version>
5.8.1

> <Gold.Id.Protein>
6NUR|6NUR_protein|mol2

> <Gold.PLP.Fitness>
55.2827

> <Gold.PLP.PLP>
-52.4767

> <Gold.PLP.part.hbond>
-2.0000

> <Gold.PLP.part.metal>
0.0000

> <Gold.PLP.part.buried>
-0.7854

> <Gold.PLP.part.nonpolar>
-50.7086

> <Gold.PLP.part.repulsive>
1.2868

> <Gold.PLP.ligand.clash>
0.0000

> <Gold.PLP.ligand.torsion>
1.6304

> <Gold.PLP.Chemscore.Hbond>
1.9913

> <Gold.PLP.Chemscore.CHOScore>
0.0000

> <Gold.PLP.Chemscore.Metal>
0.0000

> <Gold.Chemscore.Hbonds>
donor molecule, donor type, donor heavy atom, donor atom, acceptor molecule, acceptor atom, score
      L1  H    12    38       P1  7948  0.83

> <Gold.PLP.Chemscore.Internal.Correction>
0.0930

> <Gold.Rescore>
     Score         DG    S(hbond)    S(metal)    S(lipo)     H(rot)  DE(clash)    DE(int)     intcor
     14.70     -18.49       1.71        0.00     127.20       2.96       2.53       1.26       ----

> <Gold.Chemscore.Fitness>
14.6991

> <Gold.Chemscore.DG>
-18.4887

> <Gold.Chemscore.ZeroCoef>
-5.4800

> <Gold.Chemscore.Hbond>
1.7086

> <Gold.Chemscore.Metal>
0.0000

> <Gold.Chemscore.Lipo>
127.1978

> <Gold.Chemscore.Internal_Hbond>
0.0000

> <Gold.Chemscore.DEClash>
2.5328

> <Gold.Chemscore.DEInternal>
1.2568

> <Gold.Chemscore.Rot>
2.9611

> <Gold.Chemscore.Internal.Correction>
   9.000000E+99

> <Gold.Chemscore.Hbonds>
donor molecule, donor type, donor heavy atom, donor atom, acceptor molecule, acceptor atom, score
      L1  H    12    38       P1  7948  0.33

> <Gold.Chemscore.Hbond.Weighted>
-5.7069

> <Gold.Chemscore.Metal.Weighted>
-0.0000

> <Gold.Chemscore.Lipo.Weighted>
-14.8821

> <Gold.Chemscore.Internal_Hbond.Weighted>
0.0000

> <Gold.Chemscore.DEClash.Weighted>
2.5328

> <Gold.Chemscore.DEInternal.Weighted>
1.2568

> <Gold.Chemscore.Rot.Weighted>
7.5803

> <Gold.Chemscore.Internal.Correction.Weighted>
   9.000000E+99

> <Gold.Protein.RotatedTorsions>
[ 6907 6896 6895 6894 ] final -111.22 input  -60.11 | X-H torsion
[ 7974 7965 7964 7962 ] final  -61.24 input  175.53 | X-H torsion
[ 8008 7997 7996 7995 ] final  135.39 input   59.86 | X-H torsion
[ 10167 10162 10161 10158 ] final  118.67 input  -65.29 | X-H torsion
[ 10718 10713 10712 10709 ] final  136.90 input   66.30 | X-H torsion
[ 10763 10752 10751 10750 ] final  161.89 input  -60.55 | X-H torsion
[ 11005 11000 10999 10996 ] final  131.03 input  -57.11 | X-H torsion

> <Gold.Protein.ActiveResidues>
 VAL166  LYS551  ARG553  GLY616  TRP617  ASP618  TYR619  PRO620  LYS621  CYS622 
 ASP623  PHE694  ASN695  SER759  ASP760  ASP761  ALA762  ILE779  LEU786  VAL792 
 PHE793  MET794  SER795  GLU796  ALA797  LYS798  CYS799  TRP800  GLU811  SER814 

> <Gold.Protein.RotatedAtoms>
  150.7676  133.9268  159.3414 H   0  0  0  0  0  0  0  0  0  0  0  0  # atno 6907 bound_to 6896
  151.7162  135.0901  160.0285 H   0  0  0  0  0  0  0  0  0  0  0  0  # atno 6908 bound_to 6896
  152.3678  133.6342  159.6100 H   0  0  0  0  0  0  0  0  0  0  0  0  # atno 6909 bound_to 6896
  145.8058  140.8628  143.0207 H   0  0  0  0  0  0  0  0  0  0  0  0  # atno 7974 bound_to 7965
  156.3003  140.2472  156.3574 H   0  0  0  0  0  0  0  0  0  0  0  0  # atno 8008 bound_to 7997
  154.8909  140.0409  157.1857 H   0  0  0  0  0  0  0  0  0  0  0  0  # atno 8009 bound_to 7997
  154.8598  140.2919  155.5550 H   0  0  0  0  0  0  0  0  0  0  0  0  # atno 8010 bound_to 7997
  139.6096  144.7078  151.2874 H   0  0  0  0  0  0  0  0  0  0  0  0  # atno 10167 bound_to 10162
  157.4417  131.1058  151.0135 H   0  0  0  0  0  0  0  0  0  0  0  0  # atno 10718 bound_to 10713
  154.2700  135.2766  155.2742 H   0  0  0  0  0  0  0  0  0  0  0  0  # atno 10763 bound_to 10752
  154.5310  135.5729  153.6762 H   0  0  0  0  0  0  0  0  0  0  0  0  # atno 10764 bound_to 10752
  152.9947  135.6227  154.2854 H   0  0  0  0  0  0  0  0  0  0  0  0  # atno 10765 bound_to 10752
  139.9706  134.9578  156.9380 H   0  0  0  0  0  0  0  0  0  0  0  0  # atno 11005 bound_to 11000
  144.6763  140.0325  143.7482 LP  0  0  0  0  0  0  0  0  0  0  0  0  # atno 17320 bound_to 7965
  145.9829  139.2955  143.1031 LP  0  0  0  0  0  0  0  0  0  0  0  0  # atno 17321 bound_to 7965
  140.7310  143.6865  150.7958 LP  0  0  0  0  0  0  0  0  0  0  0  0  # atno 17342 bound_to 10162
  140.0457  143.5301  152.2697 LP  0  0  0  0  0  0  0  0  0  0  0  0  # atno 17343 bound_to 10162
  157.0996  130.5976  149.5457 LP  0  0  0  0  0  0  0  0  0  0  0  0  # atno 17370 bound_to 10713
  155.9951  130.5017  150.7447 LP  0  0  0  0  0  0  0  0  0  0  0  0  # atno 17371 bound_to 10713
  140.5301  134.0822  155.7313 LP  0  0  0  0  0  0  0  0  0  0  0  0  # atno 17394 bound_to 11000
  141.1386  133.9178  157.2377 LP  0  0  0  0  0  0  0  0  0  0  0  0  # atno 17395 bound_to 11000

$$$$
