#       Name:                AV-unprocessed.smi:3
#       Creating user name   scv26
#       Creation time:       Thu Mar 26 15:14:24 2020


#       File generated by GOLD software.
#

@<TRIPOS>MOLECULE
AV-unprocessed.smi:3
    37    39     1
SMALL
NO_CHARGES


@<TRIPOS>ATOM
      1 ****        -0.5006   2.3075   0.1080 C.3            1 S1                 0.0000
      2 ****        -0.3493   1.2976  -0.9295 N.pl3          1 S1                 0.0000
      3 ****         0.8744   1.2838  -1.7277 C.3            1 S1                 0.0000
      4 ****         2.0228   0.5865  -1.0021 C.3            1 S1                 0.0000
      5 ****         2.0315  -0.9447  -0.8756 C.3            1 S1                 0.0000
      6 ****         3.5547  -0.9146  -1.0340 C.3            1 S1                 0.0000
      7 ****         4.1436  -1.9388  -1.8035 O.3            1 S1                 0.0000
      8 ****         3.3816   0.4532  -1.7032 C.3            1 S1                 0.0000
      9 ****        -1.1515   0.1357  -0.9206 C.2            1 S1                 0.0000
     10 ****        -0.9429  -0.7659  -1.9135 N.2            1 S1                 0.0000
     11 ****        -1.7036  -1.8890  -1.9234 C.2            1 S1                 0.0000
     12 ****        -2.6712  -2.2469  -1.0453 N.pl3          1 S1                 0.0000
     13 ****        -2.8931  -1.3618  -0.0296 C.2            1 S1                 0.0000
     14 ****        -3.7622  -1.4763   0.9691 N.2            1 S1                 0.0000
     15 ****        -3.6055  -0.3820   1.7312 C.2            1 S1                 0.0000
     16 ****        -2.5877   0.5192   1.2360 C.2            1 S1                 0.0000
     17 ****        -2.1466  -0.1597   0.0562 C.2            1 S1                 0.0000
     18 ****         2.1897   1.0253  -0.0160 H              1 S1                 0.0000
     19 ****         4.0623  -0.8319  -0.0715 H              1 S1                 0.0000
     20 ****        -1.5327   2.3712   0.4533 H              1 S1                 0.0000
     21 ****        -0.2249   3.2879  -0.2810 H              1 S1                 0.0000
     22 ****         0.1482   2.0904   0.9564 H              1 S1                 0.0000
     23 ****         0.7001   0.8250  -2.7011 H              1 S1                 0.0000
     24 ****         1.1496   2.3165  -1.9434 H              1 S1                 0.0000
     25 ****         1.6790  -1.3169   0.0868 H              1 S1                 0.0000
     26 ****         1.5267  -1.4440  -1.7048 H              1 S1                 0.0000
     27 ****         4.1283  -2.7239  -1.2774 H              1 S1                 0.0000
     28 ****         3.2962   0.3871  -2.7895 H              1 S1                 0.0000
     29 ****         4.1166   1.2019  -1.4063 H              1 S1                 0.0000
     30 ****        -1.5133  -2.5830  -2.7287 H              1 S1                 0.0000
     31 ****        -4.1983  -0.2310   2.6248 H              1 S1                 0.0000
     32 ****        -2.2592   1.4560   1.6656 H              1 S1                 0.0000
     33 ****        -3.1593  -3.1219  -1.1722 H              1 S1                 0.0000
     34 ****         5.0866  -1.6972  -2.0323 LP             1 S1                 0.0000
     35 ****         3.6219  -2.0792  -2.6450 LP             1 S1                 0.0000
     36 ****        -0.2495  -0.6071  -2.6164 LP             1 S1                 0.0000
     37 ****        -4.4045  -2.2273   1.1224 LP             1 S1                 0.0000
@<TRIPOS>BOND
    1    1    2 1     
    2    1   20 1     
    3    1   21 1     
    4    1   22 1     
    5    2    3 1     
    6    2    9 1     
    7    3    4 1     
    8    3   23 1     
    9    3   24 1     
   10    4   18 1     
   11    4    8 1     
   12    4    5 1     
   13    5    6 1     
   14    5   25 1     
   15    5   26 1     
   16    6   19 1     
   17    6    7 1     
   18    6    8 1     
   19    7   27 1     
   20    8   28 1     
   21    8   29 1     
   22    9   17 2     
   23    9   10 1     
   24   10   11 2     
   25   11   12 1     
   26   11   30 1     
   27   12   13 1     
   28   12   33 1     
   29   13   17 1     
   30   13   14 2     
   31   14   15 1     
   32   15   16 2     
   33   15   31 1     
   34   16   17 1     
   35   16   32 1     
   36    7   34 1     
   37    7   35 1     
   38   10   36 1     
   39   14   37 1     
@<TRIPOS>SUBSTRUCTURE
      1 S1             1
@<TRIPOS>SET
LONE_PAIRS      STATIC     ATOMS    <user>   **** ""
4 34 35 36 37
DONOR_HYDROGENS      STATIC     ATOMS    <user>   **** ""
2 27 33
ATOM$BLUE        STATIC     ATOMS    COLORGROUP SYSTEM
4 34 35 36 37
ATOM$RED        STATIC     ATOMS    COLORGROUP SYSTEM
2 27 33
