AV-unprocessed.smi:326|AV-procd|sdf|2345|dock2
  -GOLD-   2262022253D 1   1.00000     0.00000
 Structure written by MMmdl.
 44 45  0  0  0  0  0  0  0  0  1 V2000
  151.2156  137.7613  154.7834 C   0  0  0  0  0  0  0  0  0  0  0  0
  151.0580  139.1331  155.0994 O   0  0  0  0  0  0  0  0  0  0  0  0
  151.8765  139.5389  156.1848 C   0  0  0  0  0  0  0  0  0  0  0  0
  151.1999  140.7018  156.9280 C   0  0  0  0  0  0  0  0  0  0  0  0
  151.9754  141.1250  158.0991 N   0  0  0  0  0  0  0  0  0  0  0  0
  153.0102  140.2661  158.4276 N   0  0  0  0  0  0  0  0  0  0  0  0
  153.7699  140.5205  159.4436 C   0  0  0  0  0  0  0  0  0  0  0  0
  154.8924  139.6212  159.8270 C   0  0  0  0  0  0  0  0  0  0  0  0
  155.2982  138.7297  159.0795 O   0  0  0  0  0  0  0  0  0  0  0  0
  155.4159  139.8501  161.0443 N   0  0  0  0  0  0  0  0  0  0  0  0
  156.4848  139.0809  161.6769 C   0  0  2  0  0  0  0  0  0  0  0  0
  156.2032  137.5673  161.5818 C   0  0  0  0  0  0  0  0  0  0  0  0
  155.0113  137.1428  162.4589 C   0  0  0  0  0  0  0  0  0  0  0  0
  155.2047  137.5691  163.9270 C   0  0  2  0  0  0  0  0  0  0  0  0
  154.0115  137.1493  164.7968 C   0  0  0  0  0  0  0  0  0  0  0  0
  155.4608  139.0855  164.0196 C   0  0  0  0  0  0  0  0  0  0  0  0
  156.6531  139.5145  163.1455 C   0  0  0  0  0  0  0  0  0  0  0  0
  153.5560  141.7078  160.2536 C   0  0  0  0  0  0  0  0  0  0  0  0
  152.5379  142.5331  159.9251 C   0  0  0  0  0  0  0  0  0  0  0  0
  151.6590  142.2640  158.7858 C   0  0  0  0  0  0  0  0  0  0  0  0
  150.7184  142.9939  158.4739 O   0  0  0  0  0  0  0  0  0  0  0  0
  150.5673  137.5019  153.9463 H   0  0  0  0  0  0  0  0  0  0  0  0
  150.9440  137.1282  155.6290 H   0  0  0  0  0  0  0  0  0  0  0  0
  152.2437  137.5384  154.4944 H   0  0  0  0  0  0  0  0  0  0  0  0
  152.0131  138.7008  156.8695 H   0  0  0  0  0  0  0  0  0  0  0  0
  152.8662  139.8316  155.8302 H   0  0  0  0  0  0  0  0  0  0  0  0
  151.0578  141.5404  156.2436 H   0  0  0  0  0  0  0  0  0  0  0  0
  150.1945  140.4072  157.2333 H   0  0  0  0  0  0  0  0  0  0  0  0
  155.0232  140.6063  161.5865 H   0  0  0  0  0  0  0  0  0  0  0  0
  157.4207  139.2954  161.1579 H   0  0  0  0  0  0  0  0  0  0  0  0
  156.0257  137.2782  160.5452 H   0  0  0  0  0  0  0  0  0  0  0  0
  157.0910  137.0189  161.8993 H   0  0  0  0  0  0  0  0  0  0  0  0
  154.0926  137.5798  162.0649 H   0  0  0  0  0  0  0  0  0  0  0  0
  154.8846  136.0612  162.3992 H   0  0  0  0  0  0  0  0  0  0  0  0
  156.0873  137.0557  164.3115 H   0  0  0  0  0  0  0  0  0  0  0  0
  153.0907  137.6304  164.4658 H   0  0  0  0  0  0  0  0  0  0  0  0
  154.1724  137.4207  165.8404 H   0  0  0  0  0  0  0  0  0  0  0  0
  153.8568  136.0707  164.7575 H   0  0  0  0  0  0  0  0  0  0  0  0
  154.5664  139.6306  163.7146 H   0  0  0  0  0  0  0  0  0  0  0  0
  155.6512  139.3675  165.0556 H   0  0  0  0  0  0  0  0  0  0  0  0
  157.5647  139.0698  163.5464 H   0  0  0  0  0  0  0  0  0  0  0  0
  156.7916  140.5947  163.2066 H   0  0  0  0  0  0  0  0  0  0  0  0
  154.1891  141.9303  161.1005 H   0  0  0  0  0  0  0  0  0  0  0  0
  152.3658  143.4181  160.5198 H   0  0  0  0  0  0  0  0  0  0  0  0
  1  2  1  0  0  0  0
  1 22  1  0  0  0  0
  1 23  1  0  0  0  0
  1 24  1  0  0  0  0
  2  3  1  0  0  0  0
  3  4  1  0  0  0  0
  3 25  1  0  0  0  0
  3 26  1  0  0  0  0
  4  5  1  0  0  0  0
  4 27  1  0  0  0  0
  4 28  1  0  0  0  0
  5 20  1  0  0  0  0
  5  6  1  0  0  0  0
  6  7  2  0  0  0  0
  7  8  1  0  0  0  0
  7 18  1  0  0  0  0
  8  9  2  0  0  0  0
  8 10  1  0  0  0  0
 10 11  1  0  0  0  0
 10 29  1  0  0  0  0
 11 17  1  0  0  0  0
 11 12  1  0  0  0  0
 11 30  1  0  0  0  0
 12 13  1  0  0  0  0
 12 31  1  0  0  0  0
 12 32  1  0  0  0  0
 13 14  1  0  0  0  0
 13 33  1  0  0  0  0
 13 34  1  0  0  0  0
 14 15  1  0  0  0  0
 14 16  1  0  0  0  0
 14 35  1  0  0  0  0
 15 36  1  0  0  0  0
 15 37  1  0  0  0  0
 15 38  1  0  0  0  0
 16 17  1  0  0  0  0
 16 39  1  0  0  0  0
 16 40  1  0  0  0  0
 17 41  1  0  0  0  0
 17 42  1  0  0  0  0
 18 19  2  0  0  0  0
 18 43  1  0  0  0  0
 19 20  1  0  0  0  0
 19 44  1  0  0  0  0
 20 21  2  0  0  0  0
M  END
> <s_m_source_file>
AV-unprocessed.smi

> <i_m_source_file_index>
326

> <i_lp_mmshare_version>
43012

> <i_f3d_flags>
0

> <s_epik_input>
W0NIM11PW0NIMl1bQ0gyXW4xbmMoW2NIXVtjSF1jMT1PKUMoPU8pW05IXVtDQEBIXTJbQ0gyXVtDSDJdW0NAQEhdKFtDSDNdKVtDSDJdW0NIMl0y

> <s_epik_cmdline>
J2VwaWtfcHl0aG9uJywgJy1waCcsICc3LjAnLCAnLXRuJywgJzgnLCAnLW1hJywgJzIwMCcsICctbWV0YWxfYmluZGluZycsICctaW1hZScsICc8aW5maWxlLm1hZT4nLCAnLW9tYWUnLCAnPG91dGZpbGUubWFlPic=

> <r_lp_tautomer_probability>
1

> <r_epik_Ionization_Penalty>
6.47102e-07

> <r_epik_Ionization_Penalty_Charging>
6.8576e-09

> <r_epik_Ionization_Penalty_Neutral>
6.40245e-07

> <r_epik_State_Penalty>
-0

> <r_epik_Charging_Adjusted_Penalty>
6.8576e-09

> <i_epik_Tot_Q>
0

> <i_epik_Tot_abs_Q>
0

> <r_epik_Metal_State_Penalty>
-0

> <b_epik_Metal_Only>
0

> <s_lp_Force_Field>
OPLS_2005

> <r_lp_Energy>
28.5252

> <b_lp_Chiralities_Consistent>
1

> <s_lp_Variant>
AV-unprocessed.smi:326-2

> <Gold.Version>
5.8.1

> <Gold.Id.Protein>
6NUR|6NUR_protein|mol2

> <Gold.PLP.Fitness>
41.6271

> <Gold.PLP.PLP>
-37.0419

> <Gold.PLP.part.hbond>
-3.0000

> <Gold.PLP.part.metal>
0.0000

> <Gold.PLP.part.buried>
-3.8507

> <Gold.PLP.part.nonpolar>
-29.5789

> <Gold.PLP.part.repulsive>
0.1989

> <Gold.PLP.ligand.clash>
0.1755

> <Gold.PLP.ligand.torsion>
0.4478

> <Gold.PLP.Chemscore.Hbond>
1.8564

> <Gold.PLP.Chemscore.CHOScore>
0.0000

> <Gold.PLP.Chemscore.Metal>
0.0000

> <Gold.Chemscore.Hbonds>
donor molecule, donor type, donor heavy atom, donor atom, acceptor molecule, acceptor atom, score
      P1  H  7997  8008       L1     6  0.64

> <Gold.PLP.Chemscore.Internal.Correction>
0.0869

> <Gold.Rescore>
     Score         DG    S(hbond)    S(metal)    S(lipo)     H(rot)  DE(clash)    DE(int)     intcor
     14.82     -16.75       1.29        0.00      93.52       1.55       0.22       1.72       ----

> <Gold.Chemscore.Fitness>
14.8158

> <Gold.Chemscore.DG>
-16.7532

> <Gold.Chemscore.ZeroCoef>
-5.4800

> <Gold.Chemscore.Hbond>
1.2856

> <Gold.Chemscore.Metal>
0.0000

> <Gold.Chemscore.Lipo>
93.5187

> <Gold.Chemscore.Internal_Hbond>
0.0000

> <Gold.Chemscore.DEClash>
0.2173

> <Gold.Chemscore.DEInternal>
1.7201

> <Gold.Chemscore.Rot>
1.5478

> <Gold.Chemscore.Internal.Correction>
   9.000000E+99

> <Gold.Chemscore.Hbonds>
donor molecule, donor type, donor heavy atom, donor atom, acceptor molecule, acceptor atom, score
      P1  H  7989  7998       L1     2  0.02
      P1  H  7997  8008       L1     6  0.14

> <Gold.Chemscore.Hbond.Weighted>
-4.2938

> <Gold.Chemscore.Metal.Weighted>
-0.0000

> <Gold.Chemscore.Lipo.Weighted>
-10.9417

> <Gold.Chemscore.Internal_Hbond.Weighted>
0.0000

> <Gold.Chemscore.DEClash.Weighted>
0.2173

> <Gold.Chemscore.DEInternal.Weighted>
1.7201

> <Gold.Chemscore.Rot.Weighted>
3.9623

> <Gold.Chemscore.Internal.Correction.Weighted>
   9.000000E+99

> <Gold.Protein.RotatedTorsions>
[ 6907 6896 6895 6894 ] final  116.98 input  -60.11 | X-H torsion
[ 7974 7965 7964 7962 ] final  -23.34 input  175.53 | X-H torsion
[ 8008 7997 7996 7995 ] final  -74.94 input   59.86 | X-H torsion
[ 10167 10162 10161 10158 ] final   -1.33 input  -65.29 | X-H torsion
[ 10718 10713 10712 10709 ] final -118.42 input   66.30 | X-H torsion
[ 10763 10752 10751 10750 ] final   14.22 input  -60.55 | X-H torsion
[ 11005 11000 10999 10996 ] final  155.63 input  -57.11 | X-H torsion

> <Gold.Protein.ActiveResidues>
 VAL166  LYS551  ARG553  GLY616  TRP617  ASP618  TYR619  PRO620  LYS621  CYS622 
 ASP623  PHE694  ASN695  SER759  ASP760  ASP761  ALA762  ILE779  LEU786  VAL792 
 PHE793  MET794  SER795  GLU796  ALA797  LYS798  CYS799  TRP800  GLU811  SER814 

> <Gold.Protein.RotatedAtoms>
  152.4642  133.7888  159.6890 H   0  0  0  0  0  0  0  0  0  0  0  0  # atno 6907 bound_to 6896
  150.8600  133.7648  159.3002 H   0  0  0  0  0  0  0  0  0  0  0  0  # atno 6908 bound_to 6896
  151.5217  135.1070  159.9932 H   0  0  0  0  0  0  0  0  0  0  0  0  # atno 6909 bound_to 6896
  146.1622  140.4602  142.8566 H   0  0  0  0  0  0  0  0  0  0  0  0  # atno 7974 bound_to 7965
  154.5374  140.0752  156.8451 H   0  0  0  0  0  0  0  0  0  0  0  0  # atno 8008 bound_to 7997
  155.3250  140.3398  155.4222 H   0  0  0  0  0  0  0  0  0  0  0  0  # atno 8009 bound_to 7997
  156.1841  140.1662  156.8205 H   0  0  0  0  0  0  0  0  0  0  0  0  # atno 8010 bound_to 7997
  140.6806  143.6788  150.8123 H   0  0  0  0  0  0  0  0  0  0  0  0  # atno 10167 bound_to 10162
  156.1105  130.6245  150.9289 H   0  0  0  0  0  0  0  0  0  0  0  0  # atno 10718 bound_to 10713
  153.1643  135.6801  153.8697 H   0  0  0  0  0  0  0  0  0  0  0  0  # atno 10763 bound_to 10752
  153.8082  135.3146  155.3399 H   0  0  0  0  0  0  0  0  0  0  0  0  # atno 10764 bound_to 10752
  154.7955  135.4810  154.0240 H   0  0  0  0  0  0  0  0  0  0  0  0  # atno 10765 bound_to 10752
  140.1600  134.8616  157.2562 H   0  0  0  0  0  0  0  0  0  0  0  0  # atno 11005 bound_to 11000
  144.8043  140.6270  143.6457 LP  0  0  0  0  0  0  0  0  0  0  0  0  # atno 17320 bound_to 7965
  145.4559  139.1518  143.3893 LP  0  0  0  0  0  0  0  0  0  0  0  0  # atno 17321 bound_to 7965
  140.0487  143.5271  152.2684 LP  0  0  0  0  0  0  0  0  0  0  0  0  # atno 17342 bound_to 10162
  139.6125  144.7612  151.2919 LP  0  0  0  0  0  0  0  0  0  0  0  0  # atno 17343 bound_to 10162
  157.6286  131.0923  150.8486 LP  0  0  0  0  0  0  0  0  0  0  0  0  # atno 17370 bound_to 10713
  156.8597  130.5109  149.5305 LP  0  0  0  0  0  0  0  0  0  0  0  0  # atno 17371 bound_to 10713
  140.2502  134.3692  155.7445 LP  0  0  0  0  0  0  0  0  0  0  0  0  # atno 17394 bound_to 11000
  141.2208  133.7312  156.8923 LP  0  0  0  0  0  0  0  0  0  0  0  0  # atno 17395 bound_to 11000

$$$$
