AV-unprocessed.smi:2061|AV-procd|sdf|8392|dock5
  -GOLD-   2272011 73D 1   1.00000     0.00000
 Structure written by MMmdl.
 45 46  0  0  0  0  0  0  0  0  3 V2000
  153.6155  142.1312  160.6852 C   0  0  0  0  0  0  0  0  0  0  0  0
  152.9167  141.6497  159.4595 C   0  0  0  0  0  0  0  0  0  0  0  0
  151.7849  142.0625  158.8146 C   0  0  0  0  0  0  0  0  0  0  0  0
  151.6969  141.1678  157.7152 C   0  0  0  0  0  0  0  0  0  0  0  0
  150.6238  141.2577  156.7898 N   0  0  0  0  0  0  0  0  0  0  0  0
  150.5147  140.6859  155.5775 C   0  0  0  0  0  0  0  0  0  0  0  0
  151.4759  140.0845  155.0830 O   0  0  0  0  0  0  0  0  0  0  0  0
  149.2762  140.8488  155.0347 N   0  5  0  0  0  0  0  0  0  0  0  0
  148.7039  140.0085  153.9765 C   0  0  0  0  0  0  0  0  0  0  0  0
  147.2887  140.4933  153.5523 C   0  0  2  0  0  0  0  0  0  0  0  0
  146.8061  141.7711  154.2832 C   0  0  0  0  0  0  0  0  0  0  0  0
  146.3047  139.3641  153.5634 N   0  3  1  0  0  0  0  0  0  0  0  0
  146.5263  138.2682  152.5844 C   0  0  0  0  0  0  0  0  0  0  0  0
  145.2888  137.3580  152.5392 C   0  0  1  0  0  0  0  0  0  0  0  0
  145.4777  136.1779  151.5802 C   0  0  0  0  0  0  0  0  0  0  0  0
  145.0482  136.8354  153.8442 O   0  0  0  0  0  0  0  0  0  0  0  0
  144.8451  137.8210  154.8585 C   0  0  2  0  0  0  0  0  0  0  0  0
  143.4815  138.5211  154.7183 C   0  0  0  0  0  0  0  0  0  0  0  0
  146.0347  138.8016  154.9078 C   0  0  0  0  0  0  0  0  0  0  0  0
  152.6818  140.2816  157.6972 N   0  0  0  0  0  0  0  0  0  0  0  0
  153.4701  140.5882  158.8124 O   0  0  0  0  0  0  0  0  0  0  0  0
  152.9331  142.1538  161.5348 H   0  0  0  0  0  0  0  0  0  0  0  0
  154.0040  143.1387  160.5362 H   0  0  0  0  0  0  0  0  0  0  0  0
  154.4525  141.4814  160.9420 H   0  0  0  0  0  0  0  0  0  0  0  0
  151.1278  142.8750  159.0859 H   0  0  0  0  0  0  0  0  0  0  0  0
  149.8208  141.7831  157.1021 H   0  0  0  0  0  0  0  0  0  0  0  0
  149.3473  140.0025  153.0966 H   0  0  0  0  0  0  0  0  0  0  0  0
  148.6358  138.9627  154.2798 H   0  0  0  0  0  0  0  0  0  0  0  0
  147.4103  140.7982  152.5120 H   0  0  0  0  0  0  0  0  0  0  0  0
  147.4946  142.6047  154.1338 H   0  0  0  0  0  0  0  0  0  0  0  0
  146.6997  141.6310  155.3603 H   0  0  0  0  0  0  0  0  0  0  0  0
  145.8396  142.0954  153.8967 H   0  0  0  0  0  0  0  0  0  0  0  0
  146.7064  138.6758  151.5898 H   0  0  0  0  0  0  0  0  0  0  0  0
  147.4077  137.6881  152.8609 H   0  0  0  0  0  0  0  0  0  0  0  0
  144.4243  137.9301  152.2013 H   0  0  0  0  0  0  0  0  0  0  0  0
  145.6557  136.5258  150.5621 H   0  0  0  0  0  0  0  0  0  0  0  0
  144.5906  135.5444  151.5633 H   0  0  0  0  0  0  0  0  0  0  0  0
  146.3247  135.5584  151.8765 H   0  0  0  0  0  0  0  0  0  0  0  0
  144.8236  137.2795  155.8046 H   0  0  0  0  0  0  0  0  0  0  0  0
  143.2887  139.1687  155.5737 H   0  0  0  0  0  0  0  0  0  0  0  0
  142.6732  137.7914  154.6696 H   0  0  0  0  0  0  0  0  0  0  0  0
  143.4240  139.1428  153.8255 H   0  0  0  0  0  0  0  0  0  0  0  0
  146.9297  138.2897  155.2646 H   0  0  0  0  0  0  0  0  0  0  0  0
  145.8195  139.6004  155.6191 H   0  0  0  0  0  0  0  0  0  0  0  0
  145.4381  139.8015  153.2805 H   0  0  0  0  0  0  0  0  0  0  0  0
  1  2  1  0  0  0  0
  1 22  1  0  0  0  0
  1 23  1  0  0  0  0
  1 24  1  0  0  0  0
  2 21  1  0  0  0  0
  2  3  2  0  0  0  0
  3  4  1  0  0  0  0
  3 25  1  0  0  0  0
  4  5  1  0  0  0  0
  4 20  2  0  0  0  0
  5  6  1  0  0  0  0
  5 26  1  0  0  0  0
  6  7  2  0  0  0  0
  6  8  1  0  0  0  0
  8  9  1  0  0  0  0
  9 10  1  0  0  0  0
  9 27  1  0  0  0  0
  9 28  1  0  0  0  0
 10 11  1  0  0  0  0
 10 12  1  0  0  0  0
 10 29  1  0  0  0  0
 11 30  1  0  0  0  0
 11 31  1  0  0  0  0
 11 32  1  0  0  0  0
 12 19  1  0  0  0  0
 12 13  1  0  0  0  0
 12 45  1  0  0  0  0
 13 14  1  0  0  0  0
 13 33  1  0  0  0  0
 13 34  1  0  0  0  0
 14 15  1  0  0  0  0
 14 16  1  0  0  0  0
 14 35  1  0  0  0  0
 15 36  1  0  0  0  0
 15 37  1  0  0  0  0
 15 38  1  0  0  0  0
 16 17  1  0  0  0  0
 17 18  1  0  0  0  0
 17 19  1  0  0  0  0
 17 39  1  0  0  0  0
 18 40  1  0  0  0  0
 18 41  1  0  0  0  0
 18 42  1  0  0  0  0
 19 43  1  0  0  0  0
 19 44  1  0  0  0  0
 20 21  1  0  0  0  0
M  CHG  1   8  -1
M  CHG  1  12   1
M  END
> <s_m_source_file>
AV-unprocessed.smi

> <i_m_source_file_index>
2061

> <i_lp_mmshare_version>
43012

> <i_f3d_flags>
0

> <s_epik_input>
W0NIM11jMVtjSF1jKG5vMSlbTkhdQyg9TylbTkhdW0NIMl1bQ0BIXShbQ0gzXSlOMltDSDJdW0NAQEhdKFtDSDNdKU9bQ0BASF0oW0NIM10pW0NIMl0y

> <s_epik_cmdline>
J2VwaWtfcHl0aG9uJywgJy1waCcsICc3LjAnLCAnLXRuJywgJzgnLCAnLW1hJywgJzIwMCcsICctbWV0YWxfYmluZGluZycsICctaW1hZScsICc8aW5maWxlLm1hZT4nLCAnLW9tYWUnLCAnPG91dGZpbGUubWFlPic=

> <r_epik_Ionization_Penalty>
6.8073

> <r_epik_Ionization_Penalty_Charging>
6.80729

> <r_epik_Ionization_Penalty_Neutral>
5.65391e-06

> <r_epik_State_Penalty>
7.47323

> <r_epik_Charging_Adjusted_Penalty>
14.2805

> <i_epik_Tot_Q>
0

> <i_epik_Tot_abs_Q>
2

> <r_epik_Metal_State_Penalty>
3.40035

> <b_epik_Metal_Only>
1

> <s_lp_Force_Field>
OPLS_2005

> <r_lp_Energy>
16.7719

> <b_lp_Chiralities_Consistent>
1

> <s_lp_Variant>
AV-unprocessed.smi:2061-33

> <Gold.Version>
5.8.1

> <Gold.Id.Protein>
6NUR|6NUR_protein|mol2

> <Gold.PLP.Fitness>
39.6530

> <Gold.PLP.PLP>
-31.4065

> <Gold.PLP.part.hbond>
-3.9957

> <Gold.PLP.part.metal>
0.0000

> <Gold.PLP.part.buried>
0.9595

> <Gold.PLP.part.nonpolar>
-28.1979

> <Gold.PLP.part.repulsive>
0.3047

> <Gold.PLP.ligand.clash>
0.3017

> <Gold.PLP.ligand.torsion>
0.9620

> <Gold.PLP.Chemscore.Hbond>
3.4212

> <Gold.PLP.Chemscore.CHOScore>
0.0000

> <Gold.PLP.Chemscore.Metal>
0.0000

> <Gold.Chemscore.Hbonds>
donor molecule, donor type, donor heavy atom, donor atom, acceptor molecule, acceptor atom, score
      L1  H    12    45       P1 10175  1.92
      P1  H  7989  7998       L1     7  1.00
      P1  H  7997  8009       L1    20  0.39

> <Gold.PLP.Chemscore.Internal.Correction>
0.2087

> <Gold.Rescore>
     Score         DG    S(hbond)    S(metal)    S(lipo)     H(rot)  DE(clash)    DE(int)     intcor
     14.04     -16.30       1.95        0.00      70.80       1.56       0.03       2.23       ----

> <Gold.Chemscore.Fitness>
14.0439

> <Gold.Chemscore.DG>
-16.2987

> <Gold.Chemscore.ZeroCoef>
-5.4800

> <Gold.Chemscore.Hbond>
1.9509

> <Gold.Chemscore.Metal>
0.0000

> <Gold.Chemscore.Lipo>
70.7988

> <Gold.Chemscore.Internal_Hbond>
0.0000

> <Gold.Chemscore.DEClash>
0.0286

> <Gold.Chemscore.DEInternal>
2.2262

> <Gold.Chemscore.Rot>
1.5550

> <Gold.Chemscore.Internal.Correction>
   9.000000E+99

> <Gold.Chemscore.Hbonds>
donor molecule, donor type, donor heavy atom, donor atom, acceptor molecule, acceptor atom, score
      L1  H    12    45       P1 10175  0.91
      P1  H  7989  7998       L1     7  0.39
      P1  H  7997  8009       L1    20  0.01

> <Gold.Chemscore.Hbond.Weighted>
-6.5161

> <Gold.Chemscore.Metal.Weighted>
-0.0000

> <Gold.Chemscore.Lipo.Weighted>
-8.2835

> <Gold.Chemscore.Internal_Hbond.Weighted>
0.0000

> <Gold.Chemscore.DEClash.Weighted>
0.0286

> <Gold.Chemscore.DEInternal.Weighted>
2.2262

> <Gold.Chemscore.Rot.Weighted>
3.9809

> <Gold.Chemscore.Internal.Correction.Weighted>
   9.000000E+99

> <Gold.Protein.RotatedTorsions>
[ 6907 6896 6895 6894 ] final -136.10 input  -60.11 | X-H torsion
[ 7974 7965 7964 7962 ] final  -28.71 input  175.53 | X-H torsion
[ 8008 7997 7996 7995 ] final -175.91 input   59.86 | X-H torsion
[ 10167 10162 10161 10158 ] final   55.83 input  -65.29 | X-H torsion
[ 10718 10713 10712 10709 ] final -138.93 input   66.30 | X-H torsion
[ 10763 10752 10751 10750 ] final   61.30 input  -60.55 | X-H torsion
[ 11005 11000 10999 10996 ] final  -52.96 input  -57.11 | X-H torsion

> <Gold.Protein.ActiveResidues>
 VAL166  LYS551  ARG553  GLY616  TRP617  ASP618  TYR619  PRO620  LYS621  CYS622 
 ASP623  PHE694  ASN695  SER759  ASP760  ASP761  ALA762  ILE779  LEU786  VAL792 
 PHE793  MET794  SER795  GLU796  ALA797  LYS798  CYS799  TRP800  GLU811  SER814 

> <Gold.Protein.RotatedAtoms>
  151.0060  133.6011  159.2688 H   0  0  0  0  0  0  0  0  0  0  0  0  # atno 6907 bound_to 6896
  151.3180  135.0810  159.9305 H   0  0  0  0  0  0  0  0  0  0  0  0  # atno 6908 bound_to 6896
  152.5287  133.9712  159.7817 H   0  0  0  0  0  0  0  0  0  0  0  0  # atno 6909 bound_to 6896
  146.1269  140.5317  142.8710 H   0  0  0  0  0  0  0  0  0  0  0  0  # atno 7974 bound_to 7965
  155.9884  140.1196  157.0662 H   0  0  0  0  0  0  0  0  0  0  0  0  # atno 8008 bound_to 7997
  154.4204  140.1130  156.5599 H   0  0  0  0  0  0  0  0  0  0  0  0  # atno 8009 bound_to 7997
  155.6377  140.3473  155.4706 H   0  0  0  0  0  0  0  0  0  0  0  0  # atno 8010 bound_to 7997
  140.2152  144.3846  150.6472 H   0  0  0  0  0  0  0  0  0  0  0  0  # atno 10167 bound_to 10162
  156.3050  130.7450  151.1511 H   0  0  0  0  0  0  0  0  0  0  0  0  # atno 10718 bound_to 10713
  152.9946  135.5505  154.6011 H   0  0  0  0  0  0  0  0  0  0  0  0  # atno 10763 bound_to 10752
  154.5352  135.2816  155.1146 H   0  0  0  0  0  0  0  0  0  0  0  0  # atno 10764 bound_to 10752
  154.2446  135.6410  153.5271 H   0  0  0  0  0  0  0  0  0  0  0  0  # atno 10765 bound_to 10752
  141.0951  133.6626  156.4101 H   0  0  0  0  0  0  0  0  0  0  0  0  # atno 11005 bound_to 11000
  144.7651  140.5512  143.6708 LP  0  0  0  0  0  0  0  0  0  0  0  0  # atno 17320 bound_to 7965
  145.5346  139.1475  143.3481 LP  0  0  0  0  0  0  0  0  0  0  0  0  # atno 17321 bound_to 7965
  140.6294  143.2185  151.6527 LP  0  0  0  0  0  0  0  0  0  0  0  0  # atno 17342 bound_to 10162
  139.5164  144.3346  152.0795 LP  0  0  0  0  0  0  0  0  0  0  0  0  # atno 17343 bound_to 10162
  157.7377  131.0548  150.5338 LP  0  0  0  0  0  0  0  0  0  0  0  0  # atno 17370 bound_to 10713
  156.5470  130.4222  149.6126 LP  0  0  0  0  0  0  0  0  0  0  0  0  # atno 17371 bound_to 10713
  140.5159  134.6350  157.5301 LP  0  0  0  0  0  0  0  0  0  0  0  0  # atno 17394 bound_to 11000
  139.9786  134.7174  155.9902 LP  0  0  0  0  0  0  0  0  0  0  0  0  # atno 17395 bound_to 11000

$$$$
