AV-unprocessed.smi:314|AV-procd|sdf|2313|dock9
  -GOLD-   2262022213D 1   1.00000     0.00000
 Structure written by MMmdl.
 48 49  0  0  0  0  0  0  0  0  1 V2000
  147.6282  128.3721  151.5976 C   0  0  0  0  0  0  0  0  0  0  0  0
  148.4785  128.9295  152.5937 O   0  0  0  0  0  0  0  0  0  0  0  0
  148.5245  130.3026  152.7218 C   0  0  0  0  0  0  0  0  0  0  0  0
  147.3776  131.0500  152.3890 C   0  0  0  0  0  0  0  0  0  0  0  0
  147.4156  132.4517  152.5161 C   0  0  0  0  0  0  0  0  0  0  0  0
  148.6046  133.0657  152.9795 C   0  0  0  0  0  0  0  0  0  0  0  0
  148.7869  134.4666  153.1494 N   0  0  0  0  0  0  0  0  0  0  0  0
  149.5935  135.1270  153.9983 C   0  0  0  0  0  0  0  0  0  0  0  0
  150.3546  134.6098  154.8151 O   0  0  0  0  0  0  0  0  0  0  0  0
  149.4754  136.4528  153.8405 N   0  0  0  0  0  0  0  0  0  0  0  0
  150.1986  137.4575  154.6120 C   0  0  0  0  0  0  0  0  0  0  0  0
  151.1717  138.2660  153.7283 C   0  0  0  0  0  0  0  0  0  0  0  0
  151.6653  139.5689  154.3815 C   0  0  0  0  0  0  0  0  0  0  0  0
  152.8740  139.7256  154.5617 O   0  0  0  0  0  0  0  0  0  0  0  0
  150.7567  140.5068  154.7425 N   0  0  0  0  0  0  0  0  0  0  0  0
  151.0411  141.7640  155.4404 C   0  0  0  0  0  0  0  0  0  0  0  0
  150.4001  141.6941  156.8410 C   0  0  1  0  0  0  0  0  0  0  0  0
  150.5950  142.9899  157.6354 C   0  0  0  0  0  0  0  0  0  0  0  0
  148.9982  141.4658  156.7009 O   0  0  0  0  0  0  0  0  0  0  0  0
  148.6772  140.2682  155.9942 C   0  0  1  0  0  0  0  0  0  0  0  0
  147.1510  140.1428  155.9361 C   0  0  0  0  0  0  0  0  0  0  0  0
  149.3112  140.3242  154.5898 C   0  0  0  0  0  0  0  0  0  0  0  0
  149.6980  132.2268  153.2797 C   0  0  0  0  0  0  0  0  0  0  0  0
  149.6687  130.8830  153.1596 N   0  0  0  0  0  0  0  0  0  0  0  0
  147.7079  127.2854  151.6224 H   0  0  0  0  0  0  0  0  0  0  0  0
  147.9152  128.7017  150.5981 H   0  0  0  0  0  0  0  0  0  0  0  0
  146.5831  128.6311  151.7737 H   0  0  0  0  0  0  0  0  0  0  0  0
  146.4830  130.5564  152.0391 H   0  0  0  0  0  0  0  0  0  0  0  0
  146.5361  133.0141  152.2481 H   0  0  0  0  0  0  0  0  0  0  0  0
  148.2474  135.0445  152.5215 H   0  0  0  0  0  0  0  0  0  0  0  0
  148.8282  136.7938  153.1449 H   0  0  0  0  0  0  0  0  0  0  0  0
  149.4580  138.1197  155.0622 H   0  0  0  0  0  0  0  0  0  0  0  0
  150.7310  136.9778  155.4353 H   0  0  0  0  0  0  0  0  0  0  0  0
  152.0378  137.6483  153.4876 H   0  0  0  0  0  0  0  0  0  0  0  0
  150.6787  138.5151  152.7879 H   0  0  0  0  0  0  0  0  0  0  0  0
  152.1031  141.9859  155.5297 H   0  0  0  0  0  0  0  0  0  0  0  0
  150.6145  142.5920  154.8718 H   0  0  0  0  0  0  0  0  0  0  0  0
  150.8399  140.8697  157.4054 H   0  0  0  0  0  0  0  0  0  0  0  0
  151.6534  143.2045  157.7844 H   0  0  0  0  0  0  0  0  0  0  0  0
  150.1292  142.9172  158.6184 H   0  0  0  0  0  0  0  0  0  0  0  0
  150.1499  143.8409  157.1189 H   0  0  0  0  0  0  0  0  0  0  0  0
  149.0773  139.4141  156.5438 H   0  0  0  0  0  0  0  0  0  0  0  0
  146.8511  139.2332  155.4154 H   0  0  0  0  0  0  0  0  0  0  0  0
  146.7056  140.9903  155.4143 H   0  0  0  0  0  0  0  0  0  0  0  0
  146.7246  140.1080  156.9388 H   0  0  0  0  0  0  0  0  0  0  0  0
  148.9008  141.1589  154.0194 H   0  0  0  0  0  0  0  0  0  0  0  0
  149.0551  139.4233  154.0307 H   0  0  0  0  0  0  0  0  0  0  0  0
  150.6297  132.6461  153.6306 H   0  0  0  0  0  0  0  0  0  0  0  0
  1  2  1  0  0  0  0
  1 25  1  0  0  0  0
  1 26  1  0  0  0  0
  1 27  1  0  0  0  0
  2  3  1  0  0  0  0
  3 24  1  0  0  0  0
  3  4  2  0  0  0  0
  4  5  1  0  0  0  0
  4 28  1  0  0  0  0
  5  6  2  0  0  0  0
  5 29  1  0  0  0  0
  6  7  1  0  0  0  0
  6 23  1  0  0  0  0
  7  8  1  0  0  0  0
  7 30  1  0  0  0  0
  8  9  2  0  0  0  0
  8 10  1  0  0  0  0
 10 11  1  0  0  0  0
 10 31  1  0  0  0  0
 11 12  1  0  0  0  0
 11 32  1  0  0  0  0
 11 33  1  0  0  0  0
 12 13  1  0  0  0  0
 12 34  1  0  0  0  0
 12 35  1  0  0  0  0
 13 14  2  0  0  0  0
 13 15  1  0  0  0  0
 15 22  1  0  0  0  0
 15 16  1  0  0  0  0
 16 17  1  0  0  0  0
 16 36  1  0  0  0  0
 16 37  1  0  0  0  0
 17 18  1  0  0  0  0
 17 19  1  0  0  0  0
 17 38  1  0  0  0  0
 18 39  1  0  0  0  0
 18 40  1  0  0  0  0
 18 41  1  0  0  0  0
 19 20  1  0  0  0  0
 20 21  1  0  0  0  0
 20 22  1  0  0  0  0
 20 42  1  0  0  0  0
 21 43  1  0  0  0  0
 21 44  1  0  0  0  0
 21 45  1  0  0  0  0
 22 46  1  0  0  0  0
 22 47  1  0  0  0  0
 23 24  2  0  0  0  0
 23 48  1  0  0  0  0
M  END
> <s_m_source_file>
AV-unprocessed.smi

> <i_m_source_file_index>
314

> <i_lp_mmshare_version>
43012

> <i_f3d_flags>
0

> <s_epik_input>
W0NIM11PYzFbY0hdW2NIXWMoW2NIXW4xKVtOSF1DKD1PKVtOSF1bQ0gyXVtDSDJdQyg9TylOMltDSDJdW0NAQEhdKFtDSDNdKU9bQ0BASF0oW0NIM10pW0NIMl0y

> <s_epik_cmdline>
J2VwaWtfcHl0aG9uJywgJy1waCcsICc3LjAnLCAnLXRuJywgJzgnLCAnLW1hJywgJzIwMCcsICctbWV0YWxfYmluZGluZycsICctaW1hZScsICc8aW5maWxlLm1hZT4nLCAnLW9tYWUnLCAnPG91dGZpbGUubWFlPic=

> <r_lp_tautomer_probability>
1

> <r_epik_Ionization_Penalty>
8.55977e-05

> <r_epik_Ionization_Penalty_Charging>
0

> <r_epik_Ionization_Penalty_Neutral>
8.55977e-05

> <r_epik_State_Penalty>
-0

> <r_epik_Charging_Adjusted_Penalty>
0

> <i_epik_Tot_Q>
0

> <i_epik_Tot_abs_Q>
0

> <r_epik_Metal_State_Penalty>
-0

> <b_epik_Metal_Only>
0

> <s_lp_Force_Field>
OPLS_2005

> <r_lp_Energy>
24.2957

> <b_lp_Chiralities_Consistent>
1

> <s_lp_Variant>
AV-unprocessed.smi:314-1

> <Gold.Version>
5.8.1

> <Gold.Id.Protein>
6NUR|6NUR_protein|mol2

> <Gold.PLP.Fitness>
44.7872

> <Gold.PLP.PLP>
-37.6856

> <Gold.PLP.part.hbond>
-3.0000

> <Gold.PLP.part.metal>
0.0000

> <Gold.PLP.part.buried>
-4.5057

> <Gold.PLP.part.nonpolar>
-29.8115

> <Gold.PLP.part.repulsive>
0.3241

> <Gold.PLP.ligand.clash>
0.0000

> <Gold.PLP.ligand.torsion>
0.6237

> <Gold.PLP.Chemscore.Hbond>
2.7760

> <Gold.PLP.Chemscore.CHOScore>
0.0000

> <Gold.PLP.Chemscore.Metal>
0.0000

> <Gold.Chemscore.Hbonds>
donor molecule, donor type, donor heavy atom, donor atom, acceptor molecule, acceptor atom, score
      L1  H     7    30       P1  7948  0.31
      L1  H    10    31       P1  7948  0.20
      P1  H  7997  8008       L1    14  0.16

> <Gold.PLP.Chemscore.Internal.Correction>
0.0210

> <Gold.Rescore>
     Score         DG    S(hbond)    S(metal)    S(lipo)     H(rot)  DE(clash)    DE(int)     intcor
     16.26     -18.24       2.48        0.00      77.87       1.81       0.15       1.82       ----

> <Gold.Chemscore.Fitness>
16.2645

> <Gold.Chemscore.DG>
-18.2386

> <Gold.Chemscore.ZeroCoef>
-5.4800

> <Gold.Chemscore.Hbond>
2.4771

> <Gold.Chemscore.Metal>
0.0000

> <Gold.Chemscore.Lipo>
77.8655

> <Gold.Chemscore.Internal_Hbond>
0.0000

> <Gold.Chemscore.DEClash>
0.1511

> <Gold.Chemscore.DEInternal>
1.8230

> <Gold.Chemscore.Rot>
1.8067

> <Gold.Chemscore.Internal.Correction>
   9.000000E+99

> <Gold.Chemscore.Hbonds>
donor molecule, donor type, donor heavy atom, donor atom, acceptor molecule, acceptor atom, score
      L1  H     7    30       P1  7948  0.22
      L1  H    10    31       P1  7948  0.20
      P1  H  7997  8008       L1    14  0.16

> <Gold.Chemscore.Hbond.Weighted>
-8.2735

> <Gold.Chemscore.Metal.Weighted>
-0.0000

> <Gold.Chemscore.Lipo.Weighted>
-9.1103

> <Gold.Chemscore.Internal_Hbond.Weighted>
0.0000

> <Gold.Chemscore.DEClash.Weighted>
0.1511

> <Gold.Chemscore.DEInternal.Weighted>
1.8230

> <Gold.Chemscore.Rot.Weighted>
4.6252

> <Gold.Chemscore.Internal.Correction.Weighted>
   9.000000E+99

> <Gold.Protein.RotatedTorsions>
[ 6907 6896 6895 6894 ] final   74.02 input  -60.11 | X-H torsion
[ 7974 7965 7964 7962 ] final -150.51 input  175.53 | X-H torsion
[ 8008 7997 7996 7995 ] final  -44.53 input   59.86 | X-H torsion
[ 10167 10162 10161 10158 ] final  169.78 input  -65.29 | X-H torsion
[ 10718 10713 10712 10709 ] final -151.75 input   66.30 | X-H torsion
[ 10763 10752 10751 10750 ] final   74.91 input  -60.55 | X-H torsion
[ 11005 11000 10999 10996 ] final  -79.99 input  -57.11 | X-H torsion

> <Gold.Protein.ActiveResidues>
 VAL166  LYS551  ARG553  GLY616  TRP617  ASP618  TYR619  PRO620  LYS621  CYS622 
 ASP623  PHE694  ASN695  SER759  ASP760  ASP761  ALA762  ILE779  LEU786  VAL792 
 PHE793  MET794  SER795  GLU796  ALA797  LYS798  CYS799  TRP800  GLU811  SER814 

> <Gold.Protein.RotatedAtoms>
  152.4954  134.4334  159.9519 H   0  0  0  0  0  0  0  0  0  0  0  0  # atno 6907 bound_to 6896
  151.4314  133.3663  159.2777 H   0  0  0  0  0  0  0  0  0  0  0  0  # atno 6908 bound_to 6896
  150.9152  134.8593  159.7512 H   0  0  0  0  0  0  0  0  0  0  0  0  # atno 6909 bound_to 6896
  144.7904  140.4922  143.5777 H   0  0  0  0  0  0  0  0  0  0  0  0  # atno 7974 bound_to 7965
  154.3998  140.1420  156.3698 H   0  0  0  0  0  0  0  0  0  0  0  0  # atno 8008 bound_to 7997
  155.8103  140.3473  155.5433 H   0  0  0  0  0  0  0  0  0  0  0  0  # atno 8009 bound_to 7997
  155.8393  140.0924  157.1735 H   0  0  0  0  0  0  0  0  0  0  0  0  # atno 8010 bound_to 7997
  139.5001  144.3668  151.9767 H   0  0  0  0  0  0  0  0  0  0  0  0  # atno 10167 bound_to 10162
  156.4634  130.8224  151.2455 H   0  0  0  0  0  0  0  0  0  0  0  0  # atno 10718 bound_to 10713
  153.0618  135.5008  154.8111 H   0  0  0  0  0  0  0  0  0  0  0  0  # atno 10763 bound_to 10752
  154.6895  135.2982  154.9503 H   0  0  0  0  0  0  0  0  0  0  0  0  # atno 10764 bound_to 10752
  154.0262  135.6735  153.4829 H   0  0  0  0  0  0  0  0  0  0  0  0  # atno 10765 bound_to 10752
  141.1668  133.7130  156.8205 H   0  0  0  0  0  0  0  0  0  0  0  0  # atno 11005 bound_to 11000
  145.5811  139.1489  143.3235 LP  0  0  0  0  0  0  0  0  0  0  0  0  # atno 17320 bound_to 7965
  146.2153  140.5940  142.9041 LP  0  0  0  0  0  0  0  0  0  0  0  0  # atno 17321 bound_to 7965
  140.3104  144.3544  150.6035 LP  0  0  0  0  0  0  0  0  0  0  0  0  # atno 17342 bound_to 10162
  140.5803  143.2173  151.7440 LP  0  0  0  0  0  0  0  0  0  0  0  0  # atno 17343 bound_to 10162
  157.7496  131.0100  150.3287 LP  0  0  0  0  0  0  0  0  0  0  0  0  # atno 17370 bound_to 10713
  156.3693  130.3860  149.7189 LP  0  0  0  0  0  0  0  0  0  0  0  0  # atno 17371 bound_to 10713
  140.2122  134.8819  157.3287 LP  0  0  0  0  0  0  0  0  0  0  0  0  # atno 17394 bound_to 11000
  140.2074  134.4180  155.7630 LP  0  0  0  0  0  0  0  0  0  0  0  0  # atno 17395 bound_to 11000

$$$$
