AV-unprocessed.smi:229|AV-procd|sdf|1752|dock4
  -GOLD-   2262020273D 1   1.00000     0.00000
 Structure written by MMmdl.
 58 62  0  0  0  0  0  0  0  0  1 V2000
  148.2626  133.0433  159.4479 C   0  0  0  0  0  0  0  0  0  0  0  0
  147.3242  133.7184  158.4365 C   0  0  0  0  0  0  0  0  0  0  0  0
  147.9951  134.1159  157.1097 C   0  0  1  0  0  0  0  0  0  0  0  0
  148.8099  135.4198  157.1987 C   0  0  0  0  0  0  0  0  0  0  0  0
  149.4790  135.6657  155.9274 N   0  0  0  0  0  0  0  0  0  0  0  0
  149.9858  136.9000  155.6887 C   0  0  0  0  0  0  0  0  0  0  0  0
  150.0569  137.3756  154.4168 N   0  0  0  0  0  0  0  0  0  0  0  0
  150.5432  138.5980  154.1808 C   0  0  0  0  0  0  0  0  0  0  0  0
  151.0075  139.4947  155.0537 N   0  0  0  0  0  0  0  0  0  0  0  0
  150.9495  139.0182  156.3299 C   0  0  0  0  0  0  0  0  0  0  0  0
  150.4580  137.7444  156.7319 C   0  0  0  0  0  0  0  0  0  0  0  0
  150.5666  137.6081  158.1112 N   0  0  0  0  0  0  0  0  0  0  0  0
  151.0845  138.7398  158.5031 C   0  0  0  0  0  0  0  0  0  0  0  0
  151.3422  139.6453  157.4994 N   0  0  0  0  0  0  0  0  0  0  0  0
  151.9121  140.9715  157.6591 C   0  0  0  0  0  0  0  0  0  0  0  0
  150.8318  142.0681  157.7270 C   0  0  2  0  0  0  0  0  0  0  0  0
  150.6155  142.5871  156.4286 O   0  0  0  0  0  0  0  0  0  0  0  0
  151.2301  143.2198  158.6677 C   0  0  1  0  0  0  0  0  0  0  0  0
  152.4332  144.0381  158.1969 C   0  0  0  0  0  0  0  0  0  0  0  0
  152.2350  145.3847  158.8742 C   0  0  0  0  0  0  0  0  0  0  0  0
  150.7630  145.3766  159.2953 C   0  0  0  0  0  0  0  0  0  0  0  0
  150.2109  144.2071  158.7065 O   0  0  0  0  0  0  0  0  0  0  0  0
  150.3348  134.5589  155.5187 C   0  0  0  0  0  0  0  0  0  0  0  0
  149.5260  133.2482  155.4410 C   0  0  1  0  0  0  0  0  0  0  0  0
  148.6061  133.1572  154.2272 C   0  0  0  0  0  0  0  0  0  0  0  0
  148.4477  131.6540  154.0598 C   0  0  0  0  0  0  0  0  0  0  0  0
  149.7438  131.1440  154.3324 O   0  0  0  0  0  0  0  0  0  0  0  0
  150.4239  132.0180  155.2309 C   0  0  0  0  0  0  0  0  0  0  0  0
  148.8270  133.0381  156.6749 O   0  0  0  0  0  0  0  0  0  0  0  0
  147.7099  132.7304  160.3339 H   0  0  0  0  0  0  0  0  0  0  0  0
  149.0519  133.7176  159.7788 H   0  0  0  0  0  0  0  0  0  0  0  0
  148.7328  132.1561  159.0231 H   0  0  0  0  0  0  0  0  0  0  0  0
  146.4975  133.0406  158.2214 H   0  0  0  0  0  0  0  0  0  0  0  0
  146.8773  134.6008  158.8952 H   0  0  0  0  0  0  0  0  0  0  0  0
  147.1962  134.2618  156.3835 H   0  0  0  0  0  0  0  0  0  0  0  0
  148.1486  136.2515  157.4461 H   0  0  0  0  0  0  0  0  0  0  0  0
  149.5628  135.3546  157.9848 H   0  0  0  0  0  0  0  0  0  0  0  0
  150.5618  138.9014  153.1444 H   0  0  0  0  0  0  0  0  0  0  0  0
  151.2926  138.9480  159.5425 H   0  0  0  0  0  0  0  0  0  0  0  0
  152.5093  140.9718  158.5716 H   0  0  0  0  0  0  0  0  0  0  0  0
  152.6024  141.1628  156.8364 H   0  0  0  0  0  0  0  0  0  0  0  0
  149.8948  141.6301  158.0735 H   0  0  0  0  0  0  0  0  0  0  0  0
  150.1989  143.4315  156.5092 H   0  0  0  0  0  0  0  0  0  0  0  0
  151.4031  142.8485  159.6800 H   0  0  0  0  0  0  0  0  0  0  0  0
  153.3855  143.5720  158.4513 H   0  0  0  0  0  0  0  0  0  0  0  0
  152.4009  144.1668  157.1142 H   0  0  0  0  0  0  0  0  0  0  0  0
  152.8798  145.4874  159.7475 H   0  0  0  0  0  0  0  0  0  0  0  0
  152.4597  146.2045  158.1915 H   0  0  0  0  0  0  0  0  0  0  0  0
  150.6756  145.3089  160.3805 H   0  0  0  0  0  0  0  0  0  0  0  0
  150.2288  146.2681  158.9661 H   0  0  0  0  0  0  0  0  0  0  0  0
  150.8226  134.7539  154.5640 H   0  0  0  0  0  0  0  0  0  0  0  0
  151.1318  134.4552  156.2565 H   0  0  0  0  0  0  0  0  0  0  0  0
  147.6550  133.6766  154.3297 H   0  0  0  0  0  0  0  0  0  0  0  0
  149.1052  133.5656  153.3472 H   0  0  0  0  0  0  0  0  0  0  0  0
  147.7413  131.2575  154.7903 H   0  0  0  0  0  0  0  0  0  0  0  0
  148.1071  131.3724  153.0634 H   0  0  0  0  0  0  0  0  0  0  0  0
  151.3720  132.2944  154.7676 H   0  0  0  0  0  0  0  0  0  0  0  0
  150.6547  131.5113  156.1687 H   0  0  0  0  0  0  0  0  0  0  0  0
  1  2  1  0  0  0  0
  1 30  1  0  0  0  0
  1 31  1  0  0  0  0
  1 32  1  0  0  0  0
  2  3  1  0  0  0  0
  2 33  1  0  0  0  0
  2 34  1  0  0  0  0
  3 29  1  0  0  0  0
  3  4  1  0  0  0  0
  3 35  1  0  0  0  0
  4  5  1  0  0  0  0
  4 36  1  0  0  0  0
  4 37  1  0  0  0  0
  5  6  1  0  0  0  0
  5 23  1  0  0  0  0
  6 11  1  0  0  0  0
  6  7  2  0  0  0  0
  7  8  1  0  0  0  0
  8  9  2  0  0  0  0
  8 38  1  0  0  0  0
  9 10  1  0  0  0  0
 10 14  1  0  0  0  0
 10 11  2  0  0  0  0
 11 12  1  0  0  0  0
 12 13  2  0  0  0  0
 13 14  1  0  0  0  0
 13 39  1  0  0  0  0
 14 15  1  0  0  0  0
 15 16  1  0  0  0  0
 15 40  1  0  0  0  0
 15 41  1  0  0  0  0
 16 17  1  0  0  0  0
 16 18  1  0  0  0  0
 16 42  1  0  0  0  0
 17 43  1  0  0  0  0
 18 22  1  0  0  0  0
 18 19  1  0  0  0  0
 18 44  1  0  0  0  0
 19 20  1  0  0  0  0
 19 45  1  0  0  0  0
 19 46  1  0  0  0  0
 20 21  1  0  0  0  0
 20 47  1  0  0  0  0
 20 48  1  0  0  0  0
 21 22  1  0  0  0  0
 21 49  1  0  0  0  0
 21 50  1  0  0  0  0
 23 24  1  0  0  0  0
 23 51  1  0  0  0  0
 23 52  1  0  0  0  0
 24 28  1  0  0  0  0
 24 25  1  0  0  0  0
 24 29  1  0  0  0  0
 25 26  1  0  0  0  0
 25 53  1  0  0  0  0
 25 54  1  0  0  0  0
 26 27  1  0  0  0  0
 26 55  1  0  0  0  0
 26 56  1  0  0  0  0
 27 28  1  0  0  0  0
 28 57  1  0  0  0  0
 28 58  1  0  0  0  0
M  END
> <s_m_source_file>
AV-unprocessed.smi

> <i_m_source_file_index>
229

> <i_lp_mmshare_version>
43012

> <i_f3d_flags>
0

> <s_epik_input>
W0NIMl0xT1tDSDJdW0NIMl1bQ0BdMTJbQ0gyXU4oW0NIMl1bQ0BIXShPMilbQ0gyXVtDSDNdKWMobltjSF1uMyljKGMzNCluW2NIXW40W0NIMl1bQ0BIXShbT0hdKVtDQEBIXTVbQ0gyXVtDSDJdW0NIMl1PNQ==

> <s_epik_cmdline>
J2VwaWtfcHl0aG9uJywgJy1waCcsICc3LjAnLCAnLXRuJywgJzgnLCAnLW1hJywgJzIwMCcsICctbWV0YWxfYmluZGluZycsICctaW1hZScsICc8aW5maWxlLm1hZT4nLCAnLW9tYWUnLCAnPG91dGZpbGUubWFlPic=

> <r_lp_tautomer_probability>
1

> <r_epik_Ionization_Penalty>
0.00318402

> <r_epik_Ionization_Penalty_Charging>
0

> <r_epik_Ionization_Penalty_Neutral>
0.00318402

> <r_epik_State_Penalty>
0.00215642

> <r_epik_Charging_Adjusted_Penalty>
0.00215642

> <i_epik_Tot_Q>
0

> <i_epik_Tot_abs_Q>
0

> <r_epik_Metal_State_Penalty>
-0

> <b_epik_Metal_Only>
0

> <s_lp_Force_Field>
OPLS_2005

> <r_lp_Energy>
54.3536

> <b_lp_Chiralities_Consistent>
1

> <s_lp_Variant>
AV-unprocessed.smi:229-6

> <Gold.Version>
5.8.1

> <Gold.Id.Protein>
6NUR|6NUR_protein|mol2

> <Gold.PLP.Fitness>
44.7662

> <Gold.PLP.PLP>
-40.5070

> <Gold.PLP.part.hbond>
-1.6725

> <Gold.PLP.part.metal>
0.0000

> <Gold.PLP.part.buried>
-8.0050

> <Gold.PLP.part.nonpolar>
-31.8795

> <Gold.PLP.part.repulsive>
1.7171

> <Gold.PLP.ligand.clash>
0.0000

> <Gold.PLP.ligand.torsion>
1.4628

> <Gold.PLP.Chemscore.Hbond>
1.2625

> <Gold.PLP.Chemscore.CHOScore>
1.0000

> <Gold.PLP.Chemscore.Metal>
0.0000

> <Gold.Chemscore.Hbonds>
donor molecule, donor type, donor heavy atom, donor atom, acceptor molecule, acceptor atom, score
      L1  H    17    43       P1  8028  0.91
      P1  H  7989  7998       L1     9  0.43
      L1  C     8    38       P1  7957  1.00

> <Gold.PLP.Chemscore.Internal.Correction>
0.3974

> <Gold.Rescore>
     Score         DG    S(hbond)    S(metal)    S(lipo)     H(rot)  DE(clash)    DE(int)     intcor
     11.28     -13.48       0.92        0.00      96.02       2.46       0.12       2.08       ----

> <Gold.Chemscore.Fitness>
11.2753

> <Gold.Chemscore.DG>
-13.4762

> <Gold.Chemscore.ZeroCoef>
-5.4800

> <Gold.Chemscore.Hbond>
0.9154

> <Gold.Chemscore.Metal>
0.0000

> <Gold.Chemscore.Lipo>
96.0183

> <Gold.Chemscore.Internal_Hbond>
0.0000

> <Gold.Chemscore.DEClash>
0.1195

> <Gold.Chemscore.DEInternal>
2.0814

> <Gold.Chemscore.Rot>
2.4591

> <Gold.Chemscore.Internal.Correction>
   9.000000E+99

> <Gold.Chemscore.Hbonds>
donor molecule, donor type, donor heavy atom, donor atom, acceptor molecule, acceptor atom, score
      L1  H    17    43       P1  8028  0.85
      P1  H  7989  7998       L1     9  0.04

> <Gold.Chemscore.Hbond.Weighted>
-3.0574

> <Gold.Chemscore.Metal.Weighted>
-0.0000

> <Gold.Chemscore.Lipo.Weighted>
-11.2341

> <Gold.Chemscore.Internal_Hbond.Weighted>
0.0000

> <Gold.Chemscore.DEClash.Weighted>
0.1195

> <Gold.Chemscore.DEInternal.Weighted>
2.0814

> <Gold.Chemscore.Rot.Weighted>
6.2953

> <Gold.Chemscore.Internal.Correction.Weighted>
   9.000000E+99

> <Gold.Protein.RotatedTorsions>
[ 6907 6896 6895 6894 ] final   12.26 input  -60.11 | X-H torsion
[ 7974 7965 7964 7962 ] final  -77.37 input  175.53 | X-H torsion
[ 8008 7997 7996 7995 ] final   86.30 input   59.86 | X-H torsion
[ 10167 10162 10161 10158 ] final -176.43 input  -65.29 | X-H torsion
[ 10718 10713 10712 10709 ] final  -45.25 input   66.30 | X-H torsion
[ 10763 10752 10751 10750 ] final  -86.52 input  -60.55 | X-H torsion
[ 11005 11000 10999 10996 ] final  -29.25 input  -57.11 | X-H torsion

> <Gold.Protein.ActiveResidues>
 VAL166  LYS551  ARG553  GLY616  TRP617  ASP618  TYR619  PRO620  LYS621  CYS622 
 ASP623  PHE694  ASN695  SER759  ASP760  ASP761  ALA762  ILE779  LEU786  VAL792 
 PHE793  MET794  SER795  GLU796  ALA797  LYS798  CYS799  TRP800  GLU811  SER814 

> <Gold.Protein.RotatedAtoms>
  151.7675  135.0794  160.0354 H   0  0  0  0  0  0  0  0  0  0  0  0  # atno 6907 bound_to 6896
  152.3311  133.5955  159.5819 H   0  0  0  0  0  0  0  0  0  0  0  0  # atno 6908 bound_to 6896
  150.7423  133.9782  159.3609 H   0  0  0  0  0  0  0  0  0  0  0  0  # atno 6909 bound_to 6896
  145.6005  140.9410  143.1243 H   0  0  0  0  0  0  0  0  0  0  0  0  # atno 7974 bound_to 7965
  155.9610  140.3393  155.6490 H   0  0  0  0  0  0  0  0  0  0  0  0  # atno 8008 bound_to 7997
  155.6798  140.0736  157.2507 H   0  0  0  0  0  0  0  0  0  0  0  0  # atno 8009 bound_to 7997
  154.4143  140.1676  156.1957 H   0  0  0  0  0  0  0  0  0  0  0  0  # atno 8010 bound_to 7997
  139.5530  144.2060  152.1111 H   0  0  0  0  0  0  0  0  0  0  0  0  # atno 10167 bound_to 10162
  156.2303  130.4172  149.8883 H   0  0  0  0  0  0  0  0  0  0  0  0  # atno 10718 bound_to 10713
  154.6233  135.5446  153.7600 H   0  0  0  0  0  0  0  0  0  0  0  0  # atno 10763 bound_to 10752
  153.0249  135.6418  154.1408 H   0  0  0  0  0  0  0  0  0  0  0  0  # atno 10764 bound_to 10752
  154.1341  135.2912  155.3157 H   0  0  0  0  0  0  0  0  0  0  0  0  # atno 10765 bound_to 10752
  140.9280  133.7356  156.0895 H   0  0  0  0  0  0  0  0  0  0  0  0  # atno 11005 bound_to 11000
  144.7312  139.7721  143.7346 LP  0  0  0  0  0  0  0  0  0  0  0  0  # atno 17320 bound_to 7965
  146.1580  139.4684  143.0007 LP  0  0  0  0  0  0  0  0  0  0  0  0  # atno 17321 bound_to 7965
  140.1559  144.5071  150.6660 LP  0  0  0  0  0  0  0  0  0  0  0  0  # atno 17342 bound_to 10162
  140.6797  143.2321  151.5416 LP  0  0  0  0  0  0  0  0  0  0  0  0  # atno 17343 bound_to 10162
  156.6500  130.8740  151.3529 LP  0  0  0  0  0  0  0  0  0  0  0  0  # atno 17370 bound_to 10713
  157.7130  130.9462  150.1154 LP  0  0  0  0  0  0  0  0  0  0  0  0  # atno 17371 bound_to 10713
  140.7900  134.3628  157.5467 LP  0  0  0  0  0  0  0  0  0  0  0  0  # atno 17394 bound_to 11000
  139.8790  134.9134  156.3084 LP  0  0  0  0  0  0  0  0  0  0  0  0  # atno 17395 bound_to 11000

$$$$
