AV-unprocessed.smi:2261|AV-procd|sdf|9137|dock1
  -GOLD-   2272012343D 1   1.00000     0.00000
 Structure written by MMmdl.
 41 42  0  0  0  0  0  0  0  0  1 V2000
  148.3186  137.9830  155.5537 C   0  0  0  0  0  0  0  0  0  0  0  0
  148.5703  139.4445  155.9627 C   0  0  0  0  0  0  0  0  0  0  0  0
  147.3812  140.3375  155.5766 C   0  0  0  0  0  0  0  0  0  0  0  0
  148.9328  139.5690  157.4481 C   0  0  0  0  0  0  0  0  0  0  0  0
  150.4436  139.4524  157.4421 C   0  0  2  0  0  0  0  0  0  0  0  0
  151.0386  140.0755  158.6209 N   0  0  0  0  0  0  0  0  0  0  0  0
  152.3457  140.3257  158.7894 C   0  0  0  0  0  0  0  0  0  0  0  0
  153.2151  139.9801  157.9901 O   0  0  0  0  0  0  0  0  0  0  0  0
  152.7269  141.1116  160.0432 C   0  0  0  0  0  0  0  0  0  0  0  0
  152.4313  142.5863  159.8357 C   0  0  0  0  0  0  0  0  0  0  0  0
  152.3872  143.4759  160.9293 C   0  0  0  0  0  0  0  0  0  0  0  0
  152.1301  144.8385  160.6850 C   0  0  0  0  0  0  0  0  0  0  0  0
  151.9277  145.2548  159.3541 C   0  0  0  0  0  0  0  0  0  0  0  0
  151.9662  144.4123  158.2994 N   0  0  0  0  0  0  0  0  0  0  0  0
  152.2107  143.1070  158.5424 C   0  0  0  0  0  0  0  0  0  0  0  0
  150.8244  140.1502  156.1187 C   0  0  0  0  0  0  0  0  0  0  0  0
  150.9526  141.6855  156.2216 C   0  0  0  0  0  0  0  0  0  0  0  0
  152.0862  139.5454  155.4837 C   0  0  0  0  0  0  0  0  0  0  0  0
  149.7233  139.8907  155.2493 O   0  0  0  0  0  0  0  0  0  0  0  0
  147.4555  137.5699  156.0762 H   0  0  0  0  0  0  0  0  0  0  0  0
  149.1775  137.3509  155.7803 H   0  0  0  0  0  0  0  0  0  0  0  0
  148.1279  137.9022  154.4832 H   0  0  0  0  0  0  0  0  0  0  0  0
  146.4801  140.0501  156.1191 H   0  0  0  0  0  0  0  0  0  0  0  0
  147.1655  140.2665  154.5103 H   0  0  0  0  0  0  0  0  0  0  0  0
  147.5852  141.3851  155.8000 H   0  0  0  0  0  0  0  0  0  0  0  0
  148.6356  140.5471  157.8302 H   0  0  0  0  0  0  0  0  0  0  0  0
  148.4520  138.8154  158.0730 H   0  0  0  0  0  0  0  0  0  0  0  0
  150.7009  138.3922  157.3965 H   0  0  0  0  0  0  0  0  0  0  0  0
  150.4006  140.3979  159.3338 H   0  0  0  0  0  0  0  0  0  0  0  0
  152.1725  140.7339  160.9036 H   0  0  0  0  0  0  0  0  0  0  0  0
  153.7867  140.9729  160.2619 H   0  0  0  0  0  0  0  0  0  0  0  0
  152.5535  143.1221  161.9364 H   0  0  0  0  0  0  0  0  0  0  0  0
  152.0917  145.5485  161.4980 H   0  0  0  0  0  0  0  0  0  0  0  0
  151.7297  146.2927  159.1304 H   0  0  0  0  0  0  0  0  0  0  0  0
  152.2434  142.4612  157.6773 H   0  0  0  0  0  0  0  0  0  0  0  0
  151.8102  141.9779  156.8281 H   0  0  0  0  0  0  0  0  0  0  0  0
  150.0640  142.1376  156.6621 H   0  0  0  0  0  0  0  0  0  0  0  0
  151.0883  142.1314  155.2359 H   0  0  0  0  0  0  0  0  0  0  0  0
  152.9631  139.7151  156.1090 H   0  0  0  0  0  0  0  0  0  0  0  0
  152.2854  139.9874  154.5072 H   0  0  0  0  0  0  0  0  0  0  0  0
  151.9818  138.4695  155.3418 H   0  0  0  0  0  0  0  0  0  0  0  0
  1  2  1  0  0  0  0
  1 20  1  0  0  0  0
  1 21  1  0  0  0  0
  1 22  1  0  0  0  0
  2 19  1  0  0  0  0
  2  3  1  0  0  0  0
  2  4  1  0  0  0  0
  3 23  1  0  0  0  0
  3 24  1  0  0  0  0
  3 25  1  0  0  0  0
  4  5  1  0  0  0  0
  4 26  1  0  0  0  0
  4 27  1  0  0  0  0
  5  6  1  0  0  0  0
  5 16  1  0  0  0  0
  5 28  1  0  0  0  0
  6  7  1  0  0  0  0
  6 29  1  0  0  0  0
  7  8  2  0  0  0  0
  7  9  1  0  0  0  0
  9 10  1  0  0  0  0
  9 30  1  0  0  0  0
  9 31  1  0  0  0  0
 10 15  1  0  0  0  0
 10 11  2  0  0  0  0
 11 12  1  0  0  0  0
 11 32  1  0  0  0  0
 12 13  2  0  0  0  0
 12 33  1  0  0  0  0
 13 14  1  0  0  0  0
 13 34  1  0  0  0  0
 14 15  2  0  0  0  0
 15 35  1  0  0  0  0
 16 17  1  0  0  0  0
 16 18  1  0  0  0  0
 16 19  1  0  0  0  0
 17 36  1  0  0  0  0
 17 37  1  0  0  0  0
 17 38  1  0  0  0  0
 18 39  1  0  0  0  0
 18 40  1  0  0  0  0
 18 41  1  0  0  0  0
M  END
> <s_m_source_file>
AV-unprocessed.smi

> <i_m_source_file_index>
2261

> <i_lp_mmshare_version>
43012

> <i_f3d_flags>
0

> <s_epik_input>
W0NIM11DMShbQ0gzXSlbQ0gyXVtDQEhdKEMoTzEpKFtDSDNdKVtDSDNdKVtOSF1DKD1PKVtDSDJdYzJbY0hdW2NIXVtjSF1uW2NIXTI=

> <s_epik_cmdline>
J2VwaWtfcHl0aG9uJywgJy1waCcsICc3LjAnLCAnLXRuJywgJzgnLCAnLW1hJywgJzIwMCcsICctbWV0YWxfYmluZGluZycsICctaW1hZScsICc8aW5maWxlLm1hZT4nLCAnLW9tYWUnLCAnPG91dGZpbGUubWFlPic=

> <r_epik_Ionization_Penalty>
0.00420617

> <r_epik_Ionization_Penalty_Charging>
0

> <r_epik_Ionization_Penalty_Neutral>
0.00420617

> <r_epik_State_Penalty>
0.0030219

> <r_epik_Charging_Adjusted_Penalty>
0.0030219

> <i_epik_Tot_Q>
0

> <i_epik_Tot_abs_Q>
0

> <r_epik_Metal_State_Penalty>
-0

> <b_epik_Metal_Only>
0

> <s_lp_Force_Field>
OPLS_2005

> <r_lp_Energy>
16.2034

> <b_lp_Chiralities_Consistent>
1

> <s_lp_Variant>
AV-unprocessed.smi:2261-2

> <Gold.Version>
5.8.1

> <Gold.Id.Protein>
6NUR|6NUR_protein|mol2

> <Gold.PLP.Fitness>
37.3312

> <Gold.PLP.PLP>
-35.4549

> <Gold.PLP.part.hbond>
-1.0000

> <Gold.PLP.part.metal>
0.0000

> <Gold.PLP.part.buried>
-5.5740

> <Gold.PLP.part.nonpolar>
-28.8878

> <Gold.PLP.part.repulsive>
0.2862

> <Gold.PLP.ligand.clash>
0.0582

> <Gold.PLP.ligand.torsion>
0.5417

> <Gold.PLP.Chemscore.Hbond>
1.0000

> <Gold.PLP.Chemscore.CHOScore>
0.0000

> <Gold.PLP.Chemscore.Metal>
0.0000

> <Gold.Chemscore.Hbonds>
donor molecule, donor type, donor heavy atom, donor atom, acceptor molecule, acceptor atom, score
      P1  H  7997  8010       L1     8  1.00

> <Gold.PLP.Chemscore.Internal.Correction>
0.0178

> <Gold.Rescore>
     Score         DG    S(hbond)    S(metal)    S(lipo)     H(rot)  DE(clash)    DE(int)     intcor
     15.16     -17.16       0.98        0.00      99.89       1.28       0.07       1.93       ----

> <Gold.Chemscore.Fitness>
15.1578

> <Gold.Chemscore.DG>
-17.1615

> <Gold.Chemscore.ZeroCoef>
-5.4800

> <Gold.Chemscore.Hbond>
0.9827

> <Gold.Chemscore.Metal>
0.0000

> <Gold.Chemscore.Lipo>
99.8862

> <Gold.Chemscore.Internal_Hbond>
0.0000

> <Gold.Chemscore.DEClash>
0.0710

> <Gold.Chemscore.DEInternal>
1.9326

> <Gold.Chemscore.Rot>
1.2842

> <Gold.Chemscore.Internal.Correction>
   9.000000E+99

> <Gold.Chemscore.Hbonds>
donor molecule, donor type, donor heavy atom, donor atom, acceptor molecule, acceptor atom, score
      P1  H  7997  8010       L1     8  0.97

> <Gold.Chemscore.Hbond.Weighted>
-3.2823

> <Gold.Chemscore.Metal.Weighted>
-0.0000

> <Gold.Chemscore.Lipo.Weighted>
-11.6867

> <Gold.Chemscore.Internal_Hbond.Weighted>
0.0000

> <Gold.Chemscore.DEClash.Weighted>
0.0710

> <Gold.Chemscore.DEInternal.Weighted>
1.9326

> <Gold.Chemscore.Rot.Weighted>
3.2875

> <Gold.Chemscore.Internal.Correction.Weighted>
   9.000000E+99

> <Gold.Protein.RotatedTorsions>
[ 6907 6896 6895 6894 ] final  -27.13 input  -60.11 | X-H torsion
[ 7974 7965 7964 7962 ] final   81.19 input  175.53 | X-H torsion
[ 8008 7997 7996 7995 ] final   32.41 input   59.86 | X-H torsion
[ 10167 10162 10161 10158 ] final  -30.76 input  -65.29 | X-H torsion
[ 10718 10713 10712 10709 ] final  138.55 input   66.30 | X-H torsion
[ 10763 10752 10751 10750 ] final -149.59 input  -60.55 | X-H torsion
[ 11005 11000 10999 10996 ] final   94.06 input  -57.11 | X-H torsion

> <Gold.Protein.ActiveResidues>
 VAL166  LYS551  ARG553  GLY616  TRP617  ASP618  TYR619  PRO620  LYS621  CYS622 
 ASP623  PHE694  ASN695  SER759  ASP760  ASP761  ALA762  ILE779  LEU786  VAL792 
 PHE793  MET794  SER795  GLU796  ALA797  LYS798  CYS799  TRP800  GLU811  SER814 

> <Gold.Protein.RotatedAtoms>
  151.1512  135.0228  159.8668 H   0  0  0  0  0  0  0  0  0  0  0  0  # atno 6907 bound_to 6896
  152.5452  134.1387  159.8480 H   0  0  0  0  0  0  0  0  0  0  0  0  # atno 6908 bound_to 6896
  151.1472  133.4886  159.2628 H   0  0  0  0  0  0  0  0  0  0  0  0  # atno 6909 bound_to 6896
  145.6414  139.2426  143.2029 H   0  0  0  0  0  0  0  0  0  0  0  0  # atno 7974 bound_to 7965
  155.1220  140.3249  155.4495 H   0  0  0  0  0  0  0  0  0  0  0  0  # atno 8008 bound_to 7997
  156.2660  140.2025  156.6290 H   0  0  0  0  0  0  0  0  0  0  0  0  # atno 8009 bound_to 7997
  154.6676  140.0540  157.0118 H   0  0  0  0  0  0  0  0  0  0  0  0  # atno 8010 bound_to 7997
  140.7245  143.3824  151.1577 H   0  0  0  0  0  0  0  0  0  0  0  0  # atno 10167 bound_to 10162
  157.4241  131.1041  151.0322 H   0  0  0  0  0  0  0  0  0  0  0  0  # atno 10718 bound_to 10713
  154.8168  135.3305  154.7152 H   0  0  0  0  0  0  0  0  0  0  0  0  # atno 10763 bound_to 10752
  153.7791  135.6920  153.4896 H   0  0  0  0  0  0  0  0  0  0  0  0  # atno 10764 bound_to 10752
  153.1992  135.4522  155.0193 H   0  0  0  0  0  0  0  0  0  0  0  0  # atno 10765 bound_to 10752
  139.8803  134.8824  156.3808 H   0  0  0  0  0  0  0  0  0  0  0  0  # atno 11005 bound_to 11000
  146.1278  140.7225  142.9427 LP  0  0  0  0  0  0  0  0  0  0  0  0  # atno 17320 bound_to 7965
  144.7156  140.4197  143.7047 LP  0  0  0  0  0  0  0  0  0  0  0  0  # atno 17321 bound_to 7965
  139.7415  143.8917  152.3051 LP  0  0  0  0  0  0  0  0  0  0  0  0  # atno 17342 bound_to 10162
  139.8740  144.7053  150.8954 LP  0  0  0  0  0  0  0  0  0  0  0  0  # atno 17343 bound_to 10162
  157.1242  130.6074  149.5513 LP  0  0  0  0  0  0  0  0  0  0  0  0  # atno 17370 bound_to 10713
  155.9890  130.4936  150.7196 LP  0  0  0  0  0  0  0  0  0  0  0  0  # atno 17371 bound_to 10713
  140.9400  133.7521  156.0134 LP  0  0  0  0  0  0  0  0  0  0  0  0  # atno 17394 bound_to 11000
  140.8231  134.3266  157.5375 LP  0  0  0  0  0  0  0  0  0  0  0  0  # atno 17395 bound_to 11000

$$$$
