AV-unprocessed.smi:1816|AV-procd|sdf|7367|dock4
  -GOLD-   22720 9 33D 1   1.00000     0.00000
 Structure written by MMmdl.
 35 36  0  0  0  0  0  0  0  0  3 V2000
  147.3213  135.0145  155.2953 C   0  0  0  0  0  0  0  0  0  0  0  0
  147.3141  136.5574  155.3912 C   0  0  1  0  0  0  0  0  0  0  0  0
  148.4987  137.0590  156.2500 C   0  0  0  0  0  0  0  0  0  0  0  0
  148.0851  137.3761  157.6111 N   0  0  0  0  0  0  0  0  0  0  0  0
  148.5365  136.7679  158.7153 C   0  0  0  0  0  0  0  0  0  0  0  0
  149.3711  135.8651  158.6205 O   0  0  0  0  0  0  0  0  0  0  0  0
  147.9912  137.2435  159.8569 N   0  5  0  0  0  0  0  0  0  0  0  0
  147.7530  136.4126  160.8849 C   0  0  0  0  0  0  0  0  0  0  0  0
  147.7768  136.8081  162.1629 N   0  0  0  0  0  0  0  0  0  0  0  0
  147.4945  135.7822  163.0667 C   0  0  0  0  0  0  0  0  0  0  0  0
  147.2398  134.5798  162.4620 C   0  0  0  0  0  0  0  0  0  0  0  0
  147.3493  134.7006  160.7291 S   0  0  0  0  0  0  0  0  0  0  0  0
  147.3461  137.1824  154.0374 N   0  3  0  0  0  0  0  0  0  0  0  0
  146.1143  137.0364  153.2313 C   0  0  0  0  0  0  0  0  0  0  0  0
  146.2043  138.1268  152.1704 C   0  0  0  0  0  0  0  0  0  0  0  0
  146.8406  139.2875  152.9259 C   0  0  0  0  0  0  0  0  0  0  0  0
  147.6982  138.6254  154.0135 C   0  0  0  0  0  0  0  0  0  0  0  0
  147.3079  134.5483  156.2805 H   0  0  0  0  0  0  0  0  0  0  0  0
  148.2101  134.6558  154.7754 H   0  0  0  0  0  0  0  0  0  0  0  0
  146.4477  134.6320  154.7681 H   0  0  0  0  0  0  0  0  0  0  0  0
  146.3839  136.8596  155.8757 H   0  0  0  0  0  0  0  0  0  0  0  0
  149.2837  136.3013  156.2797 H   0  0  0  0  0  0  0  0  0  0  0  0
  148.9426  137.9588  155.8228 H   0  0  0  0  0  0  0  0  0  0  0  0
  147.4031  138.1108  157.7299 H   0  0  0  0  0  0  0  0  0  0  0  0
  147.4948  135.9979  164.1247 H   0  0  0  0  0  0  0  0  0  0  0  0
  146.9952  133.6364  162.9261 H   0  0  0  0  0  0  0  0  0  0  0  0
  146.0296  136.0437  152.7881 H   0  0  0  0  0  0  0  0  0  0  0  0
  145.2392  137.2071  153.8608 H   0  0  0  0  0  0  0  0  0  0  0  0
  146.8619  137.8046  151.3616 H   0  0  0  0  0  0  0  0  0  0  0  0
  145.2360  138.3807  151.7379 H   0  0  0  0  0  0  0  0  0  0  0  0
  147.4205  139.9406  152.2732 H   0  0  0  0  0  0  0  0  0  0  0  0
  146.0614  139.8924  153.3918 H   0  0  0  0  0  0  0  0  0  0  0  0
  147.5030  139.1052  154.9738 H   0  0  0  0  0  0  0  0  0  0  0  0
  148.7622  138.7311  153.7995 H   0  0  0  0  0  0  0  0  0  0  0  0
  148.0720  136.7120  153.5158 H   0  0  0  0  0  0  0  0  0  0  0  0
  1  2  1  0  0  0  0
  1 18  1  0  0  0  0
  1 19  1  0  0  0  0
  1 20  1  0  0  0  0
  2  3  1  0  0  0  0
  2 13  1  0  0  0  0
  2 21  1  0  0  0  0
  3  4  1  0  0  0  0
  3 22  1  0  0  0  0
  3 23  1  0  0  0  0
  4  5  1  0  0  0  0
  4 24  1  0  0  0  0
  5  6  2  0  0  0  0
  5  7  1  0  0  0  0
  7  8  1  0  0  0  0
  8 12  1  0  0  0  0
  8  9  2  0  0  0  0
  9 10  1  0  0  0  0
 10 11  2  0  0  0  0
 10 25  1  0  0  0  0
 11 12  1  0  0  0  0
 11 26  1  0  0  0  0
 13 17  1  0  0  0  0
 13 14  1  0  0  0  0
 13 35  1  0  0  0  0
 14 15  1  0  0  0  0
 14 27  1  0  0  0  0
 14 28  1  0  0  0  0
 15 16  1  0  0  0  0
 15 29  1  0  0  0  0
 15 30  1  0  0  0  0
 16 17  1  0  0  0  0
 16 31  1  0  0  0  0
 16 32  1  0  0  0  0
 17 33  1  0  0  0  0
 17 34  1  0  0  0  0
M  CHG  1   7  -1
M  CHG  1  13   1
M  END
> <s_m_source_file>
AV-unprocessed.smi

> <i_m_source_file_index>
1816

> <i_lp_mmshare_version>
43012

> <i_f3d_flags>
0

> <s_epik_input>
W0NIMl0xW0NIMl1bQ0gyXVtDSDJdTjFbQ0BIXShbQ0gzXSlbQ0gyXVtOSF1DKD1PKVtOSF1jMm5bY0hdW2NIXXMy

> <s_epik_cmdline>
J2VwaWtfcHl0aG9uJywgJy1waCcsICc3LjAnLCAnLXRuJywgJzgnLCAnLW1hJywgJzIwMCcsICctbWV0YWxfYmluZGluZycsICctaW1hZScsICc8aW5maWxlLm1hZT4nLCAnLW9tYWUnLCAnPG91dGZpbGUubWFlPic=

> <r_lp_tautomer_probability>
0.999

> <r_epik_Ionization_Penalty>
6.21769

> <r_epik_Ionization_Penalty_Charging>
5.38662

> <r_epik_Ionization_Penalty_Neutral>
0.831074

> <r_epik_State_Penalty>
5.38626

> <r_epik_Charging_Adjusted_Penalty>
10.7729

> <i_epik_Tot_Q>
0

> <i_epik_Tot_abs_Q>
2

> <r_epik_Metal_State_Penalty>
1.41347

> <b_epik_Metal_Only>
1

> <s_lp_Force_Field>
OPLS_2005

> <r_lp_Energy>
20.95

> <b_lp_Chiralities_Consistent>
1

> <s_lp_Variant>
AV-unprocessed.smi:1816-4

> <Gold.Version>
5.8.1

> <Gold.Id.Protein>
6NUR|6NUR_protein|mol2

> <Gold.PLP.Fitness>
38.2412

> <Gold.PLP.PLP>
-27.4761

> <Gold.PLP.part.hbond>
-5.1464

> <Gold.PLP.part.metal>
0.0000

> <Gold.PLP.part.buried>
-3.3076

> <Gold.PLP.part.nonpolar>
-20.4378

> <Gold.PLP.part.repulsive>
0.0422

> <Gold.PLP.ligand.clash>
0.0000

> <Gold.PLP.ligand.torsion>
1.2353

> <Gold.PLP.Chemscore.Hbond>
4.3969

> <Gold.PLP.Chemscore.CHOScore>
0.0000

> <Gold.PLP.Chemscore.Metal>
0.0000

> <Gold.Chemscore.Hbonds>
donor molecule, donor type, donor heavy atom, donor atom, acceptor molecule, acceptor atom, score
      L1  H    13    35       P1  7948  2.00
      P1  H  6896  6908       L1     6  0.98
      P1  H  6931  6943       L1     9  0.85
      P1  H  6934  6947       L1     7  0.53

> <Gold.PLP.Chemscore.Internal.Correction>
0.0450

> <Gold.Rescore>
     Score         DG    S(hbond)    S(metal)    S(lipo)     H(rot)  DE(clash)    DE(int)     intcor
     15.09     -16.41       2.58        0.00      54.21       1.57       0.10       1.21       ----

> <Gold.Chemscore.Fitness>
15.0899

> <Gold.Chemscore.DG>
-16.4055

> <Gold.Chemscore.ZeroCoef>
-5.4800

> <Gold.Chemscore.Hbond>
2.5764

> <Gold.Chemscore.Metal>
0.0000

> <Gold.Chemscore.Lipo>
54.2072

> <Gold.Chemscore.Internal_Hbond>
0.0000

> <Gold.Chemscore.DEClash>
0.1036

> <Gold.Chemscore.DEInternal>
1.2120

> <Gold.Chemscore.Rot>
1.5710

> <Gold.Chemscore.Internal.Correction>
   9.000000E+99

> <Gold.Chemscore.Hbonds>
donor molecule, donor type, donor heavy atom, donor atom, acceptor molecule, acceptor atom, score
      L1  H    13    35       P1  7948  0.96
      P1  H  6896  6908       L1     6  0.92
      P1  H  6931  6943       L1     9  0.14
      P1  H  6934  6947       L1     7  0.03

> <Gold.Chemscore.Hbond.Weighted>
-8.6051

> <Gold.Chemscore.Metal.Weighted>
-0.0000

> <Gold.Chemscore.Lipo.Weighted>
-6.3422

> <Gold.Chemscore.Internal_Hbond.Weighted>
0.0000

> <Gold.Chemscore.DEClash.Weighted>
0.1036

> <Gold.Chemscore.DEInternal.Weighted>
1.2120

> <Gold.Chemscore.Rot.Weighted>
4.0219

> <Gold.Chemscore.Internal.Correction.Weighted>
   9.000000E+99

> <Gold.Protein.RotatedTorsions>
[ 6907 6896 6895 6894 ] final  178.84 input  -60.11 | X-H torsion
[ 7974 7965 7964 7962 ] final   17.90 input  175.53 | X-H torsion
[ 8008 7997 7996 7995 ] final  154.35 input   59.86 | X-H torsion
[ 10167 10162 10161 10158 ] final  -71.00 input  -65.29 | X-H torsion
[ 10718 10713 10712 10709 ] final -149.39 input   66.30 | X-H torsion
[ 10763 10752 10751 10750 ] final  157.31 input  -60.55 | X-H torsion
[ 11005 11000 10999 10996 ] final   76.06 input  -57.11 | X-H torsion

> <Gold.Protein.ActiveResidues>
 VAL166  LYS551  ARG553  GLY616  TRP617  ASP618  TYR619  PRO620  LYS621  CYS622 
 ASP623  PHE694  ASN695  SER759  ASP760  ASP761  ALA762  ILE779  LEU786  VAL792 
 PHE793  MET794  SER795  GLU796  ALA797  LYS798  CYS799  TRP800  GLU811  SER814 

> <Gold.Protein.RotatedAtoms>
  151.6813  133.3312  159.3219 H   0  0  0  0  0  0  0  0  0  0  0  0  # atno 6907 bound_to 6896
  150.7821  134.6778  159.6437 H   0  0  0  0  0  0  0  0  0  0  0  0  # atno 6908 bound_to 6896
  152.3882  134.6487  160.0170 H   0  0  0  0  0  0  0  0  0  0  0  0  # atno 6909 bound_to 6896
  146.2203  139.8535  142.8618 H   0  0  0  0  0  0  0  0  0  0  0  0  # atno 7974 bound_to 7965
  156.2535  140.1969  156.6633 H   0  0  0  0  0  0  0  0  0  0  0  0  # atno 8008 bound_to 7997
  154.6448  140.0579  156.9913 H   0  0  0  0  0  0  0  0  0  0  0  0  # atno 8009 bound_to 7997
  155.1507  140.3251  155.4434 H   0  0  0  0  0  0  0  0  0  0  0  0  # atno 8010 bound_to 7997
  140.5308  143.2322  151.7266 H   0  0  0  0  0  0  0  0  0  0  0  0  # atno 10167 bound_to 10162
  156.4325  130.8082  151.2310 H   0  0  0  0  0  0  0  0  0  0  0  0  # atno 10718 bound_to 10713
  154.1982  135.2791  155.2999 H   0  0  0  0  0  0  0  0  0  0  0  0  # atno 10763 bound_to 10752
  154.5875  135.5570  153.7249 H   0  0  0  0  0  0  0  0  0  0  0  0  # atno 10764 bound_to 10752
  153.0094  135.6360  154.2120 H   0  0  0  0  0  0  0  0  0  0  0  0  # atno 10765 bound_to 10752
  139.9315  134.7570  156.1349 H   0  0  0  0  0  0  0  0  0  0  0  0  # atno 11005 bound_to 11000
  145.2777  141.0129  143.3735 LP  0  0  0  0  0  0  0  0  0  0  0  0  # atno 17320 bound_to 7965
  144.9174  139.4453  143.6557 LP  0  0  0  0  0  0  0  0  0  0  0  0  # atno 17321 bound_to 7965
  139.4953  144.4117  152.0073 LP  0  0  0  0  0  0  0  0  0  0  0  0  # atno 17342 bound_to 10162
  140.3219  144.3417  150.6007 LP  0  0  0  0  0  0  0  0  0  0  0  0  # atno 17343 bound_to 10162
  157.7508  131.0194  150.3665 LP  0  0  0  0  0  0  0  0  0  0  0  0  # atno 17370 bound_to 10713
  156.4005  130.3915  149.6963 LP  0  0  0  0  0  0  0  0  0  0  0  0  # atno 17371 bound_to 10713
  141.0906  133.6716  156.2532 LP  0  0  0  0  0  0  0  0  0  0  0  0  # atno 17394 bound_to 11000
  140.6189  134.5382  157.5545 LP  0  0  0  0  0  0  0  0  0  0  0  0  # atno 17395 bound_to 11000

$$$$
