#       Name:                AV-unprocessed.smi:72
#       Creating user name   scv26
#       Creation time:       Thu Mar 26 17:03:09 2020


#       File generated by GOLD software.
#

@<TRIPOS>MOLECULE
AV-unprocessed.smi:72
    41    42     1
SMALL
NO_CHARGES


@<TRIPOS>ATOM
      1 ****        -5.0583  -0.4001   0.3115 N.pl3          1 S1                 0.0000
      2 ****        -3.7065  -0.6721   0.2770 C.2            1 S1                 0.0000
      3 ****        -2.8353   0.3642   0.5617 N.pl3          1 S1                 1.0000
      4 ****        -1.4990   0.2660   0.5763 C.2            1 S1                 0.0000
      5 ****        -0.9403  -0.8954   0.3021 N.am           1 S1                 0.0000
      6 ****         0.5586  -1.0700   0.2876 C.3            1 S1                 0.0000
      7 ****         1.1270  -0.0708   1.0817 O.3            1 S1                 0.0000
      8 ****         1.7921   0.8900   0.2650 C.3            1 S1                 0.0000
      9 ****         2.8844   1.5988   1.0799 C.3            1 S1                 0.0000
     10 ****         2.3144   2.6443   1.8376 O.3            1 S1                 0.0000
     11 ****         2.3333   0.0115  -0.8617 C.3            1 S1                 0.0000
     12 ****         2.7326   0.7462  -2.0037 O.3            1 S1                 0.0000
     13 ****         1.1659  -0.9326  -1.1276 C.3            1 S1                 0.0000
     14 ****         0.2593  -0.3959  -2.0809 O.3            1 S1                 0.0000
     15 ****        -1.7521  -2.0149  -0.0139 C.2            1 S1                 0.0000
     16 ****        -1.2383  -3.0982  -0.2911 O.2            1 S1                 0.0000
     17 ****        -3.1401  -1.8146   0.0026 N.2            1 S1                 0.0000
     18 ****         0.7593  -2.0319   0.7624 H              1 S1                 0.0000
     19 ****         1.0754   1.6060  -0.1416 H              1 S1                 0.0000
     20 ****         3.1857  -0.5636  -0.4959 H              1 S1                 0.0000
     21 ****         1.5072  -1.9069  -1.4795 H              1 S1                 0.0000
     22 ****        -5.7667  -1.0942   0.1181 H              1 S1                 0.0000
     23 ****        -5.4458   0.5066   0.5295 H              1 S1                 0.0000
     24 ****        -0.9082   1.1407   0.8119 H              1 S1                 0.0000
     25 ****         3.4134   0.9012   1.7300 H              1 S1                 0.0000
     26 ****         3.6228   2.0438   0.4123 H              1 S1                 0.0000
     27 ****         3.0049   3.0830   2.3112 H              1 S1                 0.0000
     28 ****         3.0677   0.1422  -2.6489 H              1 S1                 0.0000
     29 ****         0.7280  -0.2464  -2.8883 H              1 S1                 0.0000
     30 ****        -3.2410   1.2643   0.7744 H              1 S1                 0.0000
     31 ****         1.7868  -0.4836   1.7097 LP             1 S1                 0.0000
     32 ****         0.4069   0.3836   1.6062 LP             1 S1                 0.0000
     33 ****         1.6487   2.2691   2.4827 LP             1 S1                 0.0000
     34 ****         1.8588   3.2929   1.2280 LP             1 S1                 0.0000
     35 ****         3.4462   1.3997  -1.7513 LP             1 S1                 0.0000
     36 ****         1.9473   1.2386  -2.3790 LP             1 S1                 0.0000
     37 ****        -0.1142   0.4678  -1.7425 LP             1 S1                 0.0000
     38 ****        -0.4869  -1.0428  -2.2385 LP             1 S1                 0.0000
     39 ****        -0.2428  -3.1932  -0.2945 LP             1 S1                 0.0000
     40 ****        -1.8163  -3.8836  -0.5130 LP             1 S1                 0.0000
     41 ****        -3.7304  -2.5937  -0.2085 LP             1 S1                 0.0000
@<TRIPOS>BOND
    1    1    2 1     
    2    1   22 1     
    3    1   23 1     
    4    2   17 2     
    5    2    3 1     
    6    3    4 2     
    7    3   30 1     
    8    4    5 1     
    9    4   24 1     
   10    5    6 1     
   11    5   15 am    
   12    6   18 1     
   13    6   13 1     
   14    6    7 1     
   15    7    8 1     
   16    8   19 1     
   17    8    9 1     
   18    8   11 1     
   19    9   10 1     
   20    9   25 1     
   21    9   26 1     
   22   10   27 1     
   23   11   20 1     
   24   11   12 1     
   25   11   13 1     
   26   12   28 1     
   27   13   21 1     
   28   13   14 1     
   29   14   29 1     
   30   15   16 2     
   31   15   17 1     
   32    7   31 1     
   33    7   32 1     
   34   10   33 1     
   35   10   34 1     
   36   12   35 1     
   37   12   36 1     
   38   14   37 1     
   39   14   38 1     
   40   16   39 1     
   41   16   40 1     
   42   17   41 1     
@<TRIPOS>SUBSTRUCTURE
      1 S1             1
@<TRIPOS>SET
LONE_PAIRS      STATIC     ATOMS    <user>   **** ""
11 31 32 33 34 35 36 37 38 39 40 41
DONOR_HYDROGENS      STATIC     ATOMS    <user>   **** ""
6 22 23 30 27 28 29
ATOM$BLUE        STATIC     ATOMS    COLORGROUP SYSTEM
11 31 32 33 34 35 36 37 38 39 40 41
ATOM$RED        STATIC     ATOMS    COLORGROUP SYSTEM
6 22 23 30 27 28 29
