AV-unprocessed.smi:461|AV-procd|sdf|2630|dock4
  -GOLD-   2262023 33D 1   1.00000     0.00000
 Structure written by MMmdl.
 33 34  0  0  0  0  0  0  0  0  1 V2000
  152.5894  136.4701  157.8180 C   0  0  0  0  0  0  0  0  0  0  0  0
  152.1025  137.6528  157.1064 N   0  0  0  0  0  0  0  0  0  0  0  0
  152.3704  138.8439  157.7610 N   0  0  0  0  0  0  0  0  0  0  0  0
  151.9538  139.9378  157.1933 C   0  0  0  0  0  0  0  0  0  0  0  0
  152.1160  141.2251  157.6885 N   0  0  0  0  0  0  0  0  0  0  0  0
  152.7848  141.5665  158.9357 C   0  0  0  0  0  0  0  0  0  0  0  0
  152.1194  142.7523  159.6555 C   0  0  2  0  0  0  0  0  0  0  0  0
  152.4865  144.1093  159.0624 C   0  0  0  0  0  0  0  0  0  0  0  0
  152.1801  145.0676  160.1990 C   0  0  0  0  0  0  0  0  0  0  0  0
  152.2808  144.1913  161.4514 C   0  0  0  0  0  0  0  0  0  0  0  0
  152.5948  142.8841  160.9862 O   0  0  0  0  0  0  0  0  0  0  0  0
  151.2162  139.8968  155.8643 C   0  0  0  0  0  0  0  0  0  0  0  0
  150.8215  140.9404  155.3356 O   0  0  0  0  0  0  0  0  0  0  0  0
  151.0303  138.6611  155.3226 N   0  0  0  0  0  0  0  0  0  0  0  0
  150.3202  138.6013  154.0320 C   0  0  0  0  0  0  0  0  0  0  0  0
  151.4527  137.5053  155.9145 C   0  0  0  0  0  0  0  0  0  0  0  0
  151.2651  136.3922  155.4173 O   0  0  0  0  0  0  0  0  0  0  0  0
  153.3009  135.9164  157.2040 H   0  0  0  0  0  0  0  0  0  0  0  0
  151.7625  135.8044  158.0690 H   0  0  0  0  0  0  0  0  0  0  0  0
  153.0953  136.7287  158.7500 H   0  0  0  0  0  0  0  0  0  0  0  0
  153.8127  141.8286  158.6837 H   0  0  0  0  0  0  0  0  0  0  0  0
  152.8416  140.6960  159.5912 H   0  0  0  0  0  0  0  0  0  0  0  0
  151.0336  142.6380  159.6666 H   0  0  0  0  0  0  0  0  0  0  0  0
  153.5520  144.1428  158.8305 H   0  0  0  0  0  0  0  0  0  0  0  0
  151.9340  144.3388  158.1509 H   0  0  0  0  0  0  0  0  0  0  0  0
  152.8741  145.9082  160.2211 H   0  0  0  0  0  0  0  0  0  0  0  0
  151.1700  145.4674  160.1019 H   0  0  0  0  0  0  0  0  0  0  0  0
  153.0512  144.5406  162.1392 H   0  0  0  0  0  0  0  0  0  0  0  0
  151.3306  144.1725  161.9865 H   0  0  0  0  0  0  0  0  0  0  0  0
  150.2721  137.6086  153.5830 H   0  0  0  0  0  0  0  0  0  0  0  0
  150.8047  139.2453  153.2958 H   0  0  0  0  0  0  0  0  0  0  0  0
  149.2916  138.9449  154.1516 H   0  0  0  0  0  0  0  0  0  0  0  0
  151.6959  142.0121  157.2148 H   0  0  0  0  0  0  0  0  0  0  0  0
  1 18  1  0  0  0  0
  1 19  1  0  0  0  0
  1 20  1  0  0  0  0
  1  2  1  0  0  0  0
  2 16  1  0  0  0  0
  2  3  1  0  0  0  0
  3  4  2  0  0  0  0
  4 12  1  0  0  0  0
  4  5  1  0  0  0  0
  5  6  1  0  0  0  0
  5 33  1  0  0  0  0
  6  7  1  0  0  0  0
  6 21  1  0  0  0  0
  6 22  1  0  0  0  0
  7 11  1  0  0  0  0
  7  8  1  0  0  0  0
  7 23  1  0  0  0  0
  8  9  1  0  0  0  0
  8 24  1  0  0  0  0
  8 25  1  0  0  0  0
  9 10  1  0  0  0  0
  9 26  1  0  0  0  0
  9 27  1  0  0  0  0
 10 11  1  0  0  0  0
 10 28  1  0  0  0  0
 10 29  1  0  0  0  0
 12 13  2  0  0  0  0
 12 14  1  0  0  0  0
 14 15  1  0  0  0  0
 14 16  1  0  0  0  0
 15 30  1  0  0  0  0
 15 31  1  0  0  0  0
 15 32  1  0  0  0  0
 16 17  2  0  0  0  0
M  END
> <s_m_source_file>
AV-unprocessed.smi

> <i_m_source_file_index>
461

> <i_lp_mmshare_version>
43012

> <i_f3d_flags>
0

> <s_epik_input>
Tz1jMW4oW0NIM10pYyg9TyljKG5uMVtDSDNdKVtOSF1bQ0gyXVtDQEBIXTJbQ0gyXVtDSDJdW0NIMl1PMg==

> <s_epik_cmdline>
J2VwaWtfcHl0aG9uJywgJy1waCcsICc3LjAnLCAnLXRuJywgJzgnLCAnLW1hJywgJzIwMCcsICctbWV0YWxfYmluZGluZycsICctaW1hZScsICc8aW5maWxlLm1hZT4nLCAnLW9tYWUnLCAnPG91dGZpbGUubWFlPic=

> <r_lp_tautomer_probability>
1

> <r_epik_Ionization_Penalty>
0.000103292

> <r_epik_Ionization_Penalty_Charging>
5.59445e-09

> <r_epik_Ionization_Penalty_Neutral>
0.000103287

> <r_epik_State_Penalty>
-0

> <r_epik_Charging_Adjusted_Penalty>
5.59445e-09

> <i_epik_Tot_Q>
0

> <i_epik_Tot_abs_Q>
0

> <r_epik_Metal_State_Penalty>
-0

> <b_epik_Metal_Only>
0

> <s_lp_Force_Field>
OPLS_2005

> <r_lp_Energy>
41.4084

> <b_lp_Chiralities_Consistent>
1

> <s_lp_Variant>
AV-unprocessed.smi:461-1

> <Gold.Version>
5.8.1

> <Gold.Id.Protein>
6NUR|6NUR_protein|mol2

> <Gold.PLP.Fitness>
37.3418

> <Gold.PLP.PLP>
-32.3240

> <Gold.PLP.part.hbond>
-2.3957

> <Gold.PLP.part.metal>
0.0000

> <Gold.PLP.part.buried>
-2.9045

> <Gold.PLP.part.nonpolar>
-26.2766

> <Gold.PLP.part.repulsive>
0.2915

> <Gold.PLP.ligand.clash>
0.0000

> <Gold.PLP.ligand.torsion>
0.2913

> <Gold.PLP.Chemscore.Hbond>
1.8637

> <Gold.PLP.Chemscore.CHOScore>
0.0000

> <Gold.PLP.Chemscore.Metal>
0.0000

> <Gold.Chemscore.Hbonds>
donor molecule, donor type, donor heavy atom, donor atom, acceptor molecule, acceptor atom, score
      P1  H  7989  7998       L1    13  0.74
      P1  H 10752 10763       L1    17  0.96

> <Gold.PLP.Chemscore.Internal.Correction>
0.0092

> <Gold.Rescore>
     Score         DG    S(hbond)    S(metal)    S(lipo)     H(rot)  DE(clash)    DE(int)     intcor
     16.41     -16.88       1.87        0.00      72.42       1.30       0.07       0.40       ----

> <Gold.Chemscore.Fitness>
16.4075

> <Gold.Chemscore.DG>
-16.8763

> <Gold.Chemscore.ZeroCoef>
-5.4800

> <Gold.Chemscore.Hbond>
1.8682

> <Gold.Chemscore.Metal>
0.0000

> <Gold.Chemscore.Lipo>
72.4170

> <Gold.Chemscore.Internal_Hbond>
0.0000

> <Gold.Chemscore.DEClash>
0.0694

> <Gold.Chemscore.DEInternal>
0.3994

> <Gold.Chemscore.Rot>
1.2954

> <Gold.Chemscore.Internal.Correction>
   9.000000E+99

> <Gold.Chemscore.Hbonds>
donor molecule, donor type, donor heavy atom, donor atom, acceptor molecule, acceptor atom, score
      P1  H  7989  7998       L1    13  0.32
      P1  H 10752 10763       L1    17  0.71

> <Gold.Chemscore.Hbond.Weighted>
-6.2398

> <Gold.Chemscore.Metal.Weighted>
-0.0000

> <Gold.Chemscore.Lipo.Weighted>
-8.4728

> <Gold.Chemscore.Internal_Hbond.Weighted>
0.0000

> <Gold.Chemscore.DEClash.Weighted>
0.0694

> <Gold.Chemscore.DEInternal.Weighted>
0.3994

> <Gold.Chemscore.Rot.Weighted>
3.3163

> <Gold.Chemscore.Internal.Correction.Weighted>
   9.000000E+99

> <Gold.Protein.RotatedTorsions>
[ 6907 6896 6895 6894 ] final  -59.32 input  -60.11 | X-H torsion
[ 7974 7965 7964 7962 ] final -177.35 input  175.53 | X-H torsion
[ 8008 7997 7996 7995 ] final  -94.86 input   59.86 | X-H torsion
[ 10167 10162 10161 10158 ] final -126.76 input  -65.29 | X-H torsion
[ 10718 10713 10712 10709 ] final   -6.48 input   66.30 | X-H torsion
[ 10763 10752 10751 10750 ] final   80.13 input  -60.55 | X-H torsion
[ 11005 11000 10999 10996 ] final  -98.82 input  -57.11 | X-H torsion

> <Gold.Protein.ActiveResidues>
 VAL166  LYS551  ARG553  GLY616  TRP617  ASP618  TYR619  PRO620  LYS621  CYS622 
 ASP623  PHE694  ASN695  SER759  ASP760  ASP761  ALA762  ILE779  LEU786  VAL792 
 PHE793  MET794  SER795  GLU796  ALA797  LYS798  CYS799  TRP800  GLU811  SER814 

> <Gold.Protein.RotatedAtoms>
  150.7939  134.6984  159.6535 H   0  0  0  0  0  0  0  0  0  0  0  0  # atno 6907 bound_to 6896
  152.4049  134.6221  160.0063 H   0  0  0  0  0  0  0  0  0  0  0  0  # atno 6908 bound_to 6896
  151.6481  133.3285  159.3182 H   0  0  0  0  0  0  0  0  0  0  0  0  # atno 6909 bound_to 6896
  144.7127  140.1033  143.6415 H   0  0  0  0  0  0  0  0  0  0  0  0  # atno 7974 bound_to 7965
  154.7538  140.0485  157.0916 H   0  0  0  0  0  0  0  0  0  0  0  0  # atno 8008 bound_to 7997
  155.0023  140.3126  155.4843 H   0  0  0  0  0  0  0  0  0  0  0  0  # atno 8009 bound_to 7997
  156.2890  140.2199  156.5134 H   0  0  0  0  0  0  0  0  0  0  0  0  # atno 8010 bound_to 7997
  139.9680  143.5877  152.2422 H   0  0  0  0  0  0  0  0  0  0  0  0  # atno 10167 bound_to 10162
  156.7313  130.5181  149.5845 H   0  0  0  0  0  0  0  0  0  0  0  0  # atno 10718 bound_to 10713
  153.1009  135.4814  154.8864 H   0  0  0  0  0  0  0  0  0  0  0  0  # atno 10763 bound_to 10752
  154.7377  135.3075  154.8785 H   0  0  0  0  0  0  0  0  0  0  0  0  # atno 10764 bound_to 10752
  153.9402  135.6835  153.4798 H   0  0  0  0  0  0  0  0  0  0  0  0  # atno 10765 bound_to 10752
  141.1331  133.8274  157.0890 H   0  0  0  0  0  0  0  0  0  0  0  0  # atno 11005 bound_to 11000
  145.9518  139.2739  143.1207 LP  0  0  0  0  0  0  0  0  0  0  0  0  # atno 17320 bound_to 7965
  145.9314  140.9045  143.0354 LP  0  0  0  0  0  0  0  0  0  0  0  0  # atno 17321 bound_to 7965
  139.6503  144.7660  151.2162 LP  0  0  0  0  0  0  0  0  0  0  0  0  # atno 17342 bound_to 10162
  140.7531  143.6172  150.8548 LP  0  0  0  0  0  0  0  0  0  0  0  0  # atno 17343 bound_to 10162
  156.1527  130.6321  151.0616 LP  0  0  0  0  0  0  0  0  0  0  0  0  # atno 17370 bound_to 10713
  157.6857  131.0825  150.7248 LP  0  0  0  0  0  0  0  0  0  0  0  0  # atno 17371 bound_to 10713
  140.0404  134.9857  157.0951 LP  0  0  0  0  0  0  0  0  0  0  0  0  # atno 17394 bound_to 11000
  140.4144  134.1947  155.7163 LP  0  0  0  0  0  0  0  0  0  0  0  0  # atno 17395 bound_to 11000

$$$$
