AV-unprocessed.smi:517|AV-procd|sdf|2788|dock7
  -GOLD-   2262023263D 1   1.00000     0.00000
 Structure written by MMmdl.
 35 36  0  0  0  0  0  0  0  0  1 V2000
  146.6062  142.6497  153.9717 C   0  0  0  0  0  0  0  0  0  0  0  0
  147.5387  141.5239  154.4243 C   0  0  0  0  0  0  0  0  0  0  0  0
  148.8705  141.8853  154.1053 O   0  0  0  0  0  0  0  0  0  0  0  0
  149.8373  141.1015  154.7848 C   0  0  0  0  0  0  0  0  0  0  0  0
  149.5595  141.1470  156.2943 C   0  0  0  0  0  0  0  0  0  0  0  0
  150.7793  141.0195  157.0799 N   0  0  0  0  0  0  0  0  0  0  0  0
  151.7203  140.0418  157.0249 C   0  0  0  0  0  0  0  0  0  0  0  0
  151.6081  138.8719  156.0856 C   0  0  2  0  0  0  0  0  0  0  0  0
  152.3359  137.6339  156.6267 C   0  0  0  0  0  0  0  0  0  0  0  0
  152.1260  139.1600  154.8023 O   0  0  0  0  0  0  0  0  0  0  0  0
  152.7346  140.1704  157.8838 N   0  0  0  0  0  0  0  0  0  0  0  0
  152.4360  141.3487  158.5381 C   0  0  0  0  0  0  0  0  0  0  0  0
  153.1325  142.0342  159.5591 C   0  0  0  0  0  0  0  0  0  0  0  0
  152.6280  143.2442  160.0789 C   0  0  0  0  0  0  0  0  0  0  0  0
  151.4218  143.7840  159.5876 C   0  0  0  0  0  0  0  0  0  0  0  0
  150.7104  143.1146  158.5734 C   0  0  0  0  0  0  0  0  0  0  0  0
  151.2189  141.9075  158.0572 C   0  0  0  0  0  0  0  0  0  0  0  0
  145.5662  142.4066  154.1895 H   0  0  0  0  0  0  0  0  0  0  0  0
  146.6932  142.8215  152.8986 H   0  0  0  0  0  0  0  0  0  0  0  0
  146.8457  143.5836  154.4806 H   0  0  0  0  0  0  0  0  0  0  0  0
  147.4368  141.3643  155.4986 H   0  0  0  0  0  0  0  0  0  0  0  0
  147.2714  140.5927  153.9228 H   0  0  0  0  0  0  0  0  0  0  0  0
  149.7940  140.0703  154.4317 H   0  0  0  0  0  0  0  0  0  0  0  0
  150.8397  141.4772  154.5740 H   0  0  0  0  0  0  0  0  0  0  0  0
  149.0780  142.0904  156.5536 H   0  0  0  0  0  0  0  0  0  0  0  0
  148.8581  140.3637  156.5806 H   0  0  0  0  0  0  0  0  0  0  0  0
  150.5564  138.6304  155.9357 H   0  0  0  0  0  0  0  0  0  0  0  0
  151.9356  137.3364  157.5962 H   0  0  0  0  0  0  0  0  0  0  0  0
  153.4024  137.8241  156.7530 H   0  0  0  0  0  0  0  0  0  0  0  0
  152.2261  136.7851  155.9511 H   0  0  0  0  0  0  0  0  0  0  0  0
  152.8283  138.5543  154.6210 H   0  0  0  0  0  0  0  0  0  0  0  0
  154.0574  141.6289  159.9416 H   0  0  0  0  0  0  0  0  0  0  0  0
  153.1695  143.7612  160.8574 H   0  0  0  0  0  0  0  0  0  0  0  0
  151.0430  144.7124  159.9891 H   0  0  0  0  0  0  0  0  0  0  0  0
  149.7877  143.5268  158.1927 H   0  0  0  0  0  0  0  0  0  0  0  0
  1  2  1  0  0  0  0
  1 18  1  0  0  0  0
  1 19  1  0  0  0  0
  1 20  1  0  0  0  0
  2  3  1  0  0  0  0
  2 21  1  0  0  0  0
  2 22  1  0  0  0  0
  3  4  1  0  0  0  0
  4  5  1  0  0  0  0
  4 23  1  0  0  0  0
  4 24  1  0  0  0  0
  5  6  1  0  0  0  0
  5 25  1  0  0  0  0
  5 26  1  0  0  0  0
  6 17  1  0  0  0  0
  6  7  1  0  0  0  0
  7  8  1  0  0  0  0
  7 11  2  0  0  0  0
  8  9  1  0  0  0  0
  8 10  1  0  0  0  0
  8 27  1  0  0  0  0
  9 28  1  0  0  0  0
  9 29  1  0  0  0  0
  9 30  1  0  0  0  0
 10 31  1  0  0  0  0
 11 12  1  0  0  0  0
 12 17  2  0  0  0  0
 12 13  1  0  0  0  0
 13 14  2  0  0  0  0
 13 32  1  0  0  0  0
 14 15  1  0  0  0  0
 14 33  1  0  0  0  0
 15 16  2  0  0  0  0
 15 34  1  0  0  0  0
 16 17  1  0  0  0  0
 16 35  1  0  0  0  0
M  END
> <s_m_source_file>
AV-unprocessed.smi

> <i_m_source_file_index>
517

> <i_lp_mmshare_version>
43012

> <i_f3d_flags>
0

> <s_epik_input>
W0NIM11bQ0gyXU9bQ0gyXVtDSDJdbihjKG4xKVtDQEhdKFtDSDNdKVtPSF0pYyhjMTIpW2NIXVtjSF1bY0hdW2NIXTI=

> <s_epik_cmdline>
J2VwaWtfcHl0aG9uJywgJy1waCcsICc3LjAnLCAnLXRuJywgJzgnLCAnLW1hJywgJzIwMCcsICctbWV0YWxfYmluZGluZycsICctaW1hZScsICc8aW5maWxlLm1hZT4nLCAnLW9tYWUnLCAnPG91dGZpbGUubWFlPic=

> <r_epik_Ionization_Penalty>
0.0517997

> <r_epik_Ionization_Penalty_Charging>
0

> <r_epik_Ionization_Penalty_Neutral>
0.0517997

> <r_epik_State_Penalty>
0.0443961

> <r_epik_Charging_Adjusted_Penalty>
0.0443961

> <i_epik_Tot_Q>
0

> <i_epik_Tot_abs_Q>
0

> <r_epik_Metal_State_Penalty>
4.60999e-05

> <b_epik_Metal_Only>
0

> <s_lp_Force_Field>
OPLS_2005

> <r_lp_Energy>
5.78947

> <b_lp_Chiralities_Consistent>
1

> <s_lp_Variant>
AV-unprocessed.smi:517-1

> <Gold.Version>
5.8.1

> <Gold.Id.Protein>
6NUR|6NUR_protein|mol2

> <Gold.PLP.Fitness>
40.7716

> <Gold.PLP.PLP>
-35.9588

> <Gold.PLP.part.hbond>
-3.0000

> <Gold.PLP.part.metal>
0.0000

> <Gold.PLP.part.buried>
-3.6992

> <Gold.PLP.part.nonpolar>
-28.9779

> <Gold.PLP.part.repulsive>
0.2903

> <Gold.PLP.ligand.clash>
0.0000

> <Gold.PLP.ligand.torsion>
0.9993

> <Gold.PLP.Chemscore.Hbond>
2.2610

> <Gold.PLP.Chemscore.CHOScore>
0.0000

> <Gold.PLP.Chemscore.Metal>
0.0000

> <Gold.Chemscore.Hbonds>
donor molecule, donor type, donor heavy atom, donor atom, acceptor molecule, acceptor atom, score
      P1  H  7989  7998       L1    10  0.53
      P1  H  7997  8009       L1    11  1.00
      P1  H  8011  8017       L1     3  0.43

> <Gold.PLP.Chemscore.Internal.Correction>
0.0283

> <Gold.Rescore>
     Score         DG    S(hbond)    S(metal)    S(lipo)     H(rot)  DE(clash)    DE(int)     intcor
     15.75     -16.89       1.75        0.00      93.61       2.11       0.18       0.96       ----

> <Gold.Chemscore.Fitness>
15.7456

> <Gold.Chemscore.DG>
-16.8878

> <Gold.Chemscore.ZeroCoef>
-5.4800

> <Gold.Chemscore.Hbond>
1.7498

> <Gold.Chemscore.Metal>
0.0000

> <Gold.Chemscore.Lipo>
93.6130

> <Gold.Chemscore.Internal_Hbond>
0.0000

> <Gold.Chemscore.DEClash>
0.1842

> <Gold.Chemscore.DEInternal>
0.9580

> <Gold.Chemscore.Rot>
2.1052

> <Gold.Chemscore.Internal.Correction>
   9.000000E+99

> <Gold.Chemscore.Hbonds>
donor molecule, donor type, donor heavy atom, donor atom, acceptor molecule, acceptor atom, score
      P1  H  7989  7998       L1    10  0.52
      P1  H  7997  8009       L1    11  0.52
      P1  H  8011  8017       L1     3  0.20

> <Gold.Chemscore.Hbond.Weighted>
-5.8445

> <Gold.Chemscore.Metal.Weighted>
-0.0000

> <Gold.Chemscore.Lipo.Weighted>
-10.9527

> <Gold.Chemscore.Internal_Hbond.Weighted>
0.0000

> <Gold.Chemscore.DEClash.Weighted>
0.1842

> <Gold.Chemscore.DEInternal.Weighted>
0.9580

> <Gold.Chemscore.Rot.Weighted>
5.3894

> <Gold.Chemscore.Internal.Correction.Weighted>
   9.000000E+99

> <Gold.Protein.RotatedTorsions>
[ 6907 6896 6895 6894 ] final  -48.18 input  -60.11 | X-H torsion
[ 7974 7965 7964 7962 ] final   42.16 input  175.53 | X-H torsion
[ 8008 7997 7996 7995 ] final  171.13 input   59.86 | X-H torsion
[ 10167 10162 10161 10158 ] final   19.22 input  -65.29 | X-H torsion
[ 10718 10713 10712 10709 ] final -158.47 input   66.30 | X-H torsion
[ 10763 10752 10751 10750 ] final  108.17 input  -60.55 | X-H torsion
[ 11005 11000 10999 10996 ] final -171.10 input  -57.11 | X-H torsion

> <Gold.Protein.ActiveResidues>
 VAL166  LYS551  ARG553  GLY616  TRP617  ASP618  TYR619  PRO620  LYS621  CYS622 
 ASP623  PHE694  ASN695  SER759  ASP760  ASP761  ALA762  ILE779  LEU786  VAL792 
 PHE793  MET794  SER795  GLU796  ALA797  LYS798  CYS799  TRP800  GLU811  SER814 

> <Gold.Protein.RotatedAtoms>
  150.8931  134.8337  159.7307 H   0  0  0  0  0  0  0  0  0  0  0  0  # atno 6907 bound_to 6896
  152.4849  134.4617  159.9617 H   0  0  0  0  0  0  0  0  0  0  0  0  # atno 6908 bound_to 6896
  151.4677  133.3538  159.2854 H   0  0  0  0  0  0  0  0  0  0  0  0  # atno 6909 bound_to 6896
  146.0764  139.5333  142.9565 H   0  0  0  0  0  0  0  0  0  0  0  0  # atno 7974 bound_to 7965
  156.1300  140.1520  156.9079 H   0  0  0  0  0  0  0  0  0  0  0  0  # atno 8008 bound_to 7997
  154.4902  140.0853  156.7617 H   0  0  0  0  0  0  0  0  0  0  0  0  # atno 8009 bound_to 7997
  155.4273  140.3425  155.4279 H   0  0  0  0  0  0  0  0  0  0  0  0  # atno 8010 bound_to 7997
  140.5595  143.9363  150.6633 H   0  0  0  0  0  0  0  0  0  0  0  0  # atno 10167 bound_to 10162
  156.5546  130.8620  151.2791 H   0  0  0  0  0  0  0  0  0  0  0  0  # atno 10718 bound_to 10713
  153.4169  135.3820  155.2086 H   0  0  0  0  0  0  0  0  0  0  0  0  # atno 10763 bound_to 10752
  154.8742  135.3808  154.4432 H   0  0  0  0  0  0  0  0  0  0  0  0  # atno 10764 bound_to 10752
  153.4947  135.7088  153.5927 H   0  0  0  0  0  0  0  0  0  0  0  0  # atno 10765 bound_to 10752
  140.5120  134.5792  157.5022 H   0  0  0  0  0  0  0  0  0  0  0  0  # atno 11005 bound_to 11000
  145.6299  141.0306  143.1869 LP  0  0  0  0  0  0  0  0  0  0  0  0  # atno 17320 bound_to 7965
  144.7264  139.7862  143.7363 LP  0  0  0  0  0  0  0  0  0  0  0  0  # atno 17321 bound_to 7965
  140.2810  143.3390  152.1151 LP  0  0  0  0  0  0  0  0  0  0  0  0  # atno 17342 bound_to 10162
  139.5063  144.6812  151.6004 LP  0  0  0  0  0  0  0  0  0  0  0  0  # atno 17343 bound_to 10162
  157.7381  130.9807  150.2230 LP  0  0  0  0  0  0  0  0  0  0  0  0  # atno 17370 bound_to 10713
  156.2854  130.3738  149.7894 LP  0  0  0  0  0  0  0  0  0  0  0  0  # atno 17371 bound_to 10713
  139.9653  134.7383  156.0151 LP  0  0  0  0  0  0  0  0  0  0  0  0  # atno 17394 bound_to 11000
  141.1380  133.6571  156.3649 LP  0  0  0  0  0  0  0  0  0  0  0  0  # atno 17395 bound_to 11000

$$$$
