AV-unprocessed.smi:218|AV-procd|sdf|1663|dock1
  -GOLD-   2262020 63D 1   1.00000     0.00000
 Structure written by MMmdl.
 54 57  0  0  0  0  0  0  0  0  1 V2000
  151.3977  140.6901  155.8433 C   0  0  0  0  0  0  0  0  0  0  0  0
  150.9707  141.5364  157.0488 C   0  0  0  0  0  0  0  0  0  0  0  0
  151.9751  141.4018  158.2065 C   0  0  0  0  0  0  0  0  0  0  0  0
  149.6819  141.0676  157.4507 O   0  0  0  0  0  0  0  0  0  0  0  0
  148.5492  141.4930  156.7833 C   0  0  0  0  0  0  0  0  0  0  0  0
  148.4455  141.2227  155.4034 C   0  0  0  0  0  0  0  0  0  0  0  0
  147.2993  141.6587  154.7084 C   0  0  0  0  0  0  0  0  0  0  0  0
  147.1455  141.3863  153.2278 C   0  0  0  0  0  0  0  0  0  0  0  0
  147.7000  140.1000  152.8303 N   0  0  0  0  0  0  0  0  0  0  0  0
  147.0647  138.9585  153.1719 C   0  0  0  0  0  0  0  0  0  0  0  0
  146.8757  138.6283  154.4762 N   0  0  0  0  0  0  0  0  0  0  0  0
  146.2455  137.4936  154.7924 C   0  0  0  0  0  0  0  0  0  0  0  0
  145.7375  136.5676  153.9771 N   0  0  0  0  0  0  0  0  0  0  0  0
  145.9239  136.8924  152.6650 C   0  0  0  0  0  0  0  0  0  0  0  0
  146.5728  138.0647  152.1853 C   0  0  0  0  0  0  0  0  0  0  0  0
  146.5767  138.0661  150.7970 N   0  0  0  0  0  0  0  0  0  0  0  0
  145.9647  136.9575  150.4788 C   0  0  0  0  0  0  0  0  0  0  0  0
  145.5365  136.1902  151.5395 N   0  0  0  0  0  0  0  0  0  0  0  0
  144.8126  134.8776  151.4724 C   0  0  1  0  0  0  0  0  0  0  0  0
  144.2652  134.7129  150.1967 O   0  0  0  0  0  0  0  0  0  0  0  0
  144.7745  133.5299  149.5830 C   0  0  2  0  0  0  0  0  0  0  0  0
  143.7029  132.9440  148.6502 C   0  0  0  0  0  0  0  0  0  0  0  0
  143.3549  133.8726  147.6457 O   0  0  0  0  0  0  0  0  0  0  0  0
  145.1544  132.6468  150.7748 C   0  0  1  0  0  0  0  0  0  0  0  0
  146.0780  131.6235  150.4561 O   0  0  0  0  0  0  0  0  0  0  0  0
  145.7184  133.6635  151.7580 C   0  0  1  0  0  0  0  0  0  0  0  0
  147.0986  133.9212  151.5464 O   0  0  0  0  0  0  0  0  0  0  0  0
  146.2954  142.3431  155.4214 C   0  0  0  0  0  0  0  0  0  0  0  0
  146.4880  142.5671  156.7982 C   0  0  0  0  0  0  0  0  0  0  0  0
  147.5854  142.1572  157.4687 N   0  0  0  0  0  0  0  0  0  0  0  0
  143.9989  134.9742  152.1921 H   0  0  0  0  0  0  0  0  0  0  0  0
  145.6654  133.8014  149.0147 H   0  0  0  0  0  0  0  0  0  0  0  0
  144.2563  132.1951  151.1987 H   0  0  0  0  0  0  0  0  0  0  0  0
  145.5852  133.3439  152.7920 H   0  0  0  0  0  0  0  0  0  0  0  0
  152.3770  140.9963  155.4745 H   0  0  0  0  0  0  0  0  0  0  0  0
  150.6877  140.7954  155.0226 H   0  0  0  0  0  0  0  0  0  0  0  0
  151.4533  139.6324  156.1019 H   0  0  0  0  0  0  0  0  0  0  0  0
  150.9249  142.5738  156.7136 H   0  0  0  0  0  0  0  0  0  0  0  0
  152.9697  141.7246  157.8985 H   0  0  0  0  0  0  0  0  0  0  0  0
  152.0501  140.3676  158.5437 H   0  0  0  0  0  0  0  0  0  0  0  0
  151.6881  142.0084  159.0650 H   0  0  0  0  0  0  0  0  0  0  0  0
  149.2332  140.6915  154.8890 H   0  0  0  0  0  0  0  0  0  0  0  0
  146.0871  141.4238  152.9658 H   0  0  0  0  0  0  0  0  0  0  0  0
  147.6417  142.1838  152.6727 H   0  0  0  0  0  0  0  0  0  0  0  0
  148.5696  140.1264  152.3174 H   0  0  0  0  0  0  0  0  0  0  0  0
  146.1324  137.2995  155.8487 H   0  0  0  0  0  0  0  0  0  0  0  0
  145.8059  136.6664  149.4504 H   0  0  0  0  0  0  0  0  0  0  0  0
  144.0436  132.0147  148.1933 H   0  0  0  0  0  0  0  0  0  0  0  0
  142.8025  132.7117  149.2193 H   0  0  0  0  0  0  0  0  0  0  0  0
  144.1481  134.2455  147.2922 H   0  0  0  0  0  0  0  0  0  0  0  0
  146.9495  131.9864  150.5078 H   0  0  0  0  0  0  0  0  0  0  0  0
  147.2622  134.8356  151.7203 H   0  0  0  0  0  0  0  0  0  0  0  0
  145.3989  142.6897  154.9282 H   0  0  0  0  0  0  0  0  0  0  0  0
  145.7408  143.0896  157.3770 H   0  0  0  0  0  0  0  0  0  0  0  0
  1  2  1  0  0  0  0
  1 35  1  0  0  0  0
  1 36  1  0  0  0  0
  1 37  1  0  0  0  0
  2  3  1  0  0  0  0
  2  4  1  0  0  0  0
  2 38  1  0  0  0  0
  3 39  1  0  0  0  0
  3 40  1  0  0  0  0
  3 41  1  0  0  0  0
  4  5  1  0  0  0  0
  5 30  1  0  0  0  0
  5  6  2  0  0  0  0
  6  7  1  0  0  0  0
  6 42  1  0  0  0  0
  7  8  1  0  0  0  0
  7 28  2  0  0  0  0
  8  9  1  0  0  0  0
  8 43  1  0  0  0  0
  8 44  1  0  0  0  0
  9 10  1  0  0  0  0
  9 45  1  0  0  0  0
 10 15  1  0  0  0  0
 10 11  2  0  0  0  0
 11 12  1  0  0  0  0
 12 13  2  0  0  0  0
 12 46  1  0  0  0  0
 13 14  1  0  0  0  0
 14 18  1  0  0  0  0
 14 15  2  0  0  0  0
 15 16  1  0  0  0  0
 16 17  2  0  0  0  0
 17 18  1  0  0  0  0
 17 47  1  0  0  0  0
 18 19  1  0  0  0  0
 19 31  1  0  0  0  0
 19 26  1  0  0  0  0
 19 20  1  0  0  0  0
 20 21  1  0  0  0  0
 21 32  1  0  0  0  0
 21 22  1  0  0  0  0
 21 24  1  0  0  0  0
 22 23  1  0  0  0  0
 22 48  1  0  0  0  0
 22 49  1  0  0  0  0
 23 50  1  0  0  0  0
 24 33  1  0  0  0  0
 24 25  1  0  0  0  0
 24 26  1  0  0  0  0
 25 51  1  0  0  0  0
 26 34  1  0  0  0  0
 26 27  1  0  0  0  0
 27 52  1  0  0  0  0
 28 29  1  0  0  0  0
 28 53  1  0  0  0  0
 29 30  2  0  0  0  0
 29 54  1  0  0  0  0
M  END
> <s_m_source_file>
AV-unprocessed.smi

> <i_m_source_file_index>
218

> <i_lp_mmshare_version>
43012

> <i_f3d_flags>
0

> <s_epik_input>
W0NIM11bQ0hdKFtDSDNdKU9jMVtjSF1jKFtjSF1bY0hdbjEpW0NIMl1bTkhdYyhuW2NIXW4yKWMoYzIzKW5bY0hdbjNbQ0BASF00T1tDQEhdKFtDSDJdW09IXSlbQ0BASF0oW09IXSlbQ0BIXTRbT0hd

> <s_epik_cmdline>
J2VwaWtfcHl0aG9uJywgJy1waCcsICc3LjAnLCAnLXRuJywgJzgnLCAnLW1hJywgJzIwMCcsICctbWV0YWxfYmluZGluZycsICctaW1hZScsICc8aW5maWxlLm1hZT4nLCAnLW9tYWUnLCAnPG91dGZpbGUubWFlPic=

> <r_lp_tautomer_probability>
1

> <r_epik_Ionization_Penalty>
0.00457014

> <r_epik_Ionization_Penalty_Charging>
0

> <r_epik_Ionization_Penalty_Neutral>
0.00457014

> <r_epik_State_Penalty>
-0

> <r_epik_Charging_Adjusted_Penalty>
0

> <i_epik_Tot_Q>
0

> <i_epik_Tot_abs_Q>
0

> <r_epik_Metal_State_Penalty>
-0

> <b_epik_Metal_Only>
0

> <s_epik_Chemistry_Notes>
This compound contains an acetal/aminal-like group ( X-CH(R)-Y where X, Y are N, S, or O) that may be acid/base labile, releasing an aldehyde.

> <s_lp_Force_Field>
OPLS_2005

> <r_lp_Energy>
45.6959

> <b_lp_Chiralities_Consistent>
1

> <s_lp_Variant>
AV-unprocessed.smi:218-2

> <Gold.Version>
5.8.1

> <Gold.Id.Protein>
6NUR|6NUR_protein|mol2

> <Gold.PLP.Fitness>
59.8656

> <Gold.PLP.PLP>
-46.0560

> <Gold.PLP.part.hbond>
-7.7341

> <Gold.PLP.part.metal>
0.0000

> <Gold.PLP.part.buried>
-1.0555

> <Gold.PLP.part.nonpolar>
-38.5520

> <Gold.PLP.part.repulsive>
2.4038

> <Gold.PLP.ligand.clash>
0.0000

> <Gold.PLP.ligand.torsion>
1.6831

> <Gold.PLP.Chemscore.Hbond>
4.6717

> <Gold.PLP.Chemscore.CHOScore>
0.9710

> <Gold.PLP.Chemscore.Metal>
0.0000

> <Gold.Chemscore.Hbonds>
donor molecule, donor type, donor heavy atom, donor atom, acceptor molecule, acceptor atom, score
      L1  H     9    45       P1  7957  1.00
      L1  H    23    50       P1  7921  0.92
      L1  H    25    51       P1 10747  0.14
      L1  H    27    52       P1  7948  0.54
      P1  H  7954  7966       L1    16  1.00
      P1  H 10192 10197       L1    23  1.00
      L1  C    17    47       P1  7921  0.87

> <Gold.PLP.Chemscore.Internal.Correction>
0.2477

> <Gold.Rescore>
     Score         DG    S(hbond)    S(metal)    S(lipo)     H(rot)  DE(clash)    DE(int)     intcor
      8.62     -14.02       3.24        0.00      87.81       4.90       3.60       1.80       ----

> <Gold.Chemscore.Fitness>
8.6197

> <Gold.Chemscore.DG>
-14.0153

> <Gold.Chemscore.ZeroCoef>
-5.4800

> <Gold.Chemscore.Hbond>
3.2374

> <Gold.Chemscore.Metal>
0.0000

> <Gold.Chemscore.Lipo>
87.8111

> <Gold.Chemscore.Internal_Hbond>
0.0000

> <Gold.Chemscore.DEClash>
3.6006

> <Gold.Chemscore.DEInternal>
1.7951

> <Gold.Chemscore.Rot>
4.9029

> <Gold.Chemscore.Internal.Correction>
   9.000000E+99

> <Gold.Chemscore.Hbonds>
donor molecule, donor type, donor heavy atom, donor atom, acceptor molecule, acceptor atom, score
      L1  H     9    45       P1  7957  0.95
      L1  H    23    50       P1  7921  0.84
      L1  H    25    51       P1 10747  0.15
      L1  H    27    52       P1  7948  0.42
      P1  H  7954  7966       L1    16  0.29
      P1  H 10192 10197       L1    23  0.40

> <Gold.Chemscore.Hbond.Weighted>
-10.8130

> <Gold.Chemscore.Metal.Weighted>
-0.0000

> <Gold.Chemscore.Lipo.Weighted>
-10.2739

> <Gold.Chemscore.Internal_Hbond.Weighted>
0.0000

> <Gold.Chemscore.DEClash.Weighted>
3.6006

> <Gold.Chemscore.DEInternal.Weighted>
1.7951

> <Gold.Chemscore.Rot.Weighted>
12.5515

> <Gold.Chemscore.Internal.Correction.Weighted>
   9.000000E+99

> <Gold.Protein.RotatedTorsions>
[ 6907 6896 6895 6894 ] final -174.64 input  -60.11 | X-H torsion
[ 7974 7965 7964 7962 ] final  120.68 input  175.53 | X-H torsion
[ 8008 7997 7996 7995 ] final   67.79 input   59.86 | X-H torsion
[ 10167 10162 10161 10158 ] final  -90.34 input  -65.29 | X-H torsion
[ 10718 10713 10712 10709 ] final   14.13 input   66.30 | X-H torsion
[ 10763 10752 10751 10750 ] final  -36.46 input  -60.55 | X-H torsion
[ 11005 11000 10999 10996 ] final  -49.07 input  -57.11 | X-H torsion

> <Gold.Protein.ActiveResidues>
 VAL166  LYS551  ARG553  GLY616  TRP617  ASP618  TYR619  PRO620  LYS621  CYS622 
 ASP623  PHE694  ASN695  SER759  ASP760  ASP761  ALA762  ILE779  LEU786  VAL792 
 PHE793  MET794  SER795  GLU796  ALA797  LYS798  CYS799  TRP800  GLU811  SER814 

> <Gold.Protein.RotatedAtoms>
  151.5756  133.3384  159.2997 H   0  0  0  0  0  0  0  0  0  0  0  0  # atno 6907 bound_to 6896
  150.8343  134.7612  159.6891 H   0  0  0  0  0  0  0  0  0  0  0  0  # atno 6908 bound_to 6896
  152.4421  134.5575  159.9936 H   0  0  0  0  0  0  0  0  0  0  0  0  # atno 6909 bound_to 6896
  145.1283  139.3344  143.4678 H   0  0  0  0  0  0  0  0  0  0  0  0  # atno 7974 bound_to 7965
  155.6983  140.3495  155.4922 H   0  0  0  0  0  0  0  0  0  0  0  0  # atno 8008 bound_to 7997
  155.9463  140.1111  157.1036 H   0  0  0  0  0  0  0  0  0  0  0  0  # atno 8009 bound_to 7997
  154.4112  140.1203  156.4979 H   0  0  0  0  0  0  0  0  0  0  0  0  # atno 8010 bound_to 7997
  140.3558  143.2867  151.9672 H   0  0  0  0  0  0  0  0  0  0  0  0  # atno 10167 bound_to 10162
  157.0347  130.6207  149.5741 H   0  0  0  0  0  0  0  0  0  0  0  0  # atno 10718 bound_to 10713
  153.8802  135.6822  153.4767 H   0  0  0  0  0  0  0  0  0  0  0  0  # atno 10763 bound_to 10752
  153.1238  135.4728  154.9237 H   0  0  0  0  0  0  0  0  0  0  0  0  # atno 10764 bound_to 10752
  154.7672  135.3228  154.8213 H   0  0  0  0  0  0  0  0  0  0  0  0  # atno 10765 bound_to 10752
  141.0738  133.6671  156.3532 H   0  0  0  0  0  0  0  0  0  0  0  0  # atno 11005 bound_to 11000
  146.3516  140.1271  142.8598 LP  0  0  0  0  0  0  0  0  0  0  0  0  # atno 17320 bound_to 7965
  145.0663  140.9124  143.4908 LP  0  0  0  0  0  0  0  0  0  0  0  0  # atno 17321 bound_to 7965
  139.4820  144.6036  151.7562 LP  0  0  0  0  0  0  0  0  0  0  0  0  # atno 17342 bound_to 10162
  140.5174  144.0931  150.6012 LP  0  0  0  0  0  0  0  0  0  0  0  0  # atno 17343 bound_to 10162
  156.0058  130.5144  150.7823 LP  0  0  0  0  0  0  0  0  0  0  0  0  # atno 17370 bound_to 10713
  157.5151  131.0928  151.0150 LP  0  0  0  0  0  0  0  0  0  0  0  0  # atno 17371 bound_to 10713
  140.5618  134.5927  157.5435 LP  0  0  0  0  0  0  0  0  0  0  0  0  # atno 17394 bound_to 11000
  139.9550  134.7550  156.0362 LP  0  0  0  0  0  0  0  0  0  0  0  0  # atno 17395 bound_to 11000

$$$$
