AV-unprocessed.smi:176|AV-procd|sdf|1436|dock3
  -GOLD-   2262019223D 1   1.00000     0.00000
 Structure written by MMmdl.
 57 61  0  0  0  0  0  0  0  0  1 V2000
  147.1931  134.5918  152.8980 O   0  0  0  0  0  0  0  0  0  0  0  0
  147.7085  133.3174  153.2236 C   0  0  0  0  0  0  0  0  0  0  0  0
  148.7185  133.3809  154.3833 C   0  0  0  0  0  0  0  0  0  0  0  0
  149.2618  131.9644  154.6655 C   0  0  0  0  0  0  0  0  0  0  0  0
  148.2296  131.0392  154.9386 O   0  0  0  0  0  0  0  0  0  0  0  0
  149.7633  134.5189  154.3213 C   0  0  0  0  0  0  0  0  0  0  0  0
  149.5701  134.7705  155.8177 C   0  0  0  0  0  0  0  0  0  0  0  0
  149.7018  136.0897  156.3629 N   0  0  0  0  0  0  0  0  0  0  0  0
  149.5682  136.4573  157.6830 C   0  0  0  0  0  0  0  0  0  0  0  0
  149.7699  137.7225  157.9316 N   0  0  0  0  0  0  0  0  0  0  0  0
  150.1002  138.2632  156.6946 C   0  0  0  0  0  0  0  0  0  0  0  0
  150.4492  139.5680  156.2447 C   0  0  0  0  0  0  0  0  0  0  0  0
  150.4800  140.6434  157.0720 N   0  0  0  0  0  0  0  0  0  0  0  0
  149.5944  141.7358  156.6688 C   0  0  0  0  0  0  0  0  0  0  0  0
  149.3968  142.7491  157.8124 C   0  0  0  0  0  0  0  0  0  0  0  0
  150.7413  143.2498  158.3817 C   0  0  1  0  0  0  0  0  0  0  0  0
  151.3817  144.0044  157.3652 O   0  0  0  0  0  0  0  0  0  0  0  0
  150.5362  144.1818  159.5966 C   0  0  0  0  0  0  0  0  0  0  0  0
  151.8700  144.5998  160.2451 C   0  0  0  0  0  0  0  0  0  0  0  0
  152.7264  143.3787  160.6166 C   0  0  0  0  0  0  0  0  0  0  0  0
  152.9515  142.4594  159.4047 C   0  0  0  0  0  0  0  0  0  0  0  0
  151.6099  142.0285  158.7812 C   0  0  2  0  0  0  0  0  0  0  0  0
  151.7827  141.0527  157.6014 C   0  0  0  0  0  0  0  0  0  0  0  0
  150.7538  139.7145  154.9270 N   0  0  0  0  0  0  0  0  0  0  0  0
  150.7089  138.6634  154.1030 C   0  0  0  0  0  0  0  0  0  0  0  0
  150.3875  137.3984  154.3806 N   0  0  0  0  0  0  0  0  0  0  0  0
  150.0862  137.2431  155.7016 C   0  0  0  0  0  0  0  0  0  0  0  0
  148.1986  134.1128  155.6416 C   0  0  0  0  0  0  0  0  0  0  0  0
  147.7405  134.9770  152.2313 H   0  0  0  0  0  0  0  0  0  0  0  0
  146.8606  132.6830  153.4831 H   0  0  0  0  0  0  0  0  0  0  0  0
  148.1560  132.8784  152.3314 H   0  0  0  0  0  0  0  0  0  0  0  0
  149.8240  131.5819  153.8133 H   0  0  0  0  0  0  0  0  0  0  0  0
  149.9565  131.9701  155.5059 H   0  0  0  0  0  0  0  0  0  0  0  0
  147.4412  131.3309  154.5070 H   0  0  0  0  0  0  0  0  0  0  0  0
  150.7710  134.2087  154.0434 H   0  0  0  0  0  0  0  0  0  0  0  0
  149.4352  135.3628  153.7114 H   0  0  0  0  0  0  0  0  0  0  0  0
  150.2333  134.1331  156.4049 H   0  0  0  0  0  0  0  0  0  0  0  0
  149.3068  135.7562  158.4623 H   0  0  0  0  0  0  0  0  0  0  0  0
  150.0264  142.2319  155.7987 H   0  0  0  0  0  0  0  0  0  0  0  0
  148.6205  141.3605  156.3561 H   0  0  0  0  0  0  0  0  0  0  0  0
  148.7927  143.5877  157.4639 H   0  0  0  0  0  0  0  0  0  0  0  0
  148.8223  142.2712  158.6071 H   0  0  0  0  0  0  0  0  0  0  0  0
  150.7170  144.3809  156.8090 H   0  0  0  0  0  0  0  0  0  0  0  0
  149.9729  145.0690  159.3042 H   0  0  0  0  0  0  0  0  0  0  0  0
  149.9285  143.6711  160.3451 H   0  0  0  0  0  0  0  0  0  0  0  0
  152.4280  145.2404  159.5609 H   0  0  0  0  0  0  0  0  0  0  0  0
  151.6761  145.1998  161.1343 H   0  0  0  0  0  0  0  0  0  0  0  0
  153.6858  143.7058  161.0182 H   0  0  0  0  0  0  0  0  0  0  0  0
  152.2339  142.8184  161.4125 H   0  0  0  0  0  0  0  0  0  0  0  0
  153.5645  142.9715  158.6622 H   0  0  0  0  0  0  0  0  0  0  0  0
  153.5166  141.5799  159.7152 H   0  0  0  0  0  0  0  0  0  0  0  0
  151.0674  141.4840  159.5565 H   0  0  0  0  0  0  0  0  0  0  0  0
  152.3342  140.1736  157.9382 H   0  0  0  0  0  0  0  0  0  0  0  0
  152.3709  141.5158  156.8079 H   0  0  0  0  0  0  0  0  0  0  0  0
  150.9625  138.8660  153.0729 H   0  0  0  0  0  0  0  0  0  0  0  0
  147.4144  134.8397  155.4212 H   0  0  0  0  0  0  0  0  0  0  0  0
  147.9026  133.4608  156.4640 H   0  0  0  0  0  0  0  0  0  0  0  0
  1  2  1  0  0  0  0
  1 29  1  0  0  0  0
  2  3  1  0  0  0  0
  2 30  1  0  0  0  0
  2 31  1  0  0  0  0
  3 28  1  0  0  0  0
  3  4  1  0  0  0  0
  3  6  1  0  0  0  0
  4  5  1  0  0  0  0
  4 32  1  0  0  0  0
  4 33  1  0  0  0  0
  5 34  1  0  0  0  0
  6  7  1  0  0  0  0
  6 35  1  0  0  0  0
  6 36  1  0  0  0  0
  7  8  1  0  0  0  0
  7 28  1  0  0  0  0
  7 37  1  0  0  0  0
  8 27  1  0  0  0  0
  8  9  1  0  0  0  0
  9 10  2  0  0  0  0
  9 38  1  0  0  0  0
 10 11  1  0  0  0  0
 11 27  2  0  0  0  0
 11 12  1  0  0  0  0
 12 13  1  0  0  0  0
 12 24  2  0  0  0  0
 13 23  1  0  0  0  0
 13 14  1  0  0  0  0
 14 15  1  0  0  0  0
 14 39  1  0  0  0  0
 14 40  1  0  0  0  0
 15 16  1  0  0  0  0
 15 41  1  0  0  0  0
 15 42  1  0  0  0  0
 16 22  1  0  0  0  0
 16 17  1  0  0  0  0
 16 18  1  0  0  0  0
 17 43  1  0  0  0  0
 18 19  1  0  0  0  0
 18 44  1  0  0  0  0
 18 45  1  0  0  0  0
 19 20  1  0  0  0  0
 19 46  1  0  0  0  0
 19 47  1  0  0  0  0
 20 21  1  0  0  0  0
 20 48  1  0  0  0  0
 20 49  1  0  0  0  0
 21 22  1  0  0  0  0
 21 50  1  0  0  0  0
 21 51  1  0  0  0  0
 22 23  1  0  0  0  0
 22 52  1  0  0  0  0
 23 53  1  0  0  0  0
 23 54  1  0  0  0  0
 24 25  1  0  0  0  0
 25 26  2  0  0  0  0
 25 55  1  0  0  0  0
 26 27  1  0  0  0  0
 28 56  1  0  0  0  0
 28 57  1  0  0  0  0
M  END
> <s_m_source_file>
AV-unprocessed.smi

> <i_m_source_file_index>
176

> <i_lp_mmshare_version>
43012

> <i_f3d_flags>
0

> <s_epik_input>
W09IXVtDSDJdQzEoW0NIMl1bT0hdKVtDSDJdW0NIXShbQ0gyXTEpbihbY0hdbjIpYyhjMjMpbltjSF1uYzNOKFtDSDJdW0NIMl00KVtDSDJdW0NAQEhdKFtDQF00NVtPSF0pW0NIMl1bQ0gyXVtDSDJdW0NIMl01

> <s_epik_cmdline>
J2VwaWtfcHl0aG9uJywgJy1waCcsICc3LjAnLCAnLXRuJywgJzgnLCAnLW1hJywgJzIwMCcsICctbWV0YWxfYmluZGluZycsICctaW1hZScsICc8aW5maWxlLm1hZT4nLCAnLW9tYWUnLCAnPG91dGZpbGUubWFlPic=

> <r_lp_tautomer_probability>
1

> <r_epik_Ionization_Penalty>
0.00642876

> <r_epik_Ionization_Penalty_Charging>
0

> <r_epik_Ionization_Penalty_Neutral>
0.00642876

> <r_epik_State_Penalty>
0.00467813

> <r_epik_Charging_Adjusted_Penalty>
0.00467813

> <i_epik_Tot_Q>
0

> <i_epik_Tot_abs_Q>
0

> <r_epik_Metal_State_Penalty>
-0

> <b_epik_Metal_Only>
0

> <s_lp_Force_Field>
OPLS_2005

> <r_lp_Energy>
52.7451

> <b_lp_Chiralities_Consistent>
1

> <s_lp_Variant>
AV-unprocessed.smi:176-4

> <Gold.Version>
5.8.1

> <Gold.Id.Protein>
6NUR|6NUR_protein|mol2

> <Gold.PLP.Fitness>
52.8513

> <Gold.PLP.PLP>
-42.4721

> <Gold.PLP.part.hbond>
-2.9412

> <Gold.PLP.part.metal>
0.0000

> <Gold.PLP.part.buried>
-7.6902

> <Gold.PLP.part.nonpolar>
-31.4175

> <Gold.PLP.part.repulsive>
0.3002

> <Gold.PLP.ligand.clash>
0.0000

> <Gold.PLP.ligand.torsion>
0.6106

> <Gold.PLP.Chemscore.Hbond>
2.5770

> <Gold.PLP.Chemscore.CHOScore>
0.9946

> <Gold.PLP.Chemscore.Metal>
0.0000

> <Gold.Chemscore.Hbonds>
donor molecule, donor type, donor heavy atom, donor atom, acceptor molecule, acceptor atom, score
      L1  H     1    29       P1  7948  0.94
      L1  H    17    43       P1  8028  0.68
      P1  H  7989  7998       L1    24  0.55
      L1  C    25    55       P1  7957  0.79

> <Gold.PLP.Chemscore.Internal.Correction>
0.8856

> <Gold.Rescore>
     Score         DG    S(hbond)    S(metal)    S(lipo)     H(rot)  DE(clash)    DE(int)     intcor
     13.38     -15.59       1.90        0.00     113.40       3.71       0.41       1.80       ----

> <Gold.Chemscore.Fitness>
13.3757

> <Gold.Chemscore.DG>
-15.5868

> <Gold.Chemscore.ZeroCoef>
-5.4800

> <Gold.Chemscore.Hbond>
1.8980

> <Gold.Chemscore.Metal>
0.0000

> <Gold.Chemscore.Lipo>
113.3962

> <Gold.Chemscore.Internal_Hbond>
0.0000

> <Gold.Chemscore.DEClash>
0.4088

> <Gold.Chemscore.DEInternal>
1.8023

> <Gold.Chemscore.Rot>
3.7109

> <Gold.Chemscore.Internal.Correction>
   9.000000E+99

> <Gold.Chemscore.Hbonds>
donor molecule, donor type, donor heavy atom, donor atom, acceptor molecule, acceptor atom, score
      L1  H     1    29       P1  7948  0.81
      L1  H    17    43       P1  8028  0.67
      P1  H  7989  7998       L1    24  0.03

> <Gold.Chemscore.Hbond.Weighted>
-6.3395

> <Gold.Chemscore.Metal.Weighted>
-0.0000

> <Gold.Chemscore.Lipo.Weighted>
-13.2674

> <Gold.Chemscore.Internal_Hbond.Weighted>
0.0000

> <Gold.Chemscore.DEClash.Weighted>
0.4088

> <Gold.Chemscore.DEInternal.Weighted>
1.8023

> <Gold.Chemscore.Rot.Weighted>
9.5000

> <Gold.Chemscore.Internal.Correction.Weighted>
   9.000000E+99

> <Gold.Protein.RotatedTorsions>
[ 6907 6896 6895 6894 ] final  -36.63 input  -60.11 | X-H torsion
[ 7974 7965 7964 7962 ] final  -81.33 input  175.53 | X-H torsion
[ 8008 7997 7996 7995 ] final  109.82 input   59.86 | X-H torsion
[ 10167 10162 10161 10158 ] final  134.81 input  -65.29 | X-H torsion
[ 10718 10713 10712 10709 ] final  -39.54 input   66.30 | X-H torsion
[ 10763 10752 10751 10750 ] final -137.55 input  -60.55 | X-H torsion
[ 11005 11000 10999 10996 ] final   20.17 input  -57.11 | X-H torsion

> <Gold.Protein.ActiveResidues>
 VAL166  LYS551  ARG553  GLY616  TRP617  ASP618  TYR619  PRO620  LYS621  CYS622 
 ASP623  PHE694  ASN695  SER759  ASP760  ASP761  ALA762  ILE779  LEU786  VAL792 
 PHE793  MET794  SER795  GLU796  ALA797  LYS798  CYS799  TRP800  GLU811  SER814 

> <Gold.Protein.RotatedAtoms>
  151.0248  134.9496  159.8078 H   0  0  0  0  0  0  0  0  0  0  0  0  # atno 6907 bound_to 6896
  152.5333  134.2856  159.9034 H   0  0  0  0  0  0  0  0  0  0  0  0  # atno 6908 bound_to 6896
  151.2865  133.4143  159.2664 H   0  0  0  0  0  0  0  0  0  0  0  0  # atno 6909 bound_to 6896
  145.5481  140.9500  143.1514 H   0  0  0  0  0  0  0  0  0  0  0  0  # atno 7974 bound_to 7965
  156.2007  140.3050  155.9521 H   0  0  0  0  0  0  0  0  0  0  0  0  # atno 8008 bound_to 7997
  155.2960  140.0444  157.3043 H   0  0  0  0  0  0  0  0  0  0  0  0  # atno 8009 bound_to 7997
  154.5567  140.2308  155.8408 H   0  0  0  0  0  0  0  0  0  0  0  0  # atno 8010 bound_to 7997
  139.5241  144.6549  151.5193 H   0  0  0  0  0  0  0  0  0  0  0  0  # atno 10167 bound_to 10162
  156.2913  130.4228  149.8235 H   0  0  0  0  0  0  0  0  0  0  0  0  # atno 10718 bound_to 10713
  154.8659  135.3639  154.5241 H   0  0  0  0  0  0  0  0  0  0  0  0  # atno 10763 bound_to 10752
  153.5870  135.7016  153.5444 H   0  0  0  0  0  0  0  0  0  0  0  0  # atno 10764 bound_to 10752
  153.3407  135.4099  155.1531 H   0  0  0  0  0  0  0  0  0  0  0  0  # atno 10765 bound_to 10752
  140.4056  134.1672  155.7665 H   0  0  0  0  0  0  0  0  0  0  0  0  # atno 11005 bound_to 11000
  144.7543  139.7114  143.7260 LP  0  0  0  0  0  0  0  0  0  0  0  0  # atno 17320 bound_to 7965
  146.1936  139.5189  142.9789 LP  0  0  0  0  0  0  0  0  0  0  0  0  # atno 17321 bound_to 7965
  140.6370  143.8965  150.6656 LP  0  0  0  0  0  0  0  0  0  0  0  0  # atno 17342 bound_to 10162
  140.2287  143.3752  152.1583 LP  0  0  0  0  0  0  0  0  0  0  0  0  # atno 17343 bound_to 10162
  156.5647  130.8399  151.3339 LP  0  0  0  0  0  0  0  0  0  0  0  0  # atno 17370 bound_to 10713
  157.7343  130.9744  150.2023 LP  0  0  0  0  0  0  0  0  0  0  0  0  # atno 17371 bound_to 10713
  141.1840  133.8352  157.1153 LP  0  0  0  0  0  0  0  0  0  0  0  0  # atno 17394 bound_to 11000
  140.0305  134.9903  157.0770 LP  0  0  0  0  0  0  0  0  0  0  0  0  # atno 17395 bound_to 11000

$$$$
