AV-unprocessed.smi:127|AV-procd|sdf|1153|dock7
  -GOLD-   2262018293D 1   1.00000     0.00000
 Structure written by MMmdl.
 28 29  0  0  0  0  0  0  0  0  2 V2000
  152.1947  136.8979  156.1777 O   0  0  0  0  0  0  0  0  0  0  0  0
  152.3607  138.0520  156.6292 C   0  0  0  0  0  0  0  0  0  0  0  0
  153.1390  138.9116  156.1616 O   0  5  0  0  0  0  0  0  0  0  0  0
  151.5372  138.4484  157.8584 C   0  0  0  0  0  0  0  0  0  0  0  0
  151.9531  139.7228  158.4272 N   0  0  0  0  0  0  0  0  0  0  0  0
  152.9637  139.7031  159.4220 C   0  0  0  0  0  0  0  0  0  0  0  0
  153.5755  138.6749  159.7176 O   0  0  0  0  0  0  0  0  0  0  0  0
  153.2208  140.9925  160.0543 C   0  0  0  0  0  0  0  0  0  0  0  0
  154.1802  141.0952  160.9899 F   0  0  0  0  0  0  0  0  0  0  0  0
  152.5120  142.0901  159.7148 C   0  0  0  0  0  0  0  0  0  0  0  0
  151.5046  142.0744  158.7656 N   0  0  0  0  0  0  0  0  0  0  0  0
  150.7341  143.3274  158.4128 C   0  0  2  0  0  0  0  0  0  0  0  0
  151.6785  144.3817  157.8245 C   0  0  0  0  0  0  0  0  0  0  0  0
  152.0425  145.1909  159.0502 C   0  0  0  0  0  0  0  0  0  0  0  0
  150.7408  145.1488  159.8425 C   0  0  0  0  0  0  0  0  0  0  0  0
  150.1762  143.8667  159.5772 O   0  0  0  0  0  0  0  0  0  0  0  0
  151.1996  140.8734  158.0877 C   0  0  0  0  0  0  0  0  0  0  0  0
  150.3161  140.8450  157.2275 O   0  0  0  0  0  0  0  0  0  0  0  0
  150.4755  138.5079  157.6138 H   0  0  0  0  0  0  0  0  0  0  0  0
  151.6013  137.6854  158.6357 H   0  0  0  0  0  0  0  0  0  0  0  0
  152.7545  143.0159  160.2147 H   0  0  0  0  0  0  0  0  0  0  0  0
  149.9382  143.0154  157.7349 H   0  0  0  0  0  0  0  0  0  0  0  0
  152.5336  143.9380  157.3129 H   0  0  0  0  0  0  0  0  0  0  0  0
  151.1193  144.9926  157.1148 H   0  0  0  0  0  0  0  0  0  0  0  0
  152.8408  144.6966  159.6051 H   0  0  0  0  0  0  0  0  0  0  0  0
  152.3668  146.2047  158.8145 H   0  0  0  0  0  0  0  0  0  0  0  0
  150.8936  145.3058  160.9104 H   0  0  0  0  0  0  0  0  0  0  0  0
  150.0518  145.9134  159.4812 H   0  0  0  0  0  0  0  0  0  0  0  0
  1  2  2  0  0  0  0
  2  3  1  0  0  0  0
  2  4  1  0  0  0  0
  4  5  1  0  0  0  0
  4 19  1  0  0  0  0
  4 20  1  0  0  0  0
  5 17  1  0  0  0  0
  5  6  1  0  0  0  0
  6  7  2  0  0  0  0
  6  8  1  0  0  0  0
  8  9  1  0  0  0  0
  8 10  2  0  0  0  0
 10 11  1  0  0  0  0
 10 21  1  0  0  0  0
 11 12  1  0  0  0  0
 11 17  1  0  0  0  0
 12 16  1  0  0  0  0
 12 13  1  0  0  0  0
 12 22  1  0  0  0  0
 13 14  1  0  0  0  0
 13 23  1  0  0  0  0
 13 24  1  0  0  0  0
 14 15  1  0  0  0  0
 14 25  1  0  0  0  0
 14 26  1  0  0  0  0
 15 16  1  0  0  0  0
 15 27  1  0  0  0  0
 15 28  1  0  0  0  0
 17 18  2  0  0  0  0
M  CHG  1   3  -1
M  END
> <s_m_source_file>
AV-unprocessed.smi

> <i_m_source_file_index>
127

> <i_lp_mmshare_version>
43012

> <i_f3d_flags>
0

> <s_epik_input>
Tz1DKFtPSF0pW0NIMl1uMWMoPU8pYyhGKVtjSF1uKGMxPU8pW0NAQEhdMltDSDJdW0NIMl1bQ0gyXU8y

> <s_epik_cmdline>
J2VwaWtfcHl0aG9uJywgJy1waCcsICc3LjAnLCAnLXRuJywgJzgnLCAnLW1hJywgJzIwMCcsICctbWV0YWxfYmluZGluZycsICctaW1hZScsICc8aW5maWxlLm1hZT4nLCAnLW9tYWUnLCAnPG91dGZpbGUubWFlPic=

> <r_lp_tautomer_probability>
1

> <r_epik_Ionization_Penalty>
0.00125813

> <r_epik_Ionization_Penalty_Charging>
0.00125813

> <r_epik_Ionization_Penalty_Neutral>
6.20402e-12

> <r_epik_State_Penalty>
0.000832915

> <r_epik_Charging_Adjusted_Penalty>
0.00209104

> <i_epik_Tot_Q>
-1

> <i_epik_Tot_abs_Q>
1

> <r_epik_Metal_State_Penalty>
-0

> <b_epik_Metal_Only>
0

> <s_epik_Chemistry_Notes>
This compound contains an acetal/aminal-like group ( X-CH(R)-Y where X, Y are N, S, or O) that may be acid/base labile, releasing an aldehyde.

> <s_lp_Force_Field>
OPLS_2005

> <r_lp_Energy>
23.3893

> <b_lp_Chiralities_Consistent>
1

> <s_lp_Variant>
AV-unprocessed.smi:127-1

> <Gold.Version>
5.8.1

> <Gold.Id.Protein>
6NUR|6NUR_protein|mol2

> <Gold.PLP.Fitness>
48.4103

> <Gold.PLP.PLP>
-37.3150

> <Gold.PLP.part.hbond>
-2.0000

> <Gold.PLP.part.metal>
0.0000

> <Gold.PLP.part.buried>
-6.3089

> <Gold.PLP.part.nonpolar>
-30.0643

> <Gold.PLP.part.repulsive>
0.1562

> <Gold.PLP.ligand.clash>
0.0000

> <Gold.PLP.ligand.torsion>
0.4508

> <Gold.PLP.Chemscore.Hbond>
3.9840

> <Gold.PLP.Chemscore.CHOScore>
0.0000

> <Gold.PLP.Chemscore.Metal>
0.0000

> <Gold.Chemscore.Hbonds>
donor molecule, donor type, donor heavy atom, donor atom, acceptor molecule, acceptor atom, score
      P1  H  7997  8010       L1     3  2.00
      P1  H 10752 10765       L1     1  1.89

> <Gold.PLP.Chemscore.Internal.Correction>
0.0448

> <Gold.Rescore>
     Score         DG    S(hbond)    S(metal)    S(lipo)     H(rot)  DE(clash)    DE(int)     intcor
     13.39     -13.83       1.95        0.00      61.14       2.08       0.00       0.44       ----

> <Gold.Chemscore.Fitness>
13.3916

> <Gold.Chemscore.DG>
-13.8312

> <Gold.Chemscore.ZeroCoef>
-5.4800

> <Gold.Chemscore.Hbond>
1.9501

> <Gold.Chemscore.Metal>
0.0000

> <Gold.Chemscore.Lipo>
61.1422

> <Gold.Chemscore.Internal_Hbond>
0.0000

> <Gold.Chemscore.DEClash>
0.0000

> <Gold.Chemscore.DEInternal>
0.4395

> <Gold.Chemscore.Rot>
2.0765

> <Gold.Chemscore.Internal.Correction>
   9.000000E+99

> <Gold.Chemscore.Hbonds>
donor molecule, donor type, donor heavy atom, donor atom, acceptor molecule, acceptor atom, score
      P1  H  7997  8010       L1     3  0.99
      P1  H 10752 10765       L1     1  0.85

> <Gold.Chemscore.Hbond.Weighted>
-6.5134

> <Gold.Chemscore.Metal.Weighted>
-0.0000

> <Gold.Chemscore.Lipo.Weighted>
-7.1536

> <Gold.Chemscore.Internal_Hbond.Weighted>
0.0000

> <Gold.Chemscore.DEClash.Weighted>
0.0000

> <Gold.Chemscore.DEInternal.Weighted>
0.4395

> <Gold.Chemscore.Rot.Weighted>
5.3159

> <Gold.Chemscore.Internal.Correction.Weighted>
   9.000000E+99

> <Gold.Protein.RotatedTorsions>
[ 6907 6896 6895 6894 ] final    5.30 input  -60.11 | X-H torsion
[ 7974 7965 7964 7962 ] final  -93.33 input  175.53 | X-H torsion
[ 8008 7997 7996 7995 ] final   77.11 input   59.86 | X-H torsion
[ 10167 10162 10161 10158 ] final  -13.37 input  -65.29 | X-H torsion
[ 10718 10713 10712 10709 ] final   14.75 input   66.30 | X-H torsion
[ 10763 10752 10751 10750 ] final -161.50 input  -60.55 | X-H torsion
[ 11005 11000 10999 10996 ] final  -59.68 input  -57.11 | X-H torsion

> <Gold.Protein.ActiveResidues>
 VAL166  LYS551  ARG553  GLY616  TRP617  ASP618  TYR619  PRO620  LYS621  CYS622 
 ASP623  PHE694  ASN695  SER759  ASP760  ASP761  ALA762  ILE779  LEU786  VAL792 
 PHE793  MET794  SER795  GLU796  ALA797  LYS798  CYS799  TRP800  GLU811  SER814 

> <Gold.Protein.RotatedAtoms>
  151.6553  135.0996  160.0168 H   0  0  0  0  0  0  0  0  0  0  0  0  # atno 6907 bound_to 6896
  152.3977  133.6768  159.6299 H   0  0  0  0  0  0  0  0  0  0  0  0  # atno 6908 bound_to 6896
  150.7882  133.8761  159.3313 H   0  0  0  0  0  0  0  0  0  0  0  0  # atno 6909 bound_to 6896
  145.3879  140.9525  143.2357 H   0  0  0  0  0  0  0  0  0  0  0  0  # atno 7974 bound_to 7965
  155.8369  140.3464  155.5607 H   0  0  0  0  0  0  0  0  0  0  0  0  # atno 8008 bound_to 7997
  155.8182  140.0909  157.1884 H   0  0  0  0  0  0  0  0  0  0  0  0  # atno 8009 bound_to 7997
  154.4004  140.1435  156.3455 H   0  0  0  0  0  0  0  0  0  0  0  0  # atno 8010 bound_to 7997
  140.7181  143.5433  150.9384 H   0  0  0  0  0  0  0  0  0  0  0  0  # atno 10167 bound_to 10162
  157.0437  130.6241  149.5755 H   0  0  0  0  0  0  0  0  0  0  0  0  # atno 10718 bound_to 10713
  154.7298  135.3044  154.8910 H   0  0  0  0  0  0  0  0  0  0  0  0  # atno 10763 bound_to 10752
  153.9756  135.6736  153.4752 H   0  0  0  0  0  0  0  0  0  0  0  0  # atno 10764 bound_to 10752
  153.0908  135.4960  154.8606 H   0  0  0  0  0  0  0  0  0  0  0  0  # atno 10765 bound_to 10752
  141.1258  133.6617  156.5109 H   0  0  0  0  0  0  0  0  0  0  0  0  # atno 11005 bound_to 11000
  144.8461  139.5395  143.6878 LP  0  0  0  0  0  0  0  0  0  0  0  0  # atno 17320 bound_to 7965
  146.2811  139.6880  142.9228 LP  0  0  0  0  0  0  0  0  0  0  0  0  # atno 17321 bound_to 7965
  139.9156  143.6668  152.3107 LP  0  0  0  0  0  0  0  0  0  0  0  0  # atno 17342 bound_to 10162
  139.7066  144.7627  151.1182 LP  0  0  0  0  0  0  0  0  0  0  0  0  # atno 17343 bound_to 10162
  156.0030  130.5112  150.7730 LP  0  0  0  0  0  0  0  0  0  0  0  0  # atno 17370 bound_to 10713
  157.5085  131.0924  151.0228 LP  0  0  0  0  0  0  0  0  0  0  0  0  # atno 17371 bound_to 10713
  140.4370  134.7050  157.4972 LP  0  0  0  0  0  0  0  0  0  0  0  0  # atno 17394 bound_to 11000
  140.0255  134.6484  155.9179 LP  0  0  0  0  0  0  0  0  0  0  0  0  # atno 17395 bound_to 11000

$$$$
