AV-unprocessed.smi:1815|AV-procd|sdf|7355|dock1
  -GOLD-   22720 9 13D 1   1.00000     0.00000
 Structure written by MMmdl.
 40 41  0  0  0  0  0  0  0  0  2 V2000
  148.6314  140.5337  154.3358 C   0  0  0  0  0  0  0  0  0  0  0  0
  149.2938  139.1693  154.1159 C   0  0  2  0  0  0  0  0  0  0  0  0
  148.6905  138.0785  155.0205 C   0  0  0  0  0  0  0  0  0  0  0  0
  149.4043  136.7927  154.8354 N   0  3  2  0  0  0  0  0  0  0  0  0
  148.8119  135.6984  155.6442 C   0  0  0  0  0  0  0  0  0  0  0  0
  148.8601  134.3382  154.9215 C   0  0  0  0  0  0  0  0  0  0  0  0
  148.2807  134.4202  153.5855 N   0  0  0  0  0  0  0  0  0  0  0  0
  147.1952  133.7450  153.1805 C   0  0  0  0  0  0  0  0  0  0  0  0
  146.5728  132.9696  153.9071 O   0  0  0  0  0  0  0  0  0  0  0  0
  146.8931  134.0256  151.9009 N   0  0  0  0  0  0  0  0  0  0  0  0
  145.8311  133.5040  151.1162 C   0  0  0  0  0  0  0  0  0  0  0  0
  145.9989  132.7279  150.0391 N   0  0  0  0  0  0  0  0  0  0  0  0
  144.7802  132.3622  149.4615 C   0  0  0  0  0  0  0  0  0  0  0  0
  143.6873  132.8733  150.1160 C   0  0  0  0  0  0  0  0  0  0  0  0
  144.1473  133.8385  151.4929 S   0  0  0  0  0  0  0  0  0  0  0  0
  150.8603  136.9756  155.0541 C   0  0  0  0  0  0  0  0  0  0  0  0
  151.4053  138.0975  154.1497 C   0  0  2  0  0  0  0  0  0  0  0  0
  152.8916  138.3731  154.4028 C   0  0  0  0  0  0  0  0  0  0  0  0
  150.6815  139.2960  154.4059 O   0  0  0  0  0  0  0  0  0  0  0  0
  147.5651  140.4933  154.1121 H   0  0  0  0  0  0  0  0  0  0  0  0
  149.0769  141.2914  153.6908 H   0  0  0  0  0  0  0  0  0  0  0  0
  148.7448  140.8667  155.3680 H   0  0  0  0  0  0  0  0  0  0  0  0
  149.1697  138.8893  153.0682 H   0  0  0  0  0  0  0  0  0  0  0  0
  148.7498  138.3793  156.0680 H   0  0  0  0  0  0  0  0  0  0  0  0
  147.6336  137.9502  154.7829 H   0  0  0  0  0  0  0  0  0  0  0  0
  149.3110  135.6404  156.6127 H   0  0  0  0  0  0  0  0  0  0  0  0
  147.7691  135.9446  155.8500 H   0  0  0  0  0  0  0  0  0  0  0  0
  149.8869  133.9733  154.8597 H   0  0  0  0  0  0  0  0  0  0  0  0
  148.2953  133.5865  155.4716 H   0  0  0  0  0  0  0  0  0  0  0  0
  148.7329  135.0380  152.9270 H   0  0  0  0  0  0  0  0  0  0  0  0
  147.4933  134.6867  151.4306 H   0  0  0  0  0  0  0  0  0  0  0  0
  144.7833  131.7338  148.5832 H   0  0  0  0  0  0  0  0  0  0  0  0
  142.6436  132.7406  149.8725 H   0  0  0  0  0  0  0  0  0  0  0  0
  151.0435  137.2150  156.1031 H   0  0  0  0  0  0  0  0  0  0  0  0
  151.3953  136.0513  154.8389 H   0  0  0  0  0  0  0  0  0  0  0  0
  151.2789  137.8190  153.1019 H   0  0  0  0  0  0  0  0  0  0  0  0
  153.4939  137.4844  154.2128 H   0  0  0  0  0  0  0  0  0  0  0  0
  153.0665  138.6820  155.4338 H   0  0  0  0  0  0  0  0  0  0  0  0
  153.2569  139.1671  153.7511 H   0  0  0  0  0  0  0  0  0  0  0  0
  149.2785  136.5365  153.8664 H   0  0  0  0  0  0  0  0  0  0  0  0
  1  2  1  0  0  0  0
  1 20  1  0  0  0  0
  1 21  1  0  0  0  0
  1 22  1  0  0  0  0
  2 19  1  0  0  0  0
  2  3  1  0  0  0  0
  2 23  1  0  0  0  0
  3  4  1  0  0  0  0
  3 24  1  0  0  0  0
  3 25  1  0  0  0  0
  4  5  1  0  0  0  0
  4 16  1  0  0  0  0
  4 40  1  0  0  0  0
  5  6  1  0  0  0  0
  5 26  1  0  0  0  0
  5 27  1  0  0  0  0
  6  7  1  0  0  0  0
  6 28  1  0  0  0  0
  6 29  1  0  0  0  0
  7  8  1  0  0  0  0
  7 30  1  0  0  0  0
  8  9  2  0  0  0  0
  8 10  1  0  0  0  0
 10 11  1  0  0  0  0
 10 31  1  0  0  0  0
 11 15  1  0  0  0  0
 11 12  2  0  0  0  0
 12 13  1  0  0  0  0
 13 14  2  0  0  0  0
 13 32  1  0  0  0  0
 14 15  1  0  0  0  0
 14 33  1  0  0  0  0
 16 17  1  0  0  0  0
 16 34  1  0  0  0  0
 16 35  1  0  0  0  0
 17 18  1  0  0  0  0
 17 19  1  0  0  0  0
 17 36  1  0  0  0  0
 18 37  1  0  0  0  0
 18 38  1  0  0  0  0
 18 39  1  0  0  0  0
M  CHG  1   4   1
M  END
> <s_m_source_file>
AV-unprocessed.smi

> <i_m_source_file_index>
1815

> <i_lp_mmshare_version>
43012

> <i_f3d_flags>
0

> <s_epik_input>
W0NIM11bQ0BASF0xW0NIMl1OKFtDSDJdW0NASF0oTzEpW0NIM10pW0NIMl1bQ0gyXVtOSF1DKD1PKVtOSF1jMm5bY0hdW2NIXXMy

> <s_epik_cmdline>
J2VwaWtfcHl0aG9uJywgJy1waCcsICc3LjAnLCAnLXRuJywgJzgnLCAnLW1hJywgJzIwMCcsICctbWV0YWxfYmluZGluZycsICctaW1hZScsICc8aW5maWxlLm1hZT4nLCAnLW9tYWUnLCAnPG91dGZpbGUubWFlPic=

> <r_lp_tautomer_probability>
0.999

> <r_epik_Ionization_Penalty>
0.695838

> <r_epik_Ionization_Penalty_Charging>
0.695697

> <r_epik_Ionization_Penalty_Neutral>
0.000141198

> <r_epik_State_Penalty>
0.717972

> <r_epik_Charging_Adjusted_Penalty>
1.41367

> <i_epik_Tot_Q>
1

> <i_epik_Tot_abs_Q>
1

> <r_epik_Metal_State_Penalty>
0.756405

> <b_epik_Metal_Only>
0

> <s_lp_Force_Field>
OPLS_2005

> <r_lp_Energy>
12.0644

> <b_lp_Chiralities_Consistent>
1

> <s_lp_Variant>
AV-unprocessed.smi:1815-6

> <Gold.Version>
5.8.1

> <Gold.Id.Protein>
6NUR|6NUR_protein|mol2

> <Gold.PLP.Fitness>
46.6190

> <Gold.PLP.PLP>
-31.7897

> <Gold.PLP.part.hbond>
-3.9735

> <Gold.PLP.part.metal>
0.0000

> <Gold.PLP.part.buried>
-3.2777

> <Gold.PLP.part.nonpolar>
-24.5928

> <Gold.PLP.part.repulsive>
0.4693

> <Gold.PLP.ligand.clash>
0.0000

> <Gold.PLP.ligand.torsion>
1.0651

> <Gold.PLP.Chemscore.Hbond>
4.6848

> <Gold.PLP.Chemscore.CHOScore>
0.9568

> <Gold.PLP.Chemscore.Metal>
0.0000

> <Gold.Chemscore.Hbonds>
donor molecule, donor type, donor heavy atom, donor atom, acceptor molecule, acceptor atom, score
      L1  H     4    40       P1  7948  1.98
      L1  H     7    30       P1  7948  1.00
      L1  H    10    31       P1  7948  0.69
      P1  H  7989  7998       L1    19  0.96
      L1  C    14    33       P1 10186  0.96

> <Gold.PLP.Chemscore.Internal.Correction>
0.0347

> <Gold.Rescore>
     Score         DG    S(hbond)    S(metal)    S(lipo)     H(rot)  DE(clash)    DE(int)     intcor
     18.16     -20.67       3.06        0.00      78.44       1.64       1.12       1.39       ----

> <Gold.Chemscore.Fitness>
18.1646

> <Gold.Chemscore.DG>
-20.6732

> <Gold.Chemscore.ZeroCoef>
-5.4800

> <Gold.Chemscore.Hbond>
3.0571

> <Gold.Chemscore.Metal>
0.0000

> <Gold.Chemscore.Lipo>
78.4364

> <Gold.Chemscore.Internal_Hbond>
0.0000

> <Gold.Chemscore.DEClash>
1.1199

> <Gold.Chemscore.DEInternal>
1.3887

> <Gold.Chemscore.Rot>
1.6385

> <Gold.Chemscore.Internal.Correction>
   9.000000E+99

> <Gold.Chemscore.Hbonds>
donor molecule, donor type, donor heavy atom, donor atom, acceptor molecule, acceptor atom, score
      L1  H     4    40       P1  7948  0.87
      L1  H     7    30       P1  7948  0.34
      L1  H    10    31       P1  7948  0.20
      P1  H  7989  7998       L1    19  0.58

> <Gold.Chemscore.Hbond.Weighted>
-10.2106

> <Gold.Chemscore.Metal.Weighted>
-0.0000

> <Gold.Chemscore.Lipo.Weighted>
-9.1771

> <Gold.Chemscore.Internal_Hbond.Weighted>
0.0000

> <Gold.Chemscore.DEClash.Weighted>
1.1199

> <Gold.Chemscore.DEInternal.Weighted>
1.3887

> <Gold.Chemscore.Rot.Weighted>
4.1945

> <Gold.Chemscore.Internal.Correction.Weighted>
   9.000000E+99

> <Gold.Protein.RotatedTorsions>
[ 6907 6896 6895 6894 ] final  157.20 input  -60.11 | X-H torsion
[ 7974 7965 7964 7962 ] final -124.57 input  175.53 | X-H torsion
[ 8008 7997 7996 7995 ] final  132.06 input   59.86 | X-H torsion
[ 10167 10162 10161 10158 ] final  152.55 input  -65.29 | X-H torsion
[ 10718 10713 10712 10709 ] final   39.39 input   66.30 | X-H torsion
[ 10763 10752 10751 10750 ] final  -56.05 input  -60.55 | X-H torsion
[ 11005 11000 10999 10996 ] final   55.11 input  -57.11 | X-H torsion

> <Gold.Protein.ActiveResidues>
 VAL166  LYS551  ARG553  GLY616  TRP617  ASP618  TYR619  PRO620  LYS621  CYS622 
 ASP623  PHE694  ASN695  SER759  ASP760  ASP761  ALA762  ILE779  LEU786  VAL792 
 PHE793  MET794  SER795  GLU796  ALA797  LYS798  CYS799  TRP800  GLU811  SER814 

> <Gold.Protein.RotatedAtoms>
  152.0185  133.3889  159.4248 H   0  0  0  0  0  0  0  0  0  0  0  0  # atno 6907 bound_to 6896
  150.6892  134.3652  159.4977 H   0  0  0  0  0  0  0  0  0  0  0  0  # atno 6908 bound_to 6896
  152.1422  134.9053  160.0604 H   0  0  0  0  0  0  0  0  0  0  0  0  # atno 6909 bound_to 6896
  145.0067  140.7869  143.4463 H   0  0  0  0  0  0  0  0  0  0  0  0  # atno 7974 bound_to 7965
  156.2978  140.2556  156.3028 H   0  0  0  0  0  0  0  0  0  0  0  0  # atno 8008 bound_to 7997
  154.9401  140.0396  157.2111 H   0  0  0  0  0  0  0  0  0  0  0  0  # atno 8009 bound_to 7997
  154.8134  140.2848  155.5841 H   0  0  0  0  0  0  0  0  0  0  0  0  # atno 8010 bound_to 7997
  139.4832  144.5348  151.7663 H   0  0  0  0  0  0  0  0  0  0  0  0  # atno 10167 bound_to 10162
  157.3699  130.7696  149.7111 H   0  0  0  0  0  0  0  0  0  0  0  0  # atno 10718 bound_to 10713
  154.2005  135.6412  153.5086 H   0  0  0  0  0  0  0  0  0  0  0  0  # atno 10763 bound_to 10752
  153.0013  135.5450  154.6320 H   0  0  0  0  0  0  0  0  0  0  0  0  # atno 10764 bound_to 10752
  154.5732  135.2918  155.0780 H   0  0  0  0  0  0  0  0  0  0  0  0  # atno 10765 bound_to 10752
  140.0633  134.5572  155.9127 H   0  0  0  0  0  0  0  0  0  0  0  0  # atno 11005 bound_to 11000
  145.2079  139.2219  143.5158 LP  0  0  0  0  0  0  0  0  0  0  0  0  # atno 17320 bound_to 7965
  146.3462  140.1910  142.8589 LP  0  0  0  0  0  0  0  0  0  0  0  0  # atno 17321 bound_to 7965
  140.4879  144.1353  150.5944 LP  0  0  0  0  0  0  0  0  0  0  0  0  # atno 17342 bound_to 10162
  140.4204  143.2614  151.9722 LP  0  0  0  0  0  0  0  0  0  0  0  0  # atno 17343 bound_to 10162
  155.9753  130.4090  150.3856 LP  0  0  0  0  0  0  0  0  0  0  0  0  # atno 17370 bound_to 10713
  157.1945  131.0423  151.2683 LP  0  0  0  0  0  0  0  0  0  0  0  0  # atno 17371 bound_to 10713
  141.1982  133.6600  156.5781 LP  0  0  0  0  0  0  0  0  0  0  0  0  # atno 17394 bound_to 11000
  140.3737  134.7583  157.4615 LP  0  0  0  0  0  0  0  0  0  0  0  0  # atno 17395 bound_to 11000

$$$$
