#       Name:                AV-unprocessed.smi:661
#       Creating user name   scv26
#       Creation time:       Fri Mar 27 00:18:59 2020


#       File generated by GOLD software.
#

@<TRIPOS>MOLECULE
AV-unprocessed.smi:661
    34    35     1
SMALL
NO_CHARGES


@<TRIPOS>ATOM
      1 ****        -3.9101   1.2369   0.0693 C.3            1 S1                 0.0000
      2 ****        -2.4840   1.1543  -0.1896 N.3            1 S1                 0.0000
      3 ****        -1.7749   0.9109   1.0557 C.3            1 S1                 0.0000
      4 ****        -0.3034   0.7284   0.8469 C.2            1 S1                 0.0000
      5 ****         0.5682   1.6982   1.1259 N.2            1 S1                 0.0000
      6 ****         1.7789   1.1248   0.7893 C.ar           1 S1                 0.0000
      7 ****         3.0914   1.6448   0.8543 C.ar           1 S1                 0.0000
      8 ****         4.1908   0.8610   0.4467 C.ar           1 S1                 0.0000
      9 ****         3.9941  -0.4508  -0.0311 C.ar           1 S1                 0.0000
     10 ****         2.6946  -0.9885  -0.1035 C.ar           1 S1                 0.0000
     11 ****         1.6009  -0.2023   0.3056 C.ar           1 S1                 0.0000
     12 ****         0.2283  -0.4217   0.3594 N.pl3          1 S1                 0.0000
     13 ****        -0.4567  -1.6417  -0.0409 C.3            1 S1                 0.0000
     14 ****        -0.7055  -1.6798  -1.5549 C.3            1 S1                 0.0000
     15 ****        -1.3519  -2.8852  -1.9003 O.3            1 S1                 0.0000
     16 ****        -4.4449   1.4293  -0.8609 H              1 S1                 0.0000
     17 ****        -4.1341   2.0475   0.7638 H              1 S1                 0.0000
     18 ****        -4.2844   0.3026   0.4894 H              1 S1                 0.0000
     19 ****        -2.1715   2.0331  -0.5775 H              1 S1                 0.0000
     20 ****        -1.9334   1.7547   1.7288 H              1 S1                 0.0000
     21 ****        -2.1782   0.0312   1.5579 H              1 S1                 0.0000
     22 ****         3.2527   2.6485   1.2184 H              1 S1                 0.0000
     23 ****         5.1895   1.2688   0.5005 H              1 S1                 0.0000
     24 ****         4.8417  -1.0440  -0.3421 H              1 S1                 0.0000
     25 ****         2.5395  -1.9925  -0.4699 H              1 S1                 0.0000
     26 ****         0.1566  -2.4919   0.2606 H              1 S1                 0.0000
     27 ****        -1.3953  -1.7349   0.5045 H              1 S1                 0.0000
     28 ****        -1.3275  -0.8415  -1.8688 H              1 S1                 0.0000
     29 ****         0.2347  -1.6123  -2.1032 H              1 S1                 0.0000
     30 ****        -1.5052  -2.8867  -2.8329 H              1 S1                 0.0000
     31 ****        -2.3020   0.4077  -0.8296 LP             1 S1                 0.0000
     32 ****         0.3897   2.6128   1.4885 LP             1 S1                 0.0000
     33 ****        -2.2238  -2.9516  -1.4151 LP             1 S1                 0.0000
     34 ****        -0.7726  -3.6617  -1.6525 LP             1 S1                 0.0000
@<TRIPOS>BOND
    1    1    2 1     
    2    1   16 1     
    3    1   17 1     
    4    1   18 1     
    5    2    3 1     
    6    2   19 1     
    7    3    4 1     
    8    3   20 1     
    9    3   21 1     
   10    4   12 1     
   11    4    5 2     
   12    5    6 1     
   13    6   11 ar    
   14    6    7 ar    
   15    7    8 ar    
   16    7   22 1     
   17    8    9 ar    
   18    8   23 1     
   19    9   10 ar    
   20    9   24 1     
   21   10   11 ar    
   22   10   25 1     
   23   11   12 1     
   24   12   13 1     
   25   13   14 1     
   26   13   26 1     
   27   13   27 1     
   28   14   15 1     
   29   14   28 1     
   30   14   29 1     
   31   15   30 1     
   32    2   31 1     
   33    5   32 1     
   34   15   33 1     
   35   15   34 1     
@<TRIPOS>SUBSTRUCTURE
      1 S1             1
@<TRIPOS>SET
LONE_PAIRS      STATIC     ATOMS    <user>   **** ""
4 31 32 33 34
DONOR_HYDROGENS      STATIC     ATOMS    <user>   **** ""
2 19 30
ATOM$BLUE        STATIC     ATOMS    COLORGROUP SYSTEM
4 31 32 33 34
ATOM$RED        STATIC     ATOMS    COLORGROUP SYSTEM
2 19 30
