AV-unprocessed.smi:794|AV-procd|sdf|3763|dock7
  -GOLD-   22720 1193D 1   1.00000     0.00000
 Structure written by MMmdl.
 41 43  0  0  0  0  0  0  0  0  1 V2000
  149.5008  141.6937  154.8203 C   0  0  0  0  0  0  0  0  0  0  0  0
  148.3844  140.9074  154.2044 C   0  0  0  0  0  0  0  0  0  0  0  0
  148.5563  139.5413  153.9621 N   0  0  0  0  0  0  0  0  0  0  0  0
  147.4719  138.9846  153.4132 C   0  0  0  0  0  0  0  0  0  0  0  0
  147.3631  137.6124  153.0675 N   0  0  0  0  0  0  0  0  0  0  0  0
  146.2593  136.8454  153.0460 C   0  0  0  0  0  0  0  0  0  0  0  0
  145.1268  137.2165  153.3560 O   0  0  0  0  0  0  0  0  0  0  0  0
  146.5443  135.6011  152.6383 N   0  0  0  0  0  0  0  0  0  0  0  0
  145.5720  134.5204  152.4987 C   0  0  1  0  0  0  0  0  0  0  0  0
  144.2761  135.0400  151.8383 C   0  0  2  0  0  0  0  0  0  0  0  0
  143.1551  134.0127  152.0769 C   0  0  0  0  0  0  0  0  0  0  0  0
  143.5567  132.8592  151.1381 C   0  0  0  0  0  0  0  0  0  0  0  0
  144.8652  133.3717  150.4977 C   0  0  1  0  0  0  0  0  0  0  0  0
  144.5517  134.8549  150.3484 C   0  0  0  0  0  0  0  0  0  0  0  0
  146.0350  133.4177  151.5127 C   0  0  2  0  0  0  0  0  0  0  0  0
  146.4030  132.0828  152.1892 C   0  0  0  0  0  0  0  0  0  0  0  0
  146.5987  131.0770  151.2180 O   0  0  0  0  0  0  0  0  0  0  0  0
  146.1546  140.1144  153.1532 S   0  0  0  0  0  0  0  0  0  0  0  0
  147.1465  141.3803  153.8337 C   0  0  0  0  0  0  0  0  0  0  0  0
  146.6283  142.7746  153.9553 C   0  0  0  0  0  0  0  0  0  0  0  0
  149.6388  142.6478  154.3115 H   0  0  0  0  0  0  0  0  0  0  0  0
  150.4484  141.1565  154.7698 H   0  0  0  0  0  0  0  0  0  0  0  0
  149.2966  141.9053  155.8700 H   0  0  0  0  0  0  0  0  0  0  0  0
  148.2248  137.1664  152.7900 H   0  0  0  0  0  0  0  0  0  0  0  0
  147.5021  135.3820  152.4063 H   0  0  0  0  0  0  0  0  0  0  0  0
  145.3494  134.1124  153.4868 H   0  0  0  0  0  0  0  0  0  0  0  0
  144.0002  136.0525  152.1355 H   0  0  0  0  0  0  0  0  0  0  0  0
  143.0892  133.6994  153.1194 H   0  0  0  0  0  0  0  0  0  0  0  0
  142.1854  134.4209  151.7896 H   0  0  0  0  0  0  0  0  0  0  0  0
  143.6704  131.9092  151.6583 H   0  0  0  0  0  0  0  0  0  0  0  0
  142.7925  132.7158  150.3732 H   0  0  0  0  0  0  0  0  0  0  0  0
  145.1193  132.8678  149.5647 H   0  0  0  0  0  0  0  0  0  0  0  0
  143.6821  135.0537  149.7193 H   0  0  0  0  0  0  0  0  0  0  0  0
  145.3955  135.4436  149.9849 H   0  0  0  0  0  0  0  0  0  0  0  0
  146.9197  133.7665  150.9755 H   0  0  0  0  0  0  0  0  0  0  0  0
  147.3290  132.1958  152.7534 H   0  0  0  0  0  0  0  0  0  0  0  0
  145.6440  131.7618  152.9015 H   0  0  0  0  0  0  0  0  0  0  0  0
  147.5238  130.8932  151.1583 H   0  0  0  0  0  0  0  0  0  0  0  0
  146.8721  143.1958  154.9307 H   0  0  0  0  0  0  0  0  0  0  0  0
  145.5444  142.8040  153.8406 H   0  0  0  0  0  0  0  0  0  0  0  0
  147.0658  143.4166  153.1905 H   0  0  0  0  0  0  0  0  0  0  0  0
  1  2  1  0  0  0  0
  1 21  1  0  0  0  0
  1 22  1  0  0  0  0
  1 23  1  0  0  0  0
  2 19  2  0  0  0  0
  2  3  1  0  0  0  0
  3  4  2  0  0  0  0
  4  5  1  0  0  0  0
  4 18  1  0  0  0  0
  5  6  1  0  0  0  0
  5 24  1  0  0  0  0
  6  7  2  0  0  0  0
  6  8  1  0  0  0  0
  8  9  1  0  0  0  0
  8 25  1  0  0  0  0
  9 15  1  0  0  0  0
  9 10  1  0  0  0  0
  9 26  1  0  0  0  0
 10 14  1  0  0  0  0
 10 11  1  0  0  0  0
 10 27  1  0  0  0  0
 11 12  1  0  0  0  0
 11 28  1  0  0  0  0
 11 29  1  0  0  0  0
 12 13  1  0  0  0  0
 12 30  1  0  0  0  0
 12 31  1  0  0  0  0
 13 14  1  0  0  0  0
 13 15  1  0  0  0  0
 13 32  1  0  0  0  0
 14 33  1  0  0  0  0
 14 34  1  0  0  0  0
 15 16  1  0  0  0  0
 15 35  1  0  0  0  0
 16 17  1  0  0  0  0
 16 36  1  0  0  0  0
 16 37  1  0  0  0  0
 17 38  1  0  0  0  0
 18 19  1  0  0  0  0
 19 20  1  0  0  0  0
 20 39  1  0  0  0  0
 20 40  1  0  0  0  0
 20 41  1  0  0  0  0
M  END
> <s_m_source_file>
AV-unprocessed.smi

> <i_m_source_file_index>
794

> <i_lp_mmshare_version>
43012

> <i_f3d_flags>
0

> <s_epik_input>
W0NIM11jMW5jKHNjMVtDSDNdKVtOSF1DKD1PKVtOSF1bQ0BIXShbQ0BASF0yMylbQ0BIXShbQ0gyXVtPSF0pW0NAQEhdKFtDSDJdMylbQ0gyXVtDSDJdMg==

> <s_epik_cmdline>
J2VwaWtfcHl0aG9uJywgJy1waCcsICc3LjAnLCAnLXRuJywgJzgnLCAnLW1hJywgJzIwMCcsICctbWV0YWxfYmluZGluZycsICctaW1hZScsICc8aW5maWxlLm1hZT4nLCAnLW9tYWUnLCAnPG91dGZpbGUubWFlPic=

> <r_lp_tautomer_probability>
0.999

> <r_epik_Ionization_Penalty>
0.000713029

> <r_epik_Ionization_Penalty_Charging>
0

> <r_epik_Ionization_Penalty_Neutral>
0.000713029

> <r_epik_State_Penalty>
0.000177984

> <r_epik_Charging_Adjusted_Penalty>
0.000177984

> <i_epik_Tot_Q>
0

> <i_epik_Tot_abs_Q>
0

> <r_epik_Metal_State_Penalty>
-0

> <b_epik_Metal_Only>
0

> <s_lp_Force_Field>
OPLS_2005

> <r_lp_Energy>
46.861

> <b_lp_Chiralities_Consistent>
1

> <s_lp_Variant>
AV-unprocessed.smi:794-8

> <Gold.Version>
5.8.1

> <Gold.Id.Protein>
6NUR|6NUR_protein|mol2

> <Gold.PLP.Fitness>
38.7063

> <Gold.PLP.PLP>
-31.5113

> <Gold.PLP.part.hbond>
-2.7040

> <Gold.PLP.part.metal>
0.0000

> <Gold.PLP.part.buried>
-0.2710

> <Gold.PLP.part.nonpolar>
-30.1126

> <Gold.PLP.part.repulsive>
0.3499

> <Gold.PLP.ligand.clash>
0.0000

> <Gold.PLP.ligand.torsion>
0.5034

> <Gold.PLP.Chemscore.Hbond>
2.7280

> <Gold.PLP.Chemscore.CHOScore>
0.0000

> <Gold.PLP.Chemscore.Metal>
0.0000

> <Gold.Chemscore.Hbonds>
donor molecule, donor type, donor heavy atom, donor atom, acceptor molecule, acceptor atom, score
      L1  H     5    24       P1  7948  0.92
      L1  H     8    25       P1  7948  0.78
      L1  H    17    38       P1 10747  1.00

> <Gold.PLP.Chemscore.Internal.Correction>
0.0178

> <Gold.Rescore>
     Score         DG    S(hbond)    S(metal)    S(lipo)     H(rot)  DE(clash)    DE(int)     intcor
     15.81     -19.24       2.67        0.00      80.29       1.78       1.57       1.87       ----

> <Gold.Chemscore.Fitness>
15.8069

> <Gold.Chemscore.DG>
-19.2379

> <Gold.Chemscore.ZeroCoef>
-5.4800

> <Gold.Chemscore.Hbond>
2.6706

> <Gold.Chemscore.Metal>
0.0000

> <Gold.Chemscore.Lipo>
80.2932

> <Gold.Chemscore.Internal_Hbond>
0.0000

> <Gold.Chemscore.DEClash>
1.5657

> <Gold.Chemscore.DEInternal>
1.8654

> <Gold.Chemscore.Rot>
1.7798

> <Gold.Chemscore.Internal.Correction>
   9.000000E+99

> <Gold.Chemscore.Hbonds>
donor molecule, donor type, donor heavy atom, donor atom, acceptor molecule, acceptor atom, score
      L1  H     5    24       P1  7948  0.83
      L1  H     8    25       P1  7948  0.78
      L1  H    17    38       P1 10747  0.95

> <Gold.Chemscore.Hbond.Weighted>
-8.9199

> <Gold.Chemscore.Metal.Weighted>
-0.0000

> <Gold.Chemscore.Lipo.Weighted>
-9.3943

> <Gold.Chemscore.Internal_Hbond.Weighted>
0.0000

> <Gold.Chemscore.DEClash.Weighted>
1.5657

> <Gold.Chemscore.DEInternal.Weighted>
1.8654

> <Gold.Chemscore.Rot.Weighted>
4.5562

> <Gold.Chemscore.Internal.Correction.Weighted>
   9.000000E+99

> <Gold.Protein.RotatedTorsions>
[ 6907 6896 6895 6894 ] final  -19.04 input  -60.11 | X-H torsion
[ 7974 7965 7964 7962 ] final  -15.53 input  175.53 | X-H torsion
[ 8008 7997 7996 7995 ] final   66.29 input   59.86 | X-H torsion
[ 10167 10162 10161 10158 ] final -140.26 input  -65.29 | X-H torsion
[ 10718 10713 10712 10709 ] final   79.52 input   66.30 | X-H torsion
[ 10763 10752 10751 10750 ] final  -28.41 input  -60.55 | X-H torsion
[ 11005 11000 10999 10996 ] final  -30.25 input  -57.11 | X-H torsion

> <Gold.Protein.ActiveResidues>
 VAL166  LYS551  ARG553  GLY616  TRP617  ASP618  TYR619  PRO620  LYS621  CYS622 
 ASP623  PHE694  ASN695  SER759  ASP760  ASP761  ALA762  ILE779  LEU786  VAL792 
 PHE793  MET794  SER795  GLU796  ALA797  LYS798  CYS799  TRP800  GLU811  SER814 

> <Gold.Protein.RotatedAtoms>
  151.2691  135.0678  159.9126 H   0  0  0  0  0  0  0  0  0  0  0  0  # atno 6907 bound_to 6896
  152.5353  134.0150  159.7966 H   0  0  0  0  0  0  0  0  0  0  0  0  # atno 6908 bound_to 6896
  151.0385  133.5677  159.2684 H   0  0  0  0  0  0  0  0  0  0  0  0  # atno 6909 bound_to 6896
  146.2028  140.3506  142.8417 H   0  0  0  0  0  0  0  0  0  0  0  0  # atno 7974 bound_to 7965
  155.6750  140.3497  155.4833 H   0  0  0  0  0  0  0  0  0  0  0  0  # atno 8008 bound_to 7997
  155.9655  140.1145  157.0881 H   0  0  0  0  0  0  0  0  0  0  0  0  # atno 8009 bound_to 7997
  154.4153  140.1167  156.5223 H   0  0  0  0  0  0  0  0  0  0  0  0  # atno 8010 bound_to 7997
  139.8299  143.7461  152.2666 H   0  0  0  0  0  0  0  0  0  0  0  0  # atno 10167 bound_to 10162
  157.6779  130.9918  150.1944 H   0  0  0  0  0  0  0  0  0  0  0  0  # atno 10718 bound_to 10713
  153.7479  135.6928  153.4952 H   0  0  0  0  0  0  0  0  0  0  0  0  # atno 10763 bound_to 10752
  153.2024  135.4432  155.0281 H   0  0  0  0  0  0  0  0  0  0  0  0  # atno 10764 bound_to 10752
  154.8198  135.3416  154.7001 H   0  0  0  0  0  0  0  0  0  0  0  0  # atno 10765 bound_to 10752
  140.9366  133.7304  156.1014 H   0  0  0  0  0  0  0  0  0  0  0  0  # atno 11005 bound_to 11000
  144.8722  140.7287  143.6040 LP  0  0  0  0  0  0  0  0  0  0  0  0  # atno 17320 bound_to 7965
  145.3426  139.1728  143.4478 LP  0  0  0  0  0  0  0  0  0  0  0  0  # atno 17321 bound_to 7965
  139.7665  144.7490  151.0287 LP  0  0  0  0  0  0  0  0  0  0  0  0  # atno 17342 bound_to 10162
  140.7807  143.4692  151.0169 LP  0  0  0  0  0  0  0  0  0  0  0  0  # atno 17343 bound_to 10162
  156.2648  130.3715  149.8092 LP  0  0  0  0  0  0  0  0  0  0  0  0  # atno 17370 bound_to 10713
  156.5827  130.8472  151.3387 LP  0  0  0  0  0  0  0  0  0  0  0  0  # atno 17371 bound_to 10713
  140.7790  134.3747  157.5491 LP  0  0  0  0  0  0  0  0  0  0  0  0  # atno 17394 bound_to 11000
  139.8809  134.9070  156.2935 LP  0  0  0  0  0  0  0  0  0  0  0  0  # atno 17395 bound_to 11000

$$$$
