AV-unprocessed.smi:643|AV-procd|sdf|3154|dock1
  -GOLD-   22720 0 73D 1   1.00000     0.00000
 Structure written by MMmdl.
 40 41  0  0  0  0  0  0  0  0  1 V2000
  143.2853  134.8807  152.7192 C   0  0  0  0  0  0  0  0  0  0  0  0
  144.8069  135.1219  152.8245 C   0  0  0  0  0  0  0  0  0  0  0  0
  145.1700  135.2750  154.3178 C   0  0  0  0  0  0  0  0  0  0  0  0
  145.5672  133.9535  152.1766 C   0  0  0  0  0  0  0  0  0  0  0  0
  145.5589  134.2311  150.6706 C   0  0  0  0  0  0  0  0  0  0  0  0
  145.3915  135.7491  150.5167 C   0  0  0  0  0  0  0  0  0  0  0  0
  145.2122  136.3260  151.9336 C   0  0  2  0  0  0  0  0  0  0  0  0
  146.4675  136.9495  152.3591 N   0  0  0  0  0  0  0  0  0  0  0  0
  146.5829  138.1055  153.0296 C   0  0  0  0  0  0  0  0  0  0  0  0
  145.6227  138.7953  153.3738 O   0  0  0  0  0  0  0  0  0  0  0  0
  147.8717  138.3955  153.2767 N   0  0  0  0  0  0  0  0  0  0  0  0
  148.3898  139.5338  153.9453 C   0  0  0  0  0  0  0  0  0  0  0  0
  147.7664  140.8041  153.8036 C   0  0  0  0  0  0  0  0  0  0  0  0
  148.5358  141.6203  154.5835 C   0  0  0  0  0  0  0  0  0  0  0  0
  149.5356  140.8448  155.1353 N   0  0  0  0  0  0  0  0  0  0  0  0
  150.6011  141.2498  156.0315 C   0  0  0  0  0  0  0  0  0  0  0  0
  151.3093  140.0431  156.6635 C   0  0  0  0  0  0  0  0  0  0  0  0
  152.1080  139.4650  155.7674 F   0  0  0  0  0  0  0  0  0  0  0  0
  152.0359  140.4221  157.7151 F   0  0  0  0  0  0  0  0  0  0  0  0
  149.4518  139.5568  154.7386 N   0  0  0  0  0  0  0  0  0  0  0  0
  142.9864  133.9876  153.2689 H   0  0  0  0  0  0  0  0  0  0  0  0
  142.9594  134.7505  151.6870 H   0  0  0  0  0  0  0  0  0  0  0  0
  142.7255  135.7204  153.1325 H   0  0  0  0  0  0  0  0  0  0  0  0
  146.2451  135.3647  154.4757 H   0  0  0  0  0  0  0  0  0  0  0  0
  144.8374  134.4098  154.8920 H   0  0  0  0  0  0  0  0  0  0  0  0
  144.6970  136.1581  154.7489 H   0  0  0  0  0  0  0  0  0  0  0  0
  146.6007  133.9471  152.5259 H   0  0  0  0  0  0  0  0  0  0  0  0
  145.1413  132.9798  152.4215 H   0  0  0  0  0  0  0  0  0  0  0  0
  146.4698  133.8698  150.1925 H   0  0  0  0  0  0  0  0  0  0  0  0
  144.7195  133.7180  150.1997 H   0  0  0  0  0  0  0  0  0  0  0  0
  146.2364  136.1956  149.9904 H   0  0  0  0  0  0  0  0  0  0  0  0
  144.5054  135.9567  149.9155 H   0  0  0  0  0  0  0  0  0  0  0  0
  144.4204  137.0774  151.9205 H   0  0  0  0  0  0  0  0  0  0  0  0
  147.3151  136.4535  152.1261 H   0  0  0  0  0  0  0  0  0  0  0  0
  148.5572  137.7324  152.9465 H   0  0  0  0  0  0  0  0  0  0  0  0
  146.8955  141.0746  153.2251 H   0  0  0  0  0  0  0  0  0  0  0  0
  148.4542  142.6770  154.7920 H   0  0  0  0  0  0  0  0  0  0  0  0
  151.3135  141.8525  155.4666 H   0  0  0  0  0  0  0  0  0  0  0  0
  150.1846  141.8946  156.8064 H   0  0  0  0  0  0  0  0  0  0  0  0
  150.6015  139.2862  157.0035 H   0  0  0  0  0  0  0  0  0  0  0  0
  1  2  1  0  0  0  0
  1 21  1  0  0  0  0
  1 22  1  0  0  0  0
  1 23  1  0  0  0  0
  2  7  1  0  0  0  0
  2  3  1  0  0  0  0
  2  4  1  0  0  0  0
  3 24  1  0  0  0  0
  3 25  1  0  0  0  0
  3 26  1  0  0  0  0
  4  5  1  0  0  0  0
  4 27  1  0  0  0  0
  4 28  1  0  0  0  0
  5  6  1  0  0  0  0
  5 29  1  0  0  0  0
  5 30  1  0  0  0  0
  6  7  1  0  0  0  0
  6 31  1  0  0  0  0
  6 32  1  0  0  0  0
  7  8  1  0  0  0  0
  7 33  1  0  0  0  0
  8  9  1  0  0  0  0
  8 34  1  0  0  0  0
  9 10  2  0  0  0  0
  9 11  1  0  0  0  0
 11 12  1  0  0  0  0
 11 35  1  0  0  0  0
 12 20  2  0  0  0  0
 12 13  1  0  0  0  0
 13 14  2  0  0  0  0
 13 36  1  0  0  0  0
 14 15  1  0  0  0  0
 14 37  1  0  0  0  0
 15 16  1  0  0  0  0
 15 20  1  0  0  0  0
 16 17  1  0  0  0  0
 16 38  1  0  0  0  0
 16 39  1  0  0  0  0
 17 18  1  0  0  0  0
 17 19  1  0  0  0  0
 17 40  1  0  0  0  0
M  END
> <s_m_source_file>
AV-unprocessed.smi

> <i_m_source_file_index>
643

> <i_lp_mmshare_version>
43012

> <i_f3d_flags>
0

> <s_epik_input>
W0NIM11DMShbQ0gzXSlbQ0gyXVtDSDJdW0NIMl1bQ0BIXTFbTkhdQyg9TylbTkhdYzJbY0hdW2NIXW4objIpW0NIMl1bQ0hdKEYpRg==

> <s_epik_cmdline>
J2VwaWtfcHl0aG9uJywgJy1waCcsICc3LjAnLCAnLXRuJywgJzgnLCAnLW1hJywgJzIwMCcsICctbWV0YWxfYmluZGluZycsICctaW1hZScsICc8aW5maWxlLm1hZT4nLCAnLW9tYWUnLCAnPG91dGZpbGUubWFlPic=

> <r_lp_tautomer_probability>
1

> <r_epik_Ionization_Penalty>
3.99908e-05

> <r_epik_Ionization_Penalty_Charging>
0

> <r_epik_Ionization_Penalty_Neutral>
3.99908e-05

> <r_epik_State_Penalty>
-0

> <r_epik_Charging_Adjusted_Penalty>
0

> <i_epik_Tot_Q>
0

> <i_epik_Tot_abs_Q>
0

> <r_epik_Metal_State_Penalty>
-0

> <b_epik_Metal_Only>
0

> <s_lp_Force_Field>
OPLS_2005

> <r_lp_Energy>
23.9752

> <b_lp_Chiralities_Consistent>
1

> <s_lp_Variant>
AV-unprocessed.smi:643-2

> <Gold.Version>
5.8.1

> <Gold.Id.Protein>
6NUR|6NUR_protein|mol2

> <Gold.PLP.Fitness>
40.0779

> <Gold.PLP.PLP>
-32.5991

> <Gold.PLP.part.hbond>
-2.5582

> <Gold.PLP.part.metal>
0.0000

> <Gold.PLP.part.buried>
-2.4750

> <Gold.PLP.part.nonpolar>
-30.3407

> <Gold.PLP.part.repulsive>
2.6996

> <Gold.PLP.ligand.clash>
0.0000

> <Gold.PLP.ligand.torsion>
0.7582

> <Gold.PLP.Chemscore.Hbond>
1.9920

> <Gold.PLP.Chemscore.CHOScore>
1.0000

> <Gold.PLP.Chemscore.Metal>
0.0000

> <Gold.Chemscore.Hbonds>
donor molecule, donor type, donor heavy atom, donor atom, acceptor molecule, acceptor atom, score
      L1  H     8    34       P1  7948  1.00
      L1  H    11    35       P1  7948  0.98
      L1  C    14    37       P1  8028  1.00

> <Gold.PLP.Chemscore.Internal.Correction>
0.0194

> <Gold.Rescore>
     Score         DG    S(hbond)    S(metal)    S(lipo)     H(rot)  DE(clash)    DE(int)     intcor
     10.86     -15.61       1.93        0.00      59.32       1.28       1.55       3.19       ----

> <Gold.Chemscore.Fitness>
10.8645

> <Gold.Chemscore.DG>
-15.6124

> <Gold.Chemscore.ZeroCoef>
-5.4800

> <Gold.Chemscore.Hbond>
1.9344

> <Gold.Chemscore.Metal>
0.0000

> <Gold.Chemscore.Lipo>
59.3244

> <Gold.Chemscore.Internal_Hbond>
0.0000

> <Gold.Chemscore.DEClash>
1.5531

> <Gold.Chemscore.DEInternal>
3.1949

> <Gold.Chemscore.Rot>
1.2771

> <Gold.Chemscore.Internal.Correction>
   9.000000E+99

> <Gold.Chemscore.Hbonds>
donor molecule, donor type, donor heavy atom, donor atom, acceptor molecule, acceptor atom, score
      L1  H     8    34       P1  7948  0.99
      L1  H    11    35       P1  7948  0.93

> <Gold.Chemscore.Hbond.Weighted>
-6.4609

> <Gold.Chemscore.Metal.Weighted>
-0.0000

> <Gold.Chemscore.Lipo.Weighted>
-6.9410

> <Gold.Chemscore.Internal_Hbond.Weighted>
0.0000

> <Gold.Chemscore.DEClash.Weighted>
1.5531

> <Gold.Chemscore.DEInternal.Weighted>
3.1949

> <Gold.Chemscore.Rot.Weighted>
3.2694

> <Gold.Chemscore.Internal.Correction.Weighted>
   9.000000E+99

> <Gold.Protein.RotatedTorsions>
[ 6907 6896 6895 6894 ] final -126.31 input  -60.11 | X-H torsion
[ 7974 7965 7964 7962 ] final -157.95 input  175.53 | X-H torsion
[ 8008 7997 7996 7995 ] final -169.89 input   59.86 | X-H torsion
[ 10167 10162 10161 10158 ] final   74.22 input  -65.29 | X-H torsion
[ 10718 10713 10712 10709 ] final   48.70 input   66.30 | X-H torsion
[ 10763 10752 10751 10750 ] final -165.45 input  -60.55 | X-H torsion
[ 11005 11000 10999 10996 ] final -115.53 input  -57.11 | X-H torsion

> <Gold.Protein.ActiveResidues>
 VAL166  LYS551  ARG553  GLY616  TRP617  ASP618  TYR619  PRO620  LYS621  CYS622 
 ASP623  PHE694  ASN695  SER759  ASP760  ASP761  ALA762  ILE779  LEU786  VAL792 
 PHE793  MET794  SER795  GLU796  ALA797  LYS798  CYS799  TRP800  GLU811  SER814 

> <Gold.Protein.RotatedAtoms>
  150.8956  133.7185  159.2892 H   0  0  0  0  0  0  0  0  0  0  0  0  # atno 6907 bound_to 6896
  151.4721  135.1045  159.9764 H   0  0  0  0  0  0  0  0  0  0  0  0  # atno 6908 bound_to 6896
  152.4846  133.8294  159.7150 H   0  0  0  0  0  0  0  0  0  0  0  0  # atno 6909 bound_to 6896
  144.7526  140.3896  143.6036 H   0  0  0  0  0  0  0  0  0  0  0  0  # atno 7974 bound_to 7965
  155.9111  140.1057  157.1279 H   0  0  0  0  0  0  0  0  0  0  0  0  # atno 8008 bound_to 7997
  154.4039  140.1274  156.4623 H   0  0  0  0  0  0  0  0  0  0  0  0  # atno 8009 bound_to 7997
  155.7309  140.3468  155.5061 H   0  0  0  0  0  0  0  0  0  0  0  0  # atno 8010 bound_to 7997
  140.0160  144.5577  150.7620 H   0  0  0  0  0  0  0  0  0  0  0  0  # atno 10167 bound_to 10162
  157.4713  130.8257  149.7991 H   0  0  0  0  0  0  0  0  0  0  0  0  # atno 10718 bound_to 10713
  154.6931  135.2974  154.9451 H   0  0  0  0  0  0  0  0  0  0  0  0  # atno 10763 bound_to 10752
  154.0408  135.6657  153.4794 H   0  0  0  0  0  0  0  0  0  0  0  0  # atno 10764 bound_to 10752
  153.0626  135.5106  154.8034 H   0  0  0  0  0  0  0  0  0  0  0  0  # atno 10765 bound_to 10752
  141.0482  133.9729  157.2882 H   0  0  0  0  0  0  0  0  0  0  0  0  # atno 11005 bound_to 11000
  145.6891  139.1635  143.2657 LP  0  0  0  0  0  0  0  0  0  0  0  0  # atno 17320 bound_to 7965
  146.1496  140.6944  142.9328 LP  0  0  0  0  0  0  0  0  0  0  0  0  # atno 17321 bound_to 7965
  140.7362  143.2750  151.3770 LP  0  0  0  0  0  0  0  0  0  0  0  0  # atno 17342 bound_to 10162
  139.6172  144.0979  152.2357 LP  0  0  0  0  0  0  0  0  0  0  0  0  # atno 17343 bound_to 10162
  156.0075  130.3848  150.2380 LP  0  0  0  0  0  0  0  0  0  0  0  0  # atno 17370 bound_to 10713
  157.0562  131.0077  151.3237 LP  0  0  0  0  0  0  0  0  0  0  0  0  # atno 17371 bound_to 10713
  139.9328  135.0199  156.8459 LP  0  0  0  0  0  0  0  0  0  0  0  0  # atno 17394 bound_to 11000
  140.6107  134.0085  155.7575 LP  0  0  0  0  0  0  0  0  0  0  0  0  # atno 17395 bound_to 11000

$$$$
