#       Name:                AV-unprocessed.smi:1891
#       Creating user name   scv26
#       Creation time:       Fri Mar 27 09:40:19 2020


#       File generated by GOLD software.
#

@<TRIPOS>MOLECULE
AV-unprocessed.smi:1891
    41    43     1
SMALL
NO_CHARGES


@<TRIPOS>ATOM
      1 ****        -1.3661   3.3312  -0.7312 O.3            1 S1                 0.0000
      2 ****        -0.3788   2.3438  -0.9495 C.3            1 S1                 0.0000
      3 ****        -0.9285   0.9574  -1.1339 C.2            1 S1                 0.0000
      4 ****        -2.2369   0.6964  -1.1874 N.2            1 S1                 0.0000
      5 ****        -2.2711  -0.6720  -1.3661 C.ar           1 S1                 0.0000
      6 ****        -3.3670  -1.5549  -1.4935 C.ar           1 S1                 0.0000
      7 ****        -3.1527  -2.9373  -1.6724 C.ar           1 S1                 0.0000
      8 ****        -1.8424  -3.4550  -1.7285 C.ar           1 S1                 0.0000
      9 ****        -0.7366  -2.5922  -1.6033 C.ar           1 S1                 0.0000
     10 ****        -0.9565  -1.2136  -1.4218 C.ar           1 S1                 0.0000
     11 ****        -0.1117  -0.1201  -1.2584 N.pl3          1 S1                 0.0000
     12 ****         1.3448  -0.1636  -1.2309 C.3            1 S1                 0.0000
     13 ****         1.8912  -0.7366   0.0932 C.3            1 S1                 0.0000
     14 ****         3.2838  -0.9336  -0.0509 O.3            1 S1                 0.0000
     15 ****         1.5462   0.1357   1.2955 C.ar           1 S1                 0.0000
     16 ****         2.3308   1.2694   1.6065 C.ar           1 S1                 0.0000
     17 ****         1.9979   2.0871   2.7034 C.ar           1 S1                 0.0000
     18 ****         0.8772   1.7788   3.4972 C.ar           1 S1                 0.0000
     19 ****         0.5562   2.5659   4.5512 F              1 S1                 0.0000
     20 ****         0.0896   0.6527   3.1931 C.ar           1 S1                 0.0000
     21 ****         0.4210  -0.1671   2.0969 C.ar           1 S1                 0.0000
     22 ****        -0.3549  -1.2410   1.8139 F              1 S1                 0.0000
     23 ****        -0.9378   4.1664  -0.6239 H              1 S1                 0.0000
     24 ****         0.1972   2.6184  -1.8333 H              1 S1                 0.0000
     25 ****         0.3007   2.3526  -0.0986 H              1 S1                 0.0000
     26 ****        -4.3742  -1.1677  -1.4525 H              1 S1                 0.0000
     27 ****        -3.9976  -3.6034  -1.7670 H              1 S1                 0.0000
     28 ****        -1.6869  -4.5151  -1.8663 H              1 S1                 0.0000
     29 ****         0.2682  -2.9858  -1.6431 H              1 S1                 0.0000
     30 ****         1.6676  -0.7887  -2.0649 H              1 S1                 0.0000
     31 ****         1.7538   0.8283  -1.4220 H              1 S1                 0.0000
     32 ****         1.4706  -1.7297   0.2528 H              1 S1                 0.0000
     33 ****         3.6884  -0.1005  -0.2374 H              1 S1                 0.0000
     34 ****         3.1875   1.5237   1.0001 H              1 S1                 0.0000
     35 ****         2.6009   2.9530   2.9339 H              1 S1                 0.0000
     36 ****        -0.7727   0.4184   3.7994 H              1 S1                 0.0000
     37 ****        -1.8865   3.1108   0.0938 LP             1 S1                 0.0000
     38 ****        -1.9851   3.3681  -1.5158 LP             1 S1                 0.0000
     39 ****        -3.0032   1.3348  -1.1157 LP             1 S1                 0.0000
     40 ****         3.4581  -1.5688  -0.8034 LP             1 S1                 0.0000
     41 ****         3.6603  -1.3089   0.7961 LP             1 S1                 0.0000
@<TRIPOS>BOND
    1    1    2 1     
    2    1   23 1     
    3    2    3 1     
    4    2   24 1     
    5    2   25 1     
    6    3   11 1     
    7    3    4 2     
    8    4    5 1     
    9    5   10 ar    
   10    5    6 ar    
   11    6    7 ar    
   12    6   26 1     
   13    7    8 ar    
   14    7   27 1     
   15    8    9 ar    
   16    8   28 1     
   17    9   10 ar    
   18    9   29 1     
   19   10   11 1     
   20   11   12 1     
   21   12   13 1     
   22   12   30 1     
   23   12   31 1     
   24   13   14 1     
   25   13   15 1     
   26   13   32 1     
   27   14   33 1     
   28   15   21 ar    
   29   15   16 ar    
   30   16   17 ar    
   31   16   34 1     
   32   17   18 ar    
   33   17   35 1     
   34   18   19 1     
   35   18   20 ar    
   36   20   21 ar    
   37   20   36 1     
   38   21   22 1     
   39    1   37 1     
   40    1   38 1     
   41    4   39 1     
   42   14   40 1     
   43   14   41 1     
@<TRIPOS>SUBSTRUCTURE
      1 S1             1
@<TRIPOS>SET
LONE_PAIRS      STATIC     ATOMS    <user>   **** ""
5 37 38 39 40 41
DONOR_HYDROGENS      STATIC     ATOMS    <user>   **** ""
2 23 33
ATOM$BLUE        STATIC     ATOMS    COLORGROUP SYSTEM
5 37 38 39 40 41
ATOM$RED        STATIC     ATOMS    COLORGROUP SYSTEM
2 23 33
