AV-unprocessed.smi:3337|AV-procd|sdf|12867|dock4
  -GOLD-   2272019263D 1   1.00000     0.00000
 Structure written by MMmdl.
 46 47  0  0  0  0  0  0  0  0  2 V2000
  144.5326  133.5835  149.9366 C   0  0  0  0  0  0  0  0  0  0  0  0
  145.5690  134.1400  150.9233 C   0  0  2  0  0  0  0  0  0  0  0  0
  145.8022  133.1737  152.0962 C   0  0  0  0  0  0  0  0  0  0  0  0
  146.8292  133.7562  153.0811 C   0  0  2  0  0  0  0  0  0  0  0  0
  147.0583  132.8152  154.2725 C   0  0  0  0  0  0  0  0  0  0  0  0
  146.3859  135.1564  153.5465 C   0  0  0  0  0  0  0  0  0  0  0  0
  146.1695  136.0718  152.3958 N   0  3  2  0  0  0  0  0  0  0  0  0
  145.8782  137.4587  152.8403 C   0  0  0  0  0  0  0  0  0  0  0  0
  146.4769  138.5253  151.9027 C   0  0  0  0  0  0  0  0  0  0  0  0
  147.5362  139.2772  152.5649 N   0  0  0  0  0  0  0  0  0  0  0  0
  147.4124  139.8993  153.7489 C   0  0  0  0  0  0  0  0  0  0  0  0
  146.3651  139.8941  154.3970 O   0  0  0  0  0  0  0  0  0  0  0  0
  148.6545  140.6492  154.2621 C   0  0  1  0  0  0  0  0  0  0  0  0
  148.3858  141.4500  155.5526 C   0  0  0  0  0  0  0  0  0  0  0  0
  149.7814  139.7370  154.4161 N   0  0  0  0  0  0  0  0  0  0  0  0
  149.8316  138.4078  154.3049 C   0  0  0  0  0  0  0  0  0  0  0  0
  151.0282  137.8918  154.5475 N   0  0  0  0  0  0  0  0  0  0  0  0
  151.7183  139.0374  154.8265 C   0  0  0  0  0  0  0  0  0  0  0  0
  151.0167  140.1694  154.7724 N   0  0  0  0  0  0  0  0  0  0  0  0
  145.1582  135.5292  151.4495 C   0  0  0  0  0  0  0  0  0  0  0  0
  143.5619  133.4483  150.4148 H   0  0  0  0  0  0  0  0  0  0  0  0
  144.8459  132.6165  149.5420 H   0  0  0  0  0  0  0  0  0  0  0  0
  144.3955  134.2551  149.0888 H   0  0  0  0  0  0  0  0  0  0  0  0
  146.5103  134.2487  150.3822 H   0  0  0  0  0  0  0  0  0  0  0  0
  144.8597  132.9839  152.6126 H   0  0  0  0  0  0  0  0  0  0  0  0
  146.1510  132.2104  151.7215 H   0  0  0  0  0  0  0  0  0  0  0  0
  147.7806  133.8600  152.5569 H   0  0  0  0  0  0  0  0  0  0  0  0
  146.1406  132.6646  154.8420 H   0  0  0  0  0  0  0  0  0  0  0  0
  147.8096  133.2169  154.9527 H   0  0  0  0  0  0  0  0  0  0  0  0
  147.4065  131.8372  153.9392 H   0  0  0  0  0  0  0  0  0  0  0  0
  145.4682  135.0892  154.1335 H   0  0  0  0  0  0  0  0  0  0  0  0
  147.1517  135.5727  154.2027 H   0  0  0  0  0  0  0  0  0  0  0  0
  144.8004  137.5950  152.9435 H   0  0  0  0  0  0  0  0  0  0  0  0
  146.3019  137.6032  153.8351 H   0  0  0  0  0  0  0  0  0  0  0  0
  146.8581  138.0644  150.9897 H   0  0  0  0  0  0  0  0  0  0  0  0
  145.7189  139.2445  151.5947 H   0  0  0  0  0  0  0  0  0  0  0  0
  148.4293  139.3224  152.0956 H   0  0  0  0  0  0  0  0  0  0  0  0
  148.9288  141.3685  153.4888 H   0  0  0  0  0  0  0  0  0  0  0  0
  147.5849  142.1760  155.4077 H   0  0  0  0  0  0  0  0  0  0  0  0
  149.2742  142.0034  155.8576 H   0  0  0  0  0  0  0  0  0  0  0  0
  148.1000  140.8032  156.3831 H   0  0  0  0  0  0  0  0  0  0  0  0
  148.9743  137.8045  154.0442 H   0  0  0  0  0  0  0  0  0  0  0  0
  152.7677  139.0360  155.0825 H   0  0  0  0  0  0  0  0  0  0  0  0
  145.0399  136.2017  150.6010 H   0  0  0  0  0  0  0  0  0  0  0  0
  144.1877  135.4750  151.9458 H   0  0  0  0  0  0  0  0  0  0  0  0
  147.0481  136.1102  151.8992 H   0  0  0  0  0  0  0  0  0  0  0  0
  1  2  1  0  0  0  0
  1 21  1  0  0  0  0
  1 22  1  0  0  0  0
  1 23  1  0  0  0  0
  2 20  1  0  0  0  0
  2  3  1  0  0  0  0
  2 24  1  0  0  0  0
  3  4  1  0  0  0  0
  3 25  1  0  0  0  0
  3 26  1  0  0  0  0
  4  5  1  0  0  0  0
  4  6  1  0  0  0  0
  4 27  1  0  0  0  0
  5 28  1  0  0  0  0
  5 29  1  0  0  0  0
  5 30  1  0  0  0  0
  6  7  1  0  0  0  0
  6 31  1  0  0  0  0
  6 32  1  0  0  0  0
  7  8  1  0  0  0  0
  7 20  1  0  0  0  0
  7 46  1  0  0  0  0
  8  9  1  0  0  0  0
  8 33  1  0  0  0  0
  8 34  1  0  0  0  0
  9 10  1  0  0  0  0
  9 35  1  0  0  0  0
  9 36  1  0  0  0  0
 10 11  1  0  0  0  0
 10 37  1  0  0  0  0
 11 12  2  0  0  0  0
 11 13  1  0  0  0  0
 13 14  1  0  0  0  0
 13 15  1  0  0  0  0
 13 38  1  0  0  0  0
 14 39  1  0  0  0  0
 14 40  1  0  0  0  0
 14 41  1  0  0  0  0
 15 19  1  0  0  0  0
 15 16  1  0  0  0  0
 16 17  2  0  0  0  0
 16 42  1  0  0  0  0
 17 18  1  0  0  0  0
 18 19  2  0  0  0  0
 18 43  1  0  0  0  0
 20 44  1  0  0  0  0
 20 45  1  0  0  0  0
M  CHG  1   7   1
M  END
> <s_m_source_file>
AV-unprocessed.smi

> <i_m_source_file_index>
3337

> <i_lp_mmshare_version>
43012

> <i_f3d_flags>
0

> <s_epik_input>
W0NIM11bQ0BASF0xW0NIMl1bQ0BASF0oW0NIM10pW0NIMl1OKFtDSDJdMSlbQ0gyXVtDSDJdW05IXUMoPU8pW0NASF0oW0NIM10pbjJbY0hdbltjSF1uMg==

> <s_epik_cmdline>
J2VwaWtfcHl0aG9uJywgJy1waCcsICc3LjAnLCAnLXRuJywgJzgnLCAnLW1hJywgJzIwMCcsICctbWV0YWxfYmluZGluZycsICctaW1hZScsICc8aW5maWxlLm1hZT4nLCAnLW9tYWUnLCAnPG91dGZpbGUubWFlPic=

> <r_lp_tautomer_probability>
1

> <r_epik_Ionization_Penalty>
0.00175613

> <r_epik_Ionization_Penalty_Charging>
0.00174812

> <r_epik_Ionization_Penalty_Neutral>
8.01354e-06

> <r_epik_State_Penalty>
0.00118332

> <r_epik_Charging_Adjusted_Penalty>
0.00293143

> <i_epik_Tot_Q>
1

> <i_epik_Tot_abs_Q>
1

> <r_epik_Metal_State_Penalty>
-0

> <b_epik_Metal_Only>
0

> <s_lp_Force_Field>
OPLS_2005

> <r_lp_Energy>
22.1533

> <b_lp_Chiralities_Consistent>
1

> <s_lp_Variant>
AV-unprocessed.smi:3337-7

> <Gold.Version>
5.8.1

> <Gold.Id.Protein>
6NUR|6NUR_protein|mol2

> <Gold.PLP.Fitness>
47.9150

> <Gold.PLP.PLP>
-35.0661

> <Gold.PLP.part.hbond>
-3.1331

> <Gold.PLP.part.metal>
0.0000

> <Gold.PLP.part.buried>
-3.6273

> <Gold.PLP.part.nonpolar>
-29.4395

> <Gold.PLP.part.repulsive>
0.4559

> <Gold.PLP.ligand.clash>
0.0000

> <Gold.PLP.ligand.torsion>
0.8649

> <Gold.PLP.Chemscore.Hbond>
4.0000

> <Gold.PLP.Chemscore.CHOScore>
0.8094

> <Gold.PLP.Chemscore.Metal>
0.0000

> <Gold.Chemscore.Hbonds>
donor molecule, donor type, donor heavy atom, donor atom, acceptor molecule, acceptor atom, score
      L1  H     7    46       P1  7948  2.00
      L1  H    10    37       P1  7957  1.00
      P1  H  7989  7998       L1    19  1.00
      L1  C    16    42       P1  7948  0.53

> <Gold.PLP.Chemscore.Internal.Correction>
0.1504

> <Gold.Rescore>
     Score         DG    S(hbond)    S(metal)    S(lipo)     H(rot)  DE(clash)    DE(int)     intcor
     13.40     -14.80       2.52        0.00      62.55       2.51       0.08       1.32       ----

> <Gold.Chemscore.Fitness>
13.3998

> <Gold.Chemscore.DG>
-14.7958

> <Gold.Chemscore.ZeroCoef>
-5.4800

> <Gold.Chemscore.Hbond>
2.5240

> <Gold.Chemscore.Metal>
0.0000

> <Gold.Chemscore.Lipo>
62.5531

> <Gold.Chemscore.Internal_Hbond>
0.0000

> <Gold.Chemscore.DEClash>
0.0791

> <Gold.Chemscore.DEInternal>
1.3169

> <Gold.Chemscore.Rot>
2.5129

> <Gold.Chemscore.Internal.Correction>
   9.000000E+99

> <Gold.Chemscore.Hbonds>
donor molecule, donor type, donor heavy atom, donor atom, acceptor molecule, acceptor atom, score
      L1  H     7    46       P1  7948  0.97
      L1  H    10    37       P1  7957  0.98
      P1  H  7989  7998       L1    19  0.20

> <Gold.Chemscore.Hbond.Weighted>
-8.4302

> <Gold.Chemscore.Metal.Weighted>
-0.0000

> <Gold.Chemscore.Lipo.Weighted>
-7.3187

> <Gold.Chemscore.Internal_Hbond.Weighted>
0.0000

> <Gold.Chemscore.DEClash.Weighted>
0.0791

> <Gold.Chemscore.DEInternal.Weighted>
1.3169

> <Gold.Chemscore.Rot.Weighted>
6.4331

> <Gold.Chemscore.Internal.Correction.Weighted>
   9.000000E+99

> <Gold.Protein.RotatedTorsions>
[ 6907 6896 6895 6894 ] final   25.98 input  -60.11 | X-H torsion
[ 7974 7965 7964 7962 ] final  -20.13 input  175.53 | X-H torsion
[ 8008 7997 7996 7995 ] final   99.17 input   59.86 | X-H torsion
[ 10167 10162 10161 10158 ] final   70.66 input  -65.29 | X-H torsion
[ 10718 10713 10712 10709 ] final   56.24 input   66.30 | X-H torsion
[ 10763 10752 10751 10750 ] final  -14.10 input  -60.55 | X-H torsion
[ 11005 11000 10999 10996 ] final  102.74 input  -57.11 | X-H torsion

> <Gold.Protein.ActiveResidues>
 VAL166  LYS551  ARG553  GLY616  TRP617  ASP618  TYR619  PRO620  LYS621  CYS622 
 ASP623  PHE694  ASN695  SER759  ASP760  ASP761  ALA762  ILE779  LEU786  VAL792 
 PHE793  MET794  SER795  GLU796  ALA797  LYS798  CYS799  TRP800  GLU811  SER814 

> <Gold.Protein.RotatedAtoms>
  151.9807  135.0030  160.0556 H   0  0  0  0  0  0  0  0  0  0  0  0  # atno 6907 bound_to 6896
  152.1699  133.4632  159.4912 H   0  0  0  0  0  0  0  0  0  0  0  0  # atno 6908 bound_to 6896
  150.6900  134.1883  159.4318 H   0  0  0  0  0  0  0  0  0  0  0  0  # atno 6909 bound_to 6896
  146.1805  140.4158  142.8496 H   0  0  0  0  0  0  0  0  0  0  0  0  # atno 7974 bound_to 7965
  156.1078  140.3233  155.8030 H   0  0  0  0  0  0  0  0  0  0  0  0  # atno 8008 bound_to 7997
  155.4725  140.0548  157.2995 H   0  0  0  0  0  0  0  0  0  0  0  0  # atno 8009 bound_to 7997
  154.4739  140.2024  155.9940 H   0  0  0  0  0  0  0  0  0  0  0  0  # atno 8010 bound_to 7997
  140.0545  144.5284  150.7338 H   0  0  0  0  0  0  0  0  0  0  0  0  # atno 10167 bound_to 10162
  157.5414  130.8700  149.8827 H   0  0  0  0  0  0  0  0  0  0  0  0  # atno 10718 bound_to 10713
  153.5231  135.7015  153.5721 H   0  0  0  0  0  0  0  0  0  0  0  0  # atno 10763 bound_to 10752
  153.3761  135.3932  155.1823 H   0  0  0  0  0  0  0  0  0  0  0  0  # atno 10764 bound_to 10752
  154.8692  135.3824  154.4722 H   0  0  0  0  0  0  0  0  0  0  0  0  # atno 10765 bound_to 10752
  139.8779  134.9236  156.5104 H   0  0  0  0  0  0  0  0  0  0  0  0  # atno 11005 bound_to 11000
  144.8307  140.6702  143.6293 LP  0  0  0  0  0  0  0  0  0  0  0  0  # atno 17320 bound_to 7965
  145.4090  139.1583  143.4136 LP  0  0  0  0  0  0  0  0  0  0  0  0  # atno 17321 bound_to 7965
  140.7201  143.2580  151.4307 LP  0  0  0  0  0  0  0  0  0  0  0  0  # atno 17342 bound_to 10162
  139.5932  144.1454  152.2113 LP  0  0  0  0  0  0  0  0  0  0  0  0  # atno 17343 bound_to 10162
  156.0499  130.3720  150.1225 LP  0  0  0  0  0  0  0  0  0  0  0  0  # atno 17370 bound_to 10713
  156.9405  130.9743  151.3517 LP  0  0  0  0  0  0  0  0  0  0  0  0  # atno 17371 bound_to 10713
  140.8524  133.8122  155.9182 LP  0  0  0  0  0  0  0  0  0  0  0  0  # atno 17394 bound_to 11000
  140.9131  134.2235  157.4973 LP  0  0  0  0  0  0  0  0  0  0  0  0  # atno 17395 bound_to 11000

$$$$
