AV-unprocessed.smi:1456|AV-procd|sdf|5917|dock4
  -GOLD-   22720 6 03D 1   1.00000     0.00000
 Structure written by MMmdl.
 42 43  0  0  0  0  0  0  0  0  2 V2000
  146.5340  137.4265  153.9622 C   0  0  0  0  0  0  0  0  0  0  0  0
  147.3555  138.7008  153.6672 C   0  0  0  0  0  0  0  0  0  0  0  0
  146.8564  139.2425  152.3137 C   0  0  0  0  0  0  0  0  0  0  0  0
  147.1363  139.8042  154.7322 C   0  0  0  0  0  0  0  0  0  0  0  0
  147.9195  139.6119  156.0452 C   0  0  0  0  0  0  0  0  0  0  0  0
  147.3483  138.5969  156.9279 N   0  0  0  0  0  0  0  0  0  0  0  0
  147.8097  138.2747  158.1454 C   0  0  0  0  0  0  0  0  0  0  0  0
  148.7886  138.8124  158.6631 O   0  0  0  0  0  0  0  0  0  0  0  0
  147.0643  137.3072  158.7073 N   0  0  0  0  0  0  0  0  0  0  0  0
  147.2135  136.7209  159.9915 C   0  0  0  0  0  0  0  0  0  0  0  0
  147.2771  137.4137  161.1346 N   0  0  0  0  0  0  0  0  0  0  0  0
  147.4204  136.5795  162.2462 C   0  0  0  0  0  0  0  0  0  0  0  0
  147.4640  135.2446  161.9284 C   0  0  0  0  0  0  0  0  0  0  0  0
  147.3271  134.9808  160.2105 S   0  0  0  0  0  0  0  0  0  0  0  0
  149.4037  139.3478  155.7441 C   0  0  0  0  0  0  0  0  0  0  0  0
  149.6786  138.2391  154.6951 C   0  0  0  0  0  0  0  0  0  0  0  0
  151.1311  138.3985  154.2053 C   0  0  0  0  0  0  0  0  0  0  0  0
  149.5705  136.8202  155.2965 C   0  0  0  0  0  0  0  0  0  0  0  0
  148.8039  138.3942  153.4983 N   0  3  0  0  0  0  0  0  0  0  0  0
  145.4646  137.6352  153.9141 H   0  0  0  0  0  0  0  0  0  0  0  0
  146.7117  137.0075  154.9470 H   0  0  0  0  0  0  0  0  0  0  0  0
  146.7428  136.6437  153.2322 H   0  0  0  0  0  0  0  0  0  0  0  0
  145.8002  139.5121  152.3569 H   0  0  0  0  0  0  0  0  0  0  0  0
  146.9728  138.5035  151.5197 H   0  0  0  0  0  0  0  0  0  0  0  0
  147.4071  140.1339  152.0101 H   0  0  0  0  0  0  0  0  0  0  0  0
  147.4601  140.7577  154.3121 H   0  0  0  0  0  0  0  0  0  0  0  0
  146.0713  139.9313  154.9308 H   0  0  0  0  0  0  0  0  0  0  0  0
  147.8717  140.5521  156.5981 H   0  0  0  0  0  0  0  0  0  0  0  0
  146.5424  138.0963  156.5827 H   0  0  0  0  0  0  0  0  0  0  0  0
  146.2953  136.9539  158.1577 H   0  0  0  0  0  0  0  0  0  0  0  0
  147.4830  137.0217  163.2294 H   0  0  0  0  0  0  0  0  0  0  0  0
  147.5680  134.4039  162.5981 H   0  0  0  0  0  0  0  0  0  0  0  0
  149.8206  140.2853  155.3722 H   0  0  0  0  0  0  0  0  0  0  0  0
  149.9456  139.1405  156.6682 H   0  0  0  0  0  0  0  0  0  0  0  0
  151.8410  138.3218  155.0300 H   0  0  0  0  0  0  0  0  0  0  0  0
  151.2903  139.3666  153.7283 H   0  0  0  0  0  0  0  0  0  0  0  0
  151.3939  137.6312  153.4757 H   0  0  0  0  0  0  0  0  0  0  0  0
  150.3302  136.6659  156.0635 H   0  0  0  0  0  0  0  0  0  0  0  0
  149.7234  136.0557  154.5339 H   0  0  0  0  0  0  0  0  0  0  0  0
  148.6175  136.6164  155.7729 H   0  0  0  0  0  0  0  0  0  0  0  0
  148.9001  137.5772  152.9123 H   0  0  0  0  0  0  0  0  0  0  0  0
  149.1841  139.1802  152.9906 H   0  0  0  0  0  0  0  0  0  0  0  0
  1  2  1  0  0  0  0
  1 20  1  0  0  0  0
  1 21  1  0  0  0  0
  1 22  1  0  0  0  0
  2 19  1  0  0  0  0
  2  3  1  0  0  0  0
  2  4  1  0  0  0  0
  3 23  1  0  0  0  0
  3 24  1  0  0  0  0
  3 25  1  0  0  0  0
  4  5  1  0  0  0  0
  4 26  1  0  0  0  0
  4 27  1  0  0  0  0
  5  6  1  0  0  0  0
  5 15  1  0  0  0  0
  5 28  1  0  0  0  0
  6  7  1  0  0  0  0
  6 29  1  0  0  0  0
  7  8  2  0  0  0  0
  7  9  1  0  0  0  0
  9 10  1  0  0  0  0
  9 30  1  0  0  0  0
 10 14  1  0  0  0  0
 10 11  2  0  0  0  0
 11 12  1  0  0  0  0
 12 13  2  0  0  0  0
 12 31  1  0  0  0  0
 13 14  1  0  0  0  0
 13 32  1  0  0  0  0
 15 16  1  0  0  0  0
 15 33  1  0  0  0  0
 15 34  1  0  0  0  0
 16 17  1  0  0  0  0
 16 18  1  0  0  0  0
 16 19  1  0  0  0  0
 17 35  1  0  0  0  0
 17 36  1  0  0  0  0
 17 37  1  0  0  0  0
 18 38  1  0  0  0  0
 18 39  1  0  0  0  0
 18 40  1  0  0  0  0
 19 41  1  0  0  0  0
 19 42  1  0  0  0  0
M  CHG  1  19   1
M  END
> <s_m_source_file>
AV-unprocessed.smi

> <i_m_source_file_index>
1456

> <i_lp_mmshare_version>
43012

> <i_f3d_flags>
0

> <s_epik_input>
W0NIM11DMShbQ0gzXSlbQ0gyXVtDSF0oW0NIMl1DKFtDSDNdKShbQ0gzXSlbTkhdMSlbTkhdQyg9TylbTkhdYzJuW2NIXVtjSF1zMg==

> <s_epik_cmdline>
J2VwaWtfcHl0aG9uJywgJy1waCcsICc3LjAnLCAnLXRuJywgJzgnLCAnLW1hJywgJzIwMCcsICctbWV0YWxfYmluZGluZycsICctaW1hZScsICc8aW5maWxlLm1hZT4nLCAnLW9tYWUnLCAnPG91dGZpbGUubWFlPic=

> <r_lp_tautomer_probability>
1

> <r_epik_Ionization_Penalty>
0.000374891

> <r_epik_Ionization_Penalty_Charging>
0.000101406

> <r_epik_Ionization_Penalty_Neutral>
0.000273485

> <r_epik_State_Penalty>
-0

> <r_epik_Charging_Adjusted_Penalty>
0.000101406

> <i_epik_Tot_Q>
1

> <i_epik_Tot_abs_Q>
1

> <r_epik_Metal_State_Penalty>
0.0101225

> <b_epik_Metal_Only>
0

> <s_lp_Force_Field>
OPLS_2005

> <r_lp_Energy>
24.6198

> <b_lp_Chiralities_Consistent>
1

> <s_lp_Variant>
AV-unprocessed.smi:1456-1

> <Gold.Version>
5.8.1

> <Gold.Id.Protein>
6NUR|6NUR_protein|mol2

> <Gold.PLP.Fitness>
37.3266

> <Gold.PLP.PLP>
-25.8273

> <Gold.PLP.part.hbond>
-4.9360

> <Gold.PLP.part.metal>
0.0000

> <Gold.PLP.part.buried>
-3.8024

> <Gold.PLP.part.nonpolar>
-17.3233

> <Gold.PLP.part.repulsive>
0.1748

> <Gold.PLP.ligand.clash>
0.0000

> <Gold.PLP.ligand.torsion>
0.4867

> <Gold.PLP.Chemscore.Hbond>
4.1517

> <Gold.PLP.Chemscore.CHOScore>
0.0000

> <Gold.PLP.Chemscore.Metal>
0.0000

> <Gold.Chemscore.Hbonds>
donor molecule, donor type, donor heavy atom, donor atom, acceptor molecule, acceptor atom, score
      L1  H    19    41       P1  7948  2.00
      L1  H    19    42       P1  7957  0.87
      P1  H  6931  6943       L1    11  0.06
      P1  H  6934  6947       L1    11  1.00

> <Gold.PLP.Chemscore.Internal.Correction>
0.0176

> <Gold.Rescore>
     Score         DG    S(hbond)    S(metal)    S(lipo)     H(rot)  DE(clash)    DE(int)     intcor
     19.75     -20.21       2.90        0.00      65.00       1.00       0.04       0.42       ----

> <Gold.Chemscore.Fitness>
19.7494

> <Gold.Chemscore.DG>
-20.2122

> <Gold.Chemscore.ZeroCoef>
-5.4800

> <Gold.Chemscore.Hbond>
2.9003

> <Gold.Chemscore.Metal>
0.0000

> <Gold.Chemscore.Lipo>
65.0018

> <Gold.Chemscore.Internal_Hbond>
0.0000

> <Gold.Chemscore.DEClash>
0.0383

> <Gold.Chemscore.DEInternal>
0.4246

> <Gold.Chemscore.Rot>
1.0000

> <Gold.Chemscore.Internal.Correction>
   9.000000E+99

> <Gold.Chemscore.Hbonds>
donor molecule, donor type, donor heavy atom, donor atom, acceptor molecule, acceptor atom, score
      L1  H    19    41       P1  7948  1.00
      L1  H    19    42       P1  7957  0.81
      P1  H  6934  6947       L1    11  0.85

> <Gold.Chemscore.Hbond.Weighted>
-9.6870

> <Gold.Chemscore.Metal.Weighted>
-0.0000

> <Gold.Chemscore.Lipo.Weighted>
-7.6052

> <Gold.Chemscore.Internal_Hbond.Weighted>
0.0000

> <Gold.Chemscore.DEClash.Weighted>
0.0383

> <Gold.Chemscore.DEInternal.Weighted>
0.4246

> <Gold.Chemscore.Rot.Weighted>
2.5600

> <Gold.Chemscore.Internal.Correction.Weighted>
   9.000000E+99

> <Gold.Protein.RotatedTorsions>
[ 6907 6896 6895 6894 ] final -128.19 input  -60.11 | X-H torsion
[ 7974 7965 7964 7962 ] final   -0.33 input  175.53 | X-H torsion
[ 8008 7997 7996 7995 ] final  -44.33 input   59.86 | X-H torsion
[ 10167 10162 10161 10158 ] final   13.59 input  -65.29 | X-H torsion
[ 10718 10713 10712 10709 ] final   71.38 input   66.30 | X-H torsion
[ 10763 10752 10751 10750 ] final  137.18 input  -60.55 | X-H torsion
[ 11005 11000 10999 10996 ] final  -10.57 input  -57.11 | X-H torsion

> <Gold.Protein.ActiveResidues>
 VAL166  LYS551  ARG553  GLY616  TRP617  ASP618  TYR619  PRO620  LYS621  CYS622 
 ASP623  PHE694  ASN695  SER759  ASP760  ASP761  ALA762  ILE779  LEU786  VAL792 
 PHE793  MET794  SER795  GLU796  ALA797  LYS798  CYS799  TRP800  GLU811  SER814 

> <Gold.Protein.RotatedAtoms>
  150.9153  133.6947  159.2844 H   0  0  0  0  0  0  0  0  0  0  0  0  # atno 6907 bound_to 6896
  151.4420  135.1020  159.9682 H   0  0  0  0  0  0  0  0  0  0  0  0  # atno 6908 bound_to 6896
  152.4951  133.8559  159.7280 H   0  0  0  0  0  0  0  0  0  0  0  0  # atno 6909 bound_to 6896
  146.2428  140.1253  142.8339 H   0  0  0  0  0  0  0  0  0  0  0  0  # atno 7974 bound_to 7965
  154.3997  140.1425  156.3665 H   0  0  0  0  0  0  0  0  0  0  0  0  # atno 8008 bound_to 7997
  155.8132  140.3472  155.5449 H   0  0  0  0  0  0  0  0  0  0  0  0  # atno 8009 bound_to 7997
  155.8364  140.0920  157.1751 H   0  0  0  0  0  0  0  0  0  0  0  0  # atno 8010 bound_to 7997
  140.5992  143.8639  150.6948 H   0  0  0  0  0  0  0  0  0  0  0  0  # atno 10167 bound_to 10162
  157.6449  130.9525  150.0781 H   0  0  0  0  0  0  0  0  0  0  0  0  # atno 10718 bound_to 10713
  153.8688  135.3058  155.3441 H   0  0  0  0  0  0  0  0  0  0  0  0  # atno 10763 bound_to 10752
  154.7815  135.4833  153.9858 H   0  0  0  0  0  0  0  0  0  0  0  0  # atno 10764 bound_to 10752
  153.1418  135.6825  153.9111 H   0  0  0  0  0  0  0  0  0  0  0  0  # atno 10765 bound_to 10752
  140.7461  133.8630  155.9007 H   0  0  0  0  0  0  0  0  0  0  0  0  # atno 11005 bound_to 11000
  145.0371  140.8917  143.5074 LP  0  0  0  0  0  0  0  0  0  0  0  0  # atno 17320 bound_to 7965
  145.1328  139.2621  143.5531 LP  0  0  0  0  0  0  0  0  0  0  0  0  # atno 17321 bound_to 7965
  140.2181  143.3831  152.1665 LP  0  0  0  0  0  0  0  0  0  0  0  0  # atno 17342 bound_to 10162
  139.5279  144.7125  151.5161 LP  0  0  0  0  0  0  0  0  0  0  0  0  # atno 17343 bound_to 10162
  156.1766  130.3648  149.9092 LP  0  0  0  0  0  0  0  0  0  0  0  0  # atno 17370 bound_to 10713
  156.7055  130.8950  151.3604 LP  0  0  0  0  0  0  0  0  0  0  0  0  # atno 17371 bound_to 10713
  140.9793  134.1427  157.4508 LP  0  0  0  0  0  0  0  0  0  0  0  0  # atno 17394 bound_to 11000
  139.8796  135.0005  156.6014 LP  0  0  0  0  0  0  0  0  0  0  0  0  # atno 17395 bound_to 11000

$$$$
