AV-unprocessed.smi:1199|AV-procd|sdf|5021|dock2
  -GOLD-   22720 4 43D 1   1.00000     0.00000
 Structure written by MMmdl.
 42 43  0  0  0  0  0  0  0  0  2 V2000
  149.6275  141.3954  155.0303 C   0  0  0  0  0  0  0  0  0  0  0  0
  150.4935  141.4877  156.2934 C   0  0  1  0  0  0  0  0  0  0  0  0
  149.7463  142.1960  157.4474 C   0  0  0  0  0  0  0  0  0  0  0  0
  150.4224  143.4408  157.8950 N   0  3  0  0  0  0  0  0  0  0  0  0
  149.9995  143.8977  159.2400 C   0  0  0  0  0  0  0  0  0  0  0  0
  150.6657  145.2430  159.5705 C   0  0  0  0  0  0  0  0  0  0  0  0
  152.0794  145.0985  159.5029 O   0  0  0  0  0  0  0  0  0  0  0  0
  152.5176  144.7239  158.2024 C   0  0  0  0  0  0  0  0  0  0  0  0
  151.8995  143.3702  157.8115 C   0  0  0  0  0  0  0  0  0  0  0  0
  150.9054  140.1445  156.7001 N   0  0  0  0  0  0  0  0  0  0  0  0
  151.4037  139.1969  155.8897 C   0  0  0  0  0  0  0  0  0  0  0  0
  151.4877  139.3182  154.6682 O   0  0  0  0  0  0  0  0  0  0  0  0
  151.9351  137.9357  156.5740 C   0  0  0  0  0  0  0  0  0  0  0  0
  151.1739  136.7513  156.1522 N   0  0  0  0  0  0  0  0  0  0  0  0
  149.9949  137.0497  155.4858 N   0  0  0  0  0  0  0  0  0  0  0  0
  149.2263  136.0989  155.0741 C   0  0  0  0  0  0  0  0  0  0  0  0
  148.0675  136.4415  154.4222 O   0  0  0  0  0  0  0  0  0  0  0  0
  149.5707  134.7115  155.2926 C   0  0  0  0  0  0  0  0  0  0  0  0
  150.7160  134.4298  155.9511 C   0  0  0  0  0  0  0  0  0  0  0  0
  151.6031  135.4846  156.4446 C   0  0  0  0  0  0  0  0  0  0  0  0
  152.6338  135.2553  157.0760 O   0  0  0  0  0  0  0  0  0  0  0  0
  148.2746  136.4047  153.5010 H   0  0  0  0  0  0  0  0  0  0  0  0
  149.3220  142.3861  154.6923 H   0  0  0  0  0  0  0  0  0  0  0  0
  148.7236  140.8114  155.2076 H   0  0  0  0  0  0  0  0  0  0  0  0
  150.1742  140.9235  154.2132 H   0  0  0  0  0  0  0  0  0  0  0  0
  151.3740  142.0763  156.0317 H   0  0  0  0  0  0  0  0  0  0  0  0
  148.7133  142.4105  157.1696 H   0  0  0  0  0  0  0  0  0  0  0  0
  149.6967  141.5039  158.2897 H   0  0  0  0  0  0  0  0  0  0  0  0
  148.9164  144.0080  159.2827 H   0  0  0  0  0  0  0  0  0  0  0  0
  150.2732  143.1509  159.9868 H   0  0  0  0  0  0  0  0  0  0  0  0
  150.3313  146.0227  158.8835 H   0  0  0  0  0  0  0  0  0  0  0  0
  150.3901  145.5625  160.5755 H   0  0  0  0  0  0  0  0  0  0  0  0
  152.2458  145.4957  157.4820 H   0  0  0  0  0  0  0  0  0  0  0  0
  153.6055  144.6564  158.2005 H   0  0  0  0  0  0  0  0  0  0  0  0
  152.2673  142.5821  158.4703 H   0  0  0  0  0  0  0  0  0  0  0  0
  152.2024  143.1117  156.7964 H   0  0  0  0  0  0  0  0  0  0  0  0
  150.8675  139.9404  157.6887 H   0  0  0  0  0  0  0  0  0  0  0  0
  152.9947  137.8147  156.3401 H   0  0  0  0  0  0  0  0  0  0  0  0
  151.8871  138.0612  157.6573 H   0  0  0  0  0  0  0  0  0  0  0  0
  148.9222  133.9255  154.9343 H   0  0  0  0  0  0  0  0  0  0  0  0
  150.9853  133.3977  156.1220 H   0  0  0  0  0  0  0  0  0  0  0  0
  150.1409  144.1597  157.2434 H   0  0  0  0  0  0  0  0  0  0  0  0
  1  2  1  0  0  0  0
  1 23  1  0  0  0  0
  1 24  1  0  0  0  0
  1 25  1  0  0  0  0
  2  3  1  0  0  0  0
  2 10  1  0  0  0  0
  2 26  1  0  0  0  0
  3  4  1  0  0  0  0
  3 27  1  0  0  0  0
  3 28  1  0  0  0  0
  4  9  1  0  0  0  0
  4  5  1  0  0  0  0
  4 42  1  0  0  0  0
  5  6  1  0  0  0  0
  5 29  1  0  0  0  0
  5 30  1  0  0  0  0
  6  7  1  0  0  0  0
  6 31  1  0  0  0  0
  6 32  1  0  0  0  0
  7  8  1  0  0  0  0
  8  9  1  0  0  0  0
  8 33  1  0  0  0  0
  8 34  1  0  0  0  0
  9 35  1  0  0  0  0
  9 36  1  0  0  0  0
 10 11  1  0  0  0  0
 10 37  1  0  0  0  0
 11 12  2  0  0  0  0
 11 13  1  0  0  0  0
 13 38  1  0  0  0  0
 13 39  1  0  0  0  0
 13 14  1  0  0  0  0
 14 15  1  0  0  0  0
 14 20  1  0  0  0  0
 15 16  2  0  0  0  0
 16 17  1  0  0  0  0
 16 18  1  0  0  0  0
 17 22  1  0  0  0  0
 18 40  1  0  0  0  0
 18 19  2  0  0  0  0
 19 41  1  0  0  0  0
 19 20  1  0  0  0  0
 20 21  2  0  0  0  0
M  CHG  1   4   1
M  END
> <s_m_source_file>
AV-unprocessed.smi

> <i_m_source_file_index>
1199

> <i_lp_mmshare_version>
43012

> <i_f3d_flags>
0

> <s_epik_input>
W0NIMl0xW0NIMl1PW0NIMl1bQ0gyXU4xW0NIMl1bQ0BASF0oW0NIM10pW05IXUMoPU8pW0NIMl1uMltuSF1jKD1PKVtjSF1bY0hdYzI9Tw==

> <s_epik_cmdline>
J2VwaWtfcHl0aG9uJywgJy1waCcsICc3LjAnLCAnLXRuJywgJzgnLCAnLW1hJywgJzIwMCcsICctbWV0YWxfYmluZGluZycsICctaW1hZScsICc8aW5maWxlLm1hZT4nLCAnLW9tYWUnLCAnPG91dGZpbGUubWFlPic=

> <r_lp_tautomer_probability>
0.9996

> <r_epik_Ionization_Penalty>
2.86815

> <r_epik_Ionization_Penalty_Charging>
0.656653

> <r_epik_Ionization_Penalty_Neutral>
2.21149

> <r_epik_State_Penalty>
2.43136

> <r_epik_Charging_Adjusted_Penalty>
3.08801

> <i_epik_Tot_Q>
1

> <i_epik_Tot_abs_Q>
1

> <r_epik_Metal_State_Penalty>
2.43136

> <b_epik_Metal_Only>
0

> <s_lp_Force_Field>
OPLS_2005

> <r_lp_Energy>
31.569

> <b_lp_Chiralities_Consistent>
1

> <s_lp_Variant>
AV-unprocessed.smi:1199-8

> <Gold.Version>
5.8.1

> <Gold.Id.Protein>
6NUR|6NUR_protein|mol2

> <Gold.PLP.Fitness>
43.7124

> <Gold.PLP.PLP>
-33.5902

> <Gold.PLP.part.hbond>
-4.5108

> <Gold.PLP.part.metal>
0.0000

> <Gold.PLP.part.buried>
-5.2154

> <Gold.PLP.part.nonpolar>
-24.9319

> <Gold.PLP.part.repulsive>
0.3353

> <Gold.PLP.ligand.clash>
0.0000

> <Gold.PLP.ligand.torsion>
1.2510

> <Gold.PLP.Chemscore.Hbond>
4.1503

> <Gold.PLP.Chemscore.CHOScore>
0.0000

> <Gold.PLP.Chemscore.Metal>
0.0000

> <Gold.Chemscore.Hbonds>
donor molecule, donor type, donor heavy atom, donor atom, acceptor molecule, acceptor atom, score
      L1  H     4    42       P1  8028  1.74
      L1  H    17    22       P1  7948  1.00
      P1  H  7989  7998       L1    12  1.00

> <Gold.PLP.Chemscore.Internal.Correction>
0.1734

> <Gold.Rescore>
     Score         DG    S(hbond)    S(metal)    S(lipo)     H(rot)  DE(clash)    DE(int)     intcor
     12.15     -16.09       2.79        0.00      77.39       3.03       0.04       3.89       ----

> <Gold.Chemscore.Fitness>
12.1486

> <Gold.Chemscore.DG>
-16.0871

> <Gold.Chemscore.ZeroCoef>
-5.4800

> <Gold.Chemscore.Hbond>
2.7900

> <Gold.Chemscore.Metal>
0.0000

> <Gold.Chemscore.Lipo>
77.3900

> <Gold.Chemscore.Internal_Hbond>
0.0000

> <Gold.Chemscore.DEClash>
0.0450

> <Gold.Chemscore.DEInternal>
3.8935

> <Gold.Chemscore.Rot>
3.0336

> <Gold.Chemscore.Internal.Correction>
   9.000000E+99

> <Gold.Chemscore.Hbonds>
donor molecule, donor type, donor heavy atom, donor atom, acceptor molecule, acceptor atom, score
      L1  H     4    42       P1  8028  0.64
      L1  H    17    22       P1  7948  1.00
      P1  H  7989  7998       L1    12  0.99

> <Gold.Chemscore.Hbond.Weighted>
-9.3185

> <Gold.Chemscore.Metal.Weighted>
-0.0000

> <Gold.Chemscore.Lipo.Weighted>
-9.0546

> <Gold.Chemscore.Internal_Hbond.Weighted>
0.0000

> <Gold.Chemscore.DEClash.Weighted>
0.0450

> <Gold.Chemscore.DEInternal.Weighted>
3.8935

> <Gold.Chemscore.Rot.Weighted>
7.7661

> <Gold.Chemscore.Internal.Correction.Weighted>
   9.000000E+99

> <Gold.Protein.RotatedTorsions>
[ 6907 6896 6895 6894 ] final  -27.62 input  -60.11 | X-H torsion
[ 7974 7965 7964 7962 ] final  111.59 input  175.53 | X-H torsion
[ 8008 7997 7996 7995 ] final  156.65 input   59.86 | X-H torsion
[ 10167 10162 10161 10158 ] final  144.90 input  -65.29 | X-H torsion
[ 10718 10713 10712 10709 ] final  -29.19 input   66.30 | X-H torsion
[ 10763 10752 10751 10750 ] final -133.14 input  -60.55 | X-H torsion
[ 11005 11000 10999 10996 ] final    3.78 input  -57.11 | X-H torsion

> <Gold.Protein.ActiveResidues>
 VAL166  LYS551  ARG553  GLY616  TRP617  ASP618  TYR619  PRO620  LYS621  CYS622 
 ASP623  PHE694  ASN695  SER759  ASP760  ASP761  ALA762  ILE779  LEU786  VAL792 
 PHE793  MET794  SER795  GLU796  ALA797  LYS798  CYS799  TRP800  GLU811  SER814 

> <Gold.Protein.RotatedAtoms>
  151.1444  135.0195  159.8639 H   0  0  0  0  0  0  0  0  0  0  0  0  # atno 6907 bound_to 6896
  152.5453  134.1462  159.8509 H   0  0  0  0  0  0  0  0  0  0  0  0  # atno 6908 bound_to 6896
  151.1541  133.4842  159.2627 H   0  0  0  0  0  0  0  0  0  0  0  0  # atno 6909 bound_to 6896
  145.2403  139.2782  143.4121 H   0  0  0  0  0  0  0  0  0  0  0  0  # atno 7974 bound_to 7965
  156.2410  140.1906  156.6989 H   0  0  0  0  0  0  0  0  0  0  0  0  # atno 8008 bound_to 7997
  154.6197  140.0610  156.9625 H   0  0  0  0  0  0  0  0  0  0  0  0  # atno 8009 bound_to 7997
  155.1882  140.3282  155.4366 H   0  0  0  0  0  0  0  0  0  0  0  0  # atno 8010 bound_to 7997
  139.4937  144.5940  151.6622 H   0  0  0  0  0  0  0  0  0  0  0  0  # atno 10167 bound_to 10162
  156.4156  130.4416  149.7220 H   0  0  0  0  0  0  0  0  0  0  0  0  # atno 10718 bound_to 10713
  154.8736  135.3775  154.4524 H   0  0  0  0  0  0  0  0  0  0  0  0  # atno 10763 bound_to 10752
  153.5199  135.7029  153.5742 H   0  0  0  0  0  0  0  0  0  0  0  0  # atno 10764 bound_to 10752
  153.3994  135.3952  155.1943 H   0  0  0  0  0  0  0  0  0  0  0  0  # atno 10765 bound_to 10752
  140.5892  133.9940  155.8081 H   0  0  0  0  0  0  0  0  0  0  0  0  # atno 11005 bound_to 11000
  146.3330  140.2764  142.8608 LP  0  0  0  0  0  0  0  0  0  0  0  0  # atno 17320 bound_to 7965
  144.9595  140.8261  143.5522 LP  0  0  0  0  0  0  0  0  0  0  0  0  # atno 17321 bound_to 7965
  140.5573  144.0327  150.6153 LP  0  0  0  0  0  0  0  0  0  0  0  0  # atno 17342 bound_to 10162
  140.3401  143.3025  152.0597 LP  0  0  0  0  0  0  0  0  0  0  0  0  # atno 17343 bound_to 10162
  156.4182  130.7755  151.2771 LP  0  0  0  0  0  0  0  0  0  0  0  0  # atno 17370 bound_to 10713
  157.7508  131.0191  150.3653 LP  0  0  0  0  0  0  0  0  0  0  0  0  # atno 17371 bound_to 10713
  141.0946  133.9864  157.3182 LP  0  0  0  0  0  0  0  0  0  0  0  0  # atno 17394 bound_to 11000
  139.9281  135.0201  156.8307 LP  0  0  0  0  0  0  0  0  0  0  0  0  # atno 17395 bound_to 11000

$$$$
