AV-unprocessed.smi:792|AV-procd|sdf|3750|dock2
  -GOLD-   22720 1183D 1   1.00000     0.00000
 Structure written by MMmdl.
 46 47  0  0  0  0  0  0  0  0  1 V2000
  153.8974  142.7200  163.2626 C   0  0  0  0  0  0  0  0  0  0  0  0
  153.3311  142.9456  161.8764 C   0  0  0  0  0  0  0  0  0  0  0  0
  153.6705  142.0897  160.8073 C   0  0  0  0  0  0  0  0  0  0  0  0
  153.1141  142.3472  159.5396 C   0  0  0  0  0  0  0  0  0  0  0  0
  152.2426  143.4453  159.3898 C   0  0  0  0  0  0  0  0  0  0  0  0
  151.6182  143.7670  158.0467 C   0  0  0  0  0  0  0  0  0  0  0  0
  150.7356  142.6235  157.5303 C   0  0  0  0  0  0  0  0  0  0  0  0
  149.3555  143.0662  157.3933 N   0  0  0  0  0  0  0  0  0  0  0  0
  148.3358  142.5912  158.1195 C   0  0  0  0  0  0  0  0  0  0  0  0
  148.4552  141.7385  158.9995 O   0  0  0  0  0  0  0  0  0  0  0  0
  147.1702  143.1546  157.7702 N   0  0  0  0  0  0  0  0  0  0  0  0
  145.8773  142.8612  158.3866 C   0  0  0  0  0  0  0  0  0  0  0  0
  145.8766  143.0237  159.9189 C   0  0  0  0  0  0  0  0  0  0  0  0
  146.9546  143.0908  160.5134 O   0  0  0  0  0  0  0  0  0  0  0  0
  144.6893  143.0946  160.5695 N   0  0  0  0  0  0  0  0  0  0  0  0
  143.3982  143.0913  159.8679 C   0  0  0  0  0  0  0  0  0  0  0  0
  142.7486  144.4799  160.0122 C   0  0  0  0  0  0  0  0  0  0  0  0
  142.6048  144.8710  161.4951 C   0  0  0  0  0  0  0  0  0  0  0  0
  143.9296  144.6926  162.2604 C   0  0  0  0  0  0  0  0  0  0  0  0
  144.5178  143.2911  162.0161 C   0  0  0  0  0  0  0  0  0  0  0  0
  151.9697  144.2406  160.5227 C   0  0  0  0  0  0  0  0  0  0  0  0
  152.4983  144.0013  161.7420 N   0  0  0  0  0  0  0  0  0  0  0  0
  154.5562  141.8514  163.2844 H   0  0  0  0  0  0  0  0  0  0  0  0
  153.0926  142.5539  163.9792 H   0  0  0  0  0  0  0  0  0  0  0  0
  154.4711  143.5897  163.5841 H   0  0  0  0  0  0  0  0  0  0  0  0
  154.3410  141.2555  160.9520 H   0  0  0  0  0  0  0  0  0  0  0  0
  153.3543  141.7132  158.6988 H   0  0  0  0  0  0  0  0  0  0  0  0
  151.0316  144.6823  158.1375 H   0  0  0  0  0  0  0  0  0  0  0  0
  152.4127  143.9798  157.3298 H   0  0  0  0  0  0  0  0  0  0  0  0
  151.1007  142.2759  156.5624 H   0  0  0  0  0  0  0  0  0  0  0  0
  150.7780  141.7755  158.2155 H   0  0  0  0  0  0  0  0  0  0  0  0
  149.1647  143.7725  156.6977 H   0  0  0  0  0  0  0  0  0  0  0  0
  147.1772  143.8493  157.0377 H   0  0  0  0  0  0  0  0  0  0  0  0
  145.1436  143.5449  157.9592 H   0  0  0  0  0  0  0  0  0  0  0  0
  145.5687  141.8490  158.1193 H   0  0  0  0  0  0  0  0  0  0  0  0
  143.4883  142.8355  158.8116 H   0  0  0  0  0  0  0  0  0  0  0  0
  142.7521  142.3276  160.3032 H   0  0  0  0  0  0  0  0  0  0  0  0
  143.3595  145.2217  159.4958 H   0  0  0  0  0  0  0  0  0  0  0  0
  141.7719  144.4899  159.5276 H   0  0  0  0  0  0  0  0  0  0  0  0
  142.2526  145.8991  161.5827 H   0  0  0  0  0  0  0  0  0  0  0  0
  141.8412  144.2430  161.9557 H   0  0  0  0  0  0  0  0  0  0  0  0
  144.6455  145.4501  161.9384 H   0  0  0  0  0  0  0  0  0  0  0  0
  143.7677  144.8523  163.3268 H   0  0  0  0  0  0  0  0  0  0  0  0
  143.8358  142.5313  162.4005 H   0  0  0  0  0  0  0  0  0  0  0  0
  145.4345  143.1678  162.5902 H   0  0  0  0  0  0  0  0  0  0  0  0
  151.3103  145.0930  160.4496 H   0  0  0  0  0  0  0  0  0  0  0  0
  1  2  1  0  0  0  0
  1 23  1  0  0  0  0
  1 24  1  0  0  0  0
  1 25  1  0  0  0  0
  2 22  1  0  0  0  0
  2  3  2  0  0  0  0
  3  4  1  0  0  0  0
  3 26  1  0  0  0  0
  4  5  2  0  0  0  0
  4 27  1  0  0  0  0
  5  6  1  0  0  0  0
  5 21  1  0  0  0  0
  6  7  1  0  0  0  0
  6 28  1  0  0  0  0
  6 29  1  0  0  0  0
  7  8  1  0  0  0  0
  7 30  1  0  0  0  0
  7 31  1  0  0  0  0
  8  9  1  0  0  0  0
  8 32  1  0  0  0  0
  9 10  2  0  0  0  0
  9 11  1  0  0  0  0
 11 12  1  0  0  0  0
 11 33  1  0  0  0  0
 12 13  1  0  0  0  0
 12 34  1  0  0  0  0
 12 35  1  0  0  0  0
 13 14  2  0  0  0  0
 13 15  1  0  0  0  0
 15 20  1  0  0  0  0
 15 16  1  0  0  0  0
 16 17  1  0  0  0  0
 16 36  1  0  0  0  0
 16 37  1  0  0  0  0
 17 18  1  0  0  0  0
 17 38  1  0  0  0  0
 17 39  1  0  0  0  0
 18 19  1  0  0  0  0
 18 40  1  0  0  0  0
 18 41  1  0  0  0  0
 19 20  1  0  0  0  0
 19 42  1  0  0  0  0
 19 43  1  0  0  0  0
 20 44  1  0  0  0  0
 20 45  1  0  0  0  0
 21 22  2  0  0  0  0
 21 46  1  0  0  0  0
M  END
> <s_m_source_file>
AV-unprocessed.smi

> <i_m_source_file_index>
792

> <i_lp_mmshare_version>
43012

> <i_f3d_flags>
0

> <s_epik_input>
W0NIM11jMVtjSF1bY0hdYyhbY0hdbjEpW0NIMl1bQ0gyXVtOSF1DKD1PKVtOSF1bQ0gyXUMoPU8pTjJbQ0gyXVtDSDJdW0NIMl1bQ0gyXVtDSDJdMg==

> <s_epik_cmdline>
J2VwaWtfcHl0aG9uJywgJy1waCcsICc3LjAnLCAnLXRuJywgJzgnLCAnLW1hJywgJzIwMCcsICctbWV0YWxfYmluZGluZycsICctaW1hZScsICc8aW5maWxlLm1hZT4nLCAnLW9tYWUnLCAnPG91dGZpbGUubWFlPic=

> <r_epik_Ionization_Penalty>
0.0629971

> <r_epik_Ionization_Penalty_Charging>
0

> <r_epik_Ionization_Penalty_Neutral>
0.0629971

> <r_epik_State_Penalty>
0.0547377

> <r_epik_Charging_Adjusted_Penalty>
0.0547377

> <i_epik_Tot_Q>
0

> <i_epik_Tot_abs_Q>
0

> <r_epik_Metal_State_Penalty>
0.0494478

> <b_epik_Metal_Only>
0

> <s_lp_Force_Field>
OPLS_2005

> <r_lp_Energy>
16.0081

> <b_lp_Chiralities_Consistent>
1

> <s_lp_Variant>
AV-unprocessed.smi:792-1

> <Gold.Version>
5.8.1

> <Gold.Id.Protein>
6NUR|6NUR_protein|mol2

> <Gold.PLP.Fitness>
48.2820

> <Gold.PLP.PLP>
-42.4293

> <Gold.PLP.part.hbond>
-6.7147

> <Gold.PLP.part.metal>
0.0000

> <Gold.PLP.part.buried>
-0.9213

> <Gold.PLP.part.nonpolar>
-36.1887

> <Gold.PLP.part.repulsive>
0.2903

> <Gold.PLP.ligand.clash>
0.0000

> <Gold.PLP.ligand.torsion>
0.6077

> <Gold.PLP.Chemscore.Hbond>
2.3308

> <Gold.PLP.Chemscore.CHOScore>
0.0000

> <Gold.PLP.Chemscore.Metal>
0.0000

> <Gold.Chemscore.Hbonds>
donor molecule, donor type, donor heavy atom, donor atom, acceptor molecule, acceptor atom, score
      L1  H     8    32       P1  8028  0.73
      P1  H  6933  6944       L1    14  1.00
      P1  H  6934  6946       L1    14  0.19

> <Gold.PLP.Chemscore.Internal.Correction>
0.0757

> <Gold.Rescore>
     Score         DG    S(hbond)    S(metal)    S(lipo)     H(rot)  DE(clash)    DE(int)     intcor
     15.06     -20.77       2.00        0.00     112.47       1.78       0.20       5.51       ----

> <Gold.Chemscore.Fitness>
15.0635

> <Gold.Chemscore.DG>
-20.7688

> <Gold.Chemscore.ZeroCoef>
-5.4800

> <Gold.Chemscore.Hbond>
1.9983

> <Gold.Chemscore.Metal>
0.0000

> <Gold.Chemscore.Lipo>
112.4665

> <Gold.Chemscore.Internal_Hbond>
0.0000

> <Gold.Chemscore.DEClash>
0.1979

> <Gold.Chemscore.DEInternal>
5.5075

> <Gold.Chemscore.Rot>
1.7751

> <Gold.Chemscore.Internal.Correction>
   9.000000E+99

> <Gold.Chemscore.Hbonds>
donor molecule, donor type, donor heavy atom, donor atom, acceptor molecule, acceptor atom, score
      L1  H     8    32       P1  8028  0.62
      P1  H  6933  6944       L1    14  0.96
      P1  H  6934  6946       L1    14  0.01

> <Gold.Chemscore.Hbond.Weighted>
-6.6744

> <Gold.Chemscore.Metal.Weighted>
-0.0000

> <Gold.Chemscore.Lipo.Weighted>
-13.1586

> <Gold.Chemscore.Internal_Hbond.Weighted>
0.0000

> <Gold.Chemscore.DEClash.Weighted>
0.1979

> <Gold.Chemscore.DEInternal.Weighted>
5.5075

> <Gold.Chemscore.Rot.Weighted>
4.5441

> <Gold.Chemscore.Internal.Correction.Weighted>
   9.000000E+99

> <Gold.Protein.RotatedTorsions>
[ 6907 6896 6895 6894 ] final  153.81 input  -60.11 | X-H torsion
[ 7974 7965 7964 7962 ] final    9.44 input  175.53 | X-H torsion
[ 8008 7997 7996 7995 ] final  157.77 input   59.86 | X-H torsion
[ 10167 10162 10161 10158 ] final -153.16 input  -65.29 | X-H torsion
[ 10718 10713 10712 10709 ] final   -6.10 input   66.30 | X-H torsion
[ 10763 10752 10751 10750 ] final   25.94 input  -60.55 | X-H torsion
[ 11005 11000 10999 10996 ] final  145.99 input  -57.11 | X-H torsion

> <Gold.Protein.ActiveResidues>
 VAL166  LYS551  ARG553  GLY616  TRP617  ASP618  TYR619  PRO620  LYS621  CYS622 
 ASP623  PHE694  ASN695  SER759  ASP760  ASP761  ALA762  ILE779  LEU786  VAL792 
 PHE793  MET794  SER795  GLU796  ALA797  LYS798  CYS799  TRP800  GLU811  SER814 

> <Gold.Protein.RotatedAtoms>
  152.0674  133.4090  159.4443 H   0  0  0  0  0  0  0  0  0  0  0  0  # atno 6907 bound_to 6896
  150.6864  134.3131  159.4764 H   0  0  0  0  0  0  0  0  0  0  0  0  # atno 6908 bound_to 6896
  152.0959  134.9375  160.0621 H   0  0  0  0  0  0  0  0  0  0  0  0  # atno 6909 bound_to 6896
  146.2403  139.9784  142.8439 H   0  0  0  0  0  0  0  0  0  0  0  0  # atno 7974 bound_to 7965
  156.2344  140.1876  156.7159 H   0  0  0  0  0  0  0  0  0  0  0  0  # atno 8008 bound_to 7997
  154.6079  140.0626  156.9483 H   0  0  0  0  0  0  0  0  0  0  0  0  # atno 8009 bound_to 7997
  155.2065  140.3296  155.4338 H   0  0  0  0  0  0  0  0  0  0  0  0  # atno 8010 bound_to 7997
  139.7120  143.9093  152.2472 H   0  0  0  0  0  0  0  0  0  0  0  0  # atno 10167 bound_to 10162
  156.7369  130.5197  149.5833 H   0  0  0  0  0  0  0  0  0  0  0  0  # atno 10718 bound_to 10713
  153.0656  135.6571  154.0361 H   0  0  0  0  0  0  0  0  0  0  0  0  # atno 10763 bound_to 10752
  154.0019  135.2936  155.3403 H   0  0  0  0  0  0  0  0  0  0  0  0  # atno 10764 bound_to 10752
  154.7013  135.5243  153.8599 H   0  0  0  0  0  0  0  0  0  0  0  0  # atno 10765 bound_to 10752
  140.0756  134.9126  157.1418 H   0  0  0  0  0  0  0  0  0  0  0  0  # atno 11005 bound_to 11000
  145.1615  140.9675  143.4374 LP  0  0  0  0  0  0  0  0  0  0  0  0  # atno 17320 bound_to 7965
  145.0111  139.3509  143.6119 LP  0  0  0  0  0  0  0  0  0  0  0  0  # atno 17321 bound_to 7965
  139.8965  144.6936  150.8712 LP  0  0  0  0  0  0  0  0  0  0  0  0  # atno 17342 bound_to 10162
  140.7735  143.3546  151.1946 LP  0  0  0  0  0  0  0  0  0  0  0  0  # atno 17343 bound_to 10162
  156.1491  130.6297  151.0571 LP  0  0  0  0  0  0  0  0  0  0  0  0  # atno 17370 bound_to 10713
  157.6835  131.0831  150.7306 LP  0  0  0  0  0  0  0  0  0  0  0  0  # atno 17371 bound_to 10713
  140.3562  134.2544  155.7192 LP  0  0  0  0  0  0  0  0  0  0  0  0  # atno 17394 bound_to 11000
  141.2028  133.7928  157.0371 LP  0  0  0  0  0  0  0  0  0  0  0  0  # atno 17395 bound_to 11000

$$$$
