AV-unprocessed.smi:65|AV-procd|sdf|615|dock1
  -GOLD-   2262016503D 1   1.00000     0.00000
 Structure written by MMmdl.
 26 27  0  0  0  0  0  0  0  0  2 V2000
  149.5847  135.0407  154.3847 N   0  0  0  0  0  0  0  0  0  0  0  0
  148.8697  133.8754  154.2525 C   0  0  0  0  0  0  0  0  0  0  0  0
  148.9622  132.9601  155.2212 N   0  0  0  0  0  0  0  0  0  0  0  0
  148.2661  131.8141  155.0970 C   0  0  0  0  0  0  0  0  0  0  0  0
  147.4507  131.5666  153.9802 C   0  0  0  0  0  0  0  0  0  0  0  0
  147.3876  132.5731  152.9901 C   0  0  0  0  0  0  0  0  0  0  0  0
  146.6097  132.4393  151.8244 N   0  0  0  0  0  0  0  0  0  0  0  0
  145.6616  131.3435  151.6678 C   0  0  0  0  0  0  0  0  0  0  0  0
  144.5640  131.8764  150.7381 C   0  0  0  0  0  0  0  0  0  0  0  0
  145.2430  133.0321  150.0009 C   0  0  1  0  0  0  0  0  0  0  0  0
  144.3223  133.9962  149.5372 O   0  0  0  0  0  0  0  0  0  0  0  0
  146.1882  133.6011  151.0577 C   0  0  0  0  0  0  0  0  0  0  0  0
  148.1134  133.7113  153.1582 N   0  3  0  0  0  0  0  0  0  0  0  0
  149.5370  135.7529  153.6702 H   0  0  0  0  0  0  0  0  0  0  0  0
  150.1763  135.1946  155.1884 H   0  0  0  0  0  0  0  0  0  0  0  0
  148.3618  131.0903  155.8929 H   0  0  0  0  0  0  0  0  0  0  0  0
  146.9078  130.6369  153.8961 H   0  0  0  0  0  0  0  0  0  0  0  0
  146.1758  130.4960  151.2138 H   0  0  0  0  0  0  0  0  0  0  0  0
  145.2402  131.0198  152.6202 H   0  0  0  0  0  0  0  0  0  0  0  0
  144.1685  131.1139  150.0663 H   0  0  0  0  0  0  0  0  0  0  0  0
  143.7361  132.2538  151.3408 H   0  0  0  0  0  0  0  0  0  0  0  0
  145.8199  132.6438  149.1603 H   0  0  0  0  0  0  0  0  0  0  0  0
  144.6922  134.4300  148.7832 H   0  0  0  0  0  0  0  0  0  0  0  0
  145.6651  134.2962  151.7166 H   0  0  0  0  0  0  0  0  0  0  0  0
  147.0344  134.1201  150.6060 H   0  0  0  0  0  0  0  0  0  0  0  0
  148.0751  134.4392  152.4450 H   0  0  0  0  0  0  0  0  0  0  0  0
  1  2  1  0  0  0  0
  1 14  1  0  0  0  0
  1 15  1  0  0  0  0
  2 13  1  0  0  0  0
  2  3  2  0  0  0  0
  3  4  1  0  0  0  0
  4  5  2  0  0  0  0
  4 16  1  0  0  0  0
  5  6  1  0  0  0  0
  5 17  1  0  0  0  0
  6  7  1  0  0  0  0
  6 13  2  0  0  0  0
  7 12  1  0  0  0  0
  7  8  1  0  0  0  0
  8  9  1  0  0  0  0
  8 18  1  0  0  0  0
  8 19  1  0  0  0  0
  9 10  1  0  0  0  0
  9 20  1  0  0  0  0
  9 21  1  0  0  0  0
 10 11  1  0  0  0  0
 10 12  1  0  0  0  0
 10 22  1  0  0  0  0
 11 23  1  0  0  0  0
 12 24  1  0  0  0  0
 12 25  1  0  0  0  0
 13 26  1  0  0  0  0
M  CHG  1  13   1
M  END
> <s_m_source_file>
AV-unprocessed.smi

> <i_m_source_file_index>
65

> <i_lp_mmshare_version>
43012

> <i_f3d_flags>
0

> <s_epik_input>
W05IMl1jMW5bY0hdW2NIXWMobjEpTjJbQ0gyXVtDSDJdW0NAQEhdKFtPSF0pW0NIMl0y

> <s_epik_cmdline>
J2VwaWtfcHl0aG9uJywgJy1waCcsICc3LjAnLCAnLXRuJywgJzgnLCAnLW1hJywgJzIwMCcsICctbWV0YWxfYmluZGluZycsICctaW1hZScsICc8aW5maWxlLm1hZT4nLCAnLW9tYWUnLCAnPG91dGZpbGUubWFlPic=

> <r_lp_tautomer_probability>
0.424989

> <r_epik_Ionization_Penalty>
0.57487

> <r_epik_Ionization_Penalty_Charging>
0.574865

> <r_epik_Ionization_Penalty_Neutral>
4.40886e-06

> <r_epik_State_Penalty>
0.845539

> <r_epik_Charging_Adjusted_Penalty>
1.4204

> <i_epik_Tot_Q>
1

> <i_epik_Tot_abs_Q>
1

> <r_epik_Metal_State_Penalty>
1.14248

> <b_epik_Metal_Only>
0

> <s_lp_Force_Field>
OPLS_2005

> <r_lp_Energy>
20.8145

> <b_lp_Chiralities_Consistent>
1

> <s_lp_Variant>
AV-unprocessed.smi:65-5

> <Gold.Version>
5.8.1

> <Gold.Id.Protein>
6NUR|6NUR_protein|mol2

> <Gold.PLP.Fitness>
36.2686

> <Gold.PLP.PLP>
-22.4488

> <Gold.PLP.part.hbond>
-3.0000

> <Gold.PLP.part.metal>
0.0000

> <Gold.PLP.part.buried>
-2.5595

> <Gold.PLP.part.nonpolar>
-16.7320

> <Gold.PLP.part.repulsive>
0.0551

> <Gold.PLP.ligand.clash>
0.0000

> <Gold.PLP.ligand.torsion>
0.1202

> <Gold.PLP.Chemscore.Hbond>
4.6160

> <Gold.PLP.Chemscore.CHOScore>
0.0000

> <Gold.PLP.Chemscore.Metal>
0.0000

> <Gold.Chemscore.Hbonds>
donor molecule, donor type, donor heavy atom, donor atom, acceptor molecule, acceptor atom, score
      L1  H     1    14       P1  7948  1.89
      L1  H    11    23       P1  7921  1.00
      L1  H    13    26       P1  7948  1.73

> <Gold.PLP.Chemscore.Internal.Correction>
0.2123

> <Gold.Rescore>
     Score         DG    S(hbond)    S(metal)    S(lipo)     H(rot)  DE(clash)    DE(int)     intcor
     15.30     -15.47       2.34        0.00      40.45       1.00       0.05       0.12       ----

> <Gold.Chemscore.Fitness>
15.3004

> <Gold.Chemscore.DG>
-15.4744

> <Gold.Chemscore.ZeroCoef>
-5.4800

> <Gold.Chemscore.Hbond>
2.3418

> <Gold.Chemscore.Metal>
0.0000

> <Gold.Chemscore.Lipo>
40.4506

> <Gold.Chemscore.Internal_Hbond>
0.0000

> <Gold.Chemscore.DEClash>
0.0529

> <Gold.Chemscore.DEInternal>
0.1212

> <Gold.Chemscore.Rot>
1.0000

> <Gold.Chemscore.Internal.Correction>
   9.000000E+99

> <Gold.Chemscore.Hbonds>
donor molecule, donor type, donor heavy atom, donor atom, acceptor molecule, acceptor atom, score
      L1  H     1    14       P1  7948  0.27
      L1  H    11    23       P1  7921  0.96
      L1  H    13    26       P1  7948  0.24

> <Gold.Chemscore.Hbond.Weighted>
-7.8217

> <Gold.Chemscore.Metal.Weighted>
-0.0000

> <Gold.Chemscore.Lipo.Weighted>
-4.7327

> <Gold.Chemscore.Internal_Hbond.Weighted>
0.0000

> <Gold.Chemscore.DEClash.Weighted>
0.0529

> <Gold.Chemscore.DEInternal.Weighted>
0.1212

> <Gold.Chemscore.Rot.Weighted>
2.5600

> <Gold.Chemscore.Internal.Correction.Weighted>
   9.000000E+99

> <Gold.Protein.RotatedTorsions>
[ 6907 6896 6895 6894 ] final   81.50 input  -60.11 | X-H torsion
[ 7974 7965 7964 7962 ] final  110.39 input  175.53 | X-H torsion
[ 8008 7997 7996 7995 ] final  -54.79 input   59.86 | X-H torsion
[ 10167 10162 10161 10158 ] final -162.00 input  -65.29 | X-H torsion
[ 10718 10713 10712 10709 ] final   11.19 input   66.30 | X-H torsion
[ 10763 10752 10751 10750 ] final    7.84 input  -60.55 | X-H torsion
[ 11005 11000 10999 10996 ] final   36.55 input  -57.11 | X-H torsion

> <Gold.Protein.ActiveResidues>
 VAL166  LYS551  ARG553  GLY616  TRP617  ASP618  TYR619  PRO620  LYS621  CYS622 
 ASP623  PHE694  ASN695  SER759  ASP760  ASP761  ALA762  ILE779  LEU786  VAL792 
 PHE793  MET794  SER795  GLU796  ALA797  LYS798  CYS799  TRP800  GLU811  SER814 

> <Gold.Protein.RotatedAtoms>
  152.5270  134.3194  159.9142 H   0  0  0  0  0  0  0  0  0  0  0  0  # atno 6907 bound_to 6896
  151.3143  133.4060  159.2657 H   0  0  0  0  0  0  0  0  0  0  0  0  # atno 6908 bound_to 6896
  151.0012  134.9340  159.8012 H   0  0  0  0  0  0  0  0  0  0  0  0  # atno 6909 bound_to 6896
  145.2556  139.2722  143.4044 H   0  0  0  0  0  0  0  0  0  0  0  0  # atno 7974 bound_to 7965
  154.4174  140.1168  156.5372 H   0  0  0  0  0  0  0  0  0  0  0  0  # atno 8008 bound_to 7997
  155.6545  140.3496  155.4741 H   0  0  0  0  0  0  0  0  0  0  0  0  # atno 8009 bound_to 7997
  155.9765  140.1151  157.0755 H   0  0  0  0  0  0  0  0  0  0  0  0  # atno 8010 bound_to 7997
  139.6424  144.0235  152.2102 H   0  0  0  0  0  0  0  0  0  0  0  0  # atno 10167 bound_to 10162
  156.9919  130.6046  149.5687 H   0  0  0  0  0  0  0  0  0  0  0  0  # atno 10718 bound_to 10713
  153.2317  135.6893  153.7882 H   0  0  0  0  0  0  0  0  0  0  0  0  # atno 10763 bound_to 10752
  153.7044  135.3292  155.3233 H   0  0  0  0  0  0  0  0  0  0  0  0  # atno 10764 bound_to 10752
  154.8317  135.4575  154.1205 H   0  0  0  0  0  0  0  0  0  0  0  0  # atno 10765 bound_to 10752
  140.2314  134.3522  155.7962 H   0  0  0  0  0  0  0  0  0  0  0  0  # atno 11005 bound_to 11000
  146.3290  140.2959  142.8618 LP  0  0  0  0  0  0  0  0  0  0  0  0  # atno 17320 bound_to 7965
  144.9464  140.8132  143.5599 LP  0  0  0  0  0  0  0  0  0  0  0  0  # atno 17321 bound_to 7965
  139.9928  144.6349  150.7799 LP  0  0  0  0  0  0  0  0  0  0  0  0  # atno 17342 bound_to 10162
  140.7497  143.2944  151.3245 LP  0  0  0  0  0  0  0  0  0  0  0  0  # atno 17343 bound_to 10162
  156.0204  130.5298  150.8258 LP  0  0  0  0  0  0  0  0  0  0  0  0  # atno 17370 bound_to 10713
  157.5452  131.0942  150.9772 LP  0  0  0  0  0  0  0  0  0  0  0  0  # atno 17371 bound_to 10713
  141.2217  133.7248  156.8738 LP  0  0  0  0  0  0  0  0  0  0  0  0  # atno 17394 bound_to 11000
  140.1746  134.9076  157.2875 LP  0  0  0  0  0  0  0  0  0  0  0  0  # atno 17395 bound_to 11000

$$$$
