AV-unprocessed.smi:1762|AV-procd|sdf|7107|dock9
  -GOLD-   22720 8333D 1   1.00000     0.00000
 Structure written by MMmdl.
 53 54  0  0  0  0  0  0  0  0  2 V2000
  150.0964  141.2316  157.4105 C   0  0  0  0  0  0  0  0  0  0  0  0
  150.3934  140.9867  155.9206 C   0  0  2  0  0  0  0  0  0  0  0  0
  149.1366  141.0425  155.0299 C   0  0  0  0  0  0  0  0  0  0  0  0
  148.2705  139.8630  155.1593 N   0  0  0  0  0  0  0  0  0  0  0  0
  147.0412  139.9605  154.3219 C   0  0  1  0  0  0  0  0  0  0  0  0
  146.2598  138.6282  154.2059 C   0  0  0  0  0  0  0  0  0  0  0  0
  146.1376  137.8854  155.1796 O   0  0  0  0  0  0  0  0  0  0  0  0
  145.7668  138.3234  152.9943 N   0  0  0  0  0  0  0  0  0  0  0  0
  145.0688  137.0852  152.6609 C   0  0  0  0  0  0  0  0  0  0  0  0
  145.8802  136.1560  151.7370 C   0  0  0  0  0  0  0  0  0  0  0  0
  145.4157  134.7103  151.7657 C   0  0  0  0  0  0  0  0  0  0  0  0
  144.1628  134.3170  151.2474 C   0  0  0  0  0  0  0  0  0  0  0  0
  143.7838  132.9599  151.3151 C   0  0  0  0  0  0  0  0  0  0  0  0
  144.6643  132.0255  151.8989 C   0  0  0  0  0  0  0  0  0  0  0  0
  145.9034  132.4728  152.4007 C   0  0  0  0  0  0  0  0  0  0  0  0
  146.2290  133.7814  152.3180 N   0  3  0  0  0  0  0  0  0  0  0  0
  146.0957  141.1517  154.6994 C   0  0  0  0  0  0  0  0  0  0  0  0
  146.6331  142.5363  154.2837 C   0  0  0  0  0  0  0  0  0  0  0  0
  145.6705  141.1623  156.1804 C   0  0  0  0  0  0  0  0  0  0  0  0
  149.0861  138.6587  154.9336 C   0  0  0  0  0  0  0  0  0  0  0  0
  150.3129  138.5886  155.8616 C   0  0  1  0  0  0  0  0  0  0  0  0
  151.2048  137.3818  155.5488 C   0  0  0  0  0  0  0  0  0  0  0  0
  151.0982  139.7658  155.7088 O   0  0  0  0  0  0  0  0  0  0  0  0
  149.6727  142.2246  157.5625 H   0  0  0  0  0  0  0  0  0  0  0  0
  151.0084  141.1680  158.0039 H   0  0  0  0  0  0  0  0  0  0  0  0
  149.3838  140.5112  157.8117 H   0  0  0  0  0  0  0  0  0  0  0  0
  151.0651  141.7832  155.5992 H   0  0  0  0  0  0  0  0  0  0  0  0
  148.6024  141.9554  155.2847 H   0  0  0  0  0  0  0  0  0  0  0  0
  149.4489  141.1503  153.9897 H   0  0  0  0  0  0  0  0  0  0  0  0
  147.3761  140.1743  153.3047 H   0  0  0  0  0  0  0  0  0  0  0  0
  145.9236  138.9780  152.2411 H   0  0  0  0  0  0  0  0  0  0  0  0
  144.8484  136.5672  153.5947 H   0  0  0  0  0  0  0  0  0  0  0  0
  144.1040  137.3154  152.2061 H   0  0  0  0  0  0  0  0  0  0  0  0
  145.8203  136.5223  150.7117 H   0  0  0  0  0  0  0  0  0  0  0  0
  146.9370  136.1946  152.0063 H   0  0  0  0  0  0  0  0  0  0  0  0
  143.4981  135.0451  150.8055 H   0  0  0  0  0  0  0  0  0  0  0  0
  142.8286  132.6397  150.9247 H   0  0  0  0  0  0  0  0  0  0  0  0
  144.3928  130.9817  151.9606 H   0  0  0  0  0  0  0  0  0  0  0  0
  146.6377  131.8296  152.8632 H   0  0  0  0  0  0  0  0  0  0  0  0
  145.1590  141.0079  154.1634 H   0  0  0  0  0  0  0  0  0  0  0  0
  147.5300  142.8123  154.8368 H   0  0  0  0  0  0  0  0  0  0  0  0
  145.8891  143.3114  154.4686 H   0  0  0  0  0  0  0  0  0  0  0  0
  146.8739  142.5716  153.2211 H   0  0  0  0  0  0  0  0  0  0  0  0
  146.4978  141.4200  156.8418 H   0  0  0  0  0  0  0  0  0  0  0  0
  145.2811  140.1902  156.4831 H   0  0  0  0  0  0  0  0  0  0  0  0
  144.8818  141.8955  156.3519 H   0  0  0  0  0  0  0  0  0  0  0  0
  148.5119  137.7509  155.1160 H   0  0  0  0  0  0  0  0  0  0  0  0
  149.4095  138.6230  153.8918 H   0  0  0  0  0  0  0  0  0  0  0  0
  149.9811  138.5062  156.8969 H   0  0  0  0  0  0  0  0  0  0  0  0
  150.6575  136.4468  155.6710 H   0  0  0  0  0  0  0  0  0  0  0  0
  152.0669  137.3513  156.2153 H   0  0  0  0  0  0  0  0  0  0  0  0
  151.5769  137.4206  154.5244 H   0  0  0  0  0  0  0  0  0  0  0  0
  147.1297  134.0839  152.6903 H   0  0  0  0  0  0  0  0  0  0  0  0
  1  2  1  0  0  0  0
  1 24  1  0  0  0  0
  1 25  1  0  0  0  0
  1 26  1  0  0  0  0
  2 23  1  0  0  0  0
  2  3  1  0  0  0  0
  2 27  1  0  0  0  0
  3  4  1  0  0  0  0
  3 28  1  0  0  0  0
  3 29  1  0  0  0  0
  4  5  1  0  0  0  0
  4 20  1  0  0  0  0
  5  6  1  0  0  0  0
  5 17  1  0  0  0  0
  5 30  1  0  0  0  0
  6  7  2  0  0  0  0
  6  8  1  0  0  0  0
  8  9  1  0  0  0  0
  8 31  1  0  0  0  0
  9 10  1  0  0  0  0
  9 32  1  0  0  0  0
  9 33  1  0  0  0  0
 10 11  1  0  0  0  0
 10 34  1  0  0  0  0
 10 35  1  0  0  0  0
 11 16  1  0  0  0  0
 11 12  2  0  0  0  0
 12 13  1  0  0  0  0
 12 36  1  0  0  0  0
 13 14  2  0  0  0  0
 13 37  1  0  0  0  0
 14 15  1  0  0  0  0
 14 38  1  0  0  0  0
 15 16  2  0  0  0  0
 15 39  1  0  0  0  0
 16 53  1  0  0  0  0
 17 18  1  0  0  0  0
 17 19  1  0  0  0  0
 17 40  1  0  0  0  0
 18 41  1  0  0  0  0
 18 42  1  0  0  0  0
 18 43  1  0  0  0  0
 19 44  1  0  0  0  0
 19 45  1  0  0  0  0
 19 46  1  0  0  0  0
 20 21  1  0  0  0  0
 20 47  1  0  0  0  0
 20 48  1  0  0  0  0
 21 22  1  0  0  0  0
 21 23  1  0  0  0  0
 21 49  1  0  0  0  0
 22 50  1  0  0  0  0
 22 51  1  0  0  0  0
 22 52  1  0  0  0  0
M  CHG  1  16   1
M  END
> <s_m_source_file>
AV-unprocessed.smi

> <i_m_source_file_index>
1762

> <i_lp_mmshare_version>
43012

> <i_f3d_flags>
0

> <s_epik_input>
W0NIM11bQ0BASF0xW0NIMl1OKFtDSDJdW0NASF0oTzEpW0NIM10pW0NAQEhdKFtDSF0oW0NIM10pW0NIM10pQyg9TylbTkhdW0NIMl1bQ0gyXWMyW2NIXVtjSF1bY0hdW2NIXW4y

> <s_epik_cmdline>
J2VwaWtfcHl0aG9uJywgJy1waCcsICc3LjAnLCAnLXRuJywgJzgnLCAnLW1hJywgJzIwMCcsICctbWV0YWxfYmluZGluZycsICctaW1hZScsICc8aW5maWxlLm1hZT4nLCAnLW9tYWUnLCAnPG91dGZpbGUubWFlPic=

> <r_epik_Ionization_Penalty>
1.86475

> <r_epik_Ionization_Penalty_Charging>
1.85347

> <r_epik_Ionization_Penalty_Neutral>
0.0112771

> <r_epik_State_Penalty>
1.99714

> <r_epik_Charging_Adjusted_Penalty>
3.85061

> <i_epik_Tot_Q>
1

> <i_epik_Tot_abs_Q>
1

> <r_epik_Metal_State_Penalty>
2.02271

> <b_epik_Metal_Only>
0

> <s_lp_Force_Field>
OPLS_2005

> <r_lp_Energy>
36.6316

> <b_lp_Chiralities_Consistent>
1

> <s_lp_Variant>
AV-unprocessed.smi:1762-9

> <Gold.Version>
5.8.1

> <Gold.Id.Protein>
6NUR|6NUR_protein|mol2

> <Gold.PLP.Fitness>
47.0471

> <Gold.PLP.PLP>
-39.6065

> <Gold.PLP.part.hbond>
-3.0000

> <Gold.PLP.part.metal>
0.0000

> <Gold.PLP.part.buried>
-3.6648

> <Gold.PLP.part.nonpolar>
-33.4129

> <Gold.PLP.part.repulsive>
0.2438

> <Gold.PLP.ligand.clash>
0.0000

> <Gold.PLP.ligand.torsion>
1.2041

> <Gold.PLP.Chemscore.Hbond>
3.1544

> <Gold.PLP.Chemscore.CHOScore>
0.0000

> <Gold.PLP.Chemscore.Metal>
0.0000

> <Gold.PLP.Chemscore.Internal.Correction>
0.3854

> <Gold.Rescore>
     Score         DG    S(hbond)    S(metal)    S(lipo)     H(rot)  DE(clash)    DE(int)     intcor
     13.04     -16.34       1.01        0.00     101.63       1.72       1.88       1.42       ----

> <Gold.Chemscore.Fitness>
13.0388

> <Gold.Chemscore.DG>
-16.3421

> <Gold.Chemscore.ZeroCoef>
-5.4800

> <Gold.Chemscore.Hbond>
1.0084

> <Gold.Chemscore.Metal>
0.0000

> <Gold.Chemscore.Lipo>
101.6288

> <Gold.Chemscore.Internal_Hbond>
0.0000

> <Gold.Chemscore.DEClash>
1.8821

> <Gold.Chemscore.DEInternal>
1.4212

> <Gold.Chemscore.Rot>
1.7174

> <Gold.Chemscore.Internal.Correction>
   9.000000E+99

> <Gold.Chemscore.Hbond.Weighted>
-3.3681

> <Gold.Chemscore.Metal.Weighted>
-0.0000

> <Gold.Chemscore.Lipo.Weighted>
-11.8906

> <Gold.Chemscore.Internal_Hbond.Weighted>
0.0000

> <Gold.Chemscore.DEClash.Weighted>
1.8821

> <Gold.Chemscore.DEInternal.Weighted>
1.4212

> <Gold.Chemscore.Rot.Weighted>
4.3966

> <Gold.Chemscore.Internal.Correction.Weighted>
   9.000000E+99

> <Gold.Protein.RotatedTorsions>
[ 6907 6896 6895 6894 ] final -110.00 input  -60.11 | X-H torsion
[ 7974 7965 7964 7962 ] final   19.01 input  175.53 | X-H torsion
[ 8008 7997 7996 7995 ] final  -34.19 input   59.86 | X-H torsion
[ 10167 10162 10161 10158 ] final  -93.59 input  -65.29 | X-H torsion
[ 10718 10713 10712 10709 ] final  150.35 input   66.30 | X-H torsion
[ 10763 10752 10751 10750 ] final   -0.89 input  -60.55 | X-H torsion
[ 11005 11000 10999 10996 ] final  -54.10 input  -57.11 | X-H torsion

> <Gold.Protein.ActiveResidues>
 VAL166  LYS551  ARG553  GLY616  TRP617  ASP618  TYR619  PRO620  LYS621  CYS622 
 ASP623  PHE694  ASN695  SER759  ASP760  ASP761  ALA762  ILE779  LEU786  VAL792 
 PHE793  MET794  SER795  GLU796  ALA797  LYS798  CYS799  TRP800  GLU811  SER814 

> <Gold.Protein.RotatedAtoms>
  150.7597  133.9446  159.3466 H   0  0  0  0  0  0  0  0  0  0  0  0  # atno 6907 bound_to 6896
  151.7358  135.0863  160.0317 H   0  0  0  0  0  0  0  0  0  0  0  0  # atno 6908 bound_to 6896
  152.3560  133.6201  159.6016 H   0  0  0  0  0  0  0  0  0  0  0  0  # atno 6909 bound_to 6896
  146.2165  139.8375  142.8647 H   0  0  0  0  0  0  0  0  0  0  0  0  # atno 7974 bound_to 7965
  154.4127  140.1690  156.2010 H   0  0  0  0  0  0  0  0  0  0  0  0  # atno 8008 bound_to 7997
  155.9524  140.3400  155.6396 H   0  0  0  0  0  0  0  0  0  0  0  0  # atno 8009 bound_to 7997
  155.6853  140.0727  157.2460 H   0  0  0  0  0  0  0  0  0  0  0  0  # atno 8010 bound_to 7997
  140.3231  143.3037  152.0024 H   0  0  0  0  0  0  0  0  0  0  0  0  # atno 10167 bound_to 10162
  157.2845  131.0842  151.1507 H   0  0  0  0  0  0  0  0  0  0  0  0  # atno 10718 bound_to 10713
  153.3377  135.6979  153.6893 H   0  0  0  0  0  0  0  0  0  0  0  0  # atno 10763 bound_to 10752
  153.5671  135.3523  155.2823 H   0  0  0  0  0  0  0  0  0  0  0  0  # atno 10764 bound_to 10752
  154.8630  135.4263  154.2582 H   0  0  0  0  0  0  0  0  0  0  0  0  # atno 10765 bound_to 10752
  141.1009  133.6618  156.4271 H   0  0  0  0  0  0  0  0  0  0  0  0  # atno 11005 bound_to 11000
  145.2933  141.0173  143.3650 LP  0  0  0  0  0  0  0  0  0  0  0  0  # atno 17320 bound_to 7965
  144.9060  139.4588  143.6609 LP  0  0  0  0  0  0  0  0  0  0  0  0  # atno 17321 bound_to 7965
  139.4870  144.6295  151.7098 LP  0  0  0  0  0  0  0  0  0  0  0  0  # atno 17342 bound_to 10162
  140.5465  144.0495  150.6109 LP  0  0  0  0  0  0  0  0  0  0  0  0  # atno 17343 bound_to 10162
  157.2928  130.6804  149.6123 LP  0  0  0  0  0  0  0  0  0  0  0  0  # atno 17370 bound_to 10713
  155.9665  130.4416  150.5345 LP  0  0  0  0  0  0  0  0  0  0  0  0  # atno 17371 bound_to 10713
  140.5024  134.6473  157.5253 LP  0  0  0  0  0  0  0  0  0  0  0  0  # atno 17394 bound_to 11000
  139.9860  134.7060  155.9772 LP  0  0  0  0  0  0  0  0  0  0  0  0  # atno 17395 bound_to 11000

$$$$
