AV-unprocessed.smi:1046|AV-procd|sdf|4553|dock6
  -GOLD-   22720 2583D 1   1.00000     0.00000
 Structure written by MMmdl.
 54 56  0  0  0  0  0  0  0  0  3 V2000
  151.9628  145.0944  160.2846 C   0  0  0  0  0  0  0  0  0  0  0  0
  151.8290  143.8403  159.4374 C   0  0  0  0  0  0  0  0  0  0  0  0
  151.1534  143.9328  158.1995 C   0  0  0  0  0  0  0  0  0  0  0  0
  151.0436  142.7687  157.4482 C   0  0  0  0  0  0  0  0  0  0  0  0
  150.4428  142.5304  156.2102 N   0  3  0  0  0  0  0  0  0  0  0  0
  150.5879  141.2172  155.8791 C   0  0  0  0  0  0  0  0  0  0  0  0
  151.2835  140.6160  156.8832 N   0  0  0  0  0  0  0  0  0  0  0  0
  151.7078  139.2186  157.0384 C   0  0  0  0  0  0  0  0  0  0  0  0
  151.8404  138.4713  155.6956 C   0  0  1  0  0  0  0  0  0  0  0  0
  152.7108  137.3786  155.9085 O   0  0  0  0  0  0  0  0  0  0  0  0
  150.4907  137.9463  155.1581 C   0  0  0  0  0  0  0  0  0  0  0  0
  150.1858  136.5648  155.6094 N   0  3  0  0  0  0  0  0  0  0  0  0
  150.7047  135.5141  154.6922 C   0  0  0  0  0  0  0  0  0  0  0  0
  150.3818  134.1107  155.2441 C   0  0  0  0  0  0  0  0  0  0  0  0
  148.9524  133.8953  155.4826 N   0  0  0  0  0  0  0  0  0  0  0  0
  148.1404  133.7904  154.2657 C   0  0  0  0  0  0  0  0  0  0  0  0
  148.6344  132.7568  153.2410 C   0  0  0  0  0  0  0  0  0  0  0  0
  147.8996  132.9011  152.0456 O   0  0  0  0  0  0  0  0  0  0  0  0
  148.4739  134.9364  156.3914 C   0  0  0  0  0  0  0  0  0  0  0  0
  148.7369  136.3649  155.8725 C   0  0  0  0  0  0  0  0  0  0  0  0
  151.5799  141.5431  157.8880 C   0  0  0  0  0  0  0  0  0  0  0  0
  152.2459  141.4332  159.1060 C   0  0  0  0  0  0  0  0  0  0  0  0
  152.3659  142.6055  159.8862 C   0  0  0  0  0  0  0  0  0  0  0  0
  153.0844  142.5152  161.2218 C   0  0  0  0  0  0  0  0  0  0  0  0
  151.6020  145.9752  159.7525 H   0  0  0  0  0  0  0  0  0  0  0  0
  153.0048  145.2734  160.5507 H   0  0  0  0  0  0  0  0  0  0  0  0
  151.3821  144.9959  161.2021 H   0  0  0  0  0  0  0  0  0  0  0  0
  150.7374  144.8686  157.8551 H   0  0  0  0  0  0  0  0  0  0  0  0
  150.2200  140.7411  154.9815 H   0  0  0  0  0  0  0  0  0  0  0  0
  152.6512  139.2098  157.5868 H   0  0  0  0  0  0  0  0  0  0  0  0
  150.9747  138.7238  157.6775 H   0  0  0  0  0  0  0  0  0  0  0  0
  152.3103  139.1357  154.9718 H   0  0  0  0  0  0  0  0  0  0  0  0
  153.4409  137.6628  156.4368 H   0  0  0  0  0  0  0  0  0  0  0  0
  149.7015  138.6251  155.4860 H   0  0  0  0  0  0  0  0  0  0  0  0
  150.4689  137.9651  154.0681 H   0  0  0  0  0  0  0  0  0  0  0  0
  150.2821  135.6443  153.6952 H   0  0  0  0  0  0  0  0  0  0  0  0
  151.7845  135.6089  154.5846 H   0  0  0  0  0  0  0  0  0  0  0  0
  150.7776  133.3470  154.5757 H   0  0  0  0  0  0  0  0  0  0  0  0
  150.9185  133.9747  156.1841 H   0  0  0  0  0  0  0  0  0  0  0  0
  147.1256  133.5096  154.5512 H   0  0  0  0  0  0  0  0  0  0  0  0
  148.0509  134.7615  153.7795 H   0  0  0  0  0  0  0  0  0  0  0  0
  149.6909  132.8906  153.0107 H   0  0  0  0  0  0  0  0  0  0  0  0
  148.5034  131.7431  153.6207 H   0  0  0  0  0  0  0  0  0  0  0  0
  148.1105  132.1794  151.4725 H   0  0  0  0  0  0  0  0  0  0  0  0
  147.4085  134.8016  156.5819 H   0  0  0  0  0  0  0  0  0  0  0  0
  148.9640  134.8164  157.3587 H   0  0  0  0  0  0  0  0  0  0  0  0
  148.4011  137.0835  156.6210 H   0  0  0  0  0  0  0  0  0  0  0  0
  148.1617  136.5644  154.9673 H   0  0  0  0  0  0  0  0  0  0  0  0
  152.6517  140.4927  159.4488 H   0  0  0  0  0  0  0  0  0  0  0  0
  153.3590  141.4867  161.4584 H   0  0  0  0  0  0  0  0  0  0  0  0
  152.4486  142.8820  162.0279 H   0  0  0  0  0  0  0  0  0  0  0  0
  153.9985  143.1092  161.2032 H   0  0  0  0  0  0  0  0  0  0  0  0
  150.6480  136.4385  156.4983 H   0  0  0  0  0  0  0  0  0  0  0  0
  149.9627  143.2109  155.6347 H   0  0  0  0  0  0  0  0  0  0  0  0
  1  2  1  0  0  0  0
  1 25  1  0  0  0  0
  1 26  1  0  0  0  0
  1 27  1  0  0  0  0
  2 23  1  0  0  0  0
  2  3  2  0  0  0  0
  3  4  1  0  0  0  0
  3 28  1  0  0  0  0
  4 21  2  0  0  0  0
  4  5  1  0  0  0  0
  5  6  2  0  0  0  0
  5 54  1  0  0  0  0
  6  7  1  0  0  0  0
  6 29  1  0  0  0  0
  7  8  1  0  0  0  0
  7 21  1  0  0  0  0
  8  9  1  0  0  0  0
  8 30  1  0  0  0  0
  8 31  1  0  0  0  0
  9 10  1  0  0  0  0
  9 11  1  0  0  0  0
  9 32  1  0  0  0  0
 10 33  1  0  0  0  0
 11 12  1  0  0  0  0
 11 34  1  0  0  0  0
 11 35  1  0  0  0  0
 12 20  1  0  0  0  0
 12 13  1  0  0  0  0
 12 53  1  0  0  0  0
 13 14  1  0  0  0  0
 13 36  1  0  0  0  0
 13 37  1  0  0  0  0
 14 15  1  0  0  0  0
 14 38  1  0  0  0  0
 14 39  1  0  0  0  0
 15 16  1  0  0  0  0
 15 19  1  0  0  0  0
 16 17  1  0  0  0  0
 16 40  1  0  0  0  0
 16 41  1  0  0  0  0
 17 18  1  0  0  0  0
 17 42  1  0  0  0  0
 17 43  1  0  0  0  0
 18 44  1  0  0  0  0
 19 20  1  0  0  0  0
 19 45  1  0  0  0  0
 19 46  1  0  0  0  0
 20 47  1  0  0  0  0
 20 48  1  0  0  0  0
 21 22  1  0  0  0  0
 22 23  2  0  0  0  0
 22 49  1  0  0  0  0
 23 24  1  0  0  0  0
 24 50  1  0  0  0  0
 24 51  1  0  0  0  0
 24 52  1  0  0  0  0
M  CHG  1   5   1
M  CHG  1  12   1
M  END
> <s_m_source_file>
AV-unprocessed.smi

> <i_m_source_file_index>
1046

> <i_lp_mmshare_version>
43012

> <i_f3d_flags>
0

> <s_epik_input>
W0NIM11jKFtjSF0xKWMoW0NIM10pW2NIXWMoYzEyKW4oW2NIXW4yKVtDSDJdW0NASF0oW09IXSlbQ0gyXU4zW0NIMl1bQ0gyXU4oW0NIMl1bQ0gyXTMpW0NIMl1bQ0gyXVtPSF0=

> <s_epik_cmdline>
J2VwaWtfcHl0aG9uJywgJy1waCcsICc3LjAnLCAnLXRuJywgJzgnLCAnLW1hJywgJzIwMCcsICctbWV0YWxfYmluZGluZycsICctaW1hZScsICc8aW5maWxlLm1hZT4nLCAnLW9tYWUnLCAnPG91dGZpbGUubWFlPic=

> <r_epik_Ionization_Penalty>
1.22056

> <r_epik_Ionization_Penalty_Charging>
1.17959

> <r_epik_Ionization_Penalty_Neutral>
0.0409743

> <r_epik_State_Penalty>
1.27074

> <r_epik_Charging_Adjusted_Penalty>
2.45032

> <i_epik_Tot_Q>
2

> <i_epik_Tot_abs_Q>
2

> <r_epik_Metal_State_Penalty>
5.26922

> <b_epik_Metal_Only>
0

> <s_lp_Force_Field>
OPLS_2005

> <r_lp_Energy>
42.2252

> <b_lp_Chiralities_Consistent>
1

> <s_lp_Variant>
AV-unprocessed.smi:1046-6

> <Gold.Version>
5.8.1

> <Gold.Id.Protein>
6NUR|6NUR_protein|mol2

> <Gold.PLP.Fitness>
54.3617

> <Gold.PLP.PLP>
-47.2321

> <Gold.PLP.part.hbond>
-3.0000

> <Gold.PLP.part.metal>
0.0000

> <Gold.PLP.part.buried>
-6.5314

> <Gold.PLP.part.nonpolar>
-39.1928

> <Gold.PLP.part.repulsive>
0.1894

> <Gold.PLP.ligand.clash>
0.1128

> <Gold.PLP.ligand.torsion>
1.4317

> <Gold.PLP.Chemscore.Hbond>
3.3440

> <Gold.PLP.Chemscore.CHOScore>
0.0000

> <Gold.PLP.Chemscore.Metal>
0.0000

> <Gold.Chemscore.Hbonds>
donor molecule, donor type, donor heavy atom, donor atom, acceptor molecule, acceptor atom, score
      L1  H     5    54       P1  8028  1.79
      L1  H    18    44       P1 10747  1.00
      P1  H 10752 10764       L1    10  0.51

> <Gold.PLP.Chemscore.Internal.Correction>
0.0738

> <Gold.Rescore>
     Score         DG    S(hbond)    S(metal)    S(lipo)     H(rot)  DE(clash)    DE(int)     intcor
     17.09     -19.58       2.37        0.00     124.74       3.29       0.01       2.49       ----

> <Gold.Chemscore.Fitness>
17.0863

> <Gold.Chemscore.DG>
-19.5840

> <Gold.Chemscore.ZeroCoef>
-5.4800

> <Gold.Chemscore.Hbond>
2.3746

> <Gold.Chemscore.Metal>
0.0000

> <Gold.Chemscore.Lipo>
124.7382

> <Gold.Chemscore.Internal_Hbond>
0.0000

> <Gold.Chemscore.DEClash>
0.0089

> <Gold.Chemscore.DEInternal>
2.4889

> <Gold.Chemscore.Rot>
3.2896

> <Gold.Chemscore.Internal.Correction>
   9.000000E+99

> <Gold.Chemscore.Hbonds>
donor molecule, donor type, donor heavy atom, donor atom, acceptor molecule, acceptor atom, score
      L1  H     5    54       P1  8028  0.88
      L1  H    18    44       P1 10747  0.98
      P1  H 10752 10764       L1    10  0.37

> <Gold.Chemscore.Hbond.Weighted>
-7.9312

> <Gold.Chemscore.Metal.Weighted>
-0.0000

> <Gold.Chemscore.Lipo.Weighted>
-14.5944

> <Gold.Chemscore.Internal_Hbond.Weighted>
0.0000

> <Gold.Chemscore.DEClash.Weighted>
0.0089

> <Gold.Chemscore.DEInternal.Weighted>
2.4889

> <Gold.Chemscore.Rot.Weighted>
8.4215

> <Gold.Chemscore.Internal.Correction.Weighted>
   9.000000E+99

> <Gold.Protein.RotatedTorsions>
[ 6907 6896 6895 6894 ] final -166.90 input  -60.11 | X-H torsion
[ 7974 7965 7964 7962 ] final   69.45 input  175.53 | X-H torsion
[ 8008 7997 7996 7995 ] final  -53.17 input   59.86 | X-H torsion
[ 10167 10162 10161 10158 ] final  -60.26 input  -65.29 | X-H torsion
[ 10718 10713 10712 10709 ] final -139.20 input   66.30 | X-H torsion
[ 10763 10752 10751 10750 ] final  -31.15 input  -60.55 | X-H torsion
[ 11005 11000 10999 10996 ] final -142.81 input  -57.11 | X-H torsion

> <Gold.Protein.ActiveResidues>
 VAL166  LYS551  ARG553  GLY616  TRP617  ASP618  TYR619  PRO620  LYS621  CYS622 
 ASP623  PHE694  ASN695  SER759  ASP760  ASP761  ALA762  ILE779  LEU786  VAL792 
 PHE793  MET794  SER795  GLU796  ALA797  LYS798  CYS799  TRP800  GLU811  SER814 

> <Gold.Protein.RotatedAtoms>
  151.4510  133.3617  159.2795 H   0  0  0  0  0  0  0  0  0  0  0  0  # atno 6907 bound_to 6896
  150.9091  134.8508  159.7423 H   0  0  0  0  0  0  0  0  0  0  0  0  # atno 6908 bound_to 6896
  152.4922  134.4438  159.9604 H   0  0  0  0  0  0  0  0  0  0  0  0  # atno 6909 bound_to 6896
  145.7903  139.2930  143.1214 H   0  0  0  0  0  0  0  0  0  0  0  0  # atno 7974 bound_to 7965
  154.4126  140.1206  156.5111 H   0  0  0  0  0  0  0  0  0  0  0  0  # atno 8008 bound_to 7997
  155.6798  140.3496  155.4831 H   0  0  0  0  0  0  0  0  0  0  0  0  # atno 8009 bound_to 7997
  155.9561  140.1114  157.0925 H   0  0  0  0  0  0  0  0  0  0  0  0  # atno 8010 bound_to 7997
  140.6082  143.2379  151.5771 H   0  0  0  0  0  0  0  0  0  0  0  0  # atno 10167 bound_to 10162
  156.3081  130.7466  151.1535 H   0  0  0  0  0  0  0  0  0  0  0  0  # atno 10718 bound_to 10713
  153.7927  135.6896  153.4869 H   0  0  0  0  0  0  0  0  0  0  0  0  # atno 10763 bound_to 10752
  153.1739  135.4532  154.9938 H   0  0  0  0  0  0  0  0  0  0  0  0  # atno 10764 bound_to 10752
  154.8038  135.3348  154.7422 H   0  0  0  0  0  0  0  0  0  0  0  0  # atno 10765 bound_to 10752
  140.8188  134.2655  157.4909 H   0  0  0  0  0  0  0  0  0  0  0  0  # atno 11005 bound_to 11000
  145.9984  140.8542  143.0031 LP  0  0  0  0  0  0  0  0  0  0  0  0  # atno 17320 bound_to 7965
  144.6783  140.2316  143.7354 LP  0  0  0  0  0  0  0  0  0  0  0  0  # atno 17321 bound_to 7965
  139.5341  144.2831  152.1213 LP  0  0  0  0  0  0  0  0  0  0  0  0  # atno 17342 bound_to 10162
  140.2025  144.4643  150.6424 LP  0  0  0  0  0  0  0  0  0  0  0  0  # atno 17343 bound_to 10162
  157.7384  131.0541  150.5295 LP  0  0  0  0  0  0  0  0  0  0  0  0  # atno 17370 bound_to 10713
  156.5431  130.4213  149.6144 LP  0  0  0  0  0  0  0  0  0  0  0  0  # atno 17371 bound_to 10713
  139.8709  134.9524  156.4114 LP  0  0  0  0  0  0  0  0  0  0  0  0  # atno 17394 bound_to 11000
  140.9120  133.7705  155.9803 LP  0  0  0  0  0  0  0  0  0  0  0  0  # atno 17395 bound_to 11000

$$$$
