AV-unprocessed.smi:2784|AV-procd|sdf|10739|dock7
  -GOLD-   2272015173D 1   1.00000     0.00000
 Structure written by MMmdl.
 31 32  0  0  0  0  0  0  0  0  1 V2000
  149.7593  144.4409  159.8507 C   0  0  0  0  0  0  0  0  0  0  0  0
  150.6734  143.3758  159.6468 O   0  0  0  0  0  0  0  0  0  0  0  0
  152.0410  143.7724  159.7084 C   0  0  1  0  0  0  0  0  0  0  0  0
  152.3040  144.2106  161.1508 C   0  0  0  0  0  0  0  0  0  0  0  0
  152.5874  142.9095  161.8955 C   0  0  0  0  0  0  0  0  0  0  0  0
  153.3730  142.0592  160.8949 C   0  0  0  0  0  0  0  0  0  0  0  0
  152.9910  142.5698  159.4913 C   0  0  1  0  0  0  0  0  0  0  0  0
  152.3945  141.5010  158.6917 N   0  0  0  0  0  0  0  0  0  0  0  0
  152.9512  140.3054  158.4481 C   0  0  0  0  0  0  0  0  0  0  0  0
  154.0617  140.0078  158.8991 O   0  0  0  0  0  0  0  0  0  0  0  0
  152.1086  139.5448  157.6505 N   0  0  0  0  0  0  0  0  0  0  0  0
  152.5808  138.9510  156.5982 C   0  0  0  0  0  0  0  0  0  0  0  0
  151.8914  138.1579  155.6948 N   0  0  0  0  0  0  0  0  0  0  0  0
  152.7742  137.7330  154.7407 C   0  0  0  0  0  0  0  0  0  0  0  0
  153.9701  138.2382  155.0292 C   0  0  0  0  0  0  0  0  0  0  0  0
  153.8854  138.9900  156.1620 O   0  0  0  0  0  0  0  0  0  0  0  0
  148.7386  144.0687  159.7637 H   0  0  0  0  0  0  0  0  0  0  0  0
  149.8937  145.2305  159.1112 H   0  0  0  0  0  0  0  0  0  0  0  0
  149.8770  144.8713  160.8460 H   0  0  0  0  0  0  0  0  0  0  0  0
  152.2580  144.5869  159.0143 H   0  0  0  0  0  0  0  0  0  0  0  0
  153.1890  144.8476  161.1842 H   0  0  0  0  0  0  0  0  0  0  0  0
  151.4750  144.7732  161.5818 H   0  0  0  0  0  0  0  0  0  0  0  0
  153.1297  143.0681  162.8282 H   0  0  0  0  0  0  0  0  0  0  0  0
  151.6460  142.4149  162.1384 H   0  0  0  0  0  0  0  0  0  0  0  0
  154.4431  142.2016  161.0523 H   0  0  0  0  0  0  0  0  0  0  0  0
  153.1694  140.9966  161.0352 H   0  0  0  0  0  0  0  0  0  0  0  0
  153.9055  142.9227  159.0109 H   0  0  0  0  0  0  0  0  0  0  0  0
  151.4894  141.6904  158.2862 H   0  0  0  0  0  0  0  0  0  0  0  0
  150.9125  137.9105  155.7002 H   0  0  0  0  0  0  0  0  0  0  0  0
  152.4423  137.0963  153.9338 H   0  0  0  0  0  0  0  0  0  0  0  0
  154.9350  138.1596  154.5506 H   0  0  0  0  0  0  0  0  0  0  0  0
  1  2  1  0  0  0  0
  1 17  1  0  0  0  0
  1 18  1  0  0  0  0
  1 19  1  0  0  0  0
  2  3  1  0  0  0  0
  3  7  1  0  0  0  0
  3  4  1  0  0  0  0
  3 20  1  0  0  0  0
  4  5  1  0  0  0  0
  4 21  1  0  0  0  0
  4 22  1  0  0  0  0
  5  6  1  0  0  0  0
  5 23  1  0  0  0  0
  5 24  1  0  0  0  0
  6  7  1  0  0  0  0
  6 25  1  0  0  0  0
  6 26  1  0  0  0  0
  7  8  1  0  0  0  0
  7 27  1  0  0  0  0
  8 28  1  0  0  0  0
  8  9  1  0  0  0  0
  9 11  1  0  0  0  0
  9 10  2  0  0  0  0
 11 12  2  0  0  0  0
 12 16  1  0  0  0  0
 12 13  1  0  0  0  0
 13 29  1  0  0  0  0
 13 14  1  0  0  0  0
 14 30  1  0  0  0  0
 14 15  2  0  0  0  0
 15 31  1  0  0  0  0
 15 16  1  0  0  0  0
M  END
> <s_m_source_file>
AV-unprocessed.smi

> <i_m_source_file_index>
2784

> <i_lp_mmshare_version>
43012

> <i_f3d_flags>
0

> <s_epik_input>
W0NIM11PW0NAQEhdMVtDSDJdW0NIMl1bQ0gyXVtDQEhdMVtOSF1DKD1PKVtOSF1jMm5bY0hdW2NIXW8y

> <s_epik_cmdline>
J2VwaWtfcHl0aG9uJywgJy1waCcsICc3LjAnLCAnLXRuJywgJzgnLCAnLW1hJywgJzIwMCcsICctbWV0YWxfYmluZGluZycsICctaW1hZScsICc8aW5maWxlLm1hZT4nLCAnLW9tYWUnLCAnPG91dGZpbGUubWFlPic=

> <r_lp_tautomer_probability>
0.107061

> <r_epik_Ionization_Penalty>
1.29244

> <r_epik_Ionization_Penalty_Charging>
1.29208

> <r_epik_Ionization_Penalty_Neutral>
0.000359742

> <r_epik_State_Penalty>
2.59896

> <r_epik_Charging_Adjusted_Penalty>
3.89105

> <i_epik_Tot_Q>
0

> <i_epik_Tot_abs_Q>
0

> <r_epik_Metal_State_Penalty>
3.62496

> <b_epik_Metal_Only>
0

> <s_lp_Force_Field>
OPLS_2005

> <r_lp_Energy>
45.4074

> <b_lp_Chiralities_Consistent>
1

> <s_lp_Variant>
AV-unprocessed.smi:2784-14

> <Gold.Version>
5.8.1

> <Gold.Id.Protein>
6NUR|6NUR_protein|mol2

> <Gold.PLP.Fitness>
42.1437

> <Gold.PLP.PLP>
-35.9372

> <Gold.PLP.part.hbond>
-2.5149

> <Gold.PLP.part.metal>
0.0000

> <Gold.PLP.part.buried>
-6.0110

> <Gold.PLP.part.nonpolar>
-27.8283

> <Gold.PLP.part.repulsive>
0.2556

> <Gold.PLP.ligand.clash>
0.0000

> <Gold.PLP.ligand.torsion>
0.4641

> <Gold.PLP.Chemscore.Hbond>
1.3760

> <Gold.PLP.Chemscore.CHOScore>
0.9983

> <Gold.PLP.Chemscore.Metal>
0.0000

> <Gold.Chemscore.Hbonds>
donor molecule, donor type, donor heavy atom, donor atom, acceptor molecule, acceptor atom, score
      P1  H  7997  8009       L1    10  0.80
      P1  H  7997  8010       L1    16  0.04

> <Gold.PLP.Chemscore.Internal.Correction>
0.0120

> <Gold.Rescore>
     Score         DG    S(hbond)    S(metal)    S(lipo)     H(rot)  DE(clash)    DE(int)     intcor
     12.84     -15.15       0.98        0.00      83.71       1.32       0.07       2.24       ----

> <Gold.Chemscore.Fitness>
12.8392

> <Gold.Chemscore.DG>
-15.1548

> <Gold.Chemscore.ZeroCoef>
-5.4800

> <Gold.Chemscore.Hbond>
0.9788

> <Gold.Chemscore.Metal>
0.0000

> <Gold.Chemscore.Lipo>
83.7071

> <Gold.Chemscore.Internal_Hbond>
0.0000

> <Gold.Chemscore.DEClash>
0.0709

> <Gold.Chemscore.DEInternal>
2.2447

> <Gold.Chemscore.Rot>
1.3235

> <Gold.Chemscore.Internal.Correction>
   9.000000E+99

> <Gold.Chemscore.Hbonds>
donor molecule, donor type, donor heavy atom, donor atom, acceptor molecule, acceptor atom, score
      P1  H  7997  8009       L1    10  0.11
      P1  H  7997  8010       L1    16  0.01

> <Gold.Chemscore.Hbond.Weighted>
-3.2692

> <Gold.Chemscore.Metal.Weighted>
-0.0000

> <Gold.Chemscore.Lipo.Weighted>
-9.7937

> <Gold.Chemscore.Internal_Hbond.Weighted>
0.0000

> <Gold.Chemscore.DEClash.Weighted>
0.0709

> <Gold.Chemscore.DEInternal.Weighted>
2.2447

> <Gold.Chemscore.Rot.Weighted>
3.3882

> <Gold.Chemscore.Internal.Correction.Weighted>
   9.000000E+99

> <Gold.Protein.RotatedTorsions>
[ 6907 6896 6895 6894 ] final   -5.93 input  -60.11 | X-H torsion
[ 7974 7965 7964 7962 ] final   87.35 input  175.53 | X-H torsion
[ 8008 7997 7996 7995 ] final  129.52 input   59.86 | X-H torsion
[ 10167 10162 10161 10158 ] final  173.06 input  -65.29 | X-H torsion
[ 10718 10713 10712 10709 ] final  147.53 input   66.30 | X-H torsion
[ 10763 10752 10751 10750 ] final  127.44 input  -60.55 | X-H torsion
[ 11005 11000 10999 10996 ] final  167.74 input  -57.11 | X-H torsion

> <Gold.Protein.ActiveResidues>
 VAL166  LYS551  ARG553  GLY616  TRP617  ASP618  TYR619  PRO620  LYS621  CYS622 
 ASP623  PHE694  ASN695  SER759  ASP760  ASP761  ALA762  ILE779  LEU786  VAL792 
 PHE793  MET794  SER795  GLU796  ALA797  LYS798  CYS799  TRP800  GLU811  SER814 

> <Gold.Protein.RotatedAtoms>
  151.4737  135.1047  159.9758 H   0  0  0  0  0  0  0  0  0  0  0  0  # atno 6907 bound_to 6896
  152.4806  133.8242  159.7080 H   0  0  0  0  0  0  0  0  0  0  0  0  # atno 6908 bound_to 6896
  150.8875  133.7226  159.2940 H   0  0  0  0  0  0  0  0  0  0  0  0  # atno 6909 bound_to 6896
  145.5602  139.2303  143.2464 H   0  0  0  0  0  0  0  0  0  0  0  0  # atno 7974 bound_to 7965
  156.2938  140.2618  156.2612 H   0  0  0  0  0  0  0  0  0  0  0  0  # atno 8008 bound_to 7997
  154.9786  140.0390  157.2286 H   0  0  0  0  0  0  0  0  0  0  0  0  # atno 8009 bound_to 7997
  154.7792  140.2792  155.6081 H   0  0  0  0  0  0  0  0  0  0  0  0  # atno 8010 bound_to 7997
  139.5096  144.3304  152.0117 H   0  0  0  0  0  0  0  0  0  0  0  0  # atno 10167 bound_to 10162
  157.3198  131.0902  151.1249 H   0  0  0  0  0  0  0  0  0  0  0  0  # atno 10718 bound_to 10713
  153.7095  135.3270  155.3243 H   0  0  0  0  0  0  0  0  0  0  0  0  # atno 10763 bound_to 10752
  154.8389  135.4473  154.1329 H   0  0  0  0  0  0  0  0  0  0  0  0  # atno 10764 bound_to 10752
  153.2418  135.6972  153.7853 H   0  0  0  0  0  0  0  0  0  0  0  0  # atno 10765 bound_to 10752
  140.2799  134.7758  157.3749 H   0  0  0  0  0  0  0  0  0  0  0  0  # atno 11005 bound_to 11000
  146.1856  140.6427  142.9169 LP  0  0  0  0  0  0  0  0  0  0  0  0  # atno 17320 bound_to 7965
  144.7487  140.5134  143.6817 LP  0  0  0  0  0  0  0  0  0  0  0  0  # atno 17321 bound_to 7965
  140.2744  144.3929  150.6140 LP  0  0  0  0  0  0  0  0  0  0  0  0  # atno 17342 bound_to 10162
  140.6065  143.2168  151.6971 LP  0  0  0  0  0  0  0  0  0  0  0  0  # atno 17343 bound_to 10162
  157.2539  130.6627  149.5944 LP  0  0  0  0  0  0  0  0  0  0  0  0  # atno 17370 bound_to 10713
  155.9685  130.4530  150.5794 LP  0  0  0  0  0  0  0  0  0  0  0  0  # atno 17371 bound_to 10713
  140.1293  134.5116  155.8119 LP  0  0  0  0  0  0  0  0  0  0  0  0  # atno 17394 bound_to 11000
  141.2164  133.6784  156.7009 LP  0  0  0  0  0  0  0  0  0  0  0  0  # atno 17395 bound_to 11000

$$$$
