AV-unprocessed.smi:2954|AV-procd|sdf|11300|dock9
  -GOLD-   2272016193D 1   1.00000     0.00000
 Structure written by MMmdl.
 43 45  0  0  0  0  0  0  0  0  2 V2000
  150.3895  137.4772  157.9703 C   0  0  0  0  0  0  0  0  0  0  0  0
  151.4476  138.2778  157.1973 C   0  0  1  0  0  0  0  0  0  0  0  0
  150.9288  138.6019  155.8723 N   0  0  0  0  0  0  0  0  0  0  0  0
  151.6265  139.2272  154.9169 C   0  0  0  0  0  0  0  0  0  0  0  0
  152.7876  139.5973  155.0687 O   0  0  0  0  0  0  0  0  0  0  0  0
  151.8471  139.5027  157.9694 C   0  0  0  0  0  0  0  0  0  0  0  0
  151.5945  140.7966  157.6162 N   0  3  0  0  0  0  0  0  0  0  0  0
  152.0790  141.6614  158.5972 C   0  0  0  0  0  0  0  0  0  0  0  0
  152.0553  143.0502  158.6801 C   0  0  0  0  0  0  0  0  0  0  0  0
  152.6351  143.6248  159.8304 C   0  0  0  0  0  0  0  0  0  0  0  0
  153.2056  142.8257  160.8426 C   0  0  0  0  0  0  0  0  0  0  0  0
  153.2229  141.4186  160.7467 C   0  0  0  0  0  0  0  0  0  0  0  0
  152.6520  140.8588  159.6041 C   0  0  0  0  0  0  0  0  0  0  0  0
  152.4942  139.5372  159.1722 N   0  0  0  0  0  0  0  0  0  0  0  0
  153.0031  138.4438  160.0154 C   0  0  0  0  0  0  0  0  0  0  0  0
  154.5323  138.4659  160.1690 C   0  0  0  0  0  0  0  0  0  0  0  0
  154.9988  137.1741  160.5361 O   0  0  0  0  0  0  0  0  0  0  0  0
  154.6588  136.6899  161.7819 C   0  0  0  0  0  0  0  0  0  0  0  0
  154.0250  137.4686  162.7840 C   0  0  0  0  0  0  0  0  0  0  0  0
  153.6989  136.9016  164.0311 C   0  0  0  0  0  0  0  0  0  0  0  0
  154.0012  135.5535  164.2948 C   0  0  0  0  0  0  0  0  0  0  0  0
  154.6324  134.7729  163.3094 C   0  0  0  0  0  0  0  0  0  0  0  0
  154.9593  135.3378  162.0609 C   0  0  0  0  0  0  0  0  0  0  0  0
  155.7509  134.3624  160.8766 Cl  0  0  0  0  0  0  0  0  0  0  0  0
  150.7612  137.1672  158.9471 H   0  0  0  0  0  0  0  0  0  0  0  0
  150.1057  136.5747  157.4277 H   0  0  0  0  0  0  0  0  0  0  0  0
  149.4860  138.0662  158.1324 H   0  0  0  0  0  0  0  0  0  0  0  0
  152.3325  137.6484  157.0836 H   0  0  0  0  0  0  0  0  0  0  0  0
  149.9751  138.3388  155.6709 H   0  0  0  0  0  0  0  0  0  0  0  0
  151.0353  139.3670  153.9992 H   0  0  0  0  0  0  0  0  0  0  0  0
  151.6162  143.6643  157.9076 H   0  0  0  0  0  0  0  0  0  0  0  0
  152.6403  144.6997  159.9391 H   0  0  0  0  0  0  0  0  0  0  0  0
  153.6383  143.3013  161.7109 H   0  0  0  0  0  0  0  0  0  0  0  0
  153.6600  140.8161  161.5288 H   0  0  0  0  0  0  0  0  0  0  0  0
  152.5094  138.4896  160.9868 H   0  0  0  0  0  0  0  0  0  0  0  0
  152.6991  137.5023  159.5591 H   0  0  0  0  0  0  0  0  0  0  0  0
  154.9942  138.7672  159.2280 H   0  0  0  0  0  0  0  0  0  0  0  0
  154.8056  139.2034  160.9246 H   0  0  0  0  0  0  0  0  0  0  0  0
  153.7721  138.5047  162.6190 H   0  0  0  0  0  0  0  0  0  0  0  0
  153.2138  137.5026  164.7863 H   0  0  0  0  0  0  0  0  0  0  0  0
  153.7508  135.1193  165.2515 H   0  0  0  0  0  0  0  0  0  0  0  0
  154.8676  133.7386  163.5133 H   0  0  0  0  0  0  0  0  0  0  0  0
  151.1225  141.0638  156.7619 H   0  0  0  0  0  0  0  0  0  0  0  0
  1  2  1  0  0  0  0
  1 25  1  0  0  0  0
  1 26  1  0  0  0  0
  1 27  1  0  0  0  0
  2  3  1  0  0  0  0
  2  6  1  0  0  0  0
  2 28  1  0  0  0  0
  3  4  1  0  0  0  0
  3 29  1  0  0  0  0
  4  5  2  0  0  0  0
  4 30  1  0  0  0  0
  6 14  1  0  0  0  0
  6  7  2  0  0  0  0
  7  8  1  0  0  0  0
  7 43  1  0  0  0  0
  8 13  2  0  0  0  0
  8  9  1  0  0  0  0
  9 10  2  0  0  0  0
  9 31  1  0  0  0  0
 10 11  1  0  0  0  0
 10 32  1  0  0  0  0
 11 12  2  0  0  0  0
 11 33  1  0  0  0  0
 12 13  1  0  0  0  0
 12 34  1  0  0  0  0
 13 14  1  0  0  0  0
 14 15  1  0  0  0  0
 15 16  1  0  0  0  0
 15 35  1  0  0  0  0
 15 36  1  0  0  0  0
 16 17  1  0  0  0  0
 16 37  1  0  0  0  0
 16 38  1  0  0  0  0
 17 18  1  0  0  0  0
 18 23  1  0  0  0  0
 18 19  2  0  0  0  0
 19 20  1  0  0  0  0
 19 39  1  0  0  0  0
 20 21  2  0  0  0  0
 20 40  1  0  0  0  0
 21 22  1  0  0  0  0
 21 41  1  0  0  0  0
 22 23  2  0  0  0  0
 22 42  1  0  0  0  0
 23 24  1  0  0  0  0
M  CHG  1   7   1
M  END
> <s_m_source_file>
AV-unprocessed.smi

> <i_m_source_file_index>
2954

> <i_lp_mmshare_version>
43012

> <i_f3d_flags>
0

> <s_epik_input>
Tz1bQ0hdW05IXVtDQEBIXShbQ0gzXSljKG4xKW4oYyhjMTIpW2NIXVtjSF1bY0hdW2NIXTIpW0NIMl1bQ0gyXU9jM1tjSF1bY0hdW2NIXVtjSF1jM0Ns

> <s_epik_cmdline>
J2VwaWtfcHl0aG9uJywgJy1waCcsICc3LjAnLCAnLXRuJywgJzgnLCAnLW1hJywgJzIwMCcsICctbWV0YWxfYmluZGluZycsICctaW1hZScsICc8aW5maWxlLm1hZT4nLCAnLW9tYWUnLCAnPG91dGZpbGUubWFlPic=

> <r_lp_tautomer_probability>
1

> <r_epik_Ionization_Penalty>
1.18508

> <r_epik_Ionization_Penalty_Charging>
1.18508

> <r_epik_Ionization_Penalty_Neutral>
5.5802e-08

> <r_epik_State_Penalty>
1.24934

> <r_epik_Charging_Adjusted_Penalty>
2.43443

> <i_epik_Tot_Q>
1

> <i_epik_Tot_abs_Q>
1

> <r_epik_Metal_State_Penalty>
1.32564

> <b_epik_Metal_Only>
0

> <s_lp_Force_Field>
OPLS_2005

> <r_lp_Energy>
18.4095

> <b_lp_Chiralities_Consistent>
1

> <s_lp_Variant>
AV-unprocessed.smi:2954-4

> <Gold.Version>
5.8.1

> <Gold.Id.Protein>
6NUR|6NUR_protein|mol2

> <Gold.PLP.Fitness>
49.7092

> <Gold.PLP.PLP>
-47.3416

> <Gold.PLP.part.hbond>
-2.0000

> <Gold.PLP.part.metal>
0.0000

> <Gold.PLP.part.buried>
-5.2063

> <Gold.PLP.part.nonpolar>
-40.2083

> <Gold.PLP.part.repulsive>
0.1312

> <Gold.PLP.ligand.clash>
0.0000

> <Gold.PLP.ligand.torsion>
0.3377

> <Gold.PLP.Chemscore.Hbond>
1.0000

> <Gold.PLP.Chemscore.CHOScore>
0.0000

> <Gold.PLP.Chemscore.Metal>
0.0000

> <Gold.Chemscore.Hbonds>
donor molecule, donor type, donor heavy atom, donor atom, acceptor molecule, acceptor atom, score
      P1  H  7997  8009       L1     5  1.00

> <Gold.PLP.Chemscore.Internal.Correction>
0.0429

> <Gold.Rescore>
     Score         DG    S(hbond)    S(metal)    S(lipo)     H(rot)  DE(clash)    DE(int)     intcor
     17.41     -18.10       0.99        0.00     130.86       2.35       0.05       0.64       ----

> <Gold.Chemscore.Fitness>
17.4060

> <Gold.Chemscore.DG>
-18.1019

> <Gold.Chemscore.ZeroCoef>
-5.4800

> <Gold.Chemscore.Hbond>
0.9937

> <Gold.Chemscore.Metal>
0.0000

> <Gold.Chemscore.Lipo>
130.8591

> <Gold.Chemscore.Internal_Hbond>
0.0000

> <Gold.Chemscore.DEClash>
0.0537

> <Gold.Chemscore.DEInternal>
0.6421

> <Gold.Chemscore.Rot>
2.3467

> <Gold.Chemscore.Internal.Correction>
   9.000000E+99

> <Gold.Chemscore.Hbonds>
donor molecule, donor type, donor heavy atom, donor atom, acceptor molecule, acceptor atom, score
      P1  H  7997  8009       L1     5  0.99

> <Gold.Chemscore.Hbond.Weighted>
-3.3190

> <Gold.Chemscore.Metal.Weighted>
-0.0000

> <Gold.Chemscore.Lipo.Weighted>
-15.3105

> <Gold.Chemscore.Internal_Hbond.Weighted>
0.0000

> <Gold.Chemscore.DEClash.Weighted>
0.0537

> <Gold.Chemscore.DEInternal.Weighted>
0.6421

> <Gold.Chemscore.Rot.Weighted>
6.0077

> <Gold.Chemscore.Internal.Correction.Weighted>
   9.000000E+99

> <Gold.Protein.RotatedTorsions>
[ 6907 6896 6895 6894 ] final    4.51 input  -60.11 | X-H torsion
[ 7974 7965 7964 7962 ] final   20.04 input  175.53 | X-H torsion
[ 8008 7997 7996 7995 ] final -134.73 input   59.86 | X-H torsion
[ 10167 10162 10161 10158 ] final   31.59 input  -65.29 | X-H torsion
[ 10718 10713 10712 10709 ] final  105.58 input   66.30 | X-H torsion
[ 10763 10752 10751 10750 ] final  158.60 input  -60.55 | X-H torsion
[ 11005 11000 10999 10996 ] final  -19.78 input  -57.11 | X-H torsion

> <Gold.Protein.ActiveResidues>
 VAL166  LYS551  ARG553  GLY616  TRP617  ASP618  TYR619  PRO620  LYS621  CYS622 
 ASP623  PHE694  ASN695  SER759  ASP760  ASP761  ALA762  ILE779  LEU786  VAL792 
 PHE793  MET794  SER795  GLU796  ALA797  LYS798  CYS799  TRP800  GLU811  SER814 

> <Gold.Protein.RotatedAtoms>
  151.6424  135.1011  160.0143 H   0  0  0  0  0  0  0  0  0  0  0  0  # atno 6907 bound_to 6896
  152.4046  133.6866  159.6354 H   0  0  0  0  0  0  0  0  0  0  0  0  # atno 6908 bound_to 6896
  150.7942  133.8648  159.3283 H   0  0  0  0  0  0  0  0  0  0  0  0  # atno 6909 bound_to 6896
  146.2126  139.8226  142.8676 H   0  0  0  0  0  0  0  0  0  0  0  0  # atno 7974 bound_to 7965
  155.3670  140.0486  157.3046 H   0  0  0  0  0  0  0  0  0  0  0  0  # atno 8008 bound_to 7997
  154.5149  140.2205  155.9048 H   0  0  0  0  0  0  0  0  0  0  0  0  # atno 8009 bound_to 7997
  156.1625  140.3113  155.8837 H   0  0  0  0  0  0  0  0  0  0  0  0  # atno 8010 bound_to 7997
  140.4575  144.0957  150.6205 H   0  0  0  0  0  0  0  0  0  0  0  0  # atno 10167 bound_to 10162
  157.6700  131.0831  150.5878 H   0  0  0  0  0  0  0  0  0  0  0  0  # atno 10718 bound_to 10713
  154.2187  135.2783  155.2932 H   0  0  0  0  0  0  0  0  0  0  0  0  # atno 10763 bound_to 10752
  154.5720  135.5616  153.7107 H   0  0  0  0  0  0  0  0  0  0  0  0  # atno 10764 bound_to 10752
  153.0047  135.6323  154.2327 H   0  0  0  0  0  0  0  0  0  0  0  0  # atno 10765 bound_to 10752
  140.8400  133.7933  155.9851 H   0  0  0  0  0  0  0  0  0  0  0  0  # atno 11005 bound_to 11000
  145.3080  141.0212  143.3570 LP  0  0  0  0  0  0  0  0  0  0  0  0  # atno 17320 bound_to 7965
  144.8956  139.4716  143.6657 LP  0  0  0  0  0  0  0  0  0  0  0  0  # atno 17321 bound_to 7965
  140.4134  143.2646  151.9805 LP  0  0  0  0  0  0  0  0  0  0  0  0  # atno 17342 bound_to 10162
  139.4802  144.5895  151.7795 LP  0  0  0  0  0  0  0  0  0  0  0  0  # atno 17343 bound_to 10162
  156.6179  130.4397  149.5833 LP  0  0  0  0  0  0  0  0  0  0  0  0  # atno 17370 bound_to 10713
  156.2379  130.6833  151.1527 LP  0  0  0  0  0  0  0  0  0  0  0  0  # atno 17371 bound_to 10713
  140.8905  134.2501  157.5097 LP  0  0  0  0  0  0  0  0  0  0  0  0  # atno 17394 bound_to 11000
  139.8703  134.9659  156.4544 LP  0  0  0  0  0  0  0  0  0  0  0  0  # atno 17395 bound_to 11000

$$$$
