AV-unprocessed.smi:3032|AV-procd|sdf|11560|dock5
  -GOLD-   2272016523D 1   1.00000     0.00000
 Structure written by MMmdl.
 37 38  0  0  0  0  0  0  0  0  1 V2000
  153.0857  142.7921  162.3519 C   0  0  0  0  0  0  0  0  0  0  0  0
  152.3030  143.1963  161.0944 C   0  0  1  0  0  0  0  0  0  0  0  0
  152.0615  144.7165  161.0491 C   0  0  0  0  0  0  0  0  0  0  0  0
  151.2787  145.1274  159.7932 C   0  0  0  0  0  0  0  0  0  0  0  0
  151.9906  144.6590  158.5110 C   0  0  0  0  0  0  0  0  0  0  0  0
  152.3169  143.1471  158.5016 C   0  0  2  0  0  0  0  0  0  0  0  0
  151.0908  142.2704  158.1837 C   0  0  0  0  0  0  0  0  0  0  0  0
  150.0959  142.2845  158.9081 O   0  0  0  0  0  0  0  0  0  0  0  0
  151.1796  141.5009  157.0873 N   0  0  0  0  0  0  0  0  0  0  0  0
  150.1474  140.5827  156.6200 C   0  0  0  0  0  0  0  0  0  0  0  0
  150.0990  140.5220  155.0847 C   0  0  0  0  0  0  0  0  0  0  0  0
  148.8099  141.0343  154.5310 C   0  0  0  0  0  0  0  0  0  0  0  0
  148.3937  142.2860  154.7339 N   0  0  0  0  0  0  0  0  0  0  0  0
  147.1987  142.4615  154.1316 N   0  0  0  0  0  0  0  0  0  0  0  0
  146.9768  141.2618  153.5977 C   0  0  0  0  0  0  0  0  0  0  0  0
  147.9457  140.3225  153.8155 N   0  0  0  0  0  0  0  0  0  0  0  0
  153.0240  142.7262  159.8118 C   0  0  0  0  0  0  0  0  0  0  0  0
  148.8656  143.0165  155.2477 H   0  0  0  0  0  0  0  0  0  0  0  0
  154.0733  143.2542  162.3710 H   0  0  0  0  0  0  0  0  0  0  0  0
  153.2223  141.7115  162.3981 H   0  0  0  0  0  0  0  0  0  0  0  0
  152.5590  143.0959  163.2568 H   0  0  0  0  0  0  0  0  0  0  0  0
  151.3330  142.7027  161.1517 H   0  0  0  0  0  0  0  0  0  0  0  0
  151.5152  145.0342  161.9379 H   0  0  0  0  0  0  0  0  0  0  0  0
  153.0168  145.2427  161.0696 H   0  0  0  0  0  0  0  0  0  0  0  0
  150.2692  144.7191  159.8383 H   0  0  0  0  0  0  0  0  0  0  0  0
  151.1626  146.2113  159.7717 H   0  0  0  0  0  0  0  0  0  0  0  0
  151.3879  144.9216  157.6404 H   0  0  0  0  0  0  0  0  0  0  0  0
  152.9215  145.2174  158.4050 H   0  0  0  0  0  0  0  0  0  0  0  0
  153.0303  142.9851  157.6915 H   0  0  0  0  0  0  0  0  0  0  0  0
  152.0279  141.5500  156.5416 H   0  0  0  0  0  0  0  0  0  0  0  0
  150.3108  139.5882  157.0387 H   0  0  0  0  0  0  0  0  0  0  0  0
  149.1891  140.9294  157.0072 H   0  0  0  0  0  0  0  0  0  0  0  0
  150.9202  141.1010  154.6605 H   0  0  0  0  0  0  0  0  0  0  0  0
  150.2353  139.4954  154.7422 H   0  0  0  0  0  0  0  0  0  0  0  0
  146.0816  141.0531  153.0303 H   0  0  0  0  0  0  0  0  0  0  0  0
  154.0359  143.1339  159.8051 H   0  0  0  0  0  0  0  0  0  0  0  0
  153.1441  141.6418  159.8353 H   0  0  0  0  0  0  0  0  0  0  0  0
  1  2  1  0  0  0  0
  1 19  1  0  0  0  0
  1 20  1  0  0  0  0
  1 21  1  0  0  0  0
  2 17  1  0  0  0  0
  2  3  1  0  0  0  0
  2 22  1  0  0  0  0
  3  4  1  0  0  0  0
  3 23  1  0  0  0  0
  3 24  1  0  0  0  0
  4  5  1  0  0  0  0
  4 25  1  0  0  0  0
  4 26  1  0  0  0  0
  5  6  1  0  0  0  0
  5 27  1  0  0  0  0
  5 28  1  0  0  0  0
  6  7  1  0  0  0  0
  6 17  1  0  0  0  0
  6 29  1  0  0  0  0
  7  8  2  0  0  0  0
  7  9  1  0  0  0  0
  9 10  1  0  0  0  0
  9 30  1  0  0  0  0
 10 11  1  0  0  0  0
 10 31  1  0  0  0  0
 10 32  1  0  0  0  0
 11 33  1  0  0  0  0
 11 34  1  0  0  0  0
 11 12  1  0  0  0  0
 12 16  2  0  0  0  0
 12 13  1  0  0  0  0
 13 18  1  0  0  0  0
 13 14  1  0  0  0  0
 14 15  2  0  0  0  0
 15 16  1  0  0  0  0
 15 35  1  0  0  0  0
 17 36  1  0  0  0  0
 17 37  1  0  0  0  0
M  END
> <s_m_source_file>
AV-unprocessed.smi

> <i_m_source_file_index>
3032

> <i_lp_mmshare_version>
43012

> <i_f3d_flags>
0

> <s_epik_input>
W0NIM11bQ0BASF0xW0NIMl1bQ0gyXVtDSDJdW0NASF0oW0NIMl0xKUMoPU8pW05IXVtDSDJdW0NIMl1jMm5uW2NIXVtuSF0y

> <s_epik_cmdline>
J2VwaWtfcHl0aG9uJywgJy1waCcsICc3LjAnLCAnLXRuJywgJzgnLCAnLW1hJywgJzIwMCcsICctbWV0YWxfYmluZGluZycsICctaW1hZScsICc8aW5maWxlLm1hZT4nLCAnLW9tYWUnLCAnPG91dGZpbGUubWFlPic=

> <r_lp_tautomer_probability>
0.948284

> <r_epik_Ionization_Penalty>
0.000474052

> <r_epik_Ionization_Penalty_Charging>
0

> <r_epik_Ionization_Penalty_Neutral>
0.000474052

> <r_epik_State_Penalty>
0.271807

> <r_epik_Charging_Adjusted_Penalty>
0.271807

> <i_epik_Tot_Q>
0

> <i_epik_Tot_abs_Q>
0

> <r_epik_Metal_State_Penalty>
0.397201

> <b_epik_Metal_Only>
0

> <s_lp_Force_Field>
OPLS_2005

> <r_lp_Energy>
9.09743

> <b_lp_Chiralities_Consistent>
1

> <s_lp_Variant>
AV-unprocessed.smi:3032-4

> <Gold.Version>
5.8.1

> <Gold.Id.Protein>
6NUR|6NUR_protein|mol2

> <Gold.PLP.Fitness>
47.1315

> <Gold.PLP.PLP>
-42.5570

> <Gold.PLP.part.hbond>
-1.8440

> <Gold.PLP.part.metal>
0.0000

> <Gold.PLP.part.buried>
-6.0121

> <Gold.PLP.part.nonpolar>
-35.4166

> <Gold.PLP.part.repulsive>
0.6869

> <Gold.PLP.ligand.clash>
0.0000

> <Gold.PLP.ligand.torsion>
0.5837

> <Gold.PLP.Chemscore.Hbond>
0.8960

> <Gold.PLP.Chemscore.CHOScore>
1.0000

> <Gold.PLP.Chemscore.Metal>
0.0000

> <Gold.Chemscore.Hbonds>
donor molecule, donor type, donor heavy atom, donor atom, acceptor molecule, acceptor atom, score
      L1  H    13    18       P1  8028  0.90
      L1  C    15    35       P1 10175  1.00

> <Gold.PLP.Chemscore.Internal.Correction>
0.0541

> <Gold.Rescore>
     Score         DG    S(hbond)    S(metal)    S(lipo)     H(rot)  DE(clash)    DE(int)     intcor
     13.90     -14.51       0.99        0.00      98.19       2.25       0.04       0.56       ----

> <Gold.Chemscore.Fitness>
13.8972

> <Gold.Chemscore.DG>
-14.5055

> <Gold.Chemscore.ZeroCoef>
-5.4800

> <Gold.Chemscore.Hbond>
0.9874

> <Gold.Chemscore.Metal>
0.0000

> <Gold.Chemscore.Lipo>
98.1860

> <Gold.Chemscore.Internal_Hbond>
0.0000

> <Gold.Chemscore.DEClash>
0.0440

> <Gold.Chemscore.DEInternal>
0.5643

> <Gold.Chemscore.Rot>
2.2501

> <Gold.Chemscore.Internal.Correction>
   9.000000E+99

> <Gold.Chemscore.Hbonds>
donor molecule, donor type, donor heavy atom, donor atom, acceptor molecule, acceptor atom, score
      L1  H    13    18       P1  8028  0.88

> <Gold.Chemscore.Hbond.Weighted>
-3.2980

> <Gold.Chemscore.Metal.Weighted>
-0.0000

> <Gold.Chemscore.Lipo.Weighted>
-11.4878

> <Gold.Chemscore.Internal_Hbond.Weighted>
0.0000

> <Gold.Chemscore.DEClash.Weighted>
0.0440

> <Gold.Chemscore.DEInternal.Weighted>
0.5643

> <Gold.Chemscore.Rot.Weighted>
5.7603

> <Gold.Chemscore.Internal.Correction.Weighted>
   9.000000E+99

> <Gold.Protein.RotatedTorsions>
[ 6907 6896 6895 6894 ] final  109.61 input  -60.11 | X-H torsion
[ 7974 7965 7964 7962 ] final -147.46 input  175.53 | X-H torsion
[ 8008 7997 7996 7995 ] final -165.31 input   59.86 | X-H torsion
[ 10167 10162 10161 10158 ] final   63.29 input  -65.29 | X-H torsion
[ 10718 10713 10712 10709 ] final  -85.51 input   66.30 | X-H torsion
[ 10763 10752 10751 10750 ] final -129.12 input  -60.55 | X-H torsion
[ 11005 11000 10999 10996 ] final   85.99 input  -57.11 | X-H torsion

> <Gold.Protein.ActiveResidues>
 VAL166  LYS551  ARG553  GLY616  TRP617  ASP618  TYR619  PRO620  LYS621  CYS622 
 ASP623  PHE694  ASN695  SER759  ASP760  ASP761  ALA762  ILE779  LEU786  VAL792 
 PHE793  MET794  SER795  GLU796  ALA797  LYS798  CYS799  TRP800  GLU811  SER814 

> <Gold.Protein.RotatedAtoms>
  152.5059  133.8919  159.7397 H   0  0  0  0  0  0  0  0  0  0  0  0  # atno 6907 bound_to 6896
  150.9356  133.6707  159.2808 H   0  0  0  0  0  0  0  0  0  0  0  0  # atno 6908 bound_to 6896
  151.4036  135.0979  159.9616 H   0  0  0  0  0  0  0  0  0  0  0  0  # atno 6909 bound_to 6896
  144.8092  140.5324  143.5654 H   0  0  0  0  0  0  0  0  0  0  0  0  # atno 7974 bound_to 7965
  155.8479  140.0958  157.1693 H   0  0  0  0  0  0  0  0  0  0  0  0  # atno 8008 bound_to 7997
  154.3984  140.1388  156.3870 H   0  0  0  0  0  0  0  0  0  0  0  0  # atno 8009 bound_to 7997
  155.7993  140.3453  155.5396 H   0  0  0  0  0  0  0  0  0  0  0  0  # atno 8010 bound_to 7997
  140.1347  144.4610  150.6845 H   0  0  0  0  0  0  0  0  0  0  0  0  # atno 10167 bound_to 10162
  155.9996  130.4733  150.4574 H   0  0  0  0  0  0  0  0  0  0  0  0  # atno 10718 bound_to 10713
  154.8757  135.3906  154.3868 H   0  0  0  0  0  0  0  0  0  0  0  0  # atno 10763 bound_to 10752
  153.4609  135.7029  153.6056 H   0  0  0  0  0  0  0  0  0  0  0  0  # atno 10764 bound_to 10752
  153.4555  135.3824  155.2277 H   0  0  0  0  0  0  0  0  0  0  0  0  # atno 10765 bound_to 10752
  139.8956  134.8325  156.2659 H   0  0  0  0  0  0  0  0  0  0  0  0  # atno 11005 bound_to 11000
  145.5365  139.1475  143.3471 LP  0  0  0  0  0  0  0  0  0  0  0  0  # atno 17320 bound_to 7965
  146.2388  140.5505  142.8943 LP  0  0  0  0  0  0  0  0  0  0  0  0  # atno 17321 bound_to 7965
  140.6796  143.2321  151.5418 LP  0  0  0  0  0  0  0  0  0  0  0  0  # atno 17342 bound_to 10162
  139.5502  144.2415  152.1516 LP  0  0  0  0  0  0  0  0  0  0  0  0  # atno 17343 bound_to 10162
  157.2601  131.0565  151.2325 LP  0  0  0  0  0  0  0  0  0  0  0  0  # atno 17370 bound_to 10713
  157.3443  130.7049  149.6401 LP  0  0  0  0  0  0  0  0  0  0  0  0  # atno 17371 bound_to 10713
  141.0132  133.7083  156.1146 LP  0  0  0  0  0  0  0  0  0  0  0  0  # atno 17394 bound_to 11000
  140.7338  134.4226  157.5563 LP  0  0  0  0  0  0  0  0  0  0  0  0  # atno 17395 bound_to 11000

$$$$
