AV-unprocessed.smi:1976|AV-procd|sdf|7985|dock4
  -GOLD-   2272010163D 1   1.00000     0.00000
 Structure written by MMmdl.
 45 47  0  0  0  0  0  0  0  0  2 V2000
  149.6519  141.8645  158.4294 O   0  0  0  0  0  0  0  0  0  0  0  0
  150.6054  142.2563  157.7557 C   0  0  0  0  0  0  0  0  0  0  0  0
  151.4949  143.4085  158.2428 C   0  0  0  0  0  0  0  0  0  0  0  0
  151.9960  143.2070  159.6123 N   0  0  0  0  0  0  0  0  0  0  0  0
  152.7959  142.0685  159.8312 C   0  0  0  0  0  0  0  0  0  0  0  0
  153.3397  141.7728  161.0269 C   0  0  0  0  0  0  0  0  0  0  0  0
  154.1633  140.5114  161.2352 C   0  0  0  0  0  0  0  0  0  0  0  0
  153.4922  139.4260  160.8492 F   0  0  0  0  0  0  0  0  0  0  0  0
  155.3035  140.5667  160.5459 F   0  0  0  0  0  0  0  0  0  0  0  0
  154.4670  140.3770  162.5255 F   0  0  0  0  0  0  0  0  0  0  0  0
  153.0325  142.6781  162.1168 C   0  0  0  0  0  0  0  0  0  0  0  0
  152.2667  143.7701  161.9253 C   0  0  0  0  0  0  0  0  0  0  0  0
  151.7063  144.0937  160.6113 C   0  0  0  0  0  0  0  0  0  0  0  0
  151.0210  145.0984  160.4206 O   0  0  0  0  0  0  0  0  0  0  0  0
  150.9388  141.7146  156.5742 N   0  0  0  0  0  0  0  0  0  0  0  0
  150.2207  140.6283  155.9139 C   0  0  2  0  0  0  0  0  0  0  0  0
  151.1388  139.5153  155.4223 C   0  0  0  0  0  0  0  0  0  0  0  0
  150.2621  138.8054  154.3886 C   0  0  0  0  0  0  0  0  0  0  0  0
  149.4166  139.8570  153.7769 N   0  3  1  0  0  0  0  0  0  0  0  0
  148.0390  139.4205  153.4420 C   0  0  0  0  0  0  0  0  0  0  0  0
  147.2448  140.5657  152.7855 C   0  0  0  0  0  0  0  0  0  0  0  0
  147.3524  141.8985  153.5550 C   0  0  0  0  0  0  0  0  0  0  0  0
  148.1409  141.7543  154.8648 C   0  0  0  0  0  0  0  0  0  0  0  0
  149.5114  141.0793  154.6248 C   0  0  1  0  0  0  0  0  0  0  0  0
  152.3157  143.5360  157.5351 H   0  0  0  0  0  0  0  0  0  0  0  0
  150.9324  144.3425  158.1943 H   0  0  0  0  0  0  0  0  0  0  0  0
  152.9453  141.4510  158.9572 H   0  0  0  0  0  0  0  0  0  0  0  0
  153.4258  142.4819  163.1033 H   0  0  0  0  0  0  0  0  0  0  0  0
  152.0607  144.4246  162.7596 H   0  0  0  0  0  0  0  0  0  0  0  0
  151.7448  142.0887  156.0943 H   0  0  0  0  0  0  0  0  0  0  0  0
  149.4956  140.1842  156.5997 H   0  0  0  0  0  0  0  0  0  0  0  0
  152.0226  139.9336  154.9377 H   0  0  0  0  0  0  0  0  0  0  0  0
  151.4717  138.8520  156.2214 H   0  0  0  0  0  0  0  0  0  0  0  0
  150.8481  138.2781  153.6354 H   0  0  0  0  0  0  0  0  0  0  0  0
  149.6345  138.0705  154.8957 H   0  0  0  0  0  0  0  0  0  0  0  0
  148.0811  138.5633  152.7690 H   0  0  0  0  0  0  0  0  0  0  0  0
  147.5318  139.0834  154.3476 H   0  0  0  0  0  0  0  0  0  0  0  0
  147.6016  140.7152  151.7658 H   0  0  0  0  0  0  0  0  0  0  0  0
  146.1983  140.2729  152.6960 H   0  0  0  0  0  0  0  0  0  0  0  0
  147.8476  142.6370  152.9233 H   0  0  0  0  0  0  0  0  0  0  0  0
  146.3583  142.2968  153.7604 H   0  0  0  0  0  0  0  0  0  0  0  0
  148.2794  142.7357  155.3190 H   0  0  0  0  0  0  0  0  0  0  0  0
  147.5540  141.1724  155.5767 H   0  0  0  0  0  0  0  0  0  0  0  0
  150.1562  141.7715  154.0808 H   0  0  0  0  0  0  0  0  0  0  0  0
  149.8533  140.1040  152.9003 H   0  0  0  0  0  0  0  0  0  0  0  0
  1  2  2  0  0  0  0
  2  3  1  0  0  0  0
  2 15  1  0  0  0  0
  3  4  1  0  0  0  0
  3 25  1  0  0  0  0
  3 26  1  0  0  0  0
  4 13  1  0  0  0  0
  4  5  1  0  0  0  0
  5  6  2  0  0  0  0
  5 27  1  0  0  0  0
  6  7  1  0  0  0  0
  6 11  1  0  0  0  0
  7  8  1  0  0  0  0
  7  9  1  0  0  0  0
  7 10  1  0  0  0  0
 11 12  2  0  0  0  0
 11 28  1  0  0  0  0
 12 13  1  0  0  0  0
 12 29  1  0  0  0  0
 13 14  2  0  0  0  0
 15 16  1  0  0  0  0
 15 30  1  0  0  0  0
 16 24  1  0  0  0  0
 16 17  1  0  0  0  0
 16 31  1  0  0  0  0
 17 18  1  0  0  0  0
 17 32  1  0  0  0  0
 17 33  1  0  0  0  0
 18 19  1  0  0  0  0
 18 34  1  0  0  0  0
 18 35  1  0  0  0  0
 19 24  1  0  0  0  0
 19 20  1  0  0  0  0
 19 45  1  0  0  0  0
 20 21  1  0  0  0  0
 20 36  1  0  0  0  0
 20 37  1  0  0  0  0
 21 22  1  0  0  0  0
 21 38  1  0  0  0  0
 21 39  1  0  0  0  0
 22 23  1  0  0  0  0
 22 40  1  0  0  0  0
 22 41  1  0  0  0  0
 23 24  1  0  0  0  0
 23 42  1  0  0  0  0
 23 43  1  0  0  0  0
 24 44  1  0  0  0  0
M  CHG  1  19   1
M  END
> <s_m_source_file>
AV-unprocessed.smi

> <i_m_source_file_index>
1976

> <i_lp_mmshare_version>
43012

> <i_f3d_flags>
0

> <s_epik_input>
W0NIMl0xW0NIMl1bQ0gyXVtDSDJdW0NASF0oTjEyKVtDQEBIXShbQ0gyXVtDSDJdMilbTkhdQyg9TylbQ0gyXW4zW2NIXWMoQyhGKShGKUYpW2NIXVtjSF1jMz1P

> <s_epik_cmdline>
J2VwaWtfcHl0aG9uJywgJy1waCcsICc3LjAnLCAnLXRuJywgJzgnLCAnLW1hJywgJzIwMCcsICctbWV0YWxfYmluZGluZycsICctaW1hZScsICc8aW5maWxlLm1hZT4nLCAnLW9tYWUnLCAnPG91dGZpbGUubWFlPic=

> <r_lp_tautomer_probability>
1

> <r_epik_Ionization_Penalty>
0.00171506

> <r_epik_Ionization_Penalty_Charging>
0.00171498

> <r_epik_Ionization_Penalty_Neutral>
7.81737e-08

> <r_epik_State_Penalty>
0.00115937

> <r_epik_Charging_Adjusted_Penalty>
0.00287436

> <i_epik_Tot_Q>
1

> <i_epik_Tot_abs_Q>
1

> <r_epik_Metal_State_Penalty>
-0

> <b_epik_Metal_Only>
0

> <s_lp_Force_Field>
OPLS_2005

> <r_lp_Energy>
51.6

> <b_lp_Chiralities_Consistent>
1

> <s_lp_Variant>
AV-unprocessed.smi:1976-3

> <Gold.Version>
5.8.1

> <Gold.Id.Protein>
6NUR|6NUR_protein|mol2

> <Gold.PLP.Fitness>
60.4145

> <Gold.PLP.PLP>
-58.2551

> <Gold.PLP.part.hbond>
-1.1526

> <Gold.PLP.part.metal>
0.0000

> <Gold.PLP.part.buried>
-3.9525

> <Gold.PLP.part.nonpolar>
-52.5864

> <Gold.PLP.part.repulsive>
0.4847

> <Gold.PLP.ligand.clash>
0.2809

> <Gold.PLP.ligand.torsion>
0.2376

> <Gold.PLP.Chemscore.Hbond>
0.9600

> <Gold.PLP.Chemscore.CHOScore>
0.0000

> <Gold.PLP.Chemscore.Metal>
0.0000

> <Gold.Chemscore.Hbonds>
donor molecule, donor type, donor heavy atom, donor atom, acceptor molecule, acceptor atom, score
      L1  H    19    45       P1  7957  0.86

> <Gold.PLP.Chemscore.Internal.Correction>
0.0355

> <Gold.Rescore>
     Score         DG    S(hbond)    S(metal)    S(lipo)     H(rot)  DE(clash)    DE(int)     intcor
     18.08     -18.57       0.96        0.00     119.12       1.58       0.25       0.24       ----

> <Gold.Chemscore.Fitness>
18.0776

> <Gold.Chemscore.DG>
-18.5688

> <Gold.Chemscore.ZeroCoef>
-5.4800

> <Gold.Chemscore.Hbond>
0.9594

> <Gold.Chemscore.Metal>
0.0000

> <Gold.Chemscore.Lipo>
119.1180

> <Gold.Chemscore.Internal_Hbond>
0.0000

> <Gold.Chemscore.DEClash>
0.2467

> <Gold.Chemscore.DEInternal>
0.2445

> <Gold.Chemscore.Rot>
1.5830

> <Gold.Chemscore.Internal.Correction>
   9.000000E+99

> <Gold.Chemscore.Hbonds>
donor molecule, donor type, donor heavy atom, donor atom, acceptor molecule, acceptor atom, score
      L1  H    19    45       P1  7957  0.85

> <Gold.Chemscore.Hbond.Weighted>
-3.2044

> <Gold.Chemscore.Metal.Weighted>
-0.0000

> <Gold.Chemscore.Lipo.Weighted>
-13.9368

> <Gold.Chemscore.Internal_Hbond.Weighted>
0.0000

> <Gold.Chemscore.DEClash.Weighted>
0.2467

> <Gold.Chemscore.DEInternal.Weighted>
0.2445

> <Gold.Chemscore.Rot.Weighted>
4.0524

> <Gold.Chemscore.Internal.Correction.Weighted>
   9.000000E+99

> <Gold.Protein.RotatedTorsions>
[ 6907 6896 6895 6894 ] final   66.14 input  -60.11 | X-H torsion
[ 7974 7965 7964 7962 ] final  164.45 input  175.53 | X-H torsion
[ 8008 7997 7996 7995 ] final   31.95 input   59.86 | X-H torsion
[ 10167 10162 10161 10158 ] final   -6.93 input  -65.29 | X-H torsion
[ 10718 10713 10712 10709 ] final -164.48 input   66.30 | X-H torsion
[ 10763 10752 10751 10750 ] final  146.12 input  -60.55 | X-H torsion
[ 11005 11000 10999 10996 ] final -124.27 input  -57.11 | X-H torsion

> <Gold.Protein.ActiveResidues>
 VAL166  LYS551  ARG553  GLY616  TRP617  ASP618  TYR619  PRO620  LYS621  CYS622 
 ASP623  PHE694  ASN695  SER759  ASP760  ASP761  ALA762  ILE779  LEU786  VAL792 
 PHE793  MET794  SER795  GLU796  ALA797  LYS798  CYS799  TRP800  GLU811  SER814 

> <Gold.Protein.RotatedAtoms>
  152.4459  134.5495  159.9862 H   0  0  0  0  0  0  0  0  0  0  0  0  # atno 6907 bound_to 6896
  151.5581  133.3401  159.2973 H   0  0  0  0  0  0  0  0  0  0  0  0  # atno 6908 bound_to 6896
  150.8375  134.7687  159.6968 H   0  0  0  0  0  0  0  0  0  0  0  0  # atno 6909 bound_to 6896
  144.7545  139.8327  143.6355 H   0  0  0  0  0  0  0  0  0  0  0  0  # atno 7974 bound_to 7965
  155.1147  140.3242  155.4512 H   0  0  0  0  0  0  0  0  0  0  0  0  # atno 8008 bound_to 7997
  156.2680  140.2038  156.6218 H   0  0  0  0  0  0  0  0  0  0  0  0  # atno 8009 bound_to 7997
  154.6729  140.0534  157.0171 H   0  0  0  0  0  0  0  0  0  0  0  0  # atno 8010 bound_to 7997
  140.7013  143.6138  150.8678 H   0  0  0  0  0  0  0  0  0  0  0  0  # atno 10167 bound_to 10162
  156.6397  130.8963  151.2993 H   0  0  0  0  0  0  0  0  0  0  0  0  # atno 10718 bound_to 10713
  154.0167  135.2909  155.3386 H   0  0  0  0  0  0  0  0  0  0  0  0  # atno 10763 bound_to 10752
  154.7071  135.5165  153.8614 H   0  0  0  0  0  0  0  0  0  0  0  0  # atno 10764 bound_to 10752
  153.0699  135.6644  154.0393 H   0  0  0  0  0  0  0  0  0  0  0  0  # atno 10765 bound_to 10752
  140.9854  134.0615  157.3717 H   0  0  0  0  0  0  0  0  0  0  0  0  # atno 11005 bound_to 11000
  146.1537  139.4629  143.0032 LP  0  0  0  0  0  0  0  0  0  0  0  0  # atno 17320 bound_to 7965
  145.6828  141.0186  143.1597 LP  0  0  0  0  0  0  0  0  0  0  0  0  # atno 17321 bound_to 7965
  139.9860  143.5899  152.2926 LP  0  0  0  0  0  0  0  0  0  0  0  0  # atno 17342 bound_to 10162
  139.6537  144.7661  151.2098 LP  0  0  0  0  0  0  0  0  0  0  0  0  # atno 17343 bound_to 10162
  157.7175  130.9515  150.1310 LP  0  0  0  0  0  0  0  0  0  0  0  0  # atno 17370 bound_to 10713
  156.2169  130.3671  149.8602 LP  0  0  0  0  0  0  0  0  0  0  0  0  # atno 17371 bound_to 10713
  139.8968  135.0147  156.7069 LP  0  0  0  0  0  0  0  0  0  0  0  0  # atno 17394 bound_to 11000
  140.7123  133.9213  155.8092 LP  0  0  0  0  0  0  0  0  0  0  0  0  # atno 17395 bound_to 11000

$$$$
