AV-unprocessed.smi:1144|AV-procd|sdf|4877|dock2
  -GOLD-   22720 3453D 1   1.00000     0.00000
 Structure written by MMmdl.
 35 36  0  0  0  0  0  0  0  0  2 V2000
  143.9266  133.0291  148.5433 C   0  0  0  0  0  0  0  0  0  0  0  0
  143.6712  133.2995  149.9769 N   0  3  2  0  0  0  0  0  0  0  0  0
  144.2461  134.5793  150.4538 C   0  0  0  0  0  0  0  0  0  0  0  0
  145.7574  134.4501  150.7169 C   0  0  0  0  0  0  0  0  0  0  0  0
  145.9909  133.3831  151.6279 O   0  0  0  0  0  0  0  0  0  0  0  0
  145.5673  132.1226  151.1165 C   0  0  1  0  0  0  0  0  0  0  0  0
  145.9316  131.0437  152.1452 C   0  0  0  0  0  0  0  0  0  0  0  0
  146.7045  129.9654  151.5473 N   0  0  0  0  0  0  0  0  0  0  0  0
  147.0290  128.7932  152.2034 C   0  0  0  0  0  0  0  0  0  0  0  0
  146.5974  128.6308  153.4594 N   0  0  0  0  0  0  0  0  0  0  0  0
  146.9300  127.4773  154.0783 C   0  0  0  0  0  0  0  0  0  0  0  0
  147.6968  126.4860  153.4349 C   0  0  0  0  0  0  0  0  0  0  0  0
  148.0979  126.7648  152.1106 C   0  0  0  0  0  0  0  0  0  0  0  0
  148.9291  125.7647  151.3215 C   0  0  0  0  0  0  0  0  0  0  0  0
  148.1739  124.7142  151.0010 F   0  0  0  0  0  0  0  0  0  0  0  0
  149.3659  126.3374  150.2002 F   0  0  0  0  0  0  0  0  0  0  0  0
  149.9829  125.3337  152.0175 F   0  0  0  0  0  0  0  0  0  0  0  0
  147.7574  127.9244  151.4996 N   0  0  0  0  0  0  0  0  0  0  0  0
  144.0431  132.1784  150.8733 C   0  0  0  0  0  0  0  0  0  0  0  0
  144.9894  132.9133  148.3321 H   0  0  0  0  0  0  0  0  0  0  0  0
  143.5465  133.8457  147.9285 H   0  0  0  0  0  0  0  0  0  0  0  0
  143.4173  132.1174  148.2298 H   0  0  0  0  0  0  0  0  0  0  0  0
  144.0418  135.3784  149.7402 H   0  0  0  0  0  0  0  0  0  0  0  0
  143.7423  134.8560  151.3808 H   0  0  0  0  0  0  0  0  0  0  0  0
  146.3112  134.2860  149.7915 H   0  0  0  0  0  0  0  0  0  0  0  0
  146.1402  135.3732  151.1527 H   0  0  0  0  0  0  0  0  0  0  0  0
  146.0853  131.9092  150.1797 H   0  0  0  0  0  0  0  0  0  0  0  0
  146.4937  131.4819  152.9708 H   0  0  0  0  0  0  0  0  0  0  0  0
  145.0207  130.6180  152.5679 H   0  0  0  0  0  0  0  0  0  0  0  0
  147.1086  130.1105  150.6334 H   0  0  0  0  0  0  0  0  0  0  0  0
  146.5822  127.3447  155.0920 H   0  0  0  0  0  0  0  0  0  0  0  0
  147.9627  125.5633  153.9289 H   0  0  0  0  0  0  0  0  0  0  0  0
  143.5283  132.3214  151.8245 H   0  0  0  0  0  0  0  0  0  0  0  0
  143.6794  131.2348  150.4642 H   0  0  0  0  0  0  0  0  0  0  0  0
  142.6682  133.3967  150.0492 H   0  0  0  0  0  0  0  0  0  0  0  0
  1  2  1  0  0  0  0
  1 20  1  0  0  0  0
  1 21  1  0  0  0  0
  1 22  1  0  0  0  0
  2 19  1  0  0  0  0
  2  3  1  0  0  0  0
  2 35  1  0  0  0  0
  3  4  1  0  0  0  0
  3 23  1  0  0  0  0
  3 24  1  0  0  0  0
  4  5  1  0  0  0  0
  4 25  1  0  0  0  0
  4 26  1  0  0  0  0
  5  6  1  0  0  0  0
  6  7  1  0  0  0  0
  6 19  1  0  0  0  0
  6 27  1  0  0  0  0
  7  8  1  0  0  0  0
  7 28  1  0  0  0  0
  7 29  1  0  0  0  0
  8  9  1  0  0  0  0
  8 30  1  0  0  0  0
  9 18  1  0  0  0  0
  9 10  2  0  0  0  0
 10 11  1  0  0  0  0
 11 12  2  0  0  0  0
 11 31  1  0  0  0  0
 12 13  1  0  0  0  0
 12 32  1  0  0  0  0
 13 14  1  0  0  0  0
 13 18  2  0  0  0  0
 14 15  1  0  0  0  0
 14 16  1  0  0  0  0
 14 17  1  0  0  0  0
 19 33  1  0  0  0  0
 19 34  1  0  0  0  0
M  CHG  1   2   1
M  END
> <s_m_source_file>
AV-unprocessed.smi

> <i_m_source_file_index>
1144

> <i_lp_mmshare_version>
43012

> <i_f3d_flags>
0

> <s_epik_input>
W0NIM11OMVtDSDJdW0NIMl1PW0NASF0oW0NIMl0xKVtDSDJdW05IXWMybltjSF1bY0hdYyhuMilDKEYpKEYpRg==

> <s_epik_cmdline>
J2VwaWtfcHl0aG9uJywgJy1waCcsICc3LjAnLCAnLXRuJywgJzgnLCAnLW1hJywgJzIwMCcsICctbWV0YWxfYmluZGluZycsICctaW1hZScsICc8aW5maWxlLm1hZT4nLCAnLW9tYWUnLCAnPG91dGZpbGUubWFlPic=

> <r_lp_tautomer_probability>
1

> <r_epik_Ionization_Penalty>
0.178506

> <r_epik_Ionization_Penalty_Charging>
0.178504

> <r_epik_Ionization_Penalty_Neutral>
2.47225e-06

> <r_epik_State_Penalty>
0.167974

> <r_epik_Charging_Adjusted_Penalty>
0.346478

> <i_epik_Tot_Q>
1

> <i_epik_Tot_abs_Q>
1

> <r_epik_Metal_State_Penalty>
0.167974

> <b_epik_Metal_Only>
0

> <s_lp_Force_Field>
OPLS_2005

> <r_lp_Energy>
13.0579

> <b_lp_Chiralities_Consistent>
1

> <s_lp_Variant>
AV-unprocessed.smi:1144-2

> <Gold.Version>
5.8.1

> <Gold.Id.Protein>
6NUR|6NUR_protein|mol2

> <Gold.PLP.Fitness>
39.0633

> <Gold.PLP.PLP>
-33.7665

> <Gold.PLP.part.hbond>
-2.0000

> <Gold.PLP.part.metal>
0.0000

> <Gold.PLP.part.buried>
-2.6256

> <Gold.PLP.part.nonpolar>
-29.4298

> <Gold.PLP.part.repulsive>
0.4666

> <Gold.PLP.ligand.clash>
0.0000

> <Gold.PLP.ligand.torsion>
1.0744

> <Gold.PLP.Chemscore.Hbond>
2.4800

> <Gold.PLP.Chemscore.CHOScore>
0.0000

> <Gold.PLP.Chemscore.Metal>
0.0000

> <Gold.Chemscore.Hbonds>
donor molecule, donor type, donor heavy atom, donor atom, acceptor molecule, acceptor atom, score
      L1  H     2    35       P1 10186  1.95
      L1  H     8    30       P1 10747  0.53

> <Gold.PLP.Chemscore.Internal.Correction>
0.0055

> <Gold.Rescore>
     Score         DG    S(hbond)    S(metal)    S(lipo)     H(rot)  DE(clash)    DE(int)     intcor
     12.91     -15.41       1.52        0.00      70.63       1.34       1.73       0.77       ----

> <Gold.Chemscore.Fitness>
12.9080

> <Gold.Chemscore.DG>
-15.4082

> <Gold.Chemscore.ZeroCoef>
-5.4800

> <Gold.Chemscore.Hbond>
1.5237

> <Gold.Chemscore.Metal>
0.0000

> <Gold.Chemscore.Lipo>
70.6330

> <Gold.Chemscore.Internal_Hbond>
0.0000

> <Gold.Chemscore.DEClash>
1.7281

> <Gold.Chemscore.DEInternal>
0.7721

> <Gold.Chemscore.Rot>
1.3379

> <Gold.Chemscore.Internal.Correction>
   9.000000E+99

> <Gold.Chemscore.Hbonds>
donor molecule, donor type, donor heavy atom, donor atom, acceptor molecule, acceptor atom, score
      L1  H     2    35       P1 10186  0.88
      L1  H     8    30       P1 10747  0.49

> <Gold.Chemscore.Hbond.Weighted>
-5.0891

> <Gold.Chemscore.Metal.Weighted>
-0.0000

> <Gold.Chemscore.Lipo.Weighted>
-8.2641

> <Gold.Chemscore.Internal_Hbond.Weighted>
0.0000

> <Gold.Chemscore.DEClash.Weighted>
1.7281

> <Gold.Chemscore.DEInternal.Weighted>
0.7721

> <Gold.Chemscore.Rot.Weighted>
3.4250

> <Gold.Chemscore.Internal.Correction.Weighted>
   9.000000E+99

> <Gold.Protein.RotatedTorsions>
[ 6907 6896 6895 6894 ] final  -74.19 input  -60.11 | X-H torsion
[ 7974 7965 7964 7962 ] final  -73.52 input  175.53 | X-H torsion
[ 8008 7997 7996 7995 ] final -106.29 input   59.86 | X-H torsion
[ 10167 10162 10161 10158 ] final  -88.44 input  -65.29 | X-H torsion
[ 10718 10713 10712 10709 ] final  -74.57 input   66.30 | X-H torsion
[ 10763 10752 10751 10750 ] final  -98.64 input  -60.55 | X-H torsion
[ 11005 11000 10999 10996 ] final  -98.64 input  -57.11 | X-H torsion

> <Gold.Protein.ActiveResidues>
 VAL166  LYS551  ARG553  GLY616  TRP617  ASP618  TYR619  PRO620  LYS621  CYS622 
 ASP623  PHE694  ASN695  SER759  ASP760  ASP761  ALA762  ILE779  LEU786  VAL792 
 PHE793  MET794  SER795  GLU796  ALA797  LYS798  CYS799  TRP800  GLU811  SER814 

> <Gold.Protein.RotatedAtoms>
  150.7102  134.4906  159.5513 H   0  0  0  0  0  0  0  0  0  0  0  0  # atno 6907 bound_to 6896
  152.2524  134.8116  160.0453 H   0  0  0  0  0  0  0  0  0  0  0  0  # atno 6908 bound_to 6896
  151.8859  133.3470  159.3818 H   0  0  0  0  0  0  0  0  0  0  0  0  # atno 6909 bound_to 6896
  145.6510  140.9282  143.0984 H   0  0  0  0  0  0  0  0  0  0  0  0  # atno 7974 bound_to 7965
  154.9124  140.0409  157.1953 H   0  0  0  0  0  0  0  0  0  0  0  0  # atno 8008 bound_to 7997
  154.8335  140.2903  155.5685 H   0  0  0  0  0  0  0  0  0  0  0  0  # atno 8009 bound_to 7997
  156.2988  140.2496  156.3265 H   0  0  0  0  0  0  0  0  0  0  0  0  # atno 8010 bound_to 7997
  140.3746  143.2778  151.9459 H   0  0  0  0  0  0  0  0  0  0  0  0  # atno 10167 bound_to 10162
  156.0238  130.4420  150.2912 H   0  0  0  0  0  0  0  0  0  0  0  0  # atno 10718 bound_to 10713
  154.7432  135.5001  153.9158 H   0  0  0  0  0  0  0  0  0  0  0  0  # atno 10763 bound_to 10752
  153.1064  135.6698  153.9587 H   0  0  0  0  0  0  0  0  0  0  0  0  # atno 10764 bound_to 10752
  153.9358  135.3073  155.3423 H   0  0  0  0  0  0  0  0  0  0  0  0  # atno 10765 bound_to 10752
  141.1337  133.8261  157.0866 H   0  0  0  0  0  0  0  0  0  0  0  0  # atno 11005 bound_to 11000
  144.7122  139.8327  143.7410 LP  0  0  0  0  0  0  0  0  0  0  0  0  # atno 17320 bound_to 7965
  146.1203  139.4220  143.0232 LP  0  0  0  0  0  0  0  0  0  0  0  0  # atno 17321 bound_to 7965
  139.4800  144.5875  151.7828 LP  0  0  0  0  0  0  0  0  0  0  0  0  # atno 17342 bound_to 10162
  140.4999  144.1185  150.5968 LP  0  0  0  0  0  0  0  0  0  0  0  0  # atno 17343 bound_to 10162
  157.1015  131.0197  151.3083 LP  0  0  0  0  0  0  0  0  0  0  0  0  # atno 17370 bound_to 10713
  157.4776  130.7746  149.7383 LP  0  0  0  0  0  0  0  0  0  0  0  0  # atno 17371 bound_to 10713
  140.0418  134.9850  157.0976 LP  0  0  0  0  0  0  0  0  0  0  0  0  # atno 17394 bound_to 11000
  140.4123  134.1968  155.7163 LP  0  0  0  0  0  0  0  0  0  0  0  0  # atno 17395 bound_to 11000

$$$$
