#       Name:                AV-unprocessed.smi:100
#       Creating user name   scv26
#       Creation time:       Thu Mar 26 17:40:51 2020


#       File generated by GOLD software.
#

@<TRIPOS>MOLECULE
AV-unprocessed.smi:100
    40    42     1
SMALL
NO_CHARGES


@<TRIPOS>ATOM
      1 ****        -5.1489   0.8336   0.0455 N.pl3          1 S1                 0.0000
      2 ****        -3.9028   1.3257   0.0772 C.ar           1 S1                 0.0000
      3 ****        -3.7413   2.6698   0.0704 N.ar           1 S1                 0.0000
      4 ****        -2.5080   3.1861   0.1002 C.ar           1 S1                 0.0000
      5 ****        -1.3346   2.5478   0.1381 N.ar           1 S1                 0.0000
      6 ****        -1.5028   1.1930   0.1494 C.ar           1 S1                 0.0000
      7 ****        -2.7472   0.5057   0.1178 C.ar           1 S1                 0.0000
      8 ****        -2.5302  -0.8661   0.1337 N.2            1 S1                 0.0000
      9 ****        -1.2290  -0.9775   0.1743 C.2            1 S1                 0.0000
     10 ****        -0.5353   0.2138   0.1908 N.pl3          1 S1                 0.0000
     11 ****         0.9402   0.4330   0.2280 C.3            1 S1                 0.0000
     12 ****         1.4936  -0.5984   0.9877 O.3            1 S1                 0.0000
     13 ****         2.6716  -1.0723   0.3504 C.3            1 S1                 0.0000
     14 ****         3.0154  -2.4952   0.8167 C.3            1 S1                 0.0000
     15 ****         3.7117  -2.4459   2.0432 O.3            1 S1                 0.0000
     16 ****         2.3167  -0.9628  -1.1331 C.3            1 S1                 0.0000
     17 ****         1.5382  -1.9806  -1.5071 F              1 S1                 0.0000
     18 ****         1.5183   0.3295  -1.1943 C.3            1 S1                 0.0000
     19 ****         2.3621   1.4200  -1.5059 O.3            1 S1                 0.0000
     20 ****        -5.2952  -0.1656   0.0500 H              1 S1                 0.0000
     21 ****        -5.9383   1.4626   0.0217 H              1 S1                 0.0000
     22 ****        -2.4536   4.2647   0.0941 H              1 S1                 0.0000
     23 ****        -0.7360  -1.9387   0.1934 H              1 S1                 0.0000
     24 ****         1.0856   1.4013   0.7098 H              1 S1                 0.0000
     25 ****         3.4939  -0.3867   0.5653 H              1 S1                 0.0000
     26 ****         2.1191  -3.1090   0.9134 H              1 S1                 0.0000
     27 ****         3.6667  -2.9814   0.0898 H              1 S1                 0.0000
     28 ****         3.9112  -3.3297   2.3113 H              1 S1                 0.0000
     29 ****         3.1902  -0.9713  -1.7863 H              1 S1                 0.0000
     30 ****         0.7259   0.2843  -1.9436 H              1 S1                 0.0000
     31 ****         1.8436   2.2103  -1.5016 H              1 S1                 0.0000
     32 ****        -4.5388   3.2725   0.0433 LP             1 S1                 0.0000
     33 ****        -0.4454   3.0049   0.1559 LP             1 S1                 0.0000
     34 ****        -3.2113  -1.5981   0.1178 LP             1 S1                 0.0000
     35 ****         0.8336  -1.3454   1.0675 LP             1 S1                 0.0000
     36 ****         1.7217  -0.2563   1.8992 LP             1 S1                 0.0000
     37 ****         3.1426  -2.0037   2.7364 LP             1 S1                 0.0000
     38 ****         4.5599  -1.9287   1.9288 LP             1 S1                 0.0000
     39 ****         2.7661   1.2863  -2.4108 LP             1 S1                 0.0000
     40 ****         3.0894   1.4898  -0.8232 LP             1 S1                 0.0000
@<TRIPOS>BOND
    1    1    2 1     
    2    1   20 1     
    3    1   21 1     
    4    2    7 ar    
    5    2    3 ar    
    6    3    4 ar    
    7    4    5 ar    
    8    4   22 1     
    9    5    6 ar    
   10    6   10 1     
   11    6    7 ar    
   12    7    8 1     
   13    8    9 2     
   14    9   10 1     
   15    9   23 1     
   16   10   11 1     
   17   11   18 1     
   18   11   12 1     
   19   11   24 1     
   20   12   13 1     
   21   13   14 1     
   22   13   16 1     
   23   13   25 1     
   24   14   15 1     
   25   14   26 1     
   26   14   27 1     
   27   15   28 1     
   28   16   17 1     
   29   16   18 1     
   30   16   29 1     
   31   18   19 1     
   32   18   30 1     
   33   19   31 1     
   34    3   32 1     
   35    5   33 1     
   36    8   34 1     
   37   12   35 1     
   38   12   36 1     
   39   15   37 1     
   40   15   38 1     
   41   19   39 1     
   42   19   40 1     
@<TRIPOS>SUBSTRUCTURE
      1 S1             1
@<TRIPOS>SET
LONE_PAIRS      STATIC     ATOMS    <user>   **** ""
9 32 33 34 35 36 37 38 39 40
DONOR_HYDROGENS      STATIC     ATOMS    <user>   **** ""
4 20 21 28 31
ATOM$BLUE        STATIC     ATOMS    COLORGROUP SYSTEM
9 32 33 34 35 36 37 38 39 40
ATOM$RED        STATIC     ATOMS    COLORGROUP SYSTEM
4 20 21 28 31
