AV-unprocessed.smi:3164|AV-procd|sdf|12080|dock1
  -GOLD-   2272017503D 1   1.00000     0.00000
 Structure written by MMmdl.
 40 41  0  0  0  0  0  0  0  0  3 V2000
  143.9105  132.6307  148.3289 C   0  0  0  0  0  0  0  0  0  0  0  0
  143.6162  132.9321  149.7491 N   0  3  2  0  0  0  0  0  0  0  0  0
  144.2776  134.1610  150.2481 C   0  0  0  0  0  0  0  0  0  0  0  0
  145.7581  133.9040  150.5841 C   0  0  0  0  0  0  0  0  0  0  0  0
  145.8575  132.8269  151.5089 O   0  0  0  0  0  0  0  0  0  0  0  0
  145.3504  131.6051  150.9810 C   0  0  1  0  0  0  0  0  0  0  0  0
  145.5786  130.5014  152.0252 C   0  0  0  0  0  0  0  0  0  0  0  0
  146.9404  129.9371  151.9292 N   0  3  0  0  0  0  0  0  0  0  0  0
  146.9684  128.4904  151.6384 C   0  0  0  0  0  0  0  0  0  0  0  0
  148.3644  128.0430  151.1837 C   0  0  0  0  0  0  0  0  0  0  0  0
  148.6119  126.5733  151.4653 C   0  0  0  0  0  0  0  0  0  0  0  0
  148.8303  125.6632  150.4093 C   0  0  0  0  0  0  0  0  0  0  0  0
  149.0427  124.3074  150.7263 C   0  0  0  0  0  0  0  0  0  0  0  0
  149.0271  123.9168  152.0789 C   0  0  0  0  0  0  0  0  0  0  0  0
  148.8005  124.9031  153.0595 C   0  0  0  0  0  0  0  0  0  0  0  0
  148.5948  126.2057  152.7662 N   0  0  0  0  0  0  0  0  0  0  0  0
  143.8490  131.7891  150.6650 C   0  0  0  0  0  0  0  0  0  0  0  0
  144.9660  132.4111  148.1683 H   0  0  0  0  0  0  0  0  0  0  0  0
  143.6406  133.4762  147.6954 H   0  0  0  0  0  0  0  0  0  0  0  0
  143.3303  131.7709  147.9925 H   0  0  0  0  0  0  0  0  0  0  0  0
  144.1781  134.9696  149.5225 H   0  0  0  0  0  0  0  0  0  0  0  0
  143.7561  134.4878  151.1487 H   0  0  0  0  0  0  0  0  0  0  0  0
  146.3380  133.6855  149.6861 H   0  0  0  0  0  0  0  0  0  0  0  0
  146.1982  134.7947  151.0329 H   0  0  0  0  0  0  0  0  0  0  0  0
  145.8926  131.3457  150.0701 H   0  0  0  0  0  0  0  0  0  0  0  0
  145.4121  130.8907  153.0308 H   0  0  0  0  0  0  0  0  0  0  0  0
  144.8592  129.6962  151.8698 H   0  0  0  0  0  0  0  0  0  0  0  0
  147.4420  130.4190  151.1968 H   0  0  0  0  0  0  0  0  0  0  0  0
  146.6710  127.9399  152.5321 H   0  0  0  0  0  0  0  0  0  0  0  0
  146.2356  128.2653  150.8620 H   0  0  0  0  0  0  0  0  0  0  0  0
  148.4879  128.2292  150.1157 H   0  0  0  0  0  0  0  0  0  0  0  0
  149.1312  128.6327  151.6885 H   0  0  0  0  0  0  0  0  0  0  0  0
  148.8340  125.9913  149.3801 H   0  0  0  0  0  0  0  0  0  0  0  0
  149.2134  123.5804  149.9460 H   0  0  0  0  0  0  0  0  0  0  0  0
  149.1853  122.8858  152.3589 H   0  0  0  0  0  0  0  0  0  0  0  0
  148.7826  124.6385  154.1064 H   0  0  0  0  0  0  0  0  0  0  0  0
  143.3037  131.9815  151.5903 H   0  0  0  0  0  0  0  0  0  0  0  0
  143.4253  130.8774  150.2417 H   0  0  0  0  0  0  0  0  0  0  0  0
  147.4165  130.0956  152.8063 H   0  0  0  0  0  0  0  0  0  0  0  0
  142.6231  133.1174  149.7750 H   0  0  0  0  0  0  0  0  0  0  0  0
  1  2  1  0  0  0  0
  1 18  1  0  0  0  0
  1 19  1  0  0  0  0
  1 20  1  0  0  0  0
  2 17  1  0  0  0  0
  2  3  1  0  0  0  0
  2 40  1  0  0  0  0
  3  4  1  0  0  0  0
  3 21  1  0  0  0  0
  3 22  1  0  0  0  0
  4  5  1  0  0  0  0
  4 23  1  0  0  0  0
  4 24  1  0  0  0  0
  5  6  1  0  0  0  0
  6  7  1  0  0  0  0
  6 17  1  0  0  0  0
  6 25  1  0  0  0  0
  7  8  1  0  0  0  0
  7 26  1  0  0  0  0
  7 27  1  0  0  0  0
  8  9  1  0  0  0  0
  8 28  1  0  0  0  0
  8 39  1  0  0  0  0
  9 10  1  0  0  0  0
  9 29  1  0  0  0  0
  9 30  1  0  0  0  0
 10 11  1  0  0  0  0
 10 31  1  0  0  0  0
 10 32  1  0  0  0  0
 11 16  1  0  0  0  0
 11 12  2  0  0  0  0
 12 13  1  0  0  0  0
 12 33  1  0  0  0  0
 13 14  2  0  0  0  0
 13 34  1  0  0  0  0
 14 15  1  0  0  0  0
 14 35  1  0  0  0  0
 15 16  2  0  0  0  0
 15 36  1  0  0  0  0
 17 37  1  0  0  0  0
 17 38  1  0  0  0  0
M  CHG  1   2   1
M  CHG  1   8   1
M  END
> <s_m_source_file>
AV-unprocessed.smi

> <i_m_source_file_index>
3164

> <i_lp_mmshare_version>
43012

> <i_f3d_flags>
0

> <s_epik_input>
W0NIM11OMVtDSDJdW0NIMl1PW0NASF0oW0NIMl0xKVtDSDJdW05IXVtDSDJdW0NIMl1jMltjSF1bY0hdW2NIXVtjSF1uMg==

> <s_epik_cmdline>
J2VwaWtfcHl0aG9uJywgJy1waCcsICc3LjAnLCAnLXRuJywgJzgnLCAnLW1hJywgJzIwMCcsICctbWV0YWxfYmluZGluZycsICctaW1hZScsICc8aW5maWxlLm1hZT4nLCAnLW9tYWUnLCAnPG91dGZpbGUubWFlPic=

> <r_epik_Ionization_Penalty>
0.294944

> <r_epik_Ionization_Penalty_Charging>
0.29381

> <r_epik_Ionization_Penalty_Neutral>
0.00113372

> <r_epik_State_Penalty>
0.271365

> <r_epik_Charging_Adjusted_Penalty>
0.565175

> <i_epik_Tot_Q>
2

> <i_epik_Tot_abs_Q>
2

> <r_epik_Metal_State_Penalty>
0.271365

> <b_epik_Metal_Only>
0

> <s_lp_Force_Field>
OPLS_2005

> <r_lp_Energy>
22.4199

> <b_lp_Chiralities_Consistent>
1

> <s_lp_Variant>
AV-unprocessed.smi:3164-2

> <Gold.Version>
5.8.1

> <Gold.Id.Protein>
6NUR|6NUR_protein|mol2

> <Gold.PLP.Fitness>
45.9728

> <Gold.PLP.PLP>
-38.7108

> <Gold.PLP.part.hbond>
-2.0000

> <Gold.PLP.part.metal>
0.0000

> <Gold.PLP.part.buried>
-3.4421

> <Gold.PLP.part.nonpolar>
-32.1190

> <Gold.PLP.part.repulsive>
0.2733

> <Gold.PLP.ligand.clash>
0.0000

> <Gold.PLP.ligand.torsion>
0.8393

> <Gold.PLP.Chemscore.Hbond>
2.9760

> <Gold.PLP.Chemscore.CHOScore>
0.0000

> <Gold.PLP.Chemscore.Metal>
0.0000

> <Gold.Chemscore.Hbonds>
donor molecule, donor type, donor heavy atom, donor atom, acceptor molecule, acceptor atom, score
      L1  H     2    40       P1 10186  1.72
      L1  H     8    28       P1 10747  1.00

> <Gold.PLP.Chemscore.Internal.Correction>
0.0126

> <Gold.Rescore>
     Score         DG    S(hbond)    S(metal)    S(lipo)     H(rot)  DE(clash)    DE(int)     intcor
     17.97     -19.04       1.88        0.00      98.28       1.65       0.20       0.87       ----

> <Gold.Chemscore.Fitness>
17.9722

> <Gold.Chemscore.DG>
-19.0424

> <Gold.Chemscore.ZeroCoef>
-5.4800

> <Gold.Chemscore.Hbond>
1.8790

> <Gold.Chemscore.Metal>
0.0000

> <Gold.Chemscore.Lipo>
98.2792

> <Gold.Chemscore.Internal_Hbond>
0.0000

> <Gold.Chemscore.DEClash>
0.2039

> <Gold.Chemscore.DEInternal>
0.8663

> <Gold.Chemscore.Rot>
1.6454

> <Gold.Chemscore.Internal.Correction>
   9.000000E+99

> <Gold.Chemscore.Hbonds>
donor molecule, donor type, donor heavy atom, donor atom, acceptor molecule, acceptor atom, score
      L1  H     2    40       P1 10186  0.80
      L1  H     8    28       P1 10747  0.96

> <Gold.Chemscore.Hbond.Weighted>
-6.2760

> <Gold.Chemscore.Metal.Weighted>
-0.0000

> <Gold.Chemscore.Lipo.Weighted>
-11.4987

> <Gold.Chemscore.Internal_Hbond.Weighted>
0.0000

> <Gold.Chemscore.DEClash.Weighted>
0.2039

> <Gold.Chemscore.DEInternal.Weighted>
0.8663

> <Gold.Chemscore.Rot.Weighted>
4.2122

> <Gold.Chemscore.Internal.Correction.Weighted>
   9.000000E+99

> <Gold.Protein.RotatedTorsions>
[ 6907 6896 6895 6894 ] final    5.40 input  -60.11 | X-H torsion
[ 7974 7965 7964 7962 ] final  124.20 input  175.53 | X-H torsion
[ 8008 7997 7996 7995 ] final    2.13 input   59.86 | X-H torsion
[ 10167 10162 10161 10158 ] final   53.02 input  -65.29 | X-H torsion
[ 10718 10713 10712 10709 ] final  -50.36 input   66.30 | X-H torsion
[ 10763 10752 10751 10750 ] final  138.75 input  -60.55 | X-H torsion
[ 11005 11000 10999 10996 ] final  -71.90 input  -57.11 | X-H torsion

> <Gold.Protein.ActiveResidues>
 VAL166  LYS551  ARG553  GLY616  TRP617  ASP618  TYR619  PRO620  LYS621  CYS622 
 ASP623  PHE694  ASN695  SER759  ASP760  ASP761  ALA762  ILE779  LEU786  VAL792 
 PHE793  MET794  SER795  GLU796  ALA797  LYS798  CYS799  TRP800  GLU811  SER814 

> <Gold.Protein.RotatedAtoms>
  151.6568  135.0994  160.0171 H   0  0  0  0  0  0  0  0  0  0  0  0  # atno 6907 bound_to 6896
  152.3969  133.6756  159.6292 H   0  0  0  0  0  0  0  0  0  0  0  0  # atno 6908 bound_to 6896
  150.7875  133.8775  159.3317 H   0  0  0  0  0  0  0  0  0  0  0  0  # atno 6909 bound_to 6896
  145.0872  139.3613  143.4879 H   0  0  0  0  0  0  0  0  0  0  0  0  # atno 7974 bound_to 7965
  154.6879  140.2647  155.6842 H   0  0  0  0  0  0  0  0  0  0  0  0  # atno 8008 bound_to 7997
  156.2721  140.2797  156.1370 H   0  0  0  0  0  0  0  0  0  0  0  0  # atno 8009 bound_to 7997
  155.0938  140.0373  157.2666 H   0  0  0  0  0  0  0  0  0  0  0  0  # atno 8010 bound_to 7997
  140.2452  144.3539  150.6366 H   0  0  0  0  0  0  0  0  0  0  0  0  # atno 10167 bound_to 10162
  156.1807  130.4150  149.9511 H   0  0  0  0  0  0  0  0  0  0  0  0  # atno 10718 bound_to 10713
  153.8948  135.3029  155.3448 H   0  0  0  0  0  0  0  0  0  0  0  0  # atno 10763 bound_to 10752
  154.7699  135.4891  153.9631 H   0  0  0  0  0  0  0  0  0  0  0  0  # atno 10764 bound_to 10752
  153.1277  135.6797  153.9328 H   0  0  0  0  0  0  0  0  0  0  0  0  # atno 10765 bound_to 10752
  141.1600  133.6831  156.6976 H   0  0  0  0  0  0  0  0  0  0  0  0  # atno 11005 bound_to 11000
  146.3531  140.0689  142.8624 LP  0  0  0  0  0  0  0  0  0  0  0  0  # atno 17320 bound_to 7965
  145.1109  140.9404  143.4657 LP  0  0  0  0  0  0  0  0  0  0  0  0  # atno 17321 bound_to 7965
  140.6083  143.2168  151.6937 LP  0  0  0  0  0  0  0  0  0  0  0  0  # atno 17342 bound_to 10162
  139.5064  144.3683  152.0495 LP  0  0  0  0  0  0  0  0  0  0  0  0  # atno 17343 bound_to 10162
  156.7282  130.9033  151.3623 LP  0  0  0  0  0  0  0  0  0  0  0  0  # atno 17370 bound_to 10713
  157.6866  130.9192  150.0403 LP  0  0  0  0  0  0  0  0  0  0  0  0  # atno 17371 bound_to 10713
  140.2983  134.8185  157.4076 LP  0  0  0  0  0  0  0  0  0  0  0  0  # atno 17394 bound_to 11000
  140.1285  134.5126  155.8125 LP  0  0  0  0  0  0  0  0  0  0  0  0  # atno 17395 bound_to 11000

$$$$
