AV-unprocessed.smi:1047|AV-procd|sdf|4578|dock9
  -GOLD-   22720 3 43D 1   1.00000     0.00000
 Structure written by MMmdl.
 56 58  0  0  0  0  0  0  0  0  2 V2000
  146.3804  129.3867  151.6314 C   0  0  0  0  0  0  0  0  0  0  0  0
  146.2024  130.7826  152.2444 C   0  0  0  0  0  0  0  0  0  0  0  0
  146.5287  131.8689  151.2829 N   0  3  1  0  0  0  0  0  0  0  0  0
  145.6052  131.9718  150.1244 C   0  0  0  0  0  0  0  0  0  0  0  0
  144.2879  132.6697  150.5132 C   0  0  0  0  0  0  0  0  0  0  0  0
  144.5704  133.9363  151.0954 O   0  0  0  0  0  0  0  0  0  0  0  0
  145.3441  133.8299  152.2867 C   0  0  2  0  0  0  0  0  0  0  0  0
  145.5151  135.2396  152.8709 C   0  0  0  0  0  0  0  0  0  0  0  0
  145.9533  136.1830  151.8477 N   0  0  0  0  0  0  0  0  0  0  0  0
  145.5889  137.5653  152.1440 C   0  0  0  0  0  0  0  0  0  0  0  0
  146.8405  138.4398  152.3529 C   0  0  1  0  0  0  0  0  0  0  0  0
  147.7530  138.1645  151.3103 O   0  0  0  0  0  0  0  0  0  0  0  0
  146.5490  139.9529  152.3183 C   0  0  0  0  0  0  0  0  0  0  0  0
  147.0812  140.6514  153.4744 N   0  0  0  0  0  0  0  0  0  0  0  0
  146.5521  141.7323  154.0792 C   0  0  0  0  0  0  0  0  0  0  0  0
  147.2051  142.2245  155.1277 N   0  0  0  0  0  0  0  0  0  0  0  0
  148.2807  141.3577  155.2183 C   0  0  0  0  0  0  0  0  0  0  0  0
  149.3606  141.3296  156.1278 C   0  0  0  0  0  0  0  0  0  0  0  0
  150.3637  140.3389  156.0315 C   0  0  0  0  0  0  0  0  0  0  0  0
  151.5080  140.3464  157.0300 C   0  0  0  0  0  0  0  0  0  0  0  0
  150.2951  139.3554  155.0122 C   0  0  0  0  0  0  0  0  0  0  0  0
  151.3615  138.2813  154.8889 C   0  0  0  0  0  0  0  0  0  0  0  0
  149.2237  139.3696  154.0947 C   0  0  0  0  0  0  0  0  0  0  0  0
  148.2316  140.3604  154.2007 C   0  0  0  0  0  0  0  0  0  0  0  0
  146.7037  133.1955  151.9239 C   0  0  0  0  0  0  0  0  0  0  0  0
  146.2356  128.6157  152.3885 H   0  0  0  0  0  0  0  0  0  0  0  0
  147.3828  129.2608  151.2211 H   0  0  0  0  0  0  0  0  0  0  0  0
  145.6627  129.1942  150.8344 H   0  0  0  0  0  0  0  0  0  0  0  0
  145.1927  130.8992  152.6376 H   0  0  0  0  0  0  0  0  0  0  0  0
  146.8736  130.8538  153.1012 H   0  0  0  0  0  0  0  0  0  0  0  0
  146.1012  132.5565  149.3487 H   0  0  0  0  0  0  0  0  0  0  0  0
  145.4084  130.9943  149.6858 H   0  0  0  0  0  0  0  0  0  0  0  0
  143.6723  132.8224  149.6267 H   0  0  0  0  0  0  0  0  0  0  0  0
  143.6999  132.0614  151.2013 H   0  0  0  0  0  0  0  0  0  0  0  0
  144.8265  133.2014  153.0139 H   0  0  0  0  0  0  0  0  0  0  0  0
  144.5637  135.5773  153.2840 H   0  0  0  0  0  0  0  0  0  0  0  0
  146.2236  135.2149  153.7000 H   0  0  0  0  0  0  0  0  0  0  0  0
  146.9596  136.1147  151.7294 H   0  0  0  0  0  0  0  0  0  0  0  0
  144.9603  137.9805  151.3549 H   0  0  0  0  0  0  0  0  0  0  0  0
  144.9837  137.5721  153.0504 H   0  0  0  0  0  0  0  0  0  0  0  0
  147.3153  138.1943  153.3041 H   0  0  0  0  0  0  0  0  0  0  0  0
  148.0362  137.2664  151.3917 H   0  0  0  0  0  0  0  0  0  0  0  0
  146.9850  140.4007  151.4239 H   0  0  0  0  0  0  0  0  0  0  0  0
  145.4747  140.1334  152.2631 H   0  0  0  0  0  0  0  0  0  0  0  0
  145.6372  142.1856  153.7261 H   0  0  0  0  0  0  0  0  0  0  0  0
  149.4125  142.0796  156.9032 H   0  0  0  0  0  0  0  0  0  0  0  0
  151.5316  139.4125  157.5918 H   0  0  0  0  0  0  0  0  0  0  0  0
  151.4080  141.1637  157.7448 H   0  0  0  0  0  0  0  0  0  0  0  0
  152.4620  140.4668  156.5163 H   0  0  0  0  0  0  0  0  0  0  0  0
  151.1537  137.6083  154.0566 H   0  0  0  0  0  0  0  0  0  0  0  0
  151.4087  137.6831  155.7990 H   0  0  0  0  0  0  0  0  0  0  0  0
  152.3395  138.7318  154.7184 H   0  0  0  0  0  0  0  0  0  0  0  0
  149.1616  138.6275  153.3127 H   0  0  0  0  0  0  0  0  0  0  0  0
  147.3419  133.1110  152.8042 H   0  0  0  0  0  0  0  0  0  0  0  0
  147.2335  133.8451  151.2255 H   0  0  0  0  0  0  0  0  0  0  0  0
  147.4345  131.6235  150.9088 H   0  0  0  0  0  0  0  0  0  0  0  0
  1  2  1  0  0  0  0
  1 26  1  0  0  0  0
  1 27  1  0  0  0  0
  1 28  1  0  0  0  0
  2  3  1  0  0  0  0
  2 29  1  0  0  0  0
  2 30  1  0  0  0  0
  3 25  1  0  0  0  0
  3  4  1  0  0  0  0
  3 56  1  0  0  0  0
  4  5  1  0  0  0  0
  4 31  1  0  0  0  0
  4 32  1  0  0  0  0
  5  6  1  0  0  0  0
  5 33  1  0  0  0  0
  5 34  1  0  0  0  0
  6  7  1  0  0  0  0
  7  8  1  0  0  0  0
  7 25  1  0  0  0  0
  7 35  1  0  0  0  0
  8  9  1  0  0  0  0
  8 36  1  0  0  0  0
  8 37  1  0  0  0  0
  9 10  1  0  0  0  0
  9 38  1  0  0  0  0
 10 11  1  0  0  0  0
 10 39  1  0  0  0  0
 10 40  1  0  0  0  0
 11 12  1  0  0  0  0
 11 13  1  0  0  0  0
 11 41  1  0  0  0  0
 12 42  1  0  0  0  0
 13 14  1  0  0  0  0
 13 43  1  0  0  0  0
 13 44  1  0  0  0  0
 14 24  1  0  0  0  0
 14 15  1  0  0  0  0
 15 16  2  0  0  0  0
 15 45  1  0  0  0  0
 16 17  1  0  0  0  0
 17 24  2  0  0  0  0
 17 18  1  0  0  0  0
 18 19  2  0  0  0  0
 18 46  1  0  0  0  0
 19 20  1  0  0  0  0
 19 21  1  0  0  0  0
 20 47  1  0  0  0  0
 20 48  1  0  0  0  0
 20 49  1  0  0  0  0
 21 22  1  0  0  0  0
 21 23  2  0  0  0  0
 22 50  1  0  0  0  0
 22 51  1  0  0  0  0
 22 52  1  0  0  0  0
 23 24  1  0  0  0  0
 23 53  1  0  0  0  0
 25 54  1  0  0  0  0
 25 55  1  0  0  0  0
M  CHG  1   3   1
M  END
> <s_m_source_file>
AV-unprocessed.smi

> <i_m_source_file_index>
1047

> <i_lp_mmshare_version>
43012

> <i_f3d_flags>
0

> <s_epik_input>
W0NIM11bQ0gyXU4xW0NIMl1bQ0gyXU9bQ0BIXShbQ0gyXTEpW0NIMl1bTkhdW0NIMl1bQ0BIXShbT0hdKVtDSDJdbihbY0hdbjIpYyhjMjMpW2NIXWMoW0NIM10pYyhbY0hdMylbQ0gzXQ==

> <s_epik_cmdline>
J2VwaWtfcHl0aG9uJywgJy1waCcsICc3LjAnLCAnLXRuJywgJzgnLCAnLW1hJywgJzIwMCcsICctbWV0YWxfYmluZGluZycsICctaW1hZScsICc8aW5maWxlLm1hZT4nLCAnLW9tYWUnLCAnPG91dGZpbGUubWFlPic=

> <r_epik_Ionization_Penalty>
1.19246

> <r_epik_Ionization_Penalty_Charging>
0.210041

> <r_epik_Ionization_Penalty_Neutral>
0.982415

> <r_epik_State_Penalty>
1.57595

> <r_epik_Charging_Adjusted_Penalty>
1.78599

> <i_epik_Tot_Q>
1

> <i_epik_Tot_abs_Q>
1

> <r_epik_Metal_State_Penalty>
1.46172

> <b_epik_Metal_Only>
0

> <s_lp_Force_Field>
OPLS_2005

> <r_lp_Energy>
33.2573

> <b_lp_Chiralities_Consistent>
1

> <s_lp_Variant>
AV-unprocessed.smi:1047-19

> <Gold.Version>
5.8.1

> <Gold.Id.Protein>
6NUR|6NUR_protein|mol2

> <Gold.PLP.Fitness>
52.9744

> <Gold.PLP.PLP>
-47.3193

> <Gold.PLP.part.hbond>
-4.2732

> <Gold.PLP.part.metal>
0.0000

> <Gold.PLP.part.buried>
2.5956

> <Gold.PLP.part.nonpolar>
-46.4935

> <Gold.PLP.part.repulsive>
1.4632

> <Gold.PLP.ligand.clash>
0.0000

> <Gold.PLP.ligand.torsion>
1.8122

> <Gold.PLP.Chemscore.Hbond>
3.0000

> <Gold.PLP.Chemscore.CHOScore>
0.0210

> <Gold.PLP.Chemscore.Metal>
0.0000

> <Gold.Chemscore.Hbonds>
donor molecule, donor type, donor heavy atom, donor atom, acceptor molecule, acceptor atom, score
      L1  H     3    56       P1 10747  1.00
      L1  H     9    38       P1  7948  1.00
      L1  H    12    42       P1  7948  0.71
      L1  C    15    45       P1 10175  0.06

> <Gold.PLP.Chemscore.Internal.Correction>
0.2164

> <Gold.Rescore>
     Score         DG    S(hbond)    S(metal)    S(lipo)     H(rot)  DE(clash)    DE(int)     intcor
     19.26     -22.59       2.75        0.00     125.10       2.62       1.62       1.71       ----

> <Gold.Chemscore.Fitness>
19.2615

> <Gold.Chemscore.DG>
-22.5948

> <Gold.Chemscore.ZeroCoef>
-5.4800

> <Gold.Chemscore.Hbond>
2.7507

> <Gold.Chemscore.Metal>
0.0000

> <Gold.Chemscore.Lipo>
125.1044

> <Gold.Chemscore.Internal_Hbond>
0.0000

> <Gold.Chemscore.DEClash>
1.6231

> <Gold.Chemscore.DEInternal>
1.7102

> <Gold.Chemscore.Rot>
2.6209

> <Gold.Chemscore.Internal.Correction>
   9.000000E+99

> <Gold.Chemscore.Hbonds>
donor molecule, donor type, donor heavy atom, donor atom, acceptor molecule, acceptor atom, score
      L1  H     3    56       P1 10747  1.00
      L1  H     9    38       P1  7948  0.98
      L1  H    12    42       P1  7948  0.69

> <Gold.Chemscore.Hbond.Weighted>
-9.1872

> <Gold.Chemscore.Metal.Weighted>
-0.0000

> <Gold.Chemscore.Lipo.Weighted>
-14.6372

> <Gold.Chemscore.Internal_Hbond.Weighted>
0.0000

> <Gold.Chemscore.DEClash.Weighted>
1.6231

> <Gold.Chemscore.DEInternal.Weighted>
1.7102

> <Gold.Chemscore.Rot.Weighted>
6.7096

> <Gold.Chemscore.Internal.Correction.Weighted>
   9.000000E+99

> <Gold.Protein.RotatedTorsions>
[ 6907 6896 6895 6894 ] final -177.18 input  -60.11 | X-H torsion
[ 7974 7965 7964 7962 ] final  112.36 input  175.53 | X-H torsion
[ 8008 7997 7996 7995 ] final  -18.69 input   59.86 | X-H torsion
[ 10167 10162 10161 10158 ] final -149.82 input  -65.29 | X-H torsion
[ 10718 10713 10712 10709 ] final  133.40 input   66.30 | X-H torsion
[ 10763 10752 10751 10750 ] final  127.82 input  -60.55 | X-H torsion
[ 11005 11000 10999 10996 ] final -156.25 input  -57.11 | X-H torsion

> <Gold.Protein.ActiveResidues>
 VAL166  LYS551  ARG553  GLY616  TRP617  ASP618  TYR619  PRO620  LYS621  CYS622 
 ASP623  PHE694  ASN695  SER759  ASP760  ASP761  ALA762  ILE779  LEU786  VAL792 
 PHE793  MET794  SER795  GLU796  ALA797  LYS798  CYS799  TRP800  GLU811  SER814 

> <Gold.Protein.RotatedAtoms>
  151.6168  133.3342  159.3078 H   0  0  0  0  0  0  0  0  0  0  0  0  # atno 6907 bound_to 6896
  150.8127  134.7295  159.6714 H   0  0  0  0  0  0  0  0  0  0  0  0  # atno 6908 bound_to 6896
  152.4224  134.5936  160.0032 H   0  0  0  0  0  0  0  0  0  0  0  0  # atno 6909 bound_to 6896
  145.2305  139.2822  143.4170 H   0  0  0  0  0  0  0  0  0  0  0  0  # atno 7974 bound_to 7965
  154.4888  140.2109  155.9594 H   0  0  0  0  0  0  0  0  0  0  0  0  # atno 8008 bound_to 7997
  156.1275  140.3202  155.8268 H   0  0  0  0  0  0  0  0  0  0  0  0  # atno 8009 bound_to 7997
  155.4356  140.0506  157.3005 H   0  0  0  0  0  0  0  0  0  0  0  0  # atno 8010 bound_to 7997
  139.7409  143.8664  152.2562 H   0  0  0  0  0  0  0  0  0  0  0  0  # atno 10167 bound_to 10162
  157.4777  131.1084  150.9722 H   0  0  0  0  0  0  0  0  0  0  0  0  # atno 10718 bound_to 10713
  153.7156  135.3261  155.3255 H   0  0  0  0  0  0  0  0  0  0  0  0  # atno 10763 bound_to 10752
  154.8372  135.4487  154.1270 H   0  0  0  0  0  0  0  0  0  0  0  0  # atno 10764 bound_to 10752
  153.2375  135.6967  153.7899 H   0  0  0  0  0  0  0  0  0  0  0  0  # atno 10765 bound_to 10752
  140.6776  134.4179  157.5228 H   0  0  0  0  0  0  0  0  0  0  0  0  # atno 11005 bound_to 11000
  146.3354  140.2638  142.8603 LP  0  0  0  0  0  0  0  0  0  0  0  0  # atno 17320 bound_to 7965
  144.9681  140.8342  143.5472 LP  0  0  0  0  0  0  0  0  0  0  0  0  # atno 17321 bound_to 7965
  139.8614  144.7115  150.9095 LP  0  0  0  0  0  0  0  0  0  0  0  0  # atno 17342 bound_to 10162
  140.7785  143.3814  151.1469 LP  0  0  0  0  0  0  0  0  0  0  0  0  # atno 17343 bound_to 10162
  157.0466  130.5770  149.5364 LP  0  0  0  0  0  0  0  0  0  0  0  0  # atno 17370 bound_to 10713
  156.0105  130.5196  150.7973 LP  0  0  0  0  0  0  0  0  0  0  0  0  # atno 17371 bound_to 10713
  139.8962  134.8666  156.2100 LP  0  0  0  0  0  0  0  0  0  0  0  0  # atno 17394 bound_to 11000
  141.0343  133.6972  156.1484 LP  0  0  0  0  0  0  0  0  0  0  0  0  # atno 17395 bound_to 11000

$$$$
