AV-unprocessed.smi:658|AV-procd|sdf|3231|dock5
  -GOLD-   22720 0173D 1   1.00000     0.00000
 Structure written by MMmdl.
 38 38  0  0  0  0  0  0  0  0  2 V2000
  151.0815  142.0498  157.0517 C   0  0  0  0  0  0  0  0  0  0  0  0
  151.7816  141.2767  158.1843 C   0  0  1  0  0  0  0  0  0  0  0  0
  152.5118  140.1310  157.5954 N   0  3  0  0  0  0  0  0  0  0  0  0
  151.6687  139.1686  156.8565 C   0  0  0  0  0  0  0  0  0  0  0  0
  152.3604  138.7086  155.5679 C   0  0  0  0  0  0  0  0  0  0  0  0
  151.3735  138.1297  154.5460 C   0  0  0  0  0  0  0  0  0  0  0  0
  149.7138  138.9039  154.7343 S   0  0  0  0  0  0  0  0  0  0  0  0
  148.8261  138.2186  153.4305 N   0  0  0  0  0  0  0  0  0  0  0  0
  149.1140  138.4223  155.9877 O   0  0  0  0  0  0  0  0  0  0  0  0
  149.8419  140.3465  154.4801 O   0  0  0  0  0  0  0  0  0  0  0  0
  152.7414  142.1632  159.0226 C   0  0  2  0  0  0  0  0  0  0  0  0
  153.3117  141.4412  160.2575 C   0  0  0  0  0  0  0  0  0  0  0  0
  152.1049  143.4093  159.4318 N   0  0  0  0  0  0  0  0  0  0  0  0
  152.4101  144.7012  159.0512 C   0  0  0  0  0  0  0  0  0  0  0  0
  151.5487  145.5342  159.7052 C   0  0  0  0  0  0  0  0  0  0  0  0
  150.7450  144.6502  160.4775 C   0  0  0  0  0  0  0  0  0  0  0  0
  151.0818  143.3811  160.3137 N   0  0  0  0  0  0  0  0  0  0  0  0
  150.4379  142.8414  157.4365 H   0  0  0  0  0  0  0  0  0  0  0  0
  150.4498  141.3877  156.4586 H   0  0  0  0  0  0  0  0  0  0  0  0
  151.8062  142.5085  156.3782 H   0  0  0  0  0  0  0  0  0  0  0  0
  150.9962  140.8989  158.8413 H   0  0  0  0  0  0  0  0  0  0  0  0
  153.1995  140.4956  156.9517 H   0  0  0  0  0  0  0  0  0  0  0  0
  151.4539  138.3070  157.4894 H   0  0  0  0  0  0  0  0  0  0  0  0
  150.7141  139.6400  156.6198 H   0  0  0  0  0  0  0  0  0  0  0  0
  152.8934  139.5482  155.1197 H   0  0  0  0  0  0  0  0  0  0  0  0
  153.1133  137.9566  155.8075 H   0  0  0  0  0  0  0  0  0  0  0  0
  151.7176  138.3088  153.5271 H   0  0  0  0  0  0  0  0  0  0  0  0
  151.2637  137.0530  154.6783 H   0  0  0  0  0  0  0  0  0  0  0  0
  149.0090  138.6755  152.5373 H   0  0  0  0  0  0  0  0  0  0  0  0
  147.8380  138.0854  153.6445 H   0  0  0  0  0  0  0  0  0  0  0  0
  153.5885  142.4280  158.3865 H   0  0  0  0  0  0  0  0  0  0  0  0
  153.9269  140.5876  159.9733 H   0  0  0  0  0  0  0  0  0  0  0  0
  152.5187  141.0776  160.9116 H   0  0  0  0  0  0  0  0  0  0  0  0
  153.9443  142.1094  160.8430 H   0  0  0  0  0  0  0  0  0  0  0  0
  153.2056  144.9189  158.3538 H   0  0  0  0  0  0  0  0  0  0  0  0
  151.5005  146.6113  159.6426 H   0  0  0  0  0  0  0  0  0  0  0  0
  149.9336  144.8915  161.1481 H   0  0  0  0  0  0  0  0  0  0  0  0
  152.9960  139.6447  158.3365 H   0  0  0  0  0  0  0  0  0  0  0  0
  1  2  1  0  0  0  0
  1 18  1  0  0  0  0
  1 19  1  0  0  0  0
  1 20  1  0  0  0  0
  2  3  1  0  0  0  0
  2 11  1  0  0  0  0
  2 21  1  0  0  0  0
  3  4  1  0  0  0  0
  3 22  1  0  0  0  0
  3 38  1  0  0  0  0
  4  5  1  0  0  0  0
  4 23  1  0  0  0  0
  4 24  1  0  0  0  0
  5  6  1  0  0  0  0
  5 25  1  0  0  0  0
  5 26  1  0  0  0  0
  6  7  1  0  0  0  0
  6 27  1  0  0  0  0
  6 28  1  0  0  0  0
  7  8  1  0  0  0  0
  7  9  2  0  0  0  0
  7 10  2  0  0  0  0
  8 29  1  0  0  0  0
  8 30  1  0  0  0  0
 11 12  1  0  0  0  0
 11 13  1  0  0  0  0
 11 31  1  0  0  0  0
 12 32  1  0  0  0  0
 12 33  1  0  0  0  0
 12 34  1  0  0  0  0
 13 17  1  0  0  0  0
 13 14  1  0  0  0  0
 14 15  2  0  0  0  0
 14 35  1  0  0  0  0
 15 16  1  0  0  0  0
 15 36  1  0  0  0  0
 16 17  2  0  0  0  0
 16 37  1  0  0  0  0
M  CHG  1   3   1
M  END
> <s_m_source_file>
AV-unprocessed.smi

> <i_m_source_file_index>
658

> <i_lp_mmshare_version>
43012

> <i_f3d_flags>
0

> <s_epik_input>
bjFbY0hdW2NIXVtjSF1uMVtDQEBIXShbQ0gzXSlbQ0BIXShbQ0gzXSlbTkhdW0NIMl1bQ0gyXVtDSDJdUyg9TykoPU8pW05IMl0=

> <s_epik_cmdline>
J2VwaWtfcHl0aG9uJywgJy1waCcsICc3LjAnLCAnLXRuJywgJzgnLCAnLW1hJywgJzIwMCcsICctbWV0YWxfYmluZGluZycsICctaW1hZScsICc8aW5maWxlLm1hZT4nLCAnLW9tYWUnLCAnPG91dGZpbGUubWFlPic=

> <r_lp_tautomer_probability>
1

> <r_epik_Ionization_Penalty>
0.00535781

> <r_epik_Ionization_Penalty_Charging>
0.00511015

> <r_epik_Ionization_Penalty_Neutral>
0.000247661

> <r_epik_State_Penalty>
-0

> <r_epik_Charging_Adjusted_Penalty>
0.00511015

> <i_epik_Tot_Q>
1

> <i_epik_Tot_abs_Q>
1

> <r_epik_Metal_State_Penalty>
0.149106

> <b_epik_Metal_Only>
0

> <s_lp_Force_Field>
OPLS_2005

> <r_lp_Energy>
8.89673

> <b_lp_Chiralities_Consistent>
1

> <s_lp_Variant>
AV-unprocessed.smi:658-2

> <Gold.Version>
5.8.1

> <Gold.Id.Protein>
6NUR|6NUR_protein|mol2

> <Gold.PLP.Fitness>
45.8627

> <Gold.PLP.PLP>
-41.7474

> <Gold.PLP.part.hbond>
-3.8282

> <Gold.PLP.part.metal>
0.0000

> <Gold.PLP.part.buried>
-6.2220

> <Gold.PLP.part.nonpolar>
-32.7297

> <Gold.PLP.part.repulsive>
1.1909

> <Gold.PLP.ligand.clash>
0.0000

> <Gold.PLP.ligand.torsion>
0.7721

> <Gold.PLP.Chemscore.Hbond>
1.7840

> <Gold.PLP.Chemscore.CHOScore>
0.0000

> <Gold.PLP.Chemscore.Metal>
0.0000

> <Gold.Chemscore.Hbonds>
donor molecule, donor type, donor heavy atom, donor atom, acceptor molecule, acceptor atom, score
      L1  H     8    29       P1  7957  1.00
      P1  H  7989  7998       L1    10  0.74

> <Gold.PLP.Chemscore.Internal.Correction>
0.3076

> <Gold.Rescore>
     Score         DG    S(hbond)    S(metal)    S(lipo)     H(rot)  DE(clash)    DE(int)     intcor
     11.88     -14.11       1.75        0.00      92.30       3.13       0.16       2.06       ----

> <Gold.Chemscore.Fitness>
11.8838

> <Gold.Chemscore.DG>
-14.1062

> <Gold.Chemscore.ZeroCoef>
-5.4800

> <Gold.Chemscore.Hbond>
1.7493

> <Gold.Chemscore.Metal>
0.0000

> <Gold.Chemscore.Lipo>
92.3037

> <Gold.Chemscore.Internal_Hbond>
0.0000

> <Gold.Chemscore.DEClash>
0.1616

> <Gold.Chemscore.DEInternal>
2.0608

> <Gold.Chemscore.Rot>
3.1312

> <Gold.Chemscore.Internal.Correction>
   9.000000E+99

> <Gold.Chemscore.Hbonds>
donor molecule, donor type, donor heavy atom, donor atom, acceptor molecule, acceptor atom, score
      L1  H     8    29       P1  7957  0.86
      P1  H  7989  7998       L1    10  0.63

> <Gold.Chemscore.Hbond.Weighted>
-5.8426

> <Gold.Chemscore.Metal.Weighted>
-0.0000

> <Gold.Chemscore.Lipo.Weighted>
-10.7995

> <Gold.Chemscore.Internal_Hbond.Weighted>
0.0000

> <Gold.Chemscore.DEClash.Weighted>
0.1616

> <Gold.Chemscore.DEInternal.Weighted>
2.0608

> <Gold.Chemscore.Rot.Weighted>
8.0160

> <Gold.Chemscore.Internal.Correction.Weighted>
   9.000000E+99

> <Gold.Protein.RotatedTorsions>
[ 6907 6896 6895 6894 ] final  -86.52 input  -60.11 | X-H torsion
[ 7974 7965 7964 7962 ] final   19.80 input  175.53 | X-H torsion
[ 8008 7997 7996 7995 ] final -145.95 input   59.86 | X-H torsion
[ 10167 10162 10161 10158 ] final  -59.23 input  -65.29 | X-H torsion
[ 10718 10713 10712 10709 ] final   -6.82 input   66.30 | X-H torsion
[ 10763 10752 10751 10750 ] final -124.09 input  -60.55 | X-H torsion
[ 11005 11000 10999 10996 ] final -102.14 input  -57.11 | X-H torsion

> <Gold.Protein.ActiveResidues>
 VAL166  LYS551  ARG553  GLY616  TRP617  ASP618  TYR619  PRO620  LYS621  CYS622 
 ASP623  PHE694  ASN695  SER759  ASP760  ASP761  ALA762  ILE779  LEU786  VAL792 
 PHE793  MET794  SER795  GLU796  ALA797  LYS798  CYS799  TRP800  GLU811  SER814 

> <Gold.Protein.RotatedAtoms>
  150.6867  134.3038  159.4717 H   0  0  0  0  0  0  0  0  0  0  0  0  # atno 6907 bound_to 6896
  152.0931  134.9390  160.0580 H   0  0  0  0  0  0  0  0  0  0  0  0  # atno 6908 bound_to 6896
  152.0699  133.4067  159.4491 H   0  0  0  0  0  0  0  0  0  0  0  0  # atno 6909 bound_to 6896
  146.2136  139.8261  142.8669 H   0  0  0  0  0  0  0  0  0  0  0  0  # atno 7974 bound_to 7965
  155.5515  140.0617  157.2849 H   0  0  0  0  0  0  0  0  0  0  0  0  # atno 8008 bound_to 7997
  154.4419  140.1901  156.0736 H   0  0  0  0  0  0  0  0  0  0  0  0  # atno 8009 bound_to 7997
  156.0513  140.3284  155.7358 H   0  0  0  0  0  0  0  0  0  0  0  0  # atno 8010 bound_to 7997
  140.6148  143.2399  151.5624 H   0  0  0  0  0  0  0  0  0  0  0  0  # atno 10167 bound_to 10162
  156.7263  130.5166  149.5856 H   0  0  0  0  0  0  0  0  0  0  0  0  # atno 10718 bound_to 10713
  154.8718  135.4075  154.3049 H   0  0  0  0  0  0  0  0  0  0  0  0  # atno 10763 bound_to 10752
  153.3903  135.7014  153.6505 H   0  0  0  0  0  0  0  0  0  0  0  0  # atno 10764 bound_to 10752
  153.5291  135.3671  155.2639 H   0  0  0  0  0  0  0  0  0  0  0  0  # atno 10765 bound_to 10752
  141.1201  133.8534  157.1322 H   0  0  0  0  0  0  0  0  0  0  0  0  # atno 11005 bound_to 11000
  145.3045  141.0203  143.3590 LP  0  0  0  0  0  0  0  0  0  0  0  0  # atno 17320 bound_to 7965
  144.8981  139.4685  143.6645 LP  0  0  0  0  0  0  0  0  0  0  0  0  # atno 17321 bound_to 7965
  139.5390  144.2701  152.1311 LP  0  0  0  0  0  0  0  0  0  0  0  0  # atno 17342 bound_to 10162
  140.1908  144.4753  150.6480 LP  0  0  0  0  0  0  0  0  0  0  0  0  # atno 17343 bound_to 10162
  156.1560  130.6342  151.0657 LP  0  0  0  0  0  0  0  0  0  0  0  0  # atno 17370 bound_to 10713
  157.6877  131.0819  150.7195 LP  0  0  0  0  0  0  0  0  0  0  0  0  # atno 17371 bound_to 10713
  140.0153  134.9970  157.0479 LP  0  0  0  0  0  0  0  0  0  0  0  0  # atno 17394 bound_to 11000
  140.4531  134.1562  155.7183 LP  0  0  0  0  0  0  0  0  0  0  0  0  # atno 17395 bound_to 11000

$$$$
