AV-unprocessed.smi:2007|AV-procd|sdf|8136|dock3
  -GOLD-   2272010373D 1   1.00000     0.00000
 Structure written by MMmdl.
 37 38  0  0  0  0  0  0  0  0  2 V2000
  146.1445  138.2775  155.0105 C   0  0  0  0  0  0  0  0  0  0  0  0
  146.1619  138.6052  153.5113 C   0  0  1  0  0  0  0  0  0  0  0  0
  147.1055  139.7935  153.2111 C   0  0  0  0  0  0  0  0  0  0  0  0
  148.2497  139.8849  154.1532 N   0  3  0  0  0  0  0  0  0  0  0  0
  149.3521  138.9436  153.8394 C   0  0  0  0  0  0  0  0  0  0  0  0
  150.4559  139.0455  154.9052 C   0  0  0  0  0  0  0  0  0  0  0  0
  150.9271  140.3861  154.9747 O   0  0  0  0  0  0  0  0  0  0  0  0
  149.8982  141.2943  155.3491 C   0  0  0  0  0  0  0  0  0  0  0  0
  148.7727  141.2629  154.3009 C   0  0  0  0  0  0  0  0  0  0  0  0
  146.5533  137.4057  152.7690 N   0  0  0  0  0  0  0  0  0  0  0  0
  145.7590  136.3651  152.4750 C   0  0  0  0  0  0  0  0  0  0  0  0
  144.5654  136.3181  152.7735 O   0  0  0  0  0  0  0  0  0  0  0  0
  146.4331  135.4070  151.8157 N   0  0  0  0  0  0  0  0  0  0  0  0
  145.9347  134.1810  151.3019 C   0  0  0  0  0  0  0  0  0  0  0  0
  146.7022  133.1415  150.9536 N   0  0  0  0  0  0  0  0  0  0  0  0
  145.9449  132.0653  150.4834 C   0  0  0  0  0  0  0  0  0  0  0  0
  144.5930  132.3032  150.4844 C   0  0  0  0  0  0  0  0  0  0  0  0
  144.2145  133.8973  151.0801 S   0  0  0  0  0  0  0  0  0  0  0  0
  145.8166  139.1372  155.5957 H   0  0  0  0  0  0  0  0  0  0  0  0
  147.1342  137.9907  155.3680 H   0  0  0  0  0  0  0  0  0  0  0  0
  145.4612  137.4552  155.2257 H   0  0  0  0  0  0  0  0  0  0  0  0
  145.1414  138.8758  153.2369 H   0  0  0  0  0  0  0  0  0  0  0  0
  147.4809  139.7400  152.1881 H   0  0  0  0  0  0  0  0  0  0  0  0
  146.5200  140.7124  153.2697 H   0  0  0  0  0  0  0  0  0  0  0  0
  148.9804  137.9202  153.8012 H   0  0  0  0  0  0  0  0  0  0  0  0
  149.7626  139.1715  152.8545 H   0  0  0  0  0  0  0  0  0  0  0  0
  150.0866  138.7243  155.8807 H   0  0  0  0  0  0  0  0  0  0  0  0
  151.2885  138.3908  154.6480 H   0  0  0  0  0  0  0  0  0  0  0  0
  149.5154  141.0400  156.3388 H   0  0  0  0  0  0  0  0  0  0  0  0
  150.3195  142.2973  155.4186 H   0  0  0  0  0  0  0  0  0  0  0  0
  149.1428  141.6204  153.3387 H   0  0  0  0  0  0  0  0  0  0  0  0
  147.9701  141.9345  154.6078 H   0  0  0  0  0  0  0  0  0  0  0  0
  147.5200  137.3530  152.4813 H   0  0  0  0  0  0  0  0  0  0  0  0
  147.4164  135.5728  151.6599 H   0  0  0  0  0  0  0  0  0  0  0  0
  146.4513  131.1648  150.1685 H   0  0  0  0  0  0  0  0  0  0  0  0
  143.8001  131.6395  150.1722 H   0  0  0  0  0  0  0  0  0  0  0  0
  147.8912  139.6213  155.0604 H   0  0  0  0  0  0  0  0  0  0  0  0
  1  2  1  0  0  0  0
  1 19  1  0  0  0  0
  1 20  1  0  0  0  0
  1 21  1  0  0  0  0
  2  3  1  0  0  0  0
  2 10  1  0  0  0  0
  2 22  1  0  0  0  0
  3  4  1  0  0  0  0
  3 23  1  0  0  0  0
  3 24  1  0  0  0  0
  4  9  1  0  0  0  0
  4  5  1  0  0  0  0
  4 37  1  0  0  0  0
  5  6  1  0  0  0  0
  5 25  1  0  0  0  0
  5 26  1  0  0  0  0
  6  7  1  0  0  0  0
  6 27  1  0  0  0  0
  6 28  1  0  0  0  0
  7  8  1  0  0  0  0
  8  9  1  0  0  0  0
  8 29  1  0  0  0  0
  8 30  1  0  0  0  0
  9 31  1  0  0  0  0
  9 32  1  0  0  0  0
 10 11  1  0  0  0  0
 10 33  1  0  0  0  0
 11 12  2  0  0  0  0
 11 13  1  0  0  0  0
 13 14  1  0  0  0  0
 13 34  1  0  0  0  0
 14 18  1  0  0  0  0
 14 15  2  0  0  0  0
 15 16  1  0  0  0  0
 16 17  2  0  0  0  0
 16 35  1  0  0  0  0
 17 18  1  0  0  0  0
 17 36  1  0  0  0  0
M  CHG  1   4   1
M  END
> <s_m_source_file>
AV-unprocessed.smi

> <i_m_source_file_index>
2007

> <i_lp_mmshare_version>
43012

> <i_f3d_flags>
0

> <s_epik_input>
W0NIMl0xW0NIMl1PW0NIMl1bQ0gyXU4xW0NIMl1bQ0BASF0oW0NIM10pW05IXUMoPU8pW05IXWMybltjSF1bY0hdczI=

> <s_epik_cmdline>
J2VwaWtfcHl0aG9uJywgJy1waCcsICc3LjAnLCAnLXRuJywgJzgnLCAnLW1hJywgJzIwMCcsICctbWV0YWxfYmluZGluZycsICctaW1hZScsICc8aW5maWxlLm1hZT4nLCAnLW9tYWUnLCAnPG91dGZpbGUubWFlPic=

> <r_lp_tautomer_probability>
0.999

> <r_epik_Ionization_Penalty>
0.695848

> <r_epik_Ionization_Penalty_Charging>
0.695697

> <r_epik_Ionization_Penalty_Neutral>
0.000150585

> <r_epik_State_Penalty>
0.717972

> <r_epik_Charging_Adjusted_Penalty>
1.41367

> <i_epik_Tot_Q>
1

> <i_epik_Tot_abs_Q>
1

> <r_epik_Metal_State_Penalty>
0.763271

> <b_epik_Metal_Only>
0

> <s_lp_Force_Field>
OPLS_2005

> <r_lp_Energy>
20.6539

> <b_lp_Chiralities_Consistent>
1

> <s_lp_Variant>
AV-unprocessed.smi:2007-4

> <Gold.Version>
5.8.1

> <Gold.Id.Protein>
6NUR|6NUR_protein|mol2

> <Gold.PLP.Fitness>
38.3666

> <Gold.PLP.PLP>
-28.8142

> <Gold.PLP.part.hbond>
-3.1205

> <Gold.PLP.part.metal>
0.0000

> <Gold.PLP.part.buried>
-2.5980

> <Gold.PLP.part.nonpolar>
-23.6647

> <Gold.PLP.part.repulsive>
0.5654

> <Gold.PLP.ligand.clash>
0.0000

> <Gold.PLP.ligand.torsion>
0.9781

> <Gold.PLP.Chemscore.Hbond>
2.9440

> <Gold.PLP.Chemscore.CHOScore>
0.8849

> <Gold.PLP.Chemscore.Metal>
0.0000

> <Gold.Chemscore.Hbonds>
donor molecule, donor type, donor heavy atom, donor atom, acceptor molecule, acceptor atom, score
      L1  H    10    33       P1  7948  0.94
      L1  H    13    34       P1  7948  1.00
      P1  H  7989  7998       L1     7  1.00
      L1  C    16    35       P1 10747  0.88

> <Gold.PLP.Chemscore.Internal.Correction>
0.0218

> <Gold.Rescore>
     Score         DG    S(hbond)    S(metal)    S(lipo)     H(rot)  DE(clash)    DE(int)     intcor
     15.84     -18.86       2.76        0.00      71.07       1.63       0.86       2.16       ----

> <Gold.Chemscore.Fitness>
15.8392

> <Gold.Chemscore.DG>
-18.8564

> <Gold.Chemscore.ZeroCoef>
-5.4800

> <Gold.Chemscore.Hbond>
2.7650

> <Gold.Chemscore.Metal>
0.0000

> <Gold.Chemscore.Lipo>
71.0749

> <Gold.Chemscore.Internal_Hbond>
0.0000

> <Gold.Chemscore.DEClash>
0.8621

> <Gold.Chemscore.DEInternal>
2.1552

> <Gold.Chemscore.Rot>
1.6306

> <Gold.Chemscore.Internal.Correction>
   9.000000E+99

> <Gold.Chemscore.Hbonds>
donor molecule, donor type, donor heavy atom, donor atom, acceptor molecule, acceptor atom, score
      L1  H    10    33       P1  7948  0.91
      L1  H    13    34       P1  7948  0.98
      P1  H  7989  7998       L1     7  0.60

> <Gold.Chemscore.Hbond.Weighted>
-9.2350

> <Gold.Chemscore.Metal.Weighted>
-0.0000

> <Gold.Chemscore.Lipo.Weighted>
-8.3158

> <Gold.Chemscore.Internal_Hbond.Weighted>
0.0000

> <Gold.Chemscore.DEClash.Weighted>
0.8621

> <Gold.Chemscore.DEInternal.Weighted>
2.1552

> <Gold.Chemscore.Rot.Weighted>
4.1743

> <Gold.Chemscore.Internal.Correction.Weighted>
   9.000000E+99

> <Gold.Protein.RotatedTorsions>
[ 6907 6896 6895 6894 ] final  153.19 input  -60.11 | X-H torsion
[ 7974 7965 7964 7962 ] final   36.97 input  175.53 | X-H torsion
[ 8008 7997 7996 7995 ] final  -90.35 input   59.86 | X-H torsion
[ 10167 10162 10161 10158 ] final  -83.67 input  -65.29 | X-H torsion
[ 10718 10713 10712 10709 ] final  -62.09 input   66.30 | X-H torsion
[ 10763 10752 10751 10750 ] final   74.09 input  -60.55 | X-H torsion
[ 11005 11000 10999 10996 ] final  130.55 input  -57.11 | X-H torsion

> <Gold.Protein.ActiveResidues>
 VAL166  LYS551  ARG553  GLY616  TRP617  ASP618  TYR619  PRO620  LYS621  CYS622 
 ASP623  PHE694  ASN695  SER759  ASP760  ASP761  ALA762  ILE779  LEU786  VAL792 
 PHE793  MET794  SER795  GLU796  ALA797  LYS798  CYS799  TRP800  GLU811  SER814 

> <Gold.Protein.RotatedAtoms>
  152.0762  133.4130  159.4480 H   0  0  0  0  0  0  0  0  0  0  0  0  # atno 6907 bound_to 6896
  150.6863  134.3035  159.4725 H   0  0  0  0  0  0  0  0  0  0  0  0  # atno 6908 bound_to 6896
  152.0872  134.9431  160.0623 H   0  0  0  0  0  0  0  0  0  0  0  0  # atno 6909 bound_to 6896
  146.1172  139.5951  142.9314 H   0  0  0  0  0  0  0  0  0  0  0  0  # atno 7974 bound_to 7965
  154.6975  140.0531  157.0425 H   0  0  0  0  0  0  0  0  0  0  0  0  # atno 8008 bound_to 7997
  155.0731  140.3201  155.4605 H   0  0  0  0  0  0  0  0  0  0  0  0  # atno 8009 bound_to 7997
  156.2749  140.2078  156.5858 H   0  0  0  0  0  0  0  0  0  0  0  0  # atno 8010 bound_to 7997
  140.4205  143.2586  151.8896 H   0  0  0  0  0  0  0  0  0  0  0  0  # atno 10167 bound_to 10162
  156.0878  130.4205  150.1086 H   0  0  0  0  0  0  0  0  0  0  0  0  # atno 10718 bound_to 10713
  153.0564  135.5039  154.7990 H   0  0  0  0  0  0  0  0  0  0  0  0  # atno 10763 bound_to 10752
  154.6813  135.2969  154.9611 H   0  0  0  0  0  0  0  0  0  0  0  0  # atno 10764 bound_to 10752
  154.0397  135.6718  153.4841 H   0  0  0  0  0  0  0  0  0  0  0  0  # atno 10765 bound_to 10752
  139.9678  134.9586  156.9309 H   0  0  0  0  0  0  0  0  0  0  0  0  # atno 11005 bound_to 11000
  145.5542  141.0410  143.2261 LP  0  0  0  0  0  0  0  0  0  0  0  0  # atno 17320 bound_to 7965
  144.7563  139.7065  143.7252 LP  0  0  0  0  0  0  0  0  0  0  0  0  # atno 17321 bound_to 7965
  139.4782  144.5442  151.8483 LP  0  0  0  0  0  0  0  0  0  0  0  0  # atno 17342 bound_to 10162
  140.4539  144.1817  150.5900 LP  0  0  0  0  0  0  0  0  0  0  0  0  # atno 17343 bound_to 10162
  156.9103  130.9649  151.3564 LP  0  0  0  0  0  0  0  0  0  0  0  0  # atno 17370 bound_to 10713
  157.6018  130.8518  149.8813 LP  0  0  0  0  0  0  0  0  0  0  0  0  # atno 17371 bound_to 10713
  140.5358  134.0768  155.7328 LP  0  0  0  0  0  0  0  0  0  0  0  0  # atno 17394 bound_to 11000
  141.1358  133.9224  157.2437 LP  0  0  0  0  0  0  0  0  0  0  0  0  # atno 17395 bound_to 11000

$$$$
