AV-unprocessed.smi:49|AV-procd|sdf|483|dock3
  -GOLD-   2262016343D 1   1.00000     0.00000
 Structure written by MMmdl.
 27 28  0  0  0  0  0  0  0  0  3 V2000
  153.1667  142.4430  160.5103 C   0  0  0  0  0  0  0  0  0  0  0  0
  153.1247  140.9696  160.0926 C   0  0  0  0  0  0  0  0  0  0  0  0
  152.3383  140.7607  158.8170 C   0  0  0  0  0  0  0  0  0  0  0  0
  151.0780  141.1294  158.6095 N   0  0  0  0  0  0  0  0  0  0  0  0
  150.8026  140.7948  157.3420 C   0  0  0  0  0  0  0  0  0  0  0  0
  149.4522  140.9970  156.6821 C   0  0  2  0  0  0  0  0  0  0  0  0
  148.9376  139.7179  156.0059 C   0  0  0  0  0  0  0  0  0  0  0  0
  149.3152  139.9057  154.5395 C   0  0  1  0  0  0  0  0  0  0  0  0
  148.4911  139.1515  153.6761 O   0  0  0  0  0  0  0  0  0  0  0  0
  149.1406  141.4105  154.3395 C   0  0  0  0  0  0  0  0  0  0  0  0
  149.5426  142.0217  155.6196 N   0  3  0  0  0  0  0  0  0  0  0  0
  151.8669  140.2164  156.7622 N   0  0  0  0  0  0  0  0  0  0  0  0
  152.8095  140.2168  157.6811 N   0  5  0  0  0  0  0  0  0  0  0  0
  148.7453  141.3307  157.4427 H   0  0  0  0  0  0  0  0  0  0  0  0
  150.3591  139.6279  154.3866 H   0  0  0  0  0  0  0  0  0  0  0  0
  153.7366  142.5703  161.4307 H   0  0  0  0  0  0  0  0  0  0  0  0
  152.1623  142.8304  160.6826 H   0  0  0  0  0  0  0  0  0  0  0  0
  153.6351  143.0558  159.7396 H   0  0  0  0  0  0  0  0  0  0  0  0
  154.1381  140.5942  159.9471 H   0  0  0  0  0  0  0  0  0  0  0  0
  152.6775  140.3696  160.8857 H   0  0  0  0  0  0  0  0  0  0  0  0
  149.3325  138.8007  156.4452 H   0  0  0  0  0  0  0  0  0  0  0  0
  147.8506  139.6833  156.0975 H   0  0  0  0  0  0  0  0  0  0  0  0
  148.7498  139.3269  152.7838 H   0  0  0  0  0  0  0  0  0  0  0  0
  149.7239  141.7984  153.5042 H   0  0  0  0  0  0  0  0  0  0  0  0
  148.0918  141.6541  154.1634 H   0  0  0  0  0  0  0  0  0  0  0  0
  148.9623  142.8192  155.8352 H   0  0  0  0  0  0  0  0  0  0  0  0
  150.5089  142.3107  155.5574 H   0  0  0  0  0  0  0  0  0  0  0  0
  1  2  1  0  0  0  0
  1 16  1  0  0  0  0
  1 17  1  0  0  0  0
  1 18  1  0  0  0  0
  2  3  1  0  0  0  0
  2 19  1  0  0  0  0
  2 20  1  0  0  0  0
  3 13  1  0  0  0  0
  3  4  2  0  0  0  0
  4  5  1  0  0  0  0
  5  6  1  0  0  0  0
  5 12  2  0  0  0  0
  6 14  1  0  0  0  0
  6 11  1  0  0  0  0
  6  7  1  0  0  0  0
  7  8  1  0  0  0  0
  7 21  1  0  0  0  0
  7 22  1  0  0  0  0
  8 15  1  0  0  0  0
  8  9  1  0  0  0  0
  8 10  1  0  0  0  0
  9 23  1  0  0  0  0
 10 11  1  0  0  0  0
 10 24  1  0  0  0  0
 10 25  1  0  0  0  0
 11 26  1  0  0  0  0
 11 27  1  0  0  0  0
 12 13  1  0  0  0  0
M  CHG  1  11   1
M  CHG  1  13  -1
M  END
> <s_m_source_file>
AV-unprocessed.smi

> <i_m_source_file_index>
49

> <i_lp_mmshare_version>
43012

> <i_f3d_flags>
0

> <s_epik_input>
W0NIM11bQ0gyXWMxbmMobltuSF0xKVtDQEBIXTJbQ0gyXVtDQEBIXShbT0hdKVtDSDJdW05IXTI=

> <s_epik_cmdline>
J2VwaWtfcHl0aG9uJywgJy1waCcsICc3LjAnLCAnLXRuJywgJzgnLCAnLW1hJywgJzIwMCcsICctbWV0YWxfYmluZGluZycsICctaW1hZScsICc8aW5maWxlLm1hZT4nLCAnLW9tYWUnLCAnPG91dGZpbGUubWFlPic=

> <r_lp_tautomer_probability>
0.948284

> <r_epik_Ionization_Penalty>
3.22013

> <r_epik_Ionization_Penalty_Charging>
3.22013

> <r_epik_Ionization_Penalty_Neutral>
3.9133e-08

> <r_epik_State_Penalty>
2.79459

> <r_epik_Charging_Adjusted_Penalty>
6.01472

> <i_epik_Tot_Q>
0

> <i_epik_Tot_abs_Q>
2

> <r_epik_Metal_State_Penalty>
0.589377

> <b_epik_Metal_Only>
1

> <s_lp_Force_Field>
OPLS_2005

> <r_lp_Energy>
10.361

> <b_lp_Chiralities_Consistent>
1

> <s_lp_Variant>
AV-unprocessed.smi:49-21

> <Gold.Version>
5.8.1

> <Gold.Id.Protein>
6NUR|6NUR_protein|mol2

> <Gold.PLP.Fitness>
36.6182

> <Gold.PLP.PLP>
-21.9612

> <Gold.PLP.part.hbond>
-3.0000

> <Gold.PLP.part.metal>
0.0000

> <Gold.PLP.part.buried>
-1.3594

> <Gold.PLP.part.nonpolar>
-16.4257

> <Gold.PLP.part.repulsive>
0.1627

> <Gold.PLP.ligand.clash>
0.0000

> <Gold.PLP.ligand.torsion>
0.1780

> <Gold.PLP.Chemscore.Hbond>
5.0000

> <Gold.PLP.Chemscore.CHOScore>
0.0000

> <Gold.PLP.Chemscore.Metal>
0.0000

> <Gold.Chemscore.Hbonds>
donor molecule, donor type, donor heavy atom, donor atom, acceptor molecule, acceptor atom, score
      L1  H     9    23       P1  7957  1.00
      L1  H    11    26       P1  8028  1.70
      P1  H  7997  8010       L1    13  1.98

> <Gold.PLP.Chemscore.Internal.Correction>
0.0130

> <Gold.Rescore>
     Score         DG    S(hbond)    S(metal)    S(lipo)     H(rot)  DE(clash)    DE(int)     intcor
     14.84     -15.23       2.85        0.00      42.69       1.86       0.36       0.04       ----

> <Gold.Chemscore.Fitness>
14.8355

> <Gold.Chemscore.DG>
-15.2313

> <Gold.Chemscore.ZeroCoef>
-5.4800

> <Gold.Chemscore.Hbond>
2.8471

> <Gold.Chemscore.Metal>
0.0000

> <Gold.Chemscore.Lipo>
42.6926

> <Gold.Chemscore.Internal_Hbond>
0.0000

> <Gold.Chemscore.DEClash>
0.3580

> <Gold.Chemscore.DEInternal>
0.0377

> <Gold.Chemscore.Rot>
1.8567

> <Gold.Chemscore.Internal.Correction>
   9.000000E+99

> <Gold.Chemscore.Hbonds>
donor molecule, donor type, donor heavy atom, donor atom, acceptor molecule, acceptor atom, score
      L1  H     9    23       P1  7957  0.98
      L1  H    11    26       P1  8028  0.83
      P1  H  7997  8010       L1    13  0.62

> <Gold.Chemscore.Hbond.Weighted>
-9.5093

> <Gold.Chemscore.Metal.Weighted>
-0.0000

> <Gold.Chemscore.Lipo.Weighted>
-4.9950

> <Gold.Chemscore.Internal_Hbond.Weighted>
0.0000

> <Gold.Chemscore.DEClash.Weighted>
0.3580

> <Gold.Chemscore.DEInternal.Weighted>
0.0377

> <Gold.Chemscore.Rot.Weighted>
4.7531

> <Gold.Chemscore.Internal.Correction.Weighted>
   9.000000E+99

> <Gold.Protein.RotatedTorsions>
[ 6907 6896 6895 6894 ] final  -37.28 input  -60.11 | X-H torsion
[ 7974 7965 7964 7962 ] final   37.98 input  175.53 | X-H torsion
[ 8008 7997 7996 7995 ] final   49.59 input   59.86 | X-H torsion
[ 10167 10162 10161 10158 ] final  116.49 input  -65.29 | X-H torsion
[ 10718 10713 10712 10709 ] final -140.23 input   66.30 | X-H torsion
[ 10763 10752 10751 10750 ] final -167.75 input  -60.55 | X-H torsion
[ 11005 11000 10999 10996 ] final   72.83 input  -57.11 | X-H torsion

> <Gold.Protein.ActiveResidues>
 VAL166  LYS551  ARG553  GLY616  TRP617  ASP618  TYR619  PRO620  LYS621  CYS622 
 ASP623  PHE694  ASN695  SER759  ASP760  ASP761  ALA762  ILE779  LEU786  VAL792 
 PHE793  MET794  SER795  GLU796  ALA797  LYS798  CYS799  TRP800  GLU811  SER814 

> <Gold.Protein.RotatedAtoms>
  151.0167  134.9438  159.8036 H   0  0  0  0  0  0  0  0  0  0  0  0  # atno 6907 bound_to 6896
  152.5315  134.2957  159.9070 H   0  0  0  0  0  0  0  0  0  0  0  0  # atno 6908 bound_to 6896
  151.2964  133.4100  159.2671 H   0  0  0  0  0  0  0  0  0  0  0  0  # atno 6909 bound_to 6896
  146.1096  139.5827  142.9361 H   0  0  0  0  0  0  0  0  0  0  0  0  # atno 7974 bound_to 7965
  155.4048  140.3439  155.4259 H   0  0  0  0  0  0  0  0  0  0  0  0  # atno 8008 bound_to 7997
  156.1483  140.1563  156.8843 H   0  0  0  0  0  0  0  0  0  0  0  0  # atno 8009 bound_to 7997
  154.5030  140.0810  156.7817 H   0  0  0  0  0  0  0  0  0  0  0  0  # atno 8010 bound_to 7997
  139.6244  144.7106  151.2566 H   0  0  0  0  0  0  0  0  0  0  0  0  # atno 10167 bound_to 10162
  156.3199  130.7528  151.1624 H   0  0  0  0  0  0  0  0  0  0  0  0  # atno 10718 bound_to 10713
  154.6700  135.2938  154.9754 H   0  0  0  0  0  0  0  0  0  0  0  0  # atno 10763 bound_to 10752
  154.0785  135.6608  153.4838 H   0  0  0  0  0  0  0  0  0  0  0  0  # atno 10764 bound_to 10752
  153.0481  135.5191  154.7691 H   0  0  0  0  0  0  0  0  0  0  0  0  # atno 10765 bound_to 10752
  139.9471  134.7294  156.0953 H   0  0  0  0  0  0  0  0  0  0  0  0  # atno 11005 bound_to 11000
  145.5690  141.0396  143.2184 LP  0  0  0  0  0  0  0  0  0  0  0  0  # atno 17320 bound_to 7965
  144.7500  139.7218  143.7277 LP  0  0  0  0  0  0  0  0  0  0  0  0  # atno 17321 bound_to 7965
  140.7402  143.6596  150.8176 LP  0  0  0  0  0  0  0  0  0  0  0  0  # atno 17342 bound_to 10162
  140.0212  143.5541  152.2800 LP  0  0  0  0  0  0  0  0  0  0  0  0  # atno 17343 bound_to 10162
  157.7409  131.0510  150.5131 LP  0  0  0  0  0  0  0  0  0  0  0  0  # atno 17370 bound_to 10713
  156.5282  130.4178  149.6215 LP  0  0  0  0  0  0  0  0  0  0  0  0  # atno 17371 bound_to 10713
  141.1124  133.6639  156.3011 LP  0  0  0  0  0  0  0  0  0  0  0  0  # atno 17394 bound_to 11000
  140.5809  134.5747  157.5479 LP  0  0  0  0  0  0  0  0  0  0  0  0  # atno 17395 bound_to 11000

$$$$
