AV-unprocessed.smi:1088|AV-procd|sdf|4733|dock4
  -GOLD-   22720 3273D 1   1.00000     0.00000
 Structure written by MMmdl.
 47 48  0  0  0  0  0  0  0  0  1 V2000
  152.4713  143.3196  158.6004 C   0  0  0  0  0  0  0  0  0  0  0  0
  152.2360  142.2976  157.6483 O   0  0  0  0  0  0  0  0  0  0  0  0
  151.0474  142.5103  156.9041 C   0  0  0  0  0  0  0  0  0  0  0  0
  151.0015  141.5682  155.6907 C   0  0  0  0  0  0  0  0  0  0  0  0
  149.7203  140.8924  155.4720 N   0  0  0  0  0  0  0  0  0  0  0  0
  148.7021  141.7708  154.9203 C   0  0  0  0  0  0  0  0  0  0  0  0
  147.6116  140.8647  154.3467 C   0  0  0  0  0  0  0  0  0  0  0  0
  148.3131  139.5138  154.1644 C   0  0  0  0  0  0  0  0  0  0  0  0
  149.7822  139.7947  154.5108 C   0  0  2  0  0  0  0  0  0  0  0  0
  150.5053  138.5204  154.9957 C   0  0  0  0  0  0  0  0  0  0  0  0
  149.6362  137.7036  155.8353 N   0  0  0  0  0  0  0  0  0  0  0  0
  149.8658  136.4307  156.1889 C   0  0  0  0  0  0  0  0  0  0  0  0
  150.8866  135.8132  155.8837 O   0  0  0  0  0  0  0  0  0  0  0  0
  148.7708  135.7590  157.0275 C   0  0  0  0  0  0  0  0  0  0  0  0
  148.5767  134.3465  156.6769 N   0  0  0  0  0  0  0  0  0  0  0  0
  147.9689  134.0145  155.4800 C   0  0  0  0  0  0  0  0  0  0  0  0
  147.7347  132.7420  155.0916 C   0  0  0  0  0  0  0  0  0  0  0  0
  148.1229  131.6180  155.9349 C   0  0  0  0  0  0  0  0  0  0  0  0
  147.9073  130.4444  155.6302 O   0  0  0  0  0  0  0  0  0  0  0  0
  148.7590  131.9846  157.1452 N   0  0  0  0  0  0  0  0  0  0  0  0
  149.1614  130.9332  158.0566 C   0  0  0  0  0  0  0  0  0  0  0  0
  148.9864  133.3182  157.5535 C   0  0  0  0  0  0  0  0  0  0  0  0
  149.5149  133.5886  158.6351 O   0  0  0  0  0  0  0  0  0  0  0  0
  153.3890  143.1053  159.1481 H   0  0  0  0  0  0  0  0  0  0  0  0
  151.6558  143.3834  159.3218 H   0  0  0  0  0  0  0  0  0  0  0  0
  152.5878  144.2894  158.1155 H   0  0  0  0  0  0  0  0  0  0  0  0
  150.1880  142.3090  157.5456 H   0  0  0  0  0  0  0  0  0  0  0  0
  150.9718  143.5494  156.5793 H   0  0  0  0  0  0  0  0  0  0  0  0
  151.3119  142.1021  154.7915 H   0  0  0  0  0  0  0  0  0  0  0  0
  151.7626  140.8124  155.8702 H   0  0  0  0  0  0  0  0  0  0  0  0
  148.3069  142.4513  155.6748 H   0  0  0  0  0  0  0  0  0  0  0  0
  149.1263  142.3749  154.1162 H   0  0  0  0  0  0  0  0  0  0  0  0
  146.7757  140.7699  155.0406 H   0  0  0  0  0  0  0  0  0  0  0  0
  147.2261  141.2582  153.4058 H   0  0  0  0  0  0  0  0  0  0  0  0
  147.8858  138.7851  154.8553 H   0  0  0  0  0  0  0  0  0  0  0  0
  148.2004  139.1198  153.1539 H   0  0  0  0  0  0  0  0  0  0  0  0
  150.2614  140.1506  153.5964 H   0  0  0  0  0  0  0  0  0  0  0  0
  150.9064  137.9667  154.1449 H   0  0  0  0  0  0  0  0  0  0  0  0
  151.3608  138.7959  155.6135 H   0  0  0  0  0  0  0  0  0  0  0  0
  148.7720  138.1282  156.1390 H   0  0  0  0  0  0  0  0  0  0  0  0
  149.0448  135.8508  158.0792 H   0  0  0  0  0  0  0  0  0  0  0  0
  147.8290  136.3004  156.9192 H   0  0  0  0  0  0  0  0  0  0  0  0
  147.6572  134.8122  154.8216 H   0  0  0  0  0  0  0  0  0  0  0  0
  147.2490  132.5529  154.1455 H   0  0  0  0  0  0  0  0  0  0  0  0
  150.1087  131.2120  158.5214 H   0  0  0  0  0  0  0  0  0  0  0  0
  149.3144  130.0004  157.5131 H   0  0  0  0  0  0  0  0  0  0  0  0
  148.3662  130.8350  158.7971 H   0  0  0  0  0  0  0  0  0  0  0  0
  1  2  1  0  0  0  0
  1 24  1  0  0  0  0
  1 25  1  0  0  0  0
  1 26  1  0  0  0  0
  2  3  1  0  0  0  0
  3  4  1  0  0  0  0
  3 27  1  0  0  0  0
  3 28  1  0  0  0  0
  4  5  1  0  0  0  0
  4 29  1  0  0  0  0
  4 30  1  0  0  0  0
  5  9  1  0  0  0  0
  5  6  1  0  0  0  0
  6  7  1  0  0  0  0
  6 31  1  0  0  0  0
  6 32  1  0  0  0  0
  7  8  1  0  0  0  0
  7 33  1  0  0  0  0
  7 34  1  0  0  0  0
  8  9  1  0  0  0  0
  8 35  1  0  0  0  0
  8 36  1  0  0  0  0
  9 10  1  0  0  0  0
  9 37  1  0  0  0  0
 10 11  1  0  0  0  0
 10 38  1  0  0  0  0
 10 39  1  0  0  0  0
 11 12  1  0  0  0  0
 11 40  1  0  0  0  0
 12 13  2  0  0  0  0
 12 14  1  0  0  0  0
 14 15  1  0  0  0  0
 14 41  1  0  0  0  0
 14 42  1  0  0  0  0
 15 22  1  0  0  0  0
 15 16  1  0  0  0  0
 16 17  2  0  0  0  0
 16 43  1  0  0  0  0
 17 18  1  0  0  0  0
 17 44  1  0  0  0  0
 18 19  2  0  0  0  0
 18 20  1  0  0  0  0
 20 21  1  0  0  0  0
 20 22  1  0  0  0  0
 21 45  1  0  0  0  0
 21 46  1  0  0  0  0
 21 47  1  0  0  0  0
 22 23  2  0  0  0  0
M  END
> <s_m_source_file>
AV-unprocessed.smi

> <i_m_source_file_index>
1088

> <i_lp_mmshare_version>
43012

> <i_f3d_flags>
0

> <s_epik_input>
W0NIM11PW0NIMl1bQ0gyXU4xW0NIMl1bQ0gyXVtDSDJdW0NASF0xW0NIMl1bTkhdQyg9TylbQ0gyXW4yW2NIXVtjSF1jKD1PKW4oW0NIM10pYzI9Tw==

> <s_epik_cmdline>
J2VwaWtfcHl0aG9uJywgJy1waCcsICc3LjAnLCAnLXRuJywgJzgnLCAnLW1hJywgJzIwMCcsICctbWV0YWxfYmluZGluZycsICctaW1hZScsICc8aW5maWxlLm1hZT4nLCAnLW9tYWUnLCAnPG91dGZpbGUubWFlPic=

> <r_lp_tautomer_probability>
1

> <r_epik_Ionization_Penalty>
2.28131

> <r_epik_Ionization_Penalty_Charging>
1.22971e-08

> <r_epik_Ionization_Penalty_Neutral>
2.28131

> <r_epik_State_Penalty>
2.43063

> <r_epik_Charging_Adjusted_Penalty>
2.43063

> <i_epik_Tot_Q>
0

> <i_epik_Tot_abs_Q>
0

> <r_epik_Metal_State_Penalty>
2.43056

> <b_epik_Metal_Only>
0

> <s_lp_Force_Field>
OPLS_2005

> <r_lp_Energy>
54.0247

> <b_lp_Chiralities_Consistent>
1

> <s_lp_Variant>
AV-unprocessed.smi:1088-6

> <Gold.Version>
5.8.1

> <Gold.Id.Protein>
6NUR|6NUR_protein|mol2

> <Gold.PLP.Fitness>
43.5318

> <Gold.PLP.PLP>
-36.7415

> <Gold.PLP.part.hbond>
-1.9187

> <Gold.PLP.part.metal>
0.0000

> <Gold.PLP.part.buried>
-0.8551

> <Gold.PLP.part.nonpolar>
-33.1905

> <Gold.PLP.part.repulsive>
0.3595

> <Gold.PLP.ligand.clash>
0.0000

> <Gold.PLP.ligand.torsion>
1.1904

> <Gold.PLP.Chemscore.Hbond>
2.0000

> <Gold.PLP.Chemscore.CHOScore>
1.0000

> <Gold.PLP.Chemscore.Metal>
0.0000

> <Gold.Chemscore.Hbonds>
donor molecule, donor type, donor heavy atom, donor atom, acceptor molecule, acceptor atom, score
      P1  H  6896  6907       L1    23  0.85

> <Gold.PLP.Chemscore.Internal.Correction>
0.1711

> <Gold.Rescore>
     Score         DG    S(hbond)    S(metal)    S(lipo)     H(rot)  DE(clash)    DE(int)     intcor
     13.52     -14.57       1.99        0.00      75.49       2.49       0.01       1.04       ----

> <Gold.Chemscore.Fitness>
13.5232

> <Gold.Chemscore.DG>
-14.5723

> <Gold.Chemscore.ZeroCoef>
-5.4800

> <Gold.Chemscore.Hbond>
1.9892

> <Gold.Chemscore.Metal>
0.0000

> <Gold.Chemscore.Lipo>
75.4909

> <Gold.Chemscore.Internal_Hbond>
0.0000

> <Gold.Chemscore.DEClash>
0.0085

> <Gold.Chemscore.DEInternal>
1.0405

> <Gold.Chemscore.Rot>
2.4938

> <Gold.Chemscore.Internal.Correction>
   9.000000E+99

> <Gold.Chemscore.Hbonds>
donor molecule, donor type, donor heavy atom, donor atom, acceptor molecule, acceptor atom, score
      P1  H  6896  6907       L1    23  0.78
      P1  H 10752 10763       L1    13  0.01

> <Gold.Chemscore.Hbond.Weighted>
-6.6439

> <Gold.Chemscore.Metal.Weighted>
-0.0000

> <Gold.Chemscore.Lipo.Weighted>
-8.8324

> <Gold.Chemscore.Internal_Hbond.Weighted>
0.0000

> <Gold.Chemscore.DEClash.Weighted>
0.0085

> <Gold.Chemscore.DEInternal.Weighted>
1.0405

> <Gold.Chemscore.Rot.Weighted>
6.3841

> <Gold.Chemscore.Internal.Correction.Weighted>
   9.000000E+99

> <Gold.Protein.RotatedTorsions>
[ 6907 6896 6895 6894 ] final -134.26 input  -60.11 | X-H torsion
[ 7974 7965 7964 7962 ] final   51.15 input  175.53 | X-H torsion
[ 8008 7997 7996 7995 ] final  -81.15 input   59.86 | X-H torsion
[ 10167 10162 10161 10158 ] final   60.51 input  -65.29 | X-H torsion
[ 10718 10713 10712 10709 ] final -103.08 input   66.30 | X-H torsion
[ 10763 10752 10751 10750 ] final   50.24 input  -60.55 | X-H torsion
[ 11005 11000 10999 10996 ] final  156.61 input  -57.11 | X-H torsion

> <Gold.Protein.ActiveResidues>
 VAL166  LYS551  ARG553  GLY616  TRP617  ASP618  TYR619  PRO620  LYS621  CYS622 
 ASP623  PHE694  ASN695  SER759  ASP760  ASP761  ALA762  ILE779  LEU786  VAL792 
 PHE793  MET794  SER795  GLU796  ALA797  LYS798  CYS799  TRP800  GLU811  SER814 

> <Gold.Protein.RotatedAtoms>
  150.9837  133.6219  159.2718 H   0  0  0  0  0  0  0  0  0  0  0  0  # atno 6907 bound_to 6896
  151.3464  135.0874  159.9398 H   0  0  0  0  0  0  0  0  0  0  0  0  # atno 6908 bound_to 6896
  152.5224  133.9438  159.7694 H   0  0  0  0  0  0  0  0  0  0  0  0  # atno 6909 bound_to 6896
  145.9942  139.4371  143.0055 H   0  0  0  0  0  0  0  0  0  0  0  0  # atno 7974 bound_to 7965
  154.5954  140.0652  156.9296 H   0  0  0  0  0  0  0  0  0  0  0  0  # atno 8008 bound_to 7997
  155.2223  140.3331  155.4295 H   0  0  0  0  0  0  0  0  0  0  0  0  # atno 8009 bound_to 7997
  156.2283  140.1829  156.7290 H   0  0  0  0  0  0  0  0  0  0  0  0  # atno 8010 bound_to 7997
  140.1648  144.4334  150.6691 H   0  0  0  0  0  0  0  0  0  0  0  0  # atno 10167 bound_to 10162
  156.0252  130.5450  150.7201 H   0  0  0  0  0  0  0  0  0  0  0  0  # atno 10718 bound_to 10713
  152.9785  135.5885  154.4221 H   0  0  0  0  0  0  0  0  0  0  0  0  # atno 10763 bound_to 10752
  154.3844  135.2767  155.2194 H   0  0  0  0  0  0  0  0  0  0  0  0  # atno 10764 bound_to 10752
  154.4094  135.6085  153.5998 H   0  0  0  0  0  0  0  0  0  0  0  0  # atno 10765 bound_to 10752
  140.1691  134.8556  157.2668 H   0  0  0  0  0  0  0  0  0  0  0  0  # atno 11005 bound_to 11000
  145.7585  140.9945  143.1213 LP  0  0  0  0  0  0  0  0  0  0  0  0  # atno 17320 bound_to 7965
  144.6898  139.9301  143.7471 LP  0  0  0  0  0  0  0  0  0  0  0  0  # atno 17321 bound_to 7965
  140.6620  143.2255  151.5834 LP  0  0  0  0  0  0  0  0  0  0  0  0  # atno 17342 bound_to 10162
  139.5364  144.2768  152.1261 LP  0  0  0  0  0  0  0  0  0  0  0  0  # atno 17343 bound_to 10162
  157.4819  131.0903  151.0527 LP  0  0  0  0  0  0  0  0  0  0  0  0  # atno 17370 bound_to 10713
  157.0958  130.5961  149.5449 LP  0  0  0  0  0  0  0  0  0  0  0  0  # atno 17371 bound_to 10713
  140.2398  134.3809  155.7485 LP  0  0  0  0  0  0  0  0  0  0  0  0  # atno 17394 bound_to 11000
  141.2216  133.7259  156.8772 LP  0  0  0  0  0  0  0  0  0  0  0  0  # atno 17395 bound_to 11000

$$$$
