AV-unprocessed.smi:2542|AV-procd|sdf|9991|dock6
  -GOLD-   2272014 43D 1   1.00000     0.00000
 Structure written by MMmdl.
 41 42  0  0  0  0  0  0  0  0  1 V2000
  145.1258  133.9491  154.0707 C   0  0  0  0  0  0  0  0  0  0  0  0
  145.8203  134.2809  152.7334 C   0  0  0  0  0  0  0  0  0  0  0  0
  145.6412  135.7989  152.4889 C   0  0  0  0  0  0  0  0  0  0  0  0
  147.3364  133.9843  152.8662 C   0  0  0  0  0  0  0  0  0  0  0  0
  147.9903  134.8992  153.7961 N   0  0  0  0  0  0  0  0  0  0  0  0
  148.1887  134.6671  155.1023 C   0  0  0  0  0  0  0  0  0  0  0  0
  147.8083  133.6324  155.6523 O   0  0  0  0  0  0  0  0  0  0  0  0
  148.9239  135.7583  155.9175 C   0  0  0  0  0  0  0  0  0  0  0  0
  149.1384  135.3394  157.3182 C   0  0  0  0  0  0  0  0  0  0  0  0
  149.3072  135.0114  158.4155 N   0  0  0  0  0  0  0  0  0  0  0  0
  150.2758  136.1174  155.2443 C   0  0  0  0  0  0  0  0  0  0  0  0
  150.2056  137.5917  154.8271 C   0  0  0  0  0  0  0  0  0  0  0  0
  148.7183  137.9164  154.7588 C   0  0  0  0  0  0  0  0  0  0  0  0
  148.1195  137.0791  155.8876 C   0  0  0  0  0  0  0  0  0  0  0  0
  145.2063  133.4250  151.6078 C   0  0  0  0  0  0  0  0  0  0  0  0
  145.9912  132.7560  150.6363 C   0  0  0  0  0  0  0  0  0  0  0  0
  145.3473  131.9778  149.6538 C   0  0  0  0  0  0  0  0  0  0  0  0
  144.0087  131.8306  149.5806 N   0  0  0  0  0  0  0  0  0  0  0  0
  143.2581  132.4656  150.5035 C   0  0  0  0  0  0  0  0  0  0  0  0
  143.8029  133.2653  151.5273 C   0  0  0  0  0  0  0  0  0  0  0  0
  145.5242  134.5549  154.8854 H   0  0  0  0  0  0  0  0  0  0  0  0
  145.2599  132.9054  154.3552 H   0  0  0  0  0  0  0  0  0  0  0  0
  144.0532  134.1384  154.0159 H   0  0  0  0  0  0  0  0  0  0  0  0
  146.0783  136.3826  153.2998 H   0  0  0  0  0  0  0  0  0  0  0  0
  144.5877  136.0750  152.4308 H   0  0  0  0  0  0  0  0  0  0  0  0
  146.1246  136.1265  151.5678 H   0  0  0  0  0  0  0  0  0  0  0  0
  147.4916  132.9523  153.1861 H   0  0  0  0  0  0  0  0  0  0  0  0
  147.8313  134.0822  151.8989 H   0  0  0  0  0  0  0  0  0  0  0  0
  148.3307  135.7690  153.4108 H   0  0  0  0  0  0  0  0  0  0  0  0
  151.1191  135.9535  155.9163 H   0  0  0  0  0  0  0  0  0  0  0  0
  150.4690  135.5015  154.3641 H   0  0  0  0  0  0  0  0  0  0  0  0
  150.6763  138.2097  155.5930 H   0  0  0  0  0  0  0  0  0  0  0  0
  150.7197  137.7855  153.8853 H   0  0  0  0  0  0  0  0  0  0  0  0
  148.5148  138.9815  154.8719 H   0  0  0  0  0  0  0  0  0  0  0  0
  148.3111  137.5988  153.7982 H   0  0  0  0  0  0  0  0  0  0  0  0
  147.0465  136.9313  155.7549 H   0  0  0  0  0  0  0  0  0  0  0  0
  148.2456  137.6128  156.8310 H   0  0  0  0  0  0  0  0  0  0  0  0
  147.0684  132.8157  150.6223 H   0  0  0  0  0  0  0  0  0  0  0  0
  145.9266  131.4574  148.9053 H   0  0  0  0  0  0  0  0  0  0  0  0
  142.1894  132.3309  150.4268 H   0  0  0  0  0  0  0  0  0  0  0  0
  143.1449  133.7412  152.2390 H   0  0  0  0  0  0  0  0  0  0  0  0
  1  2  1  0  0  0  0
  1 21  1  0  0  0  0
  1 22  1  0  0  0  0
  1 23  1  0  0  0  0
  2  3  1  0  0  0  0
  2  4  1  0  0  0  0
  2 15  1  0  0  0  0
  3 24  1  0  0  0  0
  3 25  1  0  0  0  0
  3 26  1  0  0  0  0
  4  5  1  0  0  0  0
  4 27  1  0  0  0  0
  4 28  1  0  0  0  0
  5  6  1  0  0  0  0
  5 29  1  0  0  0  0
  6  7  2  0  0  0  0
  6  8  1  0  0  0  0
  8 14  1  0  0  0  0
  8  9  1  0  0  0  0
  8 11  1  0  0  0  0
  9 10  3  0  0  0  0
 11 12  1  0  0  0  0
 11 30  1  0  0  0  0
 11 31  1  0  0  0  0
 12 13  1  0  0  0  0
 12 32  1  0  0  0  0
 12 33  1  0  0  0  0
 13 14  1  0  0  0  0
 13 34  1  0  0  0  0
 13 35  1  0  0  0  0
 14 36  1  0  0  0  0
 14 37  1  0  0  0  0
 15 20  1  0  0  0  0
 15 16  2  0  0  0  0
 16 17  1  0  0  0  0
 16 38  1  0  0  0  0
 17 18  2  0  0  0  0
 17 39  1  0  0  0  0
 18 19  1  0  0  0  0
 19 20  2  0  0  0  0
 19 40  1  0  0  0  0
 20 41  1  0  0  0  0
M  END
> <s_m_source_file>
AV-unprocessed.smi

> <i_m_source_file_index>
2542

> <i_lp_mmshare_version>
43012

> <i_f3d_flags>
0

> <s_epik_input>
W2NIXTFbY0hdbltjSF1bY0hdYzFDKFtDSDNdKShbQ0gzXSlbQ0gyXVtOSF1DKD1PKUMyKEMjTilbQ0gyXVtDSDJdW0NIMl1bQ0gyXTI=

> <s_epik_cmdline>
J2VwaWtfcHl0aG9uJywgJy1waCcsICc3LjAnLCAnLXRuJywgJzgnLCAnLW1hJywgJzIwMCcsICctbWV0YWxfYmluZGluZycsICctaW1hZScsICc8aW5maWxlLm1hZT4nLCAnLW9tYWUnLCAnPG91dGZpbGUubWFlPic=

> <r_epik_Ionization_Penalty>
0.0480096

> <r_epik_Ionization_Penalty_Charging>
0

> <r_epik_Ionization_Penalty_Neutral>
0.0480096

> <r_epik_State_Penalty>
0.04092

> <r_epik_Charging_Adjusted_Penalty>
0.04092

> <i_epik_Tot_Q>
0

> <i_epik_Tot_abs_Q>
0

> <r_epik_Metal_State_Penalty>
0.0377989

> <b_epik_Metal_Only>
0

> <s_lp_Force_Field>
OPLS_2005

> <r_lp_Energy>
29.6926

> <b_lp_Chiralities_Consistent>
1

> <s_lp_Variant>
AV-unprocessed.smi:2542-1

> <Gold.Version>
5.8.1

> <Gold.Id.Protein>
6NUR|6NUR_protein|mol2

> <Gold.PLP.Fitness>
34.6673

> <Gold.PLP.PLP>
-24.0622

> <Gold.PLP.part.hbond>
-3.0000

> <Gold.PLP.part.metal>
0.0000

> <Gold.PLP.part.buried>
-2.4239

> <Gold.PLP.part.nonpolar>
-20.9235

> <Gold.PLP.part.repulsive>
0.1883

> <Gold.PLP.ligand.clash>
0.0000

> <Gold.PLP.ligand.torsion>
0.8743

> <Gold.PLP.Chemscore.Hbond>
2.4880

> <Gold.PLP.Chemscore.CHOScore>
1.6166

> <Gold.PLP.Chemscore.Metal>
0.0000

> <Gold.Chemscore.Hbonds>
donor molecule, donor type, donor heavy atom, donor atom, acceptor molecule, acceptor atom, score
      L1  H     5    29       P1  7948  0.66
      P1  H  6896  6907       L1    10  1.00
      P1  H 10785 10796       L1    18  0.71
      L1  C    19    40       P1 10186  0.64
      L1  C    19    40       P1 10952  0.97

> <Gold.PLP.Chemscore.Internal.Correction>
0.0400

> <Gold.Rescore>
     Score         DG    S(hbond)    S(metal)    S(lipo)     H(rot)  DE(clash)    DE(int)     intcor
     17.84     -19.17       2.59        0.00      75.73       1.49       0.25       1.08       ----

> <Gold.Chemscore.Fitness>
17.8429

> <Gold.Chemscore.DG>
-19.1682

> <Gold.Chemscore.ZeroCoef>
-5.4800

> <Gold.Chemscore.Hbond>
2.5873

> <Gold.Chemscore.Metal>
0.0000

> <Gold.Chemscore.Lipo>
75.7281

> <Gold.Chemscore.Internal_Hbond>
0.0000

> <Gold.Chemscore.DEClash>
0.2468

> <Gold.Chemscore.DEInternal>
1.0785

> <Gold.Chemscore.Rot>
1.4897

> <Gold.Chemscore.Internal.Correction>
   9.000000E+99

> <Gold.Chemscore.Hbonds>
donor molecule, donor type, donor heavy atom, donor atom, acceptor molecule, acceptor atom, score
      L1  H     5    29       P1  7948  0.66
      P1  H  6896  6907       L1    10  1.00
      P1  H 10785 10796       L1    18  0.62

> <Gold.Chemscore.Hbond.Weighted>
-8.6416

> <Gold.Chemscore.Metal.Weighted>
-0.0000

> <Gold.Chemscore.Lipo.Weighted>
-8.8602

> <Gold.Chemscore.Internal_Hbond.Weighted>
0.0000

> <Gold.Chemscore.DEClash.Weighted>
0.2468

> <Gold.Chemscore.DEInternal.Weighted>
1.0785

> <Gold.Chemscore.Rot.Weighted>
3.8136

> <Gold.Chemscore.Internal.Correction.Weighted>
   9.000000E+99

> <Gold.Protein.RotatedTorsions>
[ 6907 6896 6895 6894 ] final  -87.53 input  -60.11 | X-H torsion
[ 7974 7965 7964 7962 ] final   71.46 input  175.53 | X-H torsion
[ 8008 7997 7996 7995 ] final   27.86 input   59.86 | X-H torsion
[ 10167 10162 10161 10158 ] final  -26.15 input  -65.29 | X-H torsion
[ 10718 10713 10712 10709 ] final   96.02 input   66.30 | X-H torsion
[ 10763 10752 10751 10750 ] final  -78.02 input  -60.55 | X-H torsion
[ 11005 11000 10999 10996 ] final   -0.01 input  -57.11 | X-H torsion

> <Gold.Protein.ActiveResidues>
 VAL166  LYS551  ARG553  GLY616  TRP617  ASP618  TYR619  PRO620  LYS621  CYS622 
 ASP623  PHE694  ASN695  SER759  ASP760  ASP761  ALA762  ILE779  LEU786  VAL792 
 PHE793  MET794  SER795  GLU796  ALA797  LYS798  CYS799  TRP800  GLU811  SER814 

> <Gold.Protein.RotatedAtoms>
  150.6866  134.2883  159.4655 H   0  0  0  0  0  0  0  0  0  0  0  0  # atno 6907 bound_to 6896
  152.0790  134.9481  160.0583 H   0  0  0  0  0  0  0  0  0  0  0  0  # atno 6908 bound_to 6896
  152.0841  133.4133  159.4551 H   0  0  0  0  0  0  0  0  0  0  0  0  # atno 6909 bound_to 6896
  145.7655  139.2820  143.1351 H   0  0  0  0  0  0  0  0  0  0  0  0  # atno 7974 bound_to 7965
  155.0496  140.3178  155.4696 H   0  0  0  0  0  0  0  0  0  0  0  0  # atno 8008 bound_to 7997
  156.2837  140.2148  156.5565 H   0  0  0  0  0  0  0  0  0  0  0  0  # atno 8009 bound_to 7997
  154.7222  140.0488  157.0637 H   0  0  0  0  0  0  0  0  0  0  0  0  # atno 8010 bound_to 7997
  140.7284  143.4203  151.0962 H   0  0  0  0  0  0  0  0  0  0  0  0  # atno 10167 bound_to 10162
  157.6932  131.0564  150.4428 H   0  0  0  0  0  0  0  0  0  0  0  0  # atno 10718 bound_to 10713
  154.5204  135.5744  153.6676 H   0  0  0  0  0  0  0  0  0  0  0  0  # atno 10763 bound_to 10752
  152.9916  135.6180  154.2761 H   0  0  0  0  0  0  0  0  0  0  0  0  # atno 10764 bound_to 10752
  154.2682  135.2854  155.2729 H   0  0  0  0  0  0  0  0  0  0  0  0  # atno 10765 bound_to 10752
  140.6316  133.9570  155.8277 H   0  0  0  0  0  0  0  0  0  0  0  0  # atno 11005 bound_to 11000
  146.0221  140.8338  142.9918 LP  0  0  0  0  0  0  0  0  0  0  0  0  # atno 17320 bound_to 7965
  144.6822  140.2645  143.7314 LP  0  0  0  0  0  0  0  0  0  0  0  0  # atno 17321 bound_to 7965
  139.7848  143.8303  152.3143 LP  0  0  0  0  0  0  0  0  0  0  0  0  # atno 17342 bound_to 10162
  139.8267  144.7272  150.9503 LP  0  0  0  0  0  0  0  0  0  0  0  0  # atno 17343 bound_to 10162
  156.4785  130.4068  149.6475 LP  0  0  0  0  0  0  0  0  0  0  0  0  # atno 17370 bound_to 10713
  156.3530  130.7441  151.2403 LP  0  0  0  0  0  0  0  0  0  0  0  0  # atno 17371 bound_to 10713
  141.0671  134.0260  157.3578 LP  0  0  0  0  0  0  0  0  0  0  0  0  # atno 17394 bound_to 11000
  139.9114  135.0190  156.7706 LP  0  0  0  0  0  0  0  0  0  0  0  0  # atno 17395 bound_to 11000

$$$$
