AV-unprocessed.smi:560|AV-procd|sdf|2926|dock6
  -GOLD-   2262023423D 1   1.00000     0.00000
 Structure written by MMmdl.
 41 42  0  0  0  0  0  0  0  0  1 V2000
  151.5425  144.5762  159.1969 C   0  0  0  0  0  0  0  0  0  0  0  0
  152.3333  143.2520  159.2308 C   0  0  2  0  0  0  0  0  0  0  0  0
  151.5632  142.0965  158.5747 C   0  0  0  0  0  0  0  0  0  0  0  0
  151.4783  141.0020  159.1330 O   0  0  0  0  0  0  0  0  0  0  0  0
  151.0163  142.3539  157.3761 N   0  0  0  0  0  0  0  0  0  0  0  0
  150.2874  141.3911  156.5568 C   0  0  0  0  0  0  0  0  0  0  0  0
  149.8723  142.0253  155.2195 C   0  0  0  0  0  0  0  0  0  0  0  0
  148.9670  141.0831  154.4064 C   0  0  0  0  0  0  0  0  0  0  0  0
  147.7738  140.7144  155.1827 N   0  0  0  0  0  0  0  0  0  0  0  0
  146.8319  139.8700  154.4132 C   0  0  0  0  0  0  0  0  0  0  0  0
  147.3713  138.4789  154.0584 C   0  0  0  0  0  0  0  0  0  0  0  0
  148.3063  138.4108  153.1076 N   0  0  0  0  0  0  0  0  0  0  0  0
  146.9443  137.4792  154.6323 O   0  0  0  0  0  0  0  0  0  0  0  0
  148.1659  140.0111  156.4083 C   0  0  0  0  0  0  0  0  0  0  0  0
  149.0293  140.9207  157.2996 C   0  0  0  0  0  0  0  0  0  0  0  0
  152.7452  142.8735  160.5787 N   0  0  0  0  0  0  0  0  0  0  0  0
  152.5095  143.5537  161.7569 C   0  0  0  0  0  0  0  0  0  0  0  0
  153.1191  142.8604  162.7627 C   0  0  0  0  0  0  0  0  0  0  0  0
  153.7267  141.7617  162.0947 C   0  0  0  0  0  0  0  0  0  0  0  0
  153.5121  141.7780  160.7898 N   0  0  0  0  0  0  0  0  0  0  0  0
  151.3047  144.8632  158.1721 H   0  0  0  0  0  0  0  0  0  0  0  0
  152.1243  145.3870  159.6357 H   0  0  0  0  0  0  0  0  0  0  0  0
  150.6021  144.5105  159.7457 H   0  0  0  0  0  0  0  0  0  0  0  0
  153.2464  143.4122  158.6547 H   0  0  0  0  0  0  0  0  0  0  0  0
  151.1334  143.2802  156.9917 H   0  0  0  0  0  0  0  0  0  0  0  0
  150.9179  140.5212  156.3620 H   0  0  0  0  0  0  0  0  0  0  0  0
  149.3448  142.9633  155.4005 H   0  0  0  0  0  0  0  0  0  0  0  0
  150.7571  142.2782  154.6341 H   0  0  0  0  0  0  0  0  0  0  0  0
  148.6906  141.5963  153.4854 H   0  0  0  0  0  0  0  0  0  0  0  0
  149.5178  140.1871  154.1146 H   0  0  0  0  0  0  0  0  0  0  0  0
  145.8921  139.7748  154.9611 H   0  0  0  0  0  0  0  0  0  0  0  0
  146.5909  140.3641  153.4706 H   0  0  0  0  0  0  0  0  0  0  0  0
  148.6922  137.5167  152.8418 H   0  0  0  0  0  0  0  0  0  0  0  0
  148.6252  139.2571  152.6587 H   0  0  0  0  0  0  0  0  0  0  0  0
  147.2763  139.7160  156.9663 H   0  0  0  0  0  0  0  0  0  0  0  0
  148.7064  139.0940  156.1660 H   0  0  0  0  0  0  0  0  0  0  0  0
  149.3106  140.3872  158.2083 H   0  0  0  0  0  0  0  0  0  0  0  0
  148.4375  141.7809  157.6168 H   0  0  0  0  0  0  0  0  0  0  0  0
  151.9334  144.4671  161.7807 H   0  0  0  0  0  0  0  0  0  0  0  0
  153.1346  143.1042  163.8145 H   0  0  0  0  0  0  0  0  0  0  0  0
  154.3181  140.9620  162.5150 H   0  0  0  0  0  0  0  0  0  0  0  0
  1  2  1  0  0  0  0
  1 21  1  0  0  0  0
  1 22  1  0  0  0  0
  1 23  1  0  0  0  0
  2  3  1  0  0  0  0
  2 16  1  0  0  0  0
  2 24  1  0  0  0  0
  3  4  2  0  0  0  0
  3  5  1  0  0  0  0
  5  6  1  0  0  0  0
  5 25  1  0  0  0  0
  6 15  1  0  0  0  0
  6  7  1  0  0  0  0
  6 26  1  0  0  0  0
  7  8  1  0  0  0  0
  7 27  1  0  0  0  0
  7 28  1  0  0  0  0
  8  9  1  0  0  0  0
  8 29  1  0  0  0  0
  8 30  1  0  0  0  0
  9 10  1  0  0  0  0
  9 14  1  0  0  0  0
 10 11  1  0  0  0  0
 10 31  1  0  0  0  0
 10 32  1  0  0  0  0
 11 12  1  0  0  0  0
 11 13  2  0  0  0  0
 12 33  1  0  0  0  0
 12 34  1  0  0  0  0
 14 15  1  0  0  0  0
 14 35  1  0  0  0  0
 14 36  1  0  0  0  0
 15 37  1  0  0  0  0
 15 38  1  0  0  0  0
 16 20  1  0  0  0  0
 16 17  1  0  0  0  0
 17 18  2  0  0  0  0
 17 39  1  0  0  0  0
 18 19  1  0  0  0  0
 18 40  1  0  0  0  0
 19 20  2  0  0  0  0
 19 41  1  0  0  0  0
M  END
> <s_m_source_file>
AV-unprocessed.smi

> <i_m_source_file_index>
560

> <i_lp_mmshare_version>
43012

> <i_f3d_flags>
0

> <s_epik_input>
bjFbY0hdW2NIXVtjSF1uMVtDQEhdKFtDSDNdKUMoPU8pW05IXVtDSF0yW0NIMl1bQ0gyXU4oW0NIMl1bQ0gyXTIpW0NIMl1DKD1PKVtOSDJd

> <s_epik_cmdline>
J2VwaWtfcHl0aG9uJywgJy1waCcsICc3LjAnLCAnLXRuJywgJzgnLCAnLW1hJywgJzIwMCcsICctbWV0YWxfYmluZGluZycsICctaW1hZScsICc8aW5maWxlLm1hZT4nLCAnLW9tYWUnLCAnPG91dGZpbGUubWFlPic=

> <r_lp_tautomer_probability>
1

> <r_epik_Ionization_Penalty>
0.114724

> <r_epik_Ionization_Penalty_Charging>
0

> <r_epik_Ionization_Penalty_Neutral>
0.114724

> <r_epik_State_Penalty>
0.104339

> <r_epik_Charging_Adjusted_Penalty>
0.104339

> <i_epik_Tot_Q>
0

> <i_epik_Tot_abs_Q>
0

> <r_epik_Metal_State_Penalty>
0.117437

> <b_epik_Metal_Only>
0

> <s_lp_Force_Field>
OPLS_2005

> <r_lp_Energy>
15.4208

> <b_lp_Chiralities_Consistent>
1

> <s_lp_Variant>
AV-unprocessed.smi:560-1

> <Gold.Version>
5.8.1

> <Gold.Id.Protein>
6NUR|6NUR_protein|mol2

> <Gold.PLP.Fitness>
44.4233

> <Gold.PLP.PLP>
-39.2912

> <Gold.PLP.part.hbond>
-2.0000

> <Gold.PLP.part.metal>
0.0000

> <Gold.PLP.part.buried>
-4.7814

> <Gold.PLP.part.nonpolar>
-32.7245

> <Gold.PLP.part.repulsive>
0.2256

> <Gold.PLP.ligand.clash>
0.0000

> <Gold.PLP.ligand.torsion>
0.3807

> <Gold.PLP.Chemscore.Hbond>
1.9280

> <Gold.PLP.Chemscore.CHOScore>
0.0000

> <Gold.PLP.Chemscore.Metal>
0.0000

> <Gold.Chemscore.Hbonds>
donor molecule, donor type, donor heavy atom, donor atom, acceptor molecule, acceptor atom, score
      L1  H    12    33       P1  7948  1.00
      L1  H    12    34       P1  7957  0.91

> <Gold.PLP.Chemscore.Internal.Correction>
0.1095

> <Gold.Rescore>
     Score         DG    S(hbond)    S(metal)    S(lipo)     H(rot)  DE(clash)    DE(int)     intcor
     12.20     -16.07       1.86        0.00      91.65       2.48       1.30       2.57       ----

> <Gold.Chemscore.Fitness>
12.2015

> <Gold.Chemscore.DG>
-16.0746

> <Gold.Chemscore.ZeroCoef>
-5.4800

> <Gold.Chemscore.Hbond>
1.8598

> <Gold.Chemscore.Metal>
0.0000

> <Gold.Chemscore.Lipo>
91.6543

> <Gold.Chemscore.Internal_Hbond>
0.0000

> <Gold.Chemscore.DEClash>
1.3032

> <Gold.Chemscore.DEInternal>
2.5699

> <Gold.Chemscore.Rot>
2.4768

> <Gold.Chemscore.Internal.Correction>
   9.000000E+99

> <Gold.Chemscore.Hbonds>
donor molecule, donor type, donor heavy atom, donor atom, acceptor molecule, acceptor atom, score
      L1  H    12    33       P1  7948  0.98
      L1  H    12    34       P1  7957  0.89

> <Gold.Chemscore.Hbond.Weighted>
-6.2116

> <Gold.Chemscore.Metal.Weighted>
-0.0000

> <Gold.Chemscore.Lipo.Weighted>
-10.7236

> <Gold.Chemscore.Internal_Hbond.Weighted>
0.0000

> <Gold.Chemscore.DEClash.Weighted>
1.3032

> <Gold.Chemscore.DEInternal.Weighted>
2.5699

> <Gold.Chemscore.Rot.Weighted>
6.3406

> <Gold.Chemscore.Internal.Correction.Weighted>
   9.000000E+99

> <Gold.Protein.RotatedTorsions>
[ 6907 6896 6895 6894 ] final  -52.89 input  -60.11 | X-H torsion
[ 7974 7965 7964 7962 ] final -105.73 input  175.53 | X-H torsion
[ 8008 7997 7996 7995 ] final -134.51 input   59.86 | X-H torsion
[ 10167 10162 10161 10158 ] final  109.05 input  -65.29 | X-H torsion
[ 10718 10713 10712 10709 ] final   16.87 input   66.30 | X-H torsion
[ 10763 10752 10751 10750 ] final  121.49 input  -60.55 | X-H torsion
[ 11005 11000 10999 10996 ] final -123.14 input  -57.11 | X-H torsion

> <Gold.Protein.ActiveResidues>
 VAL166  LYS551  ARG553  GLY616  TRP617  ASP618  TYR619  PRO620  LYS621  CYS622 
 ASP623  PHE694  ASN695  SER759  ASP760  ASP761  ALA762  ILE779  LEU786  VAL792 
 PHE793  MET794  SER795  GLU796  ALA797  LYS798  CYS799  TRP800  GLU811  SER814 

> <Gold.Protein.RotatedAtoms>
  150.8477  134.7791  159.6983 H   0  0  0  0  0  0  0  0  0  0  0  0  # atno 6907 bound_to 6896
  152.4549  134.5309  159.9820 H   0  0  0  0  0  0  0  0  0  0  0  0  # atno 6908 bound_to 6896
  151.5436  133.3391  159.2975 H   0  0  0  0  0  0  0  0  0  0  0  0  # atno 6909 bound_to 6896
  145.2267  140.9155  143.3228 H   0  0  0  0  0  0  0  0  0  0  0  0  # atno 7974 bound_to 7965
  155.3632  140.0484  157.3046 H   0  0  0  0  0  0  0  0  0  0  0  0  # atno 8008 bound_to 7997
  154.5167  140.2211  155.9015 H   0  0  0  0  0  0  0  0  0  0  0  0  # atno 8009 bound_to 7997
  156.1645  140.3109  155.8870 H   0  0  0  0  0  0  0  0  0  0  0  0  # atno 8010 bound_to 7997
  139.6797  144.7119  151.1538 H   0  0  0  0  0  0  0  0  0  0  0  0  # atno 10167 bound_to 10162
  157.0740  130.6360  149.5812 H   0  0  0  0  0  0  0  0  0  0  0  0  # atno 10718 bound_to 10713
  153.6150  135.3423  155.2991 H   0  0  0  0  0  0  0  0  0  0  0  0  # atno 10763 bound_to 10752
  154.8611  135.4259  154.2269 H   0  0  0  0  0  0  0  0  0  0  0  0  # atno 10764 bound_to 10752
  153.3128  135.7033  153.7172 H   0  0  0  0  0  0  0  0  0  0  0  0  # atno 10765 bound_to 10752
  140.9942  134.0496  157.3618 H   0  0  0  0  0  0  0  0  0  0  0  0  # atno 11005 bound_to 11000
  144.9714  139.3876  143.6307 LP  0  0  0  0  0  0  0  0  0  0  0  0  # atno 17320 bound_to 7965
  146.3363  139.8813  142.8824 LP  0  0  0  0  0  0  0  0  0  0  0  0  # atno 17321 bound_to 7965
  140.7648  143.5718  150.8988 LP  0  0  0  0  0  0  0  0  0  0  0  0  # atno 17342 bound_to 10162
  139.9389  143.6405  152.3058 LP  0  0  0  0  0  0  0  0  0  0  0  0  # atno 17343 bound_to 10162
  155.9942  130.5006  150.7412 LP  0  0  0  0  0  0  0  0  0  0  0  0  # atno 17370 bound_to 10713
  157.4855  131.0906  151.0487 LP  0  0  0  0  0  0  0  0  0  0  0  0  # atno 17371 bound_to 10713
  139.9006  135.0163  156.7251 LP  0  0  0  0  0  0  0  0  0  0  0  0  # atno 17394 bound_to 11000
  140.6993  133.9321  155.8014 LP  0  0  0  0  0  0  0  0  0  0  0  0  # atno 17395 bound_to 11000

$$$$
