AV-unprocessed.smi:3158|AV-procd|sdf|12043|dock1
  -GOLD-   2272017463D 1   1.00000     0.00000
 Structure written by MMmdl.
 40 40  0  0  0  0  0  0  0  0  2 V2000
  151.7451  137.8932  154.3570 C   0  0  0  0  0  0  0  0  0  0  0  0
  150.4171  138.6002  154.6662 C   0  0  0  0  0  0  0  0  0  0  0  0
  149.2695  137.6507  155.0688 C   0  0  2  0  0  0  0  0  0  0  0  0
  149.7895  136.2391  155.3739 C   0  0  0  0  0  0  0  0  0  0  0  0
  148.2592  137.5668  154.0149 N   0  0  0  0  0  0  0  0  0  0  0  0
  146.9489  137.8192  154.1626 C   0  0  0  0  0  0  0  0  0  0  0  0
  146.4387  138.1604  155.2305 O   0  0  0  0  0  0  0  0  0  0  0  0
  146.0749  137.6643  152.9110 C   0  0  1  0  0  0  0  0  0  0  0  0
  146.4218  138.7579  151.8896 C   0  0  0  0  0  0  0  0  0  0  0  0
  146.2664  136.3293  152.3040 N   0  3  0  0  0  0  0  0  0  0  0  0
  145.5140  136.1008  151.0507 C   0  0  0  0  0  0  0  0  0  0  0  0
  144.3389  135.1357  151.2756 C   0  0  0  0  0  0  0  0  0  0  0  0
  144.6626  133.7759  150.8780 N   0  0  0  0  0  0  0  0  0  0  0  0
  143.9007  132.8923  150.1425 C   0  0  0  0  0  0  0  0  0  0  0  0
  144.6201  131.7378  150.0222 C   0  0  0  0  0  0  0  0  0  0  0  0
  145.8202  132.0102  150.7366 C   0  0  0  0  0  0  0  0  0  0  0  0
  145.8387  133.2275  151.2544 N   0  0  0  0  0  0  0  0  0  0  0  0
  152.4858  138.6050  153.9922 H   0  0  0  0  0  0  0  0  0  0  0  0
  151.6158  137.1269  153.5920 H   0  0  0  0  0  0  0  0  0  0  0  0
  152.1615  137.4160  155.2437 H   0  0  0  0  0  0  0  0  0  0  0  0
  150.5786  139.3403  155.4510 H   0  0  0  0  0  0  0  0  0  0  0  0
  150.1152  139.1620  153.7813 H   0  0  0  0  0  0  0  0  0  0  0  0
  148.8170  138.0310  155.9864 H   0  0  0  0  0  0  0  0  0  0  0  0
  150.5177  136.2562  156.1852 H   0  0  0  0  0  0  0  0  0  0  0  0
  150.2731  135.7957  154.5028 H   0  0  0  0  0  0  0  0  0  0  0  0
  148.9772  135.5778  155.6773 H   0  0  0  0  0  0  0  0  0  0  0  0
  148.5868  137.2921  153.1000 H   0  0  0  0  0  0  0  0  0  0  0  0
  145.0233  137.7734  153.1828 H   0  0  0  0  0  0  0  0  0  0  0  0
  146.2808  139.7537  152.3120 H   0  0  0  0  0  0  0  0  0  0  0  0
  145.7843  138.6856  151.0081 H   0  0  0  0  0  0  0  0  0  0  0  0
  147.4576  138.6824  151.5553 H   0  0  0  0  0  0  0  0  0  0  0  0
  147.2478  136.1934  152.1097 H   0  0  0  0  0  0  0  0  0  0  0  0
  145.1396  137.0441  150.6510 H   0  0  0  0  0  0  0  0  0  0  0  0
  146.1969  135.6984  150.3023 H   0  0  0  0  0  0  0  0  0  0  0  0
  144.0603  135.1243  152.3299 H   0  0  0  0  0  0  0  0  0  0  0  0
  143.4604  135.4674  150.7206 H   0  0  0  0  0  0  0  0  0  0  0  0
  142.9231  133.1555  149.7653 H   0  0  0  0  0  0  0  0  0  0  0  0
  144.3319  130.8344  149.5052 H   0  0  0  0  0  0  0  0  0  0  0  0
  146.6712  131.3641  150.8957 H   0  0  0  0  0  0  0  0  0  0  0  0
  145.9733  135.6442  152.9866 H   0  0  0  0  0  0  0  0  0  0  0  0
  1  2  1  0  0  0  0
  1 18  1  0  0  0  0
  1 19  1  0  0  0  0
  1 20  1  0  0  0  0
  2  3  1  0  0  0  0
  2 21  1  0  0  0  0
  2 22  1  0  0  0  0
  3  4  1  0  0  0  0
  3  5  1  0  0  0  0
  3 23  1  0  0  0  0
  4 24  1  0  0  0  0
  4 25  1  0  0  0  0
  4 26  1  0  0  0  0
  5  6  1  0  0  0  0
  5 27  1  0  0  0  0
  6  7  2  0  0  0  0
  6  8  1  0  0  0  0
  8  9  1  0  0  0  0
  8 10  1  0  0  0  0
  8 28  1  0  0  0  0
  9 29  1  0  0  0  0
  9 30  1  0  0  0  0
  9 31  1  0  0  0  0
 10 11  1  0  0  0  0
 10 32  1  0  0  0  0
 10 40  1  0  0  0  0
 11 12  1  0  0  0  0
 11 33  1  0  0  0  0
 11 34  1  0  0  0  0
 12 13  1  0  0  0  0
 12 35  1  0  0  0  0
 12 36  1  0  0  0  0
 13 17  1  0  0  0  0
 13 14  1  0  0  0  0
 14 15  2  0  0  0  0
 14 37  1  0  0  0  0
 15 16  1  0  0  0  0
 15 38  1  0  0  0  0
 16 17  2  0  0  0  0
 16 39  1  0  0  0  0
M  CHG  1  10   1
M  END
> <s_m_source_file>
AV-unprocessed.smi

> <i_m_source_file_index>
3158

> <i_lp_mmshare_version>
43012

> <i_f3d_flags>
0

> <s_epik_input>
W0NIM11bQ0gyXVtDQEhdKFtDSDNdKVtOSF1DKD1PKVtDQEhdKFtDSDNdKVtOSF1bQ0gyXVtDSDJdbjFbY0hdW2NIXVtjSF1uMQ==

> <s_epik_cmdline>
J2VwaWtfcHl0aG9uJywgJy1waCcsICc3LjAnLCAnLXRuJywgJzgnLCAnLW1hJywgJzIwMCcsICctbWV0YWxfYmluZGluZycsICctaW1hZScsICc8aW5maWxlLm1hZT4nLCAnLW9tYWUnLCAnPG91dGZpbGUubWFlPic=

> <r_lp_tautomer_probability>
1

> <r_epik_Ionization_Penalty>
0.20724

> <r_epik_Ionization_Penalty_Charging>
0.207237

> <r_epik_Ionization_Penalty_Neutral>
3.33806e-06

> <r_epik_State_Penalty>
0.197234

> <r_epik_Charging_Adjusted_Penalty>
0.404471

> <i_epik_Tot_Q>
1

> <i_epik_Tot_abs_Q>
1

> <r_epik_Metal_State_Penalty>
0.197524

> <b_epik_Metal_Only>
0

> <s_lp_Force_Field>
OPLS_2005

> <r_lp_Energy>
5.46656

> <b_lp_Chiralities_Consistent>
1

> <s_lp_Variant>
AV-unprocessed.smi:3158-3

> <Gold.Version>
5.8.1

> <Gold.Id.Protein>
6NUR|6NUR_protein|mol2

> <Gold.PLP.Fitness>
46.1906

> <Gold.PLP.PLP>
-34.0240

> <Gold.PLP.part.hbond>
-2.0000

> <Gold.PLP.part.metal>
0.0000

> <Gold.PLP.part.buried>
-3.0488

> <Gold.PLP.part.nonpolar>
-29.9961

> <Gold.PLP.part.repulsive>
0.2819

> <Gold.PLP.ligand.clash>
0.0000

> <Gold.PLP.ligand.torsion>
1.6113

> <Gold.PLP.Chemscore.Hbond>
3.0000

> <Gold.PLP.Chemscore.CHOScore>
1.9983

> <Gold.PLP.Chemscore.Metal>
0.0000

> <Gold.Chemscore.Hbonds>
donor molecule, donor type, donor heavy atom, donor atom, acceptor molecule, acceptor atom, score
      L1  H     5    27       P1  7948  1.00
      L1  H    10    32       P1  7948  2.00
      L1  C    14    37       P1 10186  1.00
      L1  C    16    39       P1 10747  1.00

> <Gold.PLP.Chemscore.Internal.Correction>
0.3941

> <Gold.Rescore>
     Score         DG    S(hbond)    S(metal)    S(lipo)     H(rot)  DE(clash)    DE(int)     intcor
     13.87     -15.69       1.99        0.00      78.81       2.21       0.03       1.79       ----

> <Gold.Chemscore.Fitness>
13.8661

> <Gold.Chemscore.DG>
-15.6878

> <Gold.Chemscore.ZeroCoef>
-5.4800

> <Gold.Chemscore.Hbond>
1.9918

> <Gold.Chemscore.Metal>
0.0000

> <Gold.Chemscore.Lipo>
78.8124

> <Gold.Chemscore.Internal_Hbond>
0.0000

> <Gold.Chemscore.DEClash>
0.0338

> <Gold.Chemscore.DEInternal>
1.7879

> <Gold.Chemscore.Rot>
2.2132

> <Gold.Chemscore.Internal.Correction>
   9.000000E+99

> <Gold.Chemscore.Hbonds>
donor molecule, donor type, donor heavy atom, donor atom, acceptor molecule, acceptor atom, score
      L1  H     5    27       P1  7948  0.99
      L1  H    10    32       P1  7948  1.00

> <Gold.Chemscore.Hbond.Weighted>
-6.6525

> <Gold.Chemscore.Metal.Weighted>
-0.0000

> <Gold.Chemscore.Lipo.Weighted>
-9.2211

> <Gold.Chemscore.Internal_Hbond.Weighted>
0.0000

> <Gold.Chemscore.DEClash.Weighted>
0.0338

> <Gold.Chemscore.DEInternal.Weighted>
1.7879

> <Gold.Chemscore.Rot.Weighted>
5.6658

> <Gold.Chemscore.Internal.Correction.Weighted>
   9.000000E+99

> <Gold.Protein.RotatedTorsions>
[ 6907 6896 6895 6894 ] final  -51.46 input  -60.11 | X-H torsion
[ 7974 7965 7964 7962 ] final  -75.60 input  175.53 | X-H torsion
[ 8008 7997 7996 7995 ] final  120.31 input   59.86 | X-H torsion
[ 10167 10162 10161 10158 ] final  -86.66 input  -65.29 | X-H torsion
[ 10718 10713 10712 10709 ] final -105.43 input   66.30 | X-H torsion
[ 10763 10752 10751 10750 ] final -129.80 input  -60.55 | X-H torsion
[ 11005 11000 10999 10996 ] final  -66.91 input  -57.11 | X-H torsion

> <Gold.Protein.ActiveResidues>
 VAL166  LYS551  ARG553  GLY616  TRP617  ASP618  TYR619  PRO620  LYS621  CYS622 
 ASP623  PHE694  ASN695  SER759  ASP760  ASP761  ALA762  ILE779  LEU786  VAL792 
 PHE793  MET794  SER795  GLU796  ALA797  LYS798  CYS799  TRP800  GLU811  SER814 

> <Gold.Protein.RotatedAtoms>
  150.8609  134.7960  159.7081 H   0  0  0  0  0  0  0  0  0  0  0  0  # atno 6907 bound_to 6896
  152.4646  134.5102  159.9761 H   0  0  0  0  0  0  0  0  0  0  0  0  # atno 6908 bound_to 6896
  151.5206  133.3429  159.2936 H   0  0  0  0  0  0  0  0  0  0  0  0  # atno 6909 bound_to 6896
  145.6239  140.9356  143.1123 H   0  0  0  0  0  0  0  0  0  0  0  0  # atno 7974 bound_to 7965
  156.2636  140.2833  156.1129 H   0  0  0  0  0  0  0  0  0  0  0  0  # atno 8008 bound_to 7997
  155.1238  140.0392  157.2774 H   0  0  0  0  0  0  0  0  0  0  0  0  # atno 8009 bound_to 7997
  154.6651  140.2575  155.7073 H   0  0  0  0  0  0  0  0  0  0  0  0  # atno 8010 bound_to 7997
  140.3920  143.2700  151.9253 H   0  0  0  0  0  0  0  0  0  0  0  0  # atno 10167 bound_to 10162
  156.0345  130.5563  150.7537 H   0  0  0  0  0  0  0  0  0  0  0  0  # atno 10718 bound_to 10713
  154.8757  135.3883  154.3979 H   0  0  0  0  0  0  0  0  0  0  0  0  # atno 10763 bound_to 10752
  153.4707  135.7030  153.6000 H   0  0  0  0  0  0  0  0  0  0  0  0  # atno 10764 bound_to 10752
  153.4458  135.3845  155.2223 H   0  0  0  0  0  0  0  0  0  0  0  0  # atno 10765 bound_to 10752
  141.1494  133.6708  156.6212 H   0  0  0  0  0  0  0  0  0  0  0  0  # atno 11005 bound_to 11000
  144.7220  139.7998  143.7378 LP  0  0  0  0  0  0  0  0  0  0  0  0  # atno 17320 bound_to 7965
  146.1410  139.4467  143.0109 LP  0  0  0  0  0  0  0  0  0  0  0  0  # atno 17321 bound_to 7965
  139.4788  144.5718  151.8075 LP  0  0  0  0  0  0  0  0  0  0  0  0  # atno 17342 bound_to 10162
  140.4830  144.1422  150.5936 LP  0  0  0  0  0  0  0  0  0  0  0  0  # atno 17343 bound_to 10162
  157.5075  131.0923  151.0239 LP  0  0  0  0  0  0  0  0  0  0  0  0  # atno 17370 bound_to 10713
  157.0604  130.5823  149.5385 LP  0  0  0  0  0  0  0  0  0  0  0  0  # atno 17371 bound_to 10713
  140.3539  134.7745  157.4486 LP  0  0  0  0  0  0  0  0  0  0  0  0  # atno 17394 bound_to 11000
  140.0839  134.5693  155.8512 LP  0  0  0  0  0  0  0  0  0  0  0  0  # atno 17395 bound_to 11000

$$$$
