#       Name:                AV-unprocessed.smi:3155
#       Creating user name   scv26
#       Creation time:       Fri Mar 27 17:44:17 2020


#       File generated by GOLD software.
#

@<TRIPOS>MOLECULE
AV-unprocessed.smi:3155
    41    42     1
SMALL
NO_CHARGES


@<TRIPOS>ATOM
      1 ****        -1.8865  -1.6214  -0.3585 C.3            1 S1                 0.0000
      2 ****        -1.3551  -0.7529   0.7987 C.3            1 S1                 0.0000
      3 ****        -1.7767  -1.2947   2.1804 C.3            1 S1                 0.0000
      4 ****        -3.2168  -1.3878   2.3396 N.pl3          1 S1                 0.0000
      5 ****        -3.9971  -2.5186   2.4620 C.2            1 S1                 0.0000
      6 ****        -5.2915  -2.1055   2.5965 C.2            1 S1                 0.0000
      7 ****        -5.2007  -0.6863   2.5516 C.2            1 S1                 0.0000
      8 ****        -3.9570  -0.2600   2.4009 N.2            1 S1                 0.0000
      9 ****         0.1195  -0.6399   0.7487 N.4            1 S1                 1.0000
     10 ****         0.6530   0.2655  -0.2933 C.3            1 S1                 0.0000
     11 ****         2.1796   0.4088  -0.2156 C.2            1 S1                 0.0000
     12 ****         2.7998  -0.1546   0.6876 O.2            1 S1                 0.0000
     13 ****         2.7974   1.1586  -1.1514 N.am           1 S1                 0.0000
     14 ****         4.2439   1.3645  -1.1966 C.3            1 S1                 0.0000
     15 ****         4.5246   2.0394  -2.5393 C.3            1 S1                 0.0000
     16 ****         3.2202   2.7470  -2.8792 C.3            1 S1                 0.0000
     17 ****         2.1396   1.8679  -2.2486 C.3            1 S1                 0.0000
     18 ****        -2.9749  -1.6829  -0.3438 H              1 S1                 0.0000
     19 ****        -1.4971  -2.6381  -0.3002 H              1 S1                 0.0000
     20 ****        -1.6107  -1.2144  -1.3308 H              1 S1                 0.0000
     21 ****        -1.7676   0.2520   0.6957 H              1 S1                 0.0000
     22 ****        -1.3476  -2.2841   2.3455 H              1 S1                 0.0000
     23 ****        -1.3910  -0.6519   2.9732 H              1 S1                 0.0000
     24 ****        -3.5725  -3.5114   2.4408 H              1 S1                 0.0000
     25 ****        -6.1701  -2.7228   2.7121 H              1 S1                 0.0000
     26 ****        -5.9955   0.0416   2.6251 H              1 S1                 0.0000
     27 ****         0.4301  -0.2766   1.6388 H              1 S1                 0.0000
     28 ****         0.3820  -0.1095  -1.2800 H              1 S1                 0.0000
     29 ****         0.2002   1.2506  -0.1742 H              1 S1                 0.0000
     30 ****         4.5346   2.0173  -0.3721 H              1 S1                 0.0000
     31 ****         4.7973   0.4291  -1.1001 H              1 S1                 0.0000
     32 ****         5.3773   2.7180  -2.5016 H              1 S1                 0.0000
     33 ****         4.7355   1.2803  -3.2936 H              1 S1                 0.0000
     34 ****         3.2087   3.7325  -2.4113 H              1 S1                 0.0000
     35 ****         3.0804   2.8859  -3.9517 H              1 S1                 0.0000
     36 ****         1.7698   1.1416  -2.9737 H              1 S1                 0.0000
     37 ****         1.2973   2.4716  -1.9086 H              1 S1                 0.0000
     38 ****         0.5194  -1.5594   0.6264 H              1 S1                 0.0000
     39 ****        -3.6370   0.6858   2.3450 LP             1 S1                 0.0000
     40 ****         2.3088  -0.7018   1.3654 LP             1 S1                 0.0000
     41 ****         3.7942  -0.0646   0.7429 LP             1 S1                 0.0000
@<TRIPOS>BOND
    1    1    2 1     
    2    1   18 1     
    3    1   19 1     
    4    1   20 1     
    5    2    3 1     
    6    2    9 1     
    7    2   21 1     
    8    3    4 1     
    9    3   22 1     
   10    3   23 1     
   11    4    8 1     
   12    4    5 1     
   13    5    6 2     
   14    5   24 1     
   15    6    7 1     
   16    6   25 1     
   17    7    8 2     
   18    7   26 1     
   19    9   10 1     
   20    9   27 1     
   21    9   38 1     
   22   10   11 1     
   23   10   28 1     
   24   10   29 1     
   25   11   12 2     
   26   11   13 am    
   27   13   17 1     
   28   13   14 1     
   29   14   15 1     
   30   14   30 1     
   31   14   31 1     
   32   15   16 1     
   33   15   32 1     
   34   15   33 1     
   35   16   17 1     
   36   16   34 1     
   37   16   35 1     
   38   17   36 1     
   39   17   37 1     
   40    8   39 1     
   41   12   40 1     
   42   12   41 1     
@<TRIPOS>SUBSTRUCTURE
      1 S1             1
@<TRIPOS>SET
LONE_PAIRS      STATIC     ATOMS    <user>   **** ""
3 39 40 41
DONOR_HYDROGENS      STATIC     ATOMS    <user>   **** ""
2 27 38
ATOM$BLUE        STATIC     ATOMS    COLORGROUP SYSTEM
3 39 40 41
ATOM$RED        STATIC     ATOMS    COLORGROUP SYSTEM
2 27 38
