AV-unprocessed.smi:671|AV-procd|sdf|3283|dock3
  -GOLD-   22720 0243D 1   1.00000     0.00000
 Structure written by MMmdl.
 50 51  0  0  0  0  0  0  0  0  2 V2000
  147.3534  141.8555  154.0730 C   0  0  0  0  0  0  0  0  0  0  0  0
  148.6016  141.4625  154.7902 C   0  0  0  0  0  0  0  0  0  0  0  0
  149.2763  142.2695  155.6520 N   0  3  0  0  0  0  0  0  0  0  0  0
  150.3562  141.6360  156.1304 N   0  0  0  0  0  0  0  0  0  0  0  0
  151.2277  142.3328  157.0769 C   0  0  0  0  0  0  0  0  0  0  0  0
  150.4422  140.3830  155.6007 C   0  0  0  0  0  0  0  0  0  0  0  0
  151.5303  139.4095  155.9201 C   0  0  0  0  0  0  0  0  0  0  0  0
  149.3310  140.2681  154.7535 C   0  0  0  0  0  0  0  0  0  0  0  0
  148.9661  139.0653  153.9275 C   0  0  0  0  0  0  0  0  0  0  0  0
  147.5722  138.4977  154.2597 C   0  0  2  0  0  0  0  0  0  0  0  0
  147.3865  138.1873  155.7560 C   0  0  0  0  0  0  0  0  0  0  0  0
  147.3532  137.2847  153.4682 N   0  0  0  0  0  0  0  0  0  0  0  0
  146.2600  136.5017  153.4231 C   0  0  0  0  0  0  0  0  0  0  0  0
  145.2590  136.7512  154.0911 O   0  0  0  0  0  0  0  0  0  0  0  0
  146.3606  135.4490  152.5941 N   0  0  0  0  0  0  0  0  0  0  0  0
  145.3514  134.4106  152.3888 C   0  0  1  0  0  0  0  0  0  0  0  0
  144.4448  134.7791  151.1958 C   0  0  0  0  0  0  0  0  0  0  0  0
  144.5471  133.6239  150.1953 C   0  0  0  0  0  0  0  0  0  0  0  0
  145.8774  132.9468  150.5117 C   0  0  0  0  0  0  0  0  0  0  0  0
  145.9840  133.0438  152.0345 C   0  0  1  0  0  0  0  0  0  0  0  0
  147.4001  132.7734  152.5743 C   0  0  0  0  0  0  0  0  0  0  0  0
  146.6024  141.0703  154.1571 H   0  0  0  0  0  0  0  0  0  0  0  0
  147.5652  142.0225  153.0169 H   0  0  0  0  0  0  0  0  0  0  0  0
  146.9404  142.7725  154.4941 H   0  0  0  0  0  0  0  0  0  0  0  0
  151.5445  141.6371  157.8542 H   0  0  0  0  0  0  0  0  0  0  0  0
  150.6928  143.1648  157.5370 H   0  0  0  0  0  0  0  0  0  0  0  0
  152.1017  142.7087  156.5444 H   0  0  0  0  0  0  0  0  0  0  0  0
  151.3652  138.4554  155.4214 H   0  0  0  0  0  0  0  0  0  0  0  0
  151.5692  139.2292  156.9944 H   0  0  0  0  0  0  0  0  0  0  0  0
  152.4938  139.8050  155.5984 H   0  0  0  0  0  0  0  0  0  0  0  0
  148.9934  139.3386  152.8716 H   0  0  0  0  0  0  0  0  0  0  0  0
  149.7177  138.2830  154.0362 H   0  0  0  0  0  0  0  0  0  0  0  0
  146.8402  139.2536  153.9721 H   0  0  0  0  0  0  0  0  0  0  0  0
  147.4858  139.0852  156.3659 H   0  0  0  0  0  0  0  0  0  0  0  0
  148.1228  137.4629  156.1053 H   0  0  0  0  0  0  0  0  0  0  0  0
  146.3969  137.7740  155.9540 H   0  0  0  0  0  0  0  0  0  0  0  0
  148.1058  137.0300  152.8446 H   0  0  0  0  0  0  0  0  0  0  0  0
  147.2218  135.3422  152.0787 H   0  0  0  0  0  0  0  0  0  0  0  0
  144.7402  134.2936  153.2855 H   0  0  0  0  0  0  0  0  0  0  0  0
  143.4125  134.9406  151.5080 H   0  0  0  0  0  0  0  0  0  0  0  0
  144.7797  135.7026  150.7204 H   0  0  0  0  0  0  0  0  0  0  0  0
  143.7313  132.9202  150.3662 H   0  0  0  0  0  0  0  0  0  0  0  0
  144.4830  133.9589  149.1596 H   0  0  0  0  0  0  0  0  0  0  0  0
  145.9177  131.9178  150.1528 H   0  0  0  0  0  0  0  0  0  0  0  0
  146.6925  133.4980  150.0405 H   0  0  0  0  0  0  0  0  0  0  0  0
  145.3280  132.2758  152.4478 H   0  0  0  0  0  0  0  0  0  0  0  0
  148.1349  133.4592  152.1514 H   0  0  0  0  0  0  0  0  0  0  0  0
  147.7197  131.7605  152.3286 H   0  0  0  0  0  0  0  0  0  0  0  0
  147.4306  132.8745  153.6595 H   0  0  0  0  0  0  0  0  0  0  0  0
  149.0561  143.2160  155.9356 H   0  0  0  0  0  0  0  0  0  0  0  0
  1  2  1  0  0  0  0
  1 22  1  0  0  0  0
  1 23  1  0  0  0  0
  1 24  1  0  0  0  0
  2  8  1  0  0  0  0
  2  3  2  0  0  0  0
  3  4  1  0  0  0  0
  3 50  1  0  0  0  0
  4  5  1  0  0  0  0
  4  6  1  0  0  0  0
  5 25  1  0  0  0  0
  5 26  1  0  0  0  0
  5 27  1  0  0  0  0
  6  7  1  0  0  0  0
  6  8  2  0  0  0  0
  7 28  1  0  0  0  0
  7 29  1  0  0  0  0
  7 30  1  0  0  0  0
  8  9  1  0  0  0  0
  9 10  1  0  0  0  0
  9 31  1  0  0  0  0
  9 32  1  0  0  0  0
 10 11  1  0  0  0  0
 10 12  1  0  0  0  0
 10 33  1  0  0  0  0
 11 34  1  0  0  0  0
 11 35  1  0  0  0  0
 11 36  1  0  0  0  0
 12 13  1  0  0  0  0
 12 37  1  0  0  0  0
 13 14  2  0  0  0  0
 13 15  1  0  0  0  0
 15 16  1  0  0  0  0
 15 38  1  0  0  0  0
 16 20  1  0  0  0  0
 16 17  1  0  0  0  0
 16 39  1  0  0  0  0
 17 18  1  0  0  0  0
 17 40  1  0  0  0  0
 17 41  1  0  0  0  0
 18 19  1  0  0  0  0
 18 42  1  0  0  0  0
 18 43  1  0  0  0  0
 19 20  1  0  0  0  0
 19 44  1  0  0  0  0
 19 45  1  0  0  0  0
 20 21  1  0  0  0  0
 20 46  1  0  0  0  0
 21 47  1  0  0  0  0
 21 48  1  0  0  0  0
 21 49  1  0  0  0  0
M  CHG  1   3   1
M  END
> <s_m_source_file>
AV-unprocessed.smi

> <i_m_source_file_index>
671

> <i_lp_mmshare_version>
43012

> <i_f3d_flags>
0

> <s_epik_input>
W0NIM11jMW5uKFtDSDNdKWMoW0NIM10pYzFbQ0gyXVtDQEhdKFtDSDNdKVtOSF1DKD1PKVtOSF1bQ0BASF0yW0NIMl1bQ0gyXVtDSDJdW0NASF0yW0NIM10=

> <s_epik_cmdline>
J2VwaWtfcHl0aG9uJywgJy1waCcsICc3LjAnLCAnLXRuJywgJzgnLCAnLW1hJywgJzIwMCcsICctbWV0YWxfYmluZGluZycsICctaW1hZScsICc8aW5maWxlLm1hZT4nLCAnLW9tYWUnLCAnPG91dGZpbGUubWFlPic=

> <r_lp_tautomer_probability>
1

> <r_epik_Ionization_Penalty>
2.28705

> <r_epik_Ionization_Penalty_Charging>
2.28698

> <r_epik_Ionization_Penalty_Neutral>
6.23157e-05

> <r_epik_State_Penalty>
2.43671

> <r_epik_Charging_Adjusted_Penalty>
4.72369

> <i_epik_Tot_Q>
1

> <i_epik_Tot_abs_Q>
1

> <r_epik_Metal_State_Penalty>
2.44911

> <b_epik_Metal_Only>
0

> <s_lp_Force_Field>
OPLS_2005

> <r_lp_Energy>
36.6945

> <b_lp_Chiralities_Consistent>
1

> <s_lp_Variant>
AV-unprocessed.smi:671-11

> <Gold.Version>
5.8.1

> <Gold.Id.Protein>
6NUR|6NUR_protein|mol2

> <Gold.PLP.Fitness>
47.4876

> <Gold.PLP.PLP>
-36.7544

> <Gold.PLP.part.hbond>
-2.7040

> <Gold.PLP.part.metal>
0.0000

> <Gold.PLP.part.buried>
-4.3078

> <Gold.PLP.part.nonpolar>
-31.0235

> <Gold.PLP.part.repulsive>
0.2268

> <Gold.PLP.ligand.clash>
0.0000

> <Gold.PLP.ligand.torsion>
0.3891

> <Gold.PLP.Chemscore.Hbond>
3.8233

> <Gold.PLP.Chemscore.CHOScore>
0.0000

> <Gold.PLP.Chemscore.Metal>
0.0000

> <Gold.Chemscore.Hbonds>
donor molecule, donor type, donor heavy atom, donor atom, acceptor molecule, acceptor atom, score
      L1  H     3    50       P1  8028  2.00
      L1  H    12    37       P1  7948  0.98
      L1  H    15    38       P1  7948  0.83

> <Gold.PLP.Chemscore.Internal.Correction>
0.0418

> <Gold.Rescore>
     Score         DG    S(hbond)    S(metal)    S(lipo)     H(rot)  DE(clash)    DE(int)     intcor
     20.19     -20.83       2.73        0.00      86.30       1.51       0.24       0.40       ----

> <Gold.Chemscore.Fitness>
20.1877

> <Gold.Chemscore.DG>
-20.8256

> <Gold.Chemscore.ZeroCoef>
-5.4800

> <Gold.Chemscore.Hbond>
2.7255

> <Gold.Chemscore.Metal>
0.0000

> <Gold.Chemscore.Lipo>
86.3015

> <Gold.Chemscore.Internal_Hbond>
0.0000

> <Gold.Chemscore.DEClash>
0.2416

> <Gold.Chemscore.DEInternal>
0.3963

> <Gold.Chemscore.Rot>
1.5057

> <Gold.Chemscore.Internal.Correction>
   9.000000E+99

> <Gold.Chemscore.Hbonds>
donor molecule, donor type, donor heavy atom, donor atom, acceptor molecule, acceptor atom, score
      L1  H     3    50       P1  8028  0.91
      L1  H    12    37       P1  7948  0.91
      L1  H    15    38       P1  7948  0.81

> <Gold.Chemscore.Hbond.Weighted>
-9.1030

> <Gold.Chemscore.Metal.Weighted>
-0.0000

> <Gold.Chemscore.Lipo.Weighted>
-10.0973

> <Gold.Chemscore.Internal_Hbond.Weighted>
0.0000

> <Gold.Chemscore.DEClash.Weighted>
0.2416

> <Gold.Chemscore.DEInternal.Weighted>
0.3963

> <Gold.Chemscore.Rot.Weighted>
3.8547

> <Gold.Chemscore.Internal.Correction.Weighted>
   9.000000E+99

> <Gold.Protein.RotatedTorsions>
[ 6907 6896 6895 6894 ] final  138.23 input  -60.11 | X-H torsion
[ 7974 7965 7964 7962 ] final   83.12 input  175.53 | X-H torsion
[ 8008 7997 7996 7995 ] final  139.32 input   59.86 | X-H torsion
[ 10167 10162 10161 10158 ] final  -15.50 input  -65.29 | X-H torsion
[ 10718 10713 10712 10709 ] final  -47.93 input   66.30 | X-H torsion
[ 10763 10752 10751 10750 ] final -119.60 input  -60.55 | X-H torsion
[ 11005 11000 10999 10996 ] final  -67.81 input  -57.11 | X-H torsion

> <Gold.Protein.ActiveResidues>
 VAL166  LYS551  ARG553  GLY616  TRP617  ASP618  TYR619  PRO620  LYS621  CYS622 
 ASP623  PHE694  ASN695  SER759  ASP760  ASP761  ALA762  ILE779  LEU786  VAL792 
 PHE793  MET794  SER795  GLU796  ALA797  LYS798  CYS799  TRP800  GLU811  SER814 

> <Gold.Protein.RotatedAtoms>
  152.2690  133.5365  159.5427 H   0  0  0  0  0  0  0  0  0  0  0  0  # atno 6907 bound_to 6896
  150.7152  134.0724  159.3878 H   0  0  0  0  0  0  0  0  0  0  0  0  # atno 6908 bound_to 6896
  151.8639  135.0514  160.0523 H   0  0  0  0  0  0  0  0  0  0  0  0  # atno 6909 bound_to 6896
  145.6161  139.2377  143.2165 H   0  0  0  0  0  0  0  0  0  0  0  0  # atno 7974 bound_to 7965
  156.2990  140.2370  156.4219 H   0  0  0  0  0  0  0  0  0  0  0  0  # atno 8008 bound_to 7997
  154.8348  140.0431  157.1522 H   0  0  0  0  0  0  0  0  0  0  0  0  # atno 8009 bound_to 7997
  154.9168  140.2998  155.5241 H   0  0  0  0  0  0  0  0  0  0  0  0  # atno 8010 bound_to 7997
  140.7219  143.5211  150.9632 H   0  0  0  0  0  0  0  0  0  0  0  0  # atno 10167 bound_to 10162
  156.2036  130.4157  149.9207 H   0  0  0  0  0  0  0  0  0  0  0  0  # atno 10718 bound_to 10713
  154.8622  135.4232  154.2326 H   0  0  0  0  0  0  0  0  0  0  0  0  # atno 10763 bound_to 10752
  153.3307  135.6988  153.6956 H   0  0  0  0  0  0  0  0  0  0  0  0  # atno 10764 bound_to 10752
  153.5973  135.3543  155.2906 H   0  0  0  0  0  0  0  0  0  0  0  0  # atno 10765 bound_to 10752
  141.1517  133.6727  156.6349 H   0  0  0  0  0  0  0  0  0  0  0  0  # atno 11005 bound_to 11000
  146.1467  140.6982  142.9341 LP  0  0  0  0  0  0  0  0  0  0  0  0  # atno 17320 bound_to 7965
  144.7250  140.4495  143.6980 LP  0  0  0  0  0  0  0  0  0  0  0  0  # atno 17321 bound_to 7965
  139.8929  143.6931  152.3143 LP  0  0  0  0  0  0  0  0  0  0  0  0  # atno 17342 bound_to 10162
  139.7253  144.7594  151.0888 LP  0  0  0  0  0  0  0  0  0  0  0  0  # atno 17343 bound_to 10162
  156.6909  130.8895  151.3588 LP  0  0  0  0  0  0  0  0  0  0  0  0  # atno 17370 bound_to 10713
  157.7000  130.9322  150.0756 LP  0  0  0  0  0  0  0  0  0  0  0  0  # atno 17371 bound_to 10713
  140.3438  134.7827  157.4417 LP  0  0  0  0  0  0  0  0  0  0  0  0  # atno 17394 bound_to 11000
  140.0916  134.5593  155.8438 LP  0  0  0  0  0  0  0  0  0  0  0  0  # atno 17395 bound_to 11000

$$$$
