AV-unprocessed.smi:2541|AV-procd|sdf|9989|dock10
  -GOLD-   2272014 43D 1   1.00000     0.00000
 Structure written by MMmdl.
 38 39  0  0  0  0  0  0  0  0  1 V2000
  148.1908  137.6358  155.5869 O   0  0  0  0  0  0  0  0  0  0  0  0
  148.2598  138.4049  154.6265 C   0  0  0  0  0  0  0  0  0  0  0  0
  149.1706  139.6394  154.6586 C   0  0  0  0  0  0  0  0  0  0  0  0
  150.6266  139.2736  154.7959 C   0  0  0  0  0  0  0  0  0  0  0  0
  151.2316  137.9929  154.6596 C   0  0  0  0  0  0  0  0  0  0  0  0
  152.5554  138.2397  154.8821 C   0  0  0  0  0  0  0  0  0  0  0  0
  152.7583  139.5588  155.1271 O   0  0  0  0  0  0  0  0  0  0  0  0
  151.5217  140.2117  155.0670 N   0  0  0  0  0  0  0  0  0  0  0  0
  147.5611  138.2275  153.4944 N   0  0  0  0  0  0  0  0  0  0  0  0
  146.6194  137.1400  153.2432 C   0  0  0  0  0  0  0  0  0  0  0  0
  145.9622  137.2685  151.8499 C   0  0  2  0  0  0  0  0  0  0  0  0
  145.0517  138.3506  151.9227 O   0  0  0  0  0  0  0  0  0  0  0  0
  145.1749  136.0093  151.3918 C   0  0  0  0  0  0  0  0  0  0  0  0
  144.0201  135.6380  152.3551 C   0  0  0  0  0  0  0  0  0  0  0  0
  143.2667  134.3752  151.9055 C   0  0  0  0  0  0  0  0  0  0  0  0
  144.2171  133.1825  151.7426 C   0  0  0  0  0  0  0  0  0  0  0  0
  145.3556  133.5263  150.7743 C   0  0  0  0  0  0  0  0  0  0  0  0
  146.1110  134.7846  151.2297 C   0  0  0  0  0  0  0  0  0  0  0  0
  149.0149  140.2078  153.7411 H   0  0  0  0  0  0  0  0  0  0  0  0
  148.8618  140.2878  155.4801 H   0  0  0  0  0  0  0  0  0  0  0  0
  150.7660  137.0438  154.4394 H   0  0  0  0  0  0  0  0  0  0  0  0
  153.4347  137.6127  154.8985 H   0  0  0  0  0  0  0  0  0  0  0  0
  147.6767  138.9067  152.7564 H   0  0  0  0  0  0  0  0  0  0  0  0
  147.2157  136.2320  153.3049 H   0  0  0  0  0  0  0  0  0  0  0  0
  145.8648  137.0604  154.0278 H   0  0  0  0  0  0  0  0  0  0  0  0
  146.7240  137.5055  151.1056 H   0  0  0  0  0  0  0  0  0  0  0  0
  144.4687  138.3043  151.1803 H   0  0  0  0  0  0  0  0  0  0  0  0
  144.7339  136.2249  150.4170 H   0  0  0  0  0  0  0  0  0  0  0  0
  144.4133  135.4890  153.3617 H   0  0  0  0  0  0  0  0  0  0  0  0
  143.2947  136.4468  152.4221 H   0  0  0  0  0  0  0  0  0  0  0  0
  142.4871  134.1315  152.6280 H   0  0  0  0  0  0  0  0  0  0  0  0
  142.7601  134.5704  150.9595 H   0  0  0  0  0  0  0  0  0  0  0  0
  144.6305  132.9065  152.7136 H   0  0  0  0  0  0  0  0  0  0  0  0
  143.6674  132.3134  151.3801 H   0  0  0  0  0  0  0  0  0  0  0  0
  146.0458  132.6854  150.7009 H   0  0  0  0  0  0  0  0  0  0  0  0
  144.9520  133.6839  149.7734 H   0  0  0  0  0  0  0  0  0  0  0  0
  146.8980  134.9938  150.5050 H   0  0  0  0  0  0  0  0  0  0  0  0
  146.6147  134.5807  152.1755 H   0  0  0  0  0  0  0  0  0  0  0  0
  1  2  2  0  0  0  0
  2  3  1  0  0  0  0
  2  9  1  0  0  0  0
  3  4  1  0  0  0  0
  3 19  1  0  0  0  0
  3 20  1  0  0  0  0
  4  8  2  0  0  0  0
  4  5  1  0  0  0  0
  5  6  2  0  0  0  0
  5 21  1  0  0  0  0
  6  7  1  0  0  0  0
  6 22  1  0  0  0  0
  7  8  1  0  0  0  0
  9 10  1  0  0  0  0
  9 23  1  0  0  0  0
 10 11  1  0  0  0  0
 10 24  1  0  0  0  0
 10 25  1  0  0  0  0
 11 12  1  0  0  0  0
 11 13  1  0  0  0  0
 11 26  1  0  0  0  0
 12 27  1  0  0  0  0
 13 18  1  0  0  0  0
 13 14  1  0  0  0  0
 13 28  1  0  0  0  0
 14 15  1  0  0  0  0
 14 29  1  0  0  0  0
 14 30  1  0  0  0  0
 15 16  1  0  0  0  0
 15 31  1  0  0  0  0
 15 32  1  0  0  0  0
 16 17  1  0  0  0  0
 16 33  1  0  0  0  0
 16 34  1  0  0  0  0
 17 18  1  0  0  0  0
 17 35  1  0  0  0  0
 17 36  1  0  0  0  0
 18 37  1  0  0  0  0
 18 38  1  0  0  0  0
M  END
> <s_m_source_file>
AV-unprocessed.smi

> <i_m_source_file_index>
2541

> <i_lp_mmshare_version>
43012

> <i_f3d_flags>
0

> <s_epik_input>
bjFvW2NIXVtjSF1jMVtDSDJdQyg9TylbTkhdW0NIMl1bQ0BIXShbT0hdKVtDSF0yW0NIMl1bQ0gyXVtDSDJdW0NIMl1bQ0gyXTI=

> <s_epik_cmdline>
J2VwaWtfcHl0aG9uJywgJy1waCcsICc3LjAnLCAnLXRuJywgJzgnLCAnLW1hJywgJzIwMCcsICctbWV0YWxfYmluZGluZycsICctaW1hZScsICc8aW5maWxlLm1hZT4nLCAnLW9tYWUnLCAnPG91dGZpbGUubWFlPic=

> <r_lp_tautomer_probability>
1

> <r_epik_Ionization_Penalty>
2.3322e-07

> <r_epik_Ionization_Penalty_Charging>
0

> <r_epik_Ionization_Penalty_Neutral>
2.3322e-07

> <r_epik_State_Penalty>
-0

> <r_epik_Charging_Adjusted_Penalty>
0

> <i_epik_Tot_Q>
0

> <i_epik_Tot_abs_Q>
0

> <r_epik_Metal_State_Penalty>
-0

> <b_epik_Metal_Only>
0

> <s_lp_Force_Field>
OPLS_2005

> <r_lp_Energy>
14.1188

> <b_lp_Chiralities_Consistent>
1

> <s_lp_Variant>
AV-unprocessed.smi:2541-1

> <Gold.Version>
5.8.1

> <Gold.Id.Protein>
6NUR|6NUR_protein|mol2

> <Gold.PLP.Fitness>
40.6841

> <Gold.PLP.PLP>
-32.5301

> <Gold.PLP.part.hbond>
-6.0000

> <Gold.PLP.part.metal>
0.0000

> <Gold.PLP.part.buried>
-1.9967

> <Gold.PLP.part.nonpolar>
-25.3363

> <Gold.PLP.part.repulsive>
0.1329

> <Gold.PLP.ligand.clash>
0.0000

> <Gold.PLP.ligand.torsion>
0.2101

> <Gold.PLP.Chemscore.Hbond>
2.8500

> <Gold.PLP.Chemscore.CHOScore>
0.0000

> <Gold.PLP.Chemscore.Metal>
0.0000

> <Gold.Chemscore.Hbonds>
donor molecule, donor type, donor heavy atom, donor atom, acceptor molecule, acceptor atom, score
      L1  H    12    27       P1 10171  0.96
      P1  H  7989  7998       L1     8  0.86
      P1  H  7997  8008       L1     7  1.00

> <Gold.PLP.Chemscore.Internal.Correction>
0.0242

> <Gold.Rescore>
     Score         DG    S(hbond)    S(metal)    S(lipo)     H(rot)  DE(clash)    DE(int)     intcor
     15.23     -16.33       2.66        0.00      69.58       2.42       0.93       0.18       ----

> <Gold.Chemscore.Fitness>
15.2255

> <Gold.Chemscore.DG>
-16.3315

> <Gold.Chemscore.ZeroCoef>
-5.4800

> <Gold.Chemscore.Hbond>
2.6642

> <Gold.Chemscore.Metal>
0.0000

> <Gold.Chemscore.Lipo>
69.5803

> <Gold.Chemscore.Internal_Hbond>
0.0000

> <Gold.Chemscore.DEClash>
0.9309

> <Gold.Chemscore.DEInternal>
0.1750

> <Gold.Chemscore.Rot>
2.4172

> <Gold.Chemscore.Internal.Correction>
   9.000000E+99

> <Gold.Chemscore.Hbonds>
donor molecule, donor type, donor heavy atom, donor atom, acceptor molecule, acceptor atom, score
      L1  H    12    27       P1 10171  0.91
      P1  H  7989  7998       L1     8  0.04
      P1  H  7997  8008       L1     7  0.97

> <Gold.Chemscore.Hbond.Weighted>
-8.8986

> <Gold.Chemscore.Metal.Weighted>
-0.0000

> <Gold.Chemscore.Lipo.Weighted>
-8.1409

> <Gold.Chemscore.Internal_Hbond.Weighted>
0.0000

> <Gold.Chemscore.DEClash.Weighted>
0.9309

> <Gold.Chemscore.DEInternal.Weighted>
0.1750

> <Gold.Chemscore.Rot.Weighted>
6.1880

> <Gold.Chemscore.Internal.Correction.Weighted>
   9.000000E+99

> <Gold.Protein.RotatedTorsions>
[ 6907 6896 6895 6894 ] final   56.26 input  -60.11 | X-H torsion
[ 7974 7965 7964 7962 ] final -132.30 input  175.53 | X-H torsion
[ 8008 7997 7996 7995 ] final  -23.42 input   59.86 | X-H torsion
[ 10167 10162 10161 10158 ] final -169.53 input  -65.29 | X-H torsion
[ 10718 10713 10712 10709 ] final  174.07 input   66.30 | X-H torsion
[ 10763 10752 10751 10750 ] final  -38.15 input  -60.55 | X-H torsion
[ 11005 11000 10999 10996 ] final -177.53 input  -57.11 | X-H torsion

> <Gold.Protein.ActiveResidues>
 VAL166  LYS551  ARG553  GLY616  TRP617  ASP618  TYR619  PRO620  LYS621  CYS622 
 ASP623  PHE694  ASN695  SER759  ASP760  ASP761  ALA762  ILE779  LEU786  VAL792 
 PHE793  MET794  SER795  GLU796  ALA797  LYS798  CYS799  TRP800  GLU811  SER814 

> <Gold.Protein.RotatedAtoms>
  152.3619  134.6860  160.0204 H   0  0  0  0  0  0  0  0  0  0  0  0  # atno 6907 bound_to 6896
  151.7181  133.3308  159.3316 H   0  0  0  0  0  0  0  0  0  0  0  0  # atno 6908 bound_to 6896
  150.7610  134.6407  159.6280 H   0  0  0  0  0  0  0  0  0  0  0  0  # atno 6909 bound_to 6896
  144.9298  140.7114  143.4913 H   0  0  0  0  0  0  0  0  0  0  0  0  # atno 7974 bound_to 7965
  154.4586  140.1981  156.0308 H   0  0  0  0  0  0  0  0  0  0  0  0  # atno 8008 bound_to 7997
  156.0796  140.3273  155.7648 H   0  0  0  0  0  0  0  0  0  0  0  0  # atno 8009 bound_to 7997
  155.5134  140.0563  157.2910 H   0  0  0  0  0  0  0  0  0  0  0  0  # atno 8010 bound_to 7997
  139.5917  144.1199  152.1642 H   0  0  0  0  0  0  0  0  0  0  0  0  # atno 10167 bound_to 10162
  156.9550  131.0043  151.2940 H   0  0  0  0  0  0  0  0  0  0  0  0  # atno 10718 bound_to 10713
  153.9080  135.6795  153.4752 H   0  0  0  0  0  0  0  0  0  0  0  0  # atno 10763 bound_to 10752
  153.1093  135.4790  154.9005 H   0  0  0  0  0  0  0  0  0  0  0  0  # atno 10764 bound_to 10752
  154.7541  135.3193  154.8457 H   0  0  0  0  0  0  0  0  0  0  0  0  # atno 10765 bound_to 10752
  140.4398  134.6442  157.4752 H   0  0  0  0  0  0  0  0  0  0  0  0  # atno 11005 bound_to 11000
  145.3161  139.1803  143.4613 LP  0  0  0  0  0  0  0  0  0  0  0  0  # atno 17320 bound_to 7965
  146.3242  140.3172  142.8631 LP  0  0  0  0  0  0  0  0  0  0  0  0  # atno 17321 bound_to 7965
  140.0775  144.5728  150.7146 LP  0  0  0  0  0  0  0  0  0  0  0  0  # atno 17342 bound_to 10162
  140.7178  143.2561  151.4377 LP  0  0  0  0  0  0  0  0  0  0  0  0  # atno 17343 bound_to 10162
  157.5696  130.8301  149.8374 LP  0  0  0  0  0  0  0  0  0  0  0  0  # atno 17370 bound_to 10713
  156.0346  130.3755  150.1594 LP  0  0  0  0  0  0  0  0  0  0  0  0  # atno 17371 bound_to 10713
  140.0077  134.6738  155.9429 LP  0  0  0  0  0  0  0  0  0  0  0  0  # atno 17394 bound_to 11000
  141.1710  133.6537  156.4652 LP  0  0  0  0  0  0  0  0  0  0  0  0  # atno 17395 bound_to 11000

$$$$
