AV-unprocessed.smi:1727|AV-procd|sdf|6966|dock6
  -GOLD-   22720 8183D 1   1.00000     0.00000
 Structure written by MMmdl.
 50 52  0  0  0  0  0  0  0  0  2 V2000
  151.2246  141.1200  158.3248 C   0  0  0  0  0  0  0  0  0  0  0  0
  152.0854  140.1762  157.4819 C   0  0  0  0  0  0  0  0  0  0  0  0
  152.9972  139.5693  158.0436 O   0  0  0  0  0  0  0  0  0  0  0  0
  151.8221  140.0417  156.1597 N   0  0  0  0  0  0  0  0  0  0  0  0
  152.5107  139.1227  155.2450 C   0  0  0  0  0  0  0  0  0  0  0  0
  151.5452  137.9871  154.8618 C   0  0  0  0  0  0  0  0  0  0  0  0
  150.2383  138.5437  154.2504 C   0  0  0  0  0  0  0  0  0  0  0  0
  149.2558  137.4784  154.0753 N   0  0  0  0  0  0  0  0  0  0  0  0
  148.4507  137.0032  155.0358 C   0  0  0  0  0  0  0  0  0  0  0  0
  148.4461  137.4218  156.1933 O   0  0  0  0  0  0  0  0  0  0  0  0
  147.6452  136.0374  154.5638 N   0  0  0  0  0  0  0  0  0  0  0  0
  146.6313  135.3319  155.2703 C   0  0  0  0  0  0  0  0  0  0  0  0
  146.5230  135.4302  156.6812 C   0  0  0  0  0  0  0  0  0  0  0  0
  145.5594  134.6673  157.3669 C   0  0  0  0  0  0  0  0  0  0  0  0
  144.7278  133.8042  156.6331 C   0  0  0  0  0  0  0  0  0  0  0  0
  144.8634  133.7238  155.2932 N   0  3  0  0  0  0  0  0  0  0  0  0
  145.7617  134.4428  154.5744 C   0  0  0  0  0  0  0  0  0  0  0  0
  145.7806  134.2645  153.1722 N   0  0  0  0  0  0  0  0  0  0  0  0
  145.0192  133.1841  152.5554 C   0  0  0  0  0  0  0  0  0  0  0  0
  144.9810  133.5255  151.0683 C   0  0  0  0  0  0  0  0  0  0  0  0
  144.9051  135.0493  151.0841 C   0  0  0  0  0  0  0  0  0  0  0  0
  145.7362  135.4419  152.3103 C   0  0  0  0  0  0  0  0  0  0  0  0
  149.6366  139.6615  155.1290 C   0  0  0  0  0  0  0  0  0  0  0  0
  150.6958  140.7143  155.5019 C   0  0  0  0  0  0  0  0  0  0  0  0
  151.2725  142.1383  157.9374 H   0  0  0  0  0  0  0  0  0  0  0  0
  151.5753  141.1404  159.3572 H   0  0  0  0  0  0  0  0  0  0  0  0
  150.1853  140.7907  158.3332 H   0  0  0  0  0  0  0  0  0  0  0  0
  152.8141  139.6694  154.3511 H   0  0  0  0  0  0  0  0  0  0  0  0
  153.4296  138.7051  155.6537 H   0  0  0  0  0  0  0  0  0  0  0  0
  152.0326  137.3108  154.1587 H   0  0  0  0  0  0  0  0  0  0  0  0
  151.3169  137.3969  155.7506 H   0  0  0  0  0  0  0  0  0  0  0  0
  150.4714  138.9788  153.2764 H   0  0  0  0  0  0  0  0  0  0  0  0
  149.1882  137.0742  153.1528 H   0  0  0  0  0  0  0  0  0  0  0  0
  147.6881  135.8649  153.5699 H   0  0  0  0  0  0  0  0  0  0  0  0
  147.1831  136.0654  157.2529 H   0  0  0  0  0  0  0  0  0  0  0  0
  145.4697  134.7345  158.4414 H   0  0  0  0  0  0  0  0  0  0  0  0
  143.9666  133.1765  157.0732 H   0  0  0  0  0  0  0  0  0  0  0  0
  145.4846  132.2147  152.7365 H   0  0  0  0  0  0  0  0  0  0  0  0
  144.0025  133.1583  152.9500 H   0  0  0  0  0  0  0  0  0  0  0  0
  145.9053  133.2034  150.5866 H   0  0  0  0  0  0  0  0  0  0  0  0
  144.1449  133.0597  150.5459 H   0  0  0  0  0  0  0  0  0  0  0  0
  145.2686  135.5042  150.1621 H   0  0  0  0  0  0  0  0  0  0  0  0
  143.8696  135.3618  151.2262 H   0  0  0  0  0  0  0  0  0  0  0  0
  145.3094  136.3088  152.8170 H   0  0  0  0  0  0  0  0  0  0  0  0
  146.7530  135.6923  152.0060 H   0  0  0  0  0  0  0  0  0  0  0  0
  148.8047  140.1391  154.6100 H   0  0  0  0  0  0  0  0  0  0  0  0
  149.2247  139.2334  156.0444 H   0  0  0  0  0  0  0  0  0  0  0  0
  150.2450  141.4899  156.1228 H   0  0  0  0  0  0  0  0  0  0  0  0
  151.0515  141.2235  154.6051 H   0  0  0  0  0  0  0  0  0  0  0  0
  144.2450  133.0880  154.7892 H   0  0  0  0  0  0  0  0  0  0  0  0
  1  2  1  0  0  0  0
  1 25  1  0  0  0  0
  1 26  1  0  0  0  0
  1 27  1  0  0  0  0
  2  3  2  0  0  0  0
  2  4  1  0  0  0  0
  4 24  1  0  0  0  0
  4  5  1  0  0  0  0
  5  6  1  0  0  0  0
  5 28  1  0  0  0  0
  5 29  1  0  0  0  0
  6  7  1  0  0  0  0
  6 30  1  0  0  0  0
  6 31  1  0  0  0  0
  7  8  1  0  0  0  0
  7 23  1  0  0  0  0
  7 32  1  0  0  0  0
  8  9  1  0  0  0  0
  8 33  1  0  0  0  0
  9 10  2  0  0  0  0
  9 11  1  0  0  0  0
 11 12  1  0  0  0  0
 11 34  1  0  0  0  0
 12 17  1  0  0  0  0
 12 13  2  0  0  0  0
 13 14  1  0  0  0  0
 13 35  1  0  0  0  0
 14 15  2  0  0  0  0
 14 36  1  0  0  0  0
 15 16  1  0  0  0  0
 15 37  1  0  0  0  0
 16 17  2  0  0  0  0
 16 50  1  0  0  0  0
 17 18  1  0  0  0  0
 18 22  1  0  0  0  0
 18 19  1  0  0  0  0
 19 20  1  0  0  0  0
 19 38  1  0  0  0  0
 19 39  1  0  0  0  0
 20 21  1  0  0  0  0
 20 40  1  0  0  0  0
 20 41  1  0  0  0  0
 21 22  1  0  0  0  0
 21 42  1  0  0  0  0
 21 43  1  0  0  0  0
 22 44  1  0  0  0  0
 22 45  1  0  0  0  0
 23 24  1  0  0  0  0
 23 46  1  0  0  0  0
 23 47  1  0  0  0  0
 24 48  1  0  0  0  0
 24 49  1  0  0  0  0
M  CHG  1  16   1
M  END
> <s_m_source_file>
AV-unprocessed.smi

> <i_m_source_file_index>
1727

> <i_lp_mmshare_version>
43012

> <i_f3d_flags>
0

> <s_epik_input>
W0NIM11DKD1PKU4xW0NIMl1bQ0gyXVtDSF0oW0NIMl1bQ0gyXTEpW05IXUMoPU8pW05IXWMyW2NIXVtjSF1bY0hdbmMyTjNbQ0gyXVtDSDJdW0NIMl1bQ0gyXTM=

> <s_epik_cmdline>
J2VwaWtfcHl0aG9uJywgJy1waCcsICc3LjAnLCAnLXRuJywgJzgnLCAnLW1hJywgJzIwMCcsICctbWV0YWxfYmluZGluZycsICctaW1hZScsICc8aW5maWxlLm1hZT4nLCAnLW9tYWUnLCAnPG91dGZpbGUubWFlPic=

> <r_lp_tautomer_probability>
0.999994

> <r_epik_Ionization_Penalty>
1.09439

> <r_epik_Ionization_Penalty_Charging>
1.09437

> <r_epik_Ionization_Penalty_Neutral>
2.13526e-05

> <r_epik_State_Penalty>
1.15094

> <r_epik_Charging_Adjusted_Penalty>
2.24531

> <i_epik_Tot_Q>
1

> <i_epik_Tot_abs_Q>
1

> <r_epik_Metal_State_Penalty>
1.23914

> <b_epik_Metal_Only>
0

> <s_lp_Force_Field>
OPLS_2005

> <r_lp_Energy>
56.6798

> <b_lp_Chiralities_Consistent>
1

> <s_lp_Variant>
AV-unprocessed.smi:1727-2

> <Gold.Version>
5.8.1

> <Gold.Id.Protein>
6NUR|6NUR_protein|mol2

> <Gold.PLP.Fitness>
44.0880

> <Gold.PLP.PLP>
-31.2752

> <Gold.PLP.part.hbond>
-4.0000

> <Gold.PLP.part.metal>
0.0000

> <Gold.PLP.part.buried>
-4.0399

> <Gold.PLP.part.nonpolar>
-25.2057

> <Gold.PLP.part.repulsive>
0.1138

> <Gold.PLP.ligand.clash>
0.0000

> <Gold.PLP.ligand.torsion>
0.4954

> <Gold.PLP.Chemscore.Hbond>
4.4723

> <Gold.PLP.Chemscore.CHOScore>
0.0000

> <Gold.PLP.Chemscore.Metal>
0.0000

> <Gold.Chemscore.Hbonds>
donor molecule, donor type, donor heavy atom, donor atom, acceptor molecule, acceptor atom, score
      L1  H     8    33       P1  7948  1.00
      L1  H    11    34       P1  7948  0.57
      L1  H    16    50       P1 10957  1.87
      P1  H  7997  8009       L1     3  1.00

> <Gold.PLP.Chemscore.Internal.Correction>
0.3866

> <Gold.Rescore>
     Score         DG    S(hbond)    S(metal)    S(lipo)     H(rot)  DE(clash)    DE(int)     intcor
     17.35     -20.90       3.36        0.00      62.56       1.22       0.02       3.52       ----

> <Gold.Chemscore.Fitness>
17.3549

> <Gold.Chemscore.DG>
-20.8969

> <Gold.Chemscore.ZeroCoef>
-5.4800

> <Gold.Chemscore.Hbond>
3.3613

> <Gold.Chemscore.Metal>
0.0000

> <Gold.Chemscore.Lipo>
62.5566

> <Gold.Chemscore.Internal_Hbond>
0.0000

> <Gold.Chemscore.DEClash>
0.0174

> <Gold.Chemscore.DEInternal>
3.5247

> <Gold.Chemscore.Rot>
1.2222

> <Gold.Chemscore.Internal.Correction>
   9.000000E+99

> <Gold.Chemscore.Hbonds>
donor molecule, donor type, donor heavy atom, donor atom, acceptor molecule, acceptor atom, score
      L1  H     8    33       P1  7948  0.92
      L1  H    11    34       P1  7948  0.56
      L1  H    16    50       P1 10957  0.85
      P1  H  7997  8009       L1     3  0.34

> <Gold.Chemscore.Hbond.Weighted>
-11.2267

> <Gold.Chemscore.Metal.Weighted>
-0.0000

> <Gold.Chemscore.Lipo.Weighted>
-7.3191

> <Gold.Chemscore.Internal_Hbond.Weighted>
0.0000

> <Gold.Chemscore.DEClash.Weighted>
0.0174

> <Gold.Chemscore.DEInternal.Weighted>
3.5247

> <Gold.Chemscore.Rot.Weighted>
3.1289

> <Gold.Chemscore.Internal.Correction.Weighted>
   9.000000E+99

> <Gold.Protein.RotatedTorsions>
[ 6907 6896 6895 6894 ] final -115.24 input  -60.11 | X-H torsion
[ 7974 7965 7964 7962 ] final -175.96 input  175.53 | X-H torsion
[ 8008 7997 7996 7995 ] final  160.73 input   59.86 | X-H torsion
[ 10167 10162 10161 10158 ] final  -42.54 input  -65.29 | X-H torsion
[ 10718 10713 10712 10709 ] final -165.94 input   66.30 | X-H torsion
[ 10763 10752 10751 10750 ] final   24.90 input  -60.55 | X-H torsion
[ 11005 11000 10999 10996 ] final   78.04 input  -57.11 | X-H torsion

> <Gold.Protein.ActiveResidues>
 VAL166  LYS551  ARG553  GLY616  TRP617  ASP618  TYR619  PRO620  LYS621  CYS622 
 ASP623  PHE694  ASN695  SER759  ASP760  ASP761  ALA762  ILE779  LEU786  VAL792 
 PHE793  MET794  SER795  GLU796  ALA797  LYS798  CYS799  TRP800  GLU811  SER814 

> <Gold.Protein.RotatedAtoms>
  150.7962  133.8687  159.3252 H   0  0  0  0  0  0  0  0  0  0  0  0  # atno 6907 bound_to 6896
  151.6511  135.0999  160.0170 H   0  0  0  0  0  0  0  0  0  0  0  0  # atno 6908 bound_to 6896
  152.4044  133.6828  159.6379 H   0  0  0  0  0  0  0  0  0  0  0  0  # atno 6909 bound_to 6896
  144.7127  140.1242  143.6403 H   0  0  0  0  0  0  0  0  0  0  0  0  # atno 7974 bound_to 7965
  156.2152  140.1796  156.7605 H   0  0  0  0  0  0  0  0  0  0  0  0  # atno 8008 bound_to 7997
  154.5781  140.0671  156.9093 H   0  0  0  0  0  0  0  0  0  0  0  0  # atno 8009 bound_to 7997
  155.2551  140.3332  155.4281 H   0  0  0  0  0  0  0  0  0  0  0  0  # atno 8010 bound_to 7997
  140.6966  143.3032  151.3223 H   0  0  0  0  0  0  0  0  0  0  0  0  # atno 10167 bound_to 10162
  156.6606  130.9044  151.3028 H   0  0  0  0  0  0  0  0  0  0  0  0  # atno 10718 bound_to 10713
  153.0730  135.6595  154.0206 H   0  0  0  0  0  0  0  0  0  0  0  0  # atno 10763 bound_to 10752
  153.9846  135.2952  155.3418 H   0  0  0  0  0  0  0  0  0  0  0  0  # atno 10764 bound_to 10752
  154.7111  135.5205  153.8737 H   0  0  0  0  0  0  0  0  0  0  0  0  # atno 10765 bound_to 10752
  139.9229  134.7731  156.1598 H   0  0  0  0  0  0  0  0  0  0  0  0  # atno 11005 bound_to 11000
  145.9344  139.2627  143.1306 LP  0  0  0  0  0  0  0  0  0  0  0  0  # atno 17320 bound_to 7965
  145.9489  140.8924  143.0269 LP  0  0  0  0  0  0  0  0  0  0  0  0  # atno 17321 bound_to 7965
  139.6428  144.0507  152.2568 LP  0  0  0  0  0  0  0  0  0  0  0  0  # atno 17342 bound_to 10162
  140.0018  144.6288  150.7723 LP  0  0  0  0  0  0  0  0  0  0  0  0  # atno 17343 bound_to 10162
  157.7111  130.9441  150.1092 LP  0  0  0  0  0  0  0  0  0  0  0  0  # atno 17370 bound_to 10713
  156.2014  130.3660  149.8784 LP  0  0  0  0  0  0  0  0  0  0  0  0  # atno 17371 bound_to 10713
  141.0764  133.6773  156.2246 LP  0  0  0  0  0  0  0  0  0  0  0  0  # atno 17394 bound_to 11000
  140.6421  134.5155  157.5570 LP  0  0  0  0  0  0  0  0  0  0  0  0  # atno 17395 bound_to 11000

$$$$
