AV-unprocessed.smi:804|AV-procd|sdf|3795|dock10
  -GOLD-   22720 1233D 1   1.00000     0.00000
 Structure written by MMmdl.
 38 39  0  0  0  0  0  0  0  0  2 V2000
  147.6826  144.9893  161.4341 C   0  0  0  0  0  0  0  0  0  0  0  0
  146.4294  144.3324  160.8284 C   0  0  0  0  0  0  0  0  0  0  0  0
  145.4833  143.9011  161.9685 C   0  0  0  0  0  0  0  0  0  0  0  0
  145.7327  145.3407  159.8908 C   0  0  0  0  0  0  0  0  0  0  0  0
  146.8811  143.1565  160.0685 N   0  5  0  0  0  0  0  0  0  0  0  0
  146.8059  142.9721  158.7155 C   0  0  0  0  0  0  0  0  0  0  0  0
  145.8537  143.1766  157.9561 O   0  0  0  0  0  0  0  0  0  0  0  0
  148.0958  142.4435  158.1299 C   0  0  0  0  0  0  0  0  0  0  0  0
  149.2278  142.5821  158.8670 N   0  0  0  0  0  0  0  0  0  0  0  0
  150.3864  142.1350  158.3722 C   0  0  0  0  0  0  0  0  0  0  0  0
  151.5318  142.2909  159.1643 N   0  0  0  0  0  0  0  0  0  0  0  0
  152.7243  141.4620  158.9688 C   0  0  0  0  0  0  0  0  0  0  0  0
  153.4738  141.2606  160.2964 C   0  0  0  0  0  0  0  0  0  0  0  0
  153.7799  142.5236  160.8747 O   0  0  0  0  0  0  0  0  0  0  0  0
  152.6007  143.2612  161.1721 C   0  0  0  0  0  0  0  0  0  0  0  0
  151.8165  143.5379  159.8782 C   0  0  0  0  0  0  0  0  0  0  0  0
  150.5312  141.5523  157.1767 N   0  0  0  0  0  0  0  0  0  0  0  0
  149.4256  141.3990  156.4200 C   0  0  0  0  0  0  0  0  0  0  0  0
  148.1558  141.8298  156.8495 C   0  0  0  0  0  0  0  0  0  0  0  0
  146.7806  141.5597  155.8331 Cl  0  0  0  0  0  0  0  0  0  0  0  0
  147.4227  145.8745  162.0154 H   0  0  0  0  0  0  0  0  0  0  0  0
  148.3843  145.3017  160.6595 H   0  0  0  0  0  0  0  0  0  0  0  0
  148.2109  144.3051  162.0997 H   0  0  0  0  0  0  0  0  0  0  0  0
  145.9538  143.1633  162.6199 H   0  0  0  0  0  0  0  0  0  0  0  0
  144.5574  143.4664  161.5915 H   0  0  0  0  0  0  0  0  0  0  0  0
  145.2052  144.7536  162.5886 H   0  0  0  0  0  0  0  0  0  0  0  0
  145.4713  146.2547  160.4248 H   0  0  0  0  0  0  0  0  0  0  0  0
  144.8086  144.9413  159.4730 H   0  0  0  0  0  0  0  0  0  0  0  0
  146.3777  145.6225  159.0576 H   0  0  0  0  0  0  0  0  0  0  0  0
  152.4812  140.4798  158.5634 H   0  0  0  0  0  0  0  0  0  0  0  0
  153.3734  141.9514  158.2420 H   0  0  0  0  0  0  0  0  0  0  0  0
  152.8808  140.6628  160.9906 H   0  0  0  0  0  0  0  0  0  0  0  0
  154.4022  140.7167  160.1224 H   0  0  0  0  0  0  0  0  0  0  0  0
  151.9863  142.7146  161.8895 H   0  0  0  0  0  0  0  0  0  0  0  0
  152.8825  144.2012  161.6466 H   0  0  0  0  0  0  0  0  0  0  0  0
  152.3932  144.1911  159.2227 H   0  0  0  0  0  0  0  0  0  0  0  0
  150.9067  144.0769  160.1408 H   0  0  0  0  0  0  0  0  0  0  0  0
  149.5560  140.9186  155.4616 H   0  0  0  0  0  0  0  0  0  0  0  0
  1  2  1  0  0  0  0
  1 21  1  0  0  0  0
  1 22  1  0  0  0  0
  1 23  1  0  0  0  0
  2  3  1  0  0  0  0
  2  4  1  0  0  0  0
  2  5  1  0  0  0  0
  3 24  1  0  0  0  0
  3 25  1  0  0  0  0
  3 26  1  0  0  0  0
  4 27  1  0  0  0  0
  4 28  1  0  0  0  0
  4 29  1  0  0  0  0
  5  6  1  0  0  0  0
  6  7  2  0  0  0  0
  6  8  1  0  0  0  0
  8 19  1  0  0  0  0
  8  9  2  0  0  0  0
  9 10  1  0  0  0  0
 10 11  1  0  0  0  0
 10 17  2  0  0  0  0
 11 16  1  0  0  0  0
 11 12  1  0  0  0  0
 12 13  1  0  0  0  0
 12 30  1  0  0  0  0
 12 31  1  0  0  0  0
 13 14  1  0  0  0  0
 13 32  1  0  0  0  0
 13 33  1  0  0  0  0
 14 15  1  0  0  0  0
 15 16  1  0  0  0  0
 15 34  1  0  0  0  0
 15 35  1  0  0  0  0
 16 36  1  0  0  0  0
 16 37  1  0  0  0  0
 17 18  1  0  0  0  0
 18 19  2  0  0  0  0
 18 38  1  0  0  0  0
 19 20  1  0  0  0  0
M  CHG  1   5  -1
M  END
> <s_m_source_file>
AV-unprocessed.smi

> <i_m_source_file_index>
804

> <i_lp_mmshare_version>
43012

> <i_f3d_flags>
0

> <s_epik_input>
W0NIM11DKFtDSDNdKShbQ0gzXSlbTkhdQyg9TyljMW5jKG5bY0hdYzFDbClOMltDSDJdW0NIMl1PW0NIMl1bQ0gyXTI=

> <s_epik_cmdline>
J2VwaWtfcHl0aG9uJywgJy1waCcsICc3LjAnLCAnLXRuJywgJzgnLCAnLW1hJywgJzIwMCcsICctbWV0YWxfYmluZGluZycsICctaW1hZScsICc8aW5maWxlLm1hZT4nLCAnLW9tYWUnLCAnPG91dGZpbGUubWFlPic=

> <r_lp_tautomer_probability>
1

> <r_epik_Ionization_Penalty>
6.49938

> <r_epik_Ionization_Penalty_Charging>
6.49935

> <r_epik_Ionization_Penalty_Neutral>
2.43511e-05

> <r_epik_State_Penalty>
6.49934

> <r_epik_Charging_Adjusted_Penalty>
12.9987

> <i_epik_Tot_Q>
-1

> <i_epik_Tot_abs_Q>
1

> <r_epik_Metal_State_Penalty>
2.42664

> <b_epik_Metal_Only>
1

> <s_lp_Force_Field>
OPLS_2005

> <r_lp_Energy>
19.224

> <b_lp_Chiralities_Consistent>
1

> <s_lp_Variant>
AV-unprocessed.smi:804-2

> <Gold.Version>
5.8.1

> <Gold.Id.Protein>
6NUR|6NUR_protein|mol2

> <Gold.PLP.Fitness>
41.0652

> <Gold.PLP.PLP>
-34.5680

> <Gold.PLP.part.hbond>
-3.1165

> <Gold.PLP.part.metal>
0.0000

> <Gold.PLP.part.buried>
-4.7618

> <Gold.PLP.part.nonpolar>
-28.1356

> <Gold.PLP.part.repulsive>
0.3009

> <Gold.PLP.ligand.clash>
0.0000

> <Gold.PLP.ligand.torsion>
1.0539

> <Gold.PLP.Chemscore.Hbond>
2.8271

> <Gold.PLP.Chemscore.CHOScore>
0.0000

> <Gold.PLP.Chemscore.Metal>
0.0000

> <Gold.Chemscore.Hbonds>
donor molecule, donor type, donor heavy atom, donor atom, acceptor molecule, acceptor atom, score
      P1  H  6933  6944       L1     5  0.85
      P1  H  6934  6946       L1     5  0.22

> <Gold.PLP.Chemscore.Internal.Correction>
0.1237

> <Gold.Rescore>
     Score         DG    S(hbond)    S(metal)    S(lipo)     H(rot)  DE(clash)    DE(int)     intcor
     11.15     -14.71       0.82        0.00      77.33       1.00       0.04       3.52       ----

> <Gold.Chemscore.Fitness>
11.1468

> <Gold.Chemscore.DG>
-14.7071

> <Gold.Chemscore.ZeroCoef>
-5.4800

> <Gold.Chemscore.Hbond>
0.8201

> <Gold.Chemscore.Metal>
0.0000

> <Gold.Chemscore.Lipo>
77.3346

> <Gold.Chemscore.Internal_Hbond>
0.0000

> <Gold.Chemscore.DEClash>
0.0407

> <Gold.Chemscore.DEInternal>
3.5197

> <Gold.Chemscore.Rot>
1.0000

> <Gold.Chemscore.Internal.Correction>
   9.000000E+99

> <Gold.Chemscore.Hbonds>
donor molecule, donor type, donor heavy atom, donor atom, acceptor molecule, acceptor atom, score
      P1  H  6933  6944       L1     5  0.12
      P1  H  6934  6946       L1     5  0.03

> <Gold.Chemscore.Hbond.Weighted>
-2.7390

> <Gold.Chemscore.Metal.Weighted>
-0.0000

> <Gold.Chemscore.Lipo.Weighted>
-9.0482

> <Gold.Chemscore.Internal_Hbond.Weighted>
0.0000

> <Gold.Chemscore.DEClash.Weighted>
0.0407

> <Gold.Chemscore.DEInternal.Weighted>
3.5197

> <Gold.Chemscore.Rot.Weighted>
2.5600

> <Gold.Chemscore.Internal.Correction.Weighted>
   9.000000E+99

> <Gold.Protein.RotatedTorsions>
[ 6907 6896 6895 6894 ] final  140.62 input  -60.11 | X-H torsion
[ 7974 7965 7964 7962 ] final -113.93 input  175.53 | X-H torsion
[ 8008 7997 7996 7995 ] final  170.98 input   59.86 | X-H torsion
[ 10167 10162 10161 10158 ] final -142.94 input  -65.29 | X-H torsion
[ 10718 10713 10712 10709 ] final   28.59 input   66.30 | X-H torsion
[ 10763 10752 10751 10750 ] final -170.29 input  -60.55 | X-H torsion
[ 11005 11000 10999 10996 ] final  -97.27 input  -57.11 | X-H torsion

> <Gold.Protein.ActiveResidues>
 VAL166  LYS551  ARG553  GLY616  TRP617  ASP618  TYR619  PRO620  LYS621  CYS622 
 ASP623  PHE694  ASN695  SER759  ASP760  ASP761  ALA762  ILE779  LEU786  VAL792 
 PHE793  MET794  SER795  GLU796  ALA797  LYS798  CYS799  TRP800  GLU811  SER814 

> <Gold.Protein.RotatedAtoms>
  152.2408  133.5134  159.5268 H   0  0  0  0  0  0  0  0  0  0  0  0  # atno 6907 bound_to 6896
  150.7064  134.1092  159.4003 H   0  0  0  0  0  0  0  0  0  0  0  0  # atno 6908 bound_to 6896
  151.9012  135.0377  160.0557 H   0  0  0  0  0  0  0  0  0  0  0  0  # atno 6909 bound_to 6896
  145.1262  140.8698  143.3785 H   0  0  0  0  0  0  0  0  0  0  0  0  # atno 7974 bound_to 7965
  156.1314  140.1524  156.9059 H   0  0  0  0  0  0  0  0  0  0  0  0  # atno 8008 bound_to 7997
  154.4912  140.0851  156.7639 H   0  0  0  0  0  0  0  0  0  0  0  0  # atno 8009 bound_to 7997
  155.4248  140.3424  155.4277 H   0  0  0  0  0  0  0  0  0  0  0  0  # atno 8010 bound_to 7997
  139.8041  143.7793  152.2660 H   0  0  0  0  0  0  0  0  0  0  0  0  # atno 10167 bound_to 10162
  157.2355  130.7044  149.6333 H   0  0  0  0  0  0  0  0  0  0  0  0  # atno 10718 bound_to 10713
  154.6431  135.2901  155.0079 H   0  0  0  0  0  0  0  0  0  0  0  0  # atno 10763 bound_to 10752
  154.1199  135.6549  153.4905 H   0  0  0  0  0  0  0  0  0  0  0  0  # atno 10764 bound_to 10752
  153.0336  135.5285  154.7306 H   0  0  0  0  0  0  0  0  0  0  0  0  # atno 10765 bound_to 10752
  141.1384  133.8158  157.0683 H   0  0  0  0  0  0  0  0  0  0  0  0  # atno 11005 bound_to 11000
  145.0686  139.3049  143.5844 LP  0  0  0  0  0  0  0  0  0  0  0  0  # atno 17320 bound_to 7965
  146.3517  140.0152  142.8663 LP  0  0  0  0  0  0  0  0  0  0  0  0  # atno 17321 bound_to 7965
  139.7922  144.7406  150.9939 LP  0  0  0  0  0  0  0  0  0  0  0  0  # atno 17342 bound_to 10162
  140.7819  143.4430  151.0523 LP  0  0  0  0  0  0  0  0  0  0  0  0  # atno 17343 bound_to 10162
  155.9673  130.4475  150.5583 LP  0  0  0  0  0  0  0  0  0  0  0  0  # atno 17370 bound_to 10713
  157.3434  131.0721  151.1770 LP  0  0  0  0  0  0  0  0  0  0  0  0  # atno 17371 bound_to 10713
  140.0527  134.9797  157.1166 LP  0  0  0  0  0  0  0  0  0  0  0  0  # atno 17394 bound_to 11000
  140.3965  134.2128  155.7164 LP  0  0  0  0  0  0  0  0  0  0  0  0  # atno 17395 bound_to 11000

$$$$
