#       Name:                AV-unprocessed.smi:2183
#       Creating user name   scv26
#       Creation time:       Fri Mar 27 12:06:24 2020


#       File generated by GOLD software.
#

@<TRIPOS>MOLECULE
AV-unprocessed.smi:2183
    47    49     1
SMALL
NO_CHARGES


@<TRIPOS>ATOM
      1 ****        -1.4370   2.7851  -3.3603 O.3            1 S1                 0.0000
      2 ****        -1.1905   1.8757  -2.3065 C.3            1 S1                 0.0000
      3 ****        -1.3896   2.4585  -0.9356 C.2            1 S1                 0.0000
      4 ****        -1.8574   3.6921  -0.7284 N.2            1 S1                 0.0000
      5 ****        -1.8818   3.7841   0.6490 C.ar           1 S1                 0.0000
      6 ****        -2.2812   4.8463   1.4916 C.ar           1 S1                 0.0000
      7 ****        -2.2205   4.7070   2.8936 C.ar           1 S1                 0.0000
      8 ****        -1.7593   3.5067   3.4718 C.ar           1 S1                 0.0000
      9 ****        -1.3558   2.4363   2.6503 C.ar           1 S1                 0.0000
     10 ****        -1.4196   2.5800   1.2511 C.ar           1 S1                 0.0000
     11 ****        -1.1076   1.7438   0.1829 N.pl3          1 S1                 0.0000
     12 ****        -0.5918   0.3839   0.2722 C.3            1 S1                 0.0000
     13 ****         0.9483   0.3205   0.2045 C.3            1 S1                 0.0000
     14 ****         1.5134   1.0739   1.2590 O.3            1 S1                 0.0000
     15 ****         1.4818  -1.1165   0.2962 C.3            1 S1                 0.0000
     16 ****         1.0731  -1.8370  -0.8592 O.3            1 S1                 0.0000
     17 ****         1.4462  -3.1593  -0.9696 C.ar           1 S1                 0.0000
     18 ****         1.0040  -3.8553  -2.1138 C.ar           1 S1                 0.0000
     19 ****         1.3404  -5.2085  -2.3098 C.ar           1 S1                 0.0000
     20 ****         2.1279  -5.8825  -1.3580 C.ar           1 S1                 0.0000
     21 ****         2.5449  -7.5396  -1.5969 Cl             1 S1                 0.0000
     22 ****         2.5750  -5.2009  -0.2108 C.ar           1 S1                 0.0000
     23 ****         2.2375  -3.8475  -0.0148 C.ar           1 S1                 0.0000
     24 ****        -1.2936   2.3402  -4.1812 H              1 S1                 0.0000
     25 ****        -1.8532   1.0187  -2.4283 H              1 S1                 0.0000
     26 ****        -0.1670   1.5144  -2.4010 H              1 S1                 0.0000
     27 ****        -2.6351   5.7699   1.0580 H              1 S1                 0.0000
     28 ****        -2.5287   5.5252   3.5282 H              1 S1                 0.0000
     29 ****        -1.7149   3.4083   4.5466 H              1 S1                 0.0000
     30 ****        -1.0008   1.5170   3.0909 H              1 S1                 0.0000
     31 ****        -0.9473  -0.0600   1.2027 H              1 S1                 0.0000
     32 ****        -1.0328  -0.2113  -0.5276 H              1 S1                 0.0000
     33 ****         1.2948   0.7636  -0.7291 H              1 S1                 0.0000
     34 ****         1.2186   0.7115   2.0803 H              1 S1                 0.0000
     35 ****         2.5721  -1.0972   0.3438 H              1 S1                 0.0000
     36 ****         1.1111  -1.5979   1.2030 H              1 S1                 0.0000
     37 ****         0.3999  -3.3459  -2.8503 H              1 S1                 0.0000
     38 ****         0.9944  -5.7274  -3.1916 H              1 S1                 0.0000
     39 ****         3.1797  -5.7151   0.5218 H              1 S1                 0.0000
     40 ****         2.6009  -3.3596   0.8767 H              1 S1                 0.0000
     41 ****        -0.8144   3.5641  -3.2859 LP             1 S1                 0.0000
     42 ****        -2.3822   3.1081  -3.3126 LP             1 S1                 0.0000
     43 ****        -2.1241   4.3794  -1.4040 LP             1 S1                 0.0000
     44 ****         1.2200   2.0271   1.1868 LP             1 S1                 0.0000
     45 ****         2.5111   1.0275   1.2091 LP             1 S1                 0.0000
     46 ****         1.4442  -1.3572  -1.6542 LP             1 S1                 0.0000
     47 ****         0.0740  -1.8077  -0.8886 LP             1 S1                 0.0000
@<TRIPOS>BOND
    1    1    2 1     
    2    1   24 1     
    3    2    3 1     
    4    2   25 1     
    5    2   26 1     
    6    3   11 1     
    7    3    4 2     
    8    4    5 1     
    9    5   10 ar    
   10    5    6 ar    
   11    6    7 ar    
   12    6   27 1     
   13    7    8 ar    
   14    7   28 1     
   15    8    9 ar    
   16    8   29 1     
   17    9   10 ar    
   18    9   30 1     
   19   10   11 1     
   20   11   12 1     
   21   12   13 1     
   22   12   31 1     
   23   12   32 1     
   24   13   14 1     
   25   13   15 1     
   26   13   33 1     
   27   14   34 1     
   28   15   16 1     
   29   15   35 1     
   30   15   36 1     
   31   16   17 1     
   32   17   23 ar    
   33   17   18 ar    
   34   18   19 ar    
   35   18   37 1     
   36   19   20 ar    
   37   19   38 1     
   38   20   21 1     
   39   20   22 ar    
   40   22   23 ar    
   41   22   39 1     
   42   23   40 1     
   43    1   41 1     
   44    1   42 1     
   45    4   43 1     
   46   14   44 1     
   47   14   45 1     
   48   16   46 1     
   49   16   47 1     
@<TRIPOS>SUBSTRUCTURE
      1 S1             1
@<TRIPOS>SET
LONE_PAIRS      STATIC     ATOMS    <user>   **** ""
7 41 42 43 44 45 46 47
DONOR_HYDROGENS      STATIC     ATOMS    <user>   **** ""
2 24 34
ATOM$BLUE        STATIC     ATOMS    COLORGROUP SYSTEM
7 41 42 43 44 45 46 47
ATOM$RED        STATIC     ATOMS    COLORGROUP SYSTEM
2 24 34
