#       Name:                AV-unprocessed.smi:1786
#       Creating user name   scv26
#       Creation time:       Fri Mar 27 08:44:35 2020


#       File generated by GOLD software.
#

@<TRIPOS>MOLECULE
AV-unprocessed.smi:1786
    48    49     1
SMALL
NO_CHARGES


@<TRIPOS>ATOM
      1 ****        -2.7473   1.8923  -1.6528 C.3            1 S1                 0.0000
      2 ****        -2.1950   2.2641  -0.2592 C.3            1 S1                 0.0000
      3 ****        -2.5522   3.7094   0.1477 C.3            1 S1                 0.0000
      4 ****        -1.7330   4.7485  -0.6323 C.3            1 S1                 0.0000
      5 ****        -0.2351   4.4540  -0.4874 C.3            1 S1                 0.0000
      6 ****         0.0902   3.0087  -0.8986 C.3            1 S1                 0.0000
      7 ****        -0.7253   2.0346  -0.1222 N.4            1 S1                 1.0000
      8 ****        -0.3188   0.6218  -0.3329 C.3            1 S1                 0.0000
      9 ****         0.9433   0.2545   0.4695 C.3            1 S1                 0.0000
     10 ****         1.3124  -1.1410   0.2697 N.am           1 S1                 0.0000
     11 ****         1.9528  -1.6227  -0.8097 C.2            1 S1                 0.0000
     12 ****         2.2891  -0.9072  -1.7527 O.2            1 S1                 0.0000
     13 ****         2.2670  -3.1280  -0.8671 C.3            1 S1                 0.0000
     14 ****         1.8546  -3.8986   0.3199 N.am           1 S1                 0.0000
     15 ****         0.5848  -4.5079   0.2748 C.2            1 S1                 0.0000
     16 ****         0.1083  -5.2333   1.2988 C.2            1 S1                 0.0000
     17 ****         0.9368  -5.3848   2.4713 C.2            1 S1                 0.0000
     18 ****         2.1515  -4.8030   2.5266 C.2            1 S1                 0.0000
     19 ****         2.6730  -4.0025   1.4126 C.2            1 S1                 0.0000
     20 ****         3.7731  -3.4522   1.4612 O.2            1 S1                 0.0000
     21 ****        -3.8247   2.0545  -1.6940 H              1 S1                 0.0000
     22 ****        -2.5770   0.8421  -1.8893 H              1 S1                 0.0000
     23 ****        -2.3014   2.4866  -2.4497 H              1 S1                 0.0000
     24 ****        -2.6867   1.6086   0.4610 H              1 S1                 0.0000
     25 ****        -3.6185   3.8907   0.0076 H              1 S1                 0.0000
     26 ****        -2.3622   3.8378   1.2143 H              1 S1                 0.0000
     27 ****        -2.0138   4.7358  -1.6859 H              1 S1                 0.0000
     28 ****        -1.9546   5.7516  -0.2668 H              1 S1                 0.0000
     29 ****         0.3423   5.1531  -1.0931 H              1 S1                 0.0000
     30 ****         0.0707   4.6164   0.5470 H              1 S1                 0.0000
     31 ****        -0.0761   2.8713  -1.9674 H              1 S1                 0.0000
     32 ****         1.1515   2.8295  -0.7297 H              1 S1                 0.0000
     33 ****        -1.1244  -0.0402  -0.0118 H              1 S1                 0.0000
     34 ****        -0.1740   0.4378  -1.3986 H              1 S1                 0.0000
     35 ****         1.7880   0.8911   0.2042 H              1 S1                 0.0000
     36 ****         0.7637   0.4070   1.5340 H              1 S1                 0.0000
     37 ****         1.0706  -1.7892   1.0057 H              1 S1                 0.0000
     38 ****         1.7883  -3.5363  -1.7583 H              1 S1                 0.0000
     39 ****         3.3366  -3.2499  -1.0467 H              1 S1                 0.0000
     40 ****         0.0276  -4.3429  -0.6361 H              1 S1                 0.0000
     41 ****        -0.8689  -5.6908   1.2473 H              1 S1                 0.0000
     42 ****         0.5815  -5.9686   3.3077 H              1 S1                 0.0000
     43 ****         2.7577  -4.9283   3.4118 H              1 S1                 0.0000
     44 ****        -0.5257   2.2255   0.8493 H              1 S1                 0.0000
     45 ****         2.0874   0.0721  -1.7341 LP             1 S1                 0.0000
     46 ****         2.7641  -1.3050  -2.5376 LP             1 S1                 0.0000
     47 ****         4.0946  -2.9080   0.6863 LP             1 S1                 0.0000
     48 ****         4.3452  -3.5494   2.2756 LP             1 S1                 0.0000
@<TRIPOS>BOND
    1    1    2 1     
    2    1   21 1     
    3    1   22 1     
    4    1   23 1     
    5    2    7 1     
    6    2    3 1     
    7    2   24 1     
    8    3    4 1     
    9    3   25 1     
   10    3   26 1     
   11    4    5 1     
   12    4   27 1     
   13    4   28 1     
   14    5    6 1     
   15    5   29 1     
   16    5   30 1     
   17    6    7 1     
   18    6   31 1     
   19    6   32 1     
   20    7    8 1     
   21    7   44 1     
   22    8    9 1     
   23    8   33 1     
   24    8   34 1     
   25    9   10 1     
   26    9   35 1     
   27    9   36 1     
   28   10   11 am    
   29   10   37 1     
   30   11   12 2     
   31   11   13 1     
   32   13   14 1     
   33   13   38 1     
   34   13   39 1     
   35   14   19 am    
   36   14   15 1     
   37   15   16 2     
   38   15   40 1     
   39   16   17 1     
   40   16   41 1     
   41   17   18 2     
   42   17   42 1     
   43   18   19 1     
   44   18   43 1     
   45   19   20 2     
   46   12   45 1     
   47   12   46 1     
   48   20   47 1     
   49   20   48 1     
@<TRIPOS>SUBSTRUCTURE
      1 S1             1
@<TRIPOS>SET
LONE_PAIRS      STATIC     ATOMS    <user>   **** ""
4 45 46 47 48
DONOR_HYDROGENS      STATIC     ATOMS    <user>   **** ""
2 44 37
ATOM$BLUE        STATIC     ATOMS    COLORGROUP SYSTEM
4 45 46 47 48
ATOM$RED        STATIC     ATOMS    COLORGROUP SYSTEM
2 44 37
