#       Name:                AV-unprocessed.smi:2003
#       Creating user name   scv26
#       Creation time:       Fri Mar 27 10:35:04 2020


#       File generated by GOLD software.
#

@<TRIPOS>MOLECULE
AV-unprocessed.smi:2003
    49    50     1
SMALL
NO_CHARGES


@<TRIPOS>ATOM
      1 ****        -4.3827   5.1855   0.6773 C.3            1 S1                 0.0000
      2 ****        -3.7679   3.8528   0.3668 C.2            1 S1                 0.0000
      3 ****        -2.3863   3.5377   0.2139 C.2            1 S1                 0.0000
      4 ****        -2.4118   2.1969  -0.0573 C.2            1 S1                 0.0000
      5 ****        -1.3736   1.3529  -0.2979 N.am           1 S1                 0.0000
      6 ****        -0.0562   1.6202  -0.3013 C.2            1 S1                 0.0000
      7 ****         0.4527   2.7186  -0.0773 O.2            1 S1                 0.0000
      8 ****         0.6575   0.5226  -0.5808 N.am           1 S1                 0.0000
      9 ****         2.1140   0.4760  -0.6417 C.3            1 S1                 0.0000
     10 ****         2.6267  -0.9505  -0.9604 C.3            1 S1                 0.0000
     11 ****         2.2679  -1.2717  -2.4292 C.3            1 S1                 0.0000
     12 ****         2.1684  -1.9813  -0.0033 N.3            1 S1                 0.0000
     13 ****         2.5383  -1.6689   1.3806 C.3            1 S1                 0.0000
     14 ****         2.0737  -2.7478   2.3738 C.3            1 S1                 0.0000
     15 ****         2.6093  -4.0089   1.9950 O.3            1 S1                 0.0000
     16 ****         2.2211  -4.3848   0.6802 C.3            1 S1                 0.0000
     17 ****         2.6850  -3.3151  -0.3234 C.3            1 S1                 0.0000
     18 ****        -3.7206   1.7684  -0.0607 N.pl3          1 S1                 0.0000
     19 ****        -4.2542   0.4409  -0.2960 C.3            1 S1                 0.0000
     20 ****        -4.5561   2.7964   0.2023 N.2            1 S1                 0.0000
     21 ****        -3.6183   5.9536   0.7959 H              1 S1                 0.0000
     22 ****        -4.9593   5.1465   1.6017 H              1 S1                 0.0000
     23 ****        -5.0520   5.5048  -0.1219 H              1 S1                 0.0000
     24 ****        -1.5372   4.1995   0.2933 H              1 S1                 0.0000
     25 ****        -1.6334   0.3977  -0.4953 H              1 S1                 0.0000
     26 ****         0.1670  -0.3439  -0.7482 H              1 S1                 0.0000
     27 ****         2.4581   1.1741  -1.4066 H              1 S1                 0.0000
     28 ****         2.5348   0.8465   0.2934 H              1 S1                 0.0000
     29 ****         3.7157  -0.9052  -0.9092 H              1 S1                 0.0000
     30 ****         2.5247  -0.4431  -3.0897 H              1 S1                 0.0000
     31 ****         1.2017  -1.4679  -2.5473 H              1 S1                 0.0000
     32 ****         2.8134  -2.1366  -2.8050 H              1 S1                 0.0000
     33 ****         3.6202  -1.5492   1.4564 H              1 S1                 0.0000
     34 ****         2.0937  -0.7252   1.6926 H              1 S1                 0.0000
     35 ****         2.4113  -2.5061   3.3818 H              1 S1                 0.0000
     36 ****         0.9842  -2.8003   2.4051 H              1 S1                 0.0000
     37 ****         2.6686  -5.3491   0.4390 H              1 S1                 0.0000
     38 ****         1.1386  -4.5139   0.6348 H              1 S1                 0.0000
     39 ****         2.3515  -3.6278  -1.3117 H              1 S1                 0.0000
     40 ****         3.7756  -3.2926  -0.3502 H              1 S1                 0.0000
     41 ****        -4.0050   0.1211  -1.3081 H              1 S1                 0.0000
     42 ****        -5.3388   0.4361  -0.1794 H              1 S1                 0.0000
     43 ****        -3.8196  -0.2600   0.4173 H              1 S1                 0.0000
     44 ****        -0.1281   3.5060   0.1292 LP             1 S1                 0.0000
     45 ****         1.4469   2.8234  -0.1018 LP             1 S1                 0.0000
     46 ****         1.1721  -1.9811  -0.0889 LP             1 S1                 0.0000
     47 ****         2.2842  -4.7028   2.6375 LP             1 S1                 0.0000
     48 ****         3.6073  -3.9597   2.0344 LP             1 S1                 0.0000
     49 ****        -5.5540   2.7683   0.2607 LP             1 S1                 0.0000
@<TRIPOS>BOND
    1    1    2 1     
    2    1   21 1     
    3    1   22 1     
    4    1   23 1     
    5    2   20 2     
    6    2    3 1     
    7    3    4 2     
    8    3   24 1     
    9    4    5 1     
   10    4   18 1     
   11    5    6 am    
   12    5   25 1     
   13    6    7 2     
   14    6    8 am    
   15    8    9 1     
   16    8   26 1     
   17    9   10 1     
   18    9   27 1     
   19    9   28 1     
   20   10   11 1     
   21   10   12 1     
   22   10   29 1     
   23   11   30 1     
   24   11   31 1     
   25   11   32 1     
   26   12   17 1     
   27   12   13 1     
   28   13   14 1     
   29   13   33 1     
   30   13   34 1     
   31   14   15 1     
   32   14   35 1     
   33   14   36 1     
   34   15   16 1     
   35   16   17 1     
   36   16   37 1     
   37   16   38 1     
   38   17   39 1     
   39   17   40 1     
   40   18   19 1     
   41   18   20 1     
   42   19   41 1     
   43   19   42 1     
   44   19   43 1     
   45    7   44 1     
   46    7   45 1     
   47   12   46 1     
   48   15   47 1     
   49   15   48 1     
   50   20   49 1     
@<TRIPOS>SUBSTRUCTURE
      1 S1             1
@<TRIPOS>SET
LONE_PAIRS      STATIC     ATOMS    <user>   **** ""
6 44 45 46 47 48 49
DONOR_HYDROGENS      STATIC     ATOMS    <user>   **** ""
2 25 26
ATOM$BLUE        STATIC     ATOMS    COLORGROUP SYSTEM
6 44 45 46 47 48 49
ATOM$RED        STATIC     ATOMS    COLORGROUP SYSTEM
2 25 26
