AV-unprocessed.smi:1593|AV-procd|sdf|6413|dock9
  -GOLD-   22720 7 53D 1   1.00000     0.00000
 Structure written by MMmdl.
 36 37  0  0  0  0  0  0  0  0  3 V2000
  153.0301  142.6188  160.5409 C   0  0  0  0  0  0  0  0  0  0  0  0
  152.2773  142.9661  159.3026 C   0  0  0  0  0  0  0  0  0  0  0  0
  151.6025  142.2148  158.3822 C   0  0  0  0  0  0  0  0  0  0  0  0
  151.1223  143.1865  157.4639 C   0  0  0  0  0  0  0  0  0  0  0  0
  150.3457  142.7986  156.3402 N   0  0  0  0  0  0  0  0  0  0  0  0
  150.3225  141.6153  155.6999 C   0  0  0  0  0  0  0  0  0  0  0  0
  151.0081  140.6705  156.1093 O   0  0  0  0  0  0  0  0  0  0  0  0
  149.4890  141.6293  154.6233 N   0  5  0  0  0  0  0  0  0  0  0  0
  148.7625  140.4651  154.1216 C   0  0  0  0  0  0  0  0  0  0  0  0
  147.3803  140.9007  153.5983 C   0  0  0  0  0  0  0  0  0  0  0  0
  146.5010  139.7354  153.3140 N   0  3  0  0  0  0  0  0  0  0  0  0
  147.0433  138.8419  152.2617 C   0  0  0  0  0  0  0  0  0  0  0  0
  146.0472  137.7109  151.9546 C   0  0  0  0  0  0  0  0  0  0  0  0
  145.7596  136.9882  153.1454 O   0  0  0  0  0  0  0  0  0  0  0  0
  145.1647  137.8135  154.1394 C   0  0  0  0  0  0  0  0  0  0  0  0
  146.1351  138.9440  154.5186 C   0  0  0  0  0  0  0  0  0  0  0  0
  151.4744  144.4200  157.7952 N   0  0  0  0  0  0  0  0  0  0  0  0
  152.2161  144.2850  158.9746 O   0  0  0  0  0  0  0  0  0  0  0  0
  153.0140  141.5432  160.7182 H   0  0  0  0  0  0  0  0  0  0  0  0
  152.5925  143.1112  161.4093 H   0  0  0  0  0  0  0  0  0  0  0  0
  154.0707  142.9331  160.4612 H   0  0  0  0  0  0  0  0  0  0  0  0
  151.4730  141.1429  158.3702 H   0  0  0  0  0  0  0  0  0  0  0  0
  149.7418  143.5124  155.9609 H   0  0  0  0  0  0  0  0  0  0  0  0
  149.2983  139.9624  153.3153 H   0  0  0  0  0  0  0  0  0  0  0  0
  148.6247  139.7140  154.9003 H   0  0  0  0  0  0  0  0  0  0  0  0
  146.9165  141.5311  154.3590 H   0  0  0  0  0  0  0  0  0  0  0  0
  147.4758  141.5241  152.7076 H   0  0  0  0  0  0  0  0  0  0  0  0
  147.2364  139.4129  151.3527 H   0  0  0  0  0  0  0  0  0  0  0  0
  147.9970  138.4254  152.5901 H   0  0  0  0  0  0  0  0  0  0  0  0
  145.1264  138.1095  151.5251 H   0  0  0  0  0  0  0  0  0  0  0  0
  146.4709  137.0263  151.2197 H   0  0  0  0  0  0  0  0  0  0  0  0
  144.2178  138.2172  153.7769 H   0  0  0  0  0  0  0  0  0  0  0  0
  144.9373  137.2044  155.0145 H   0  0  0  0  0  0  0  0  0  0  0  0
  147.0361  138.5251  154.9695 H   0  0  0  0  0  0  0  0  0  0  0  0
  145.6717  139.5844  155.2697 H   0  0  0  0  0  0  0  0  0  0  0  0
  145.6451  140.1211  152.9412 H   0  0  0  0  0  0  0  0  0  0  0  0
  1  2  1  0  0  0  0
  1 19  1  0  0  0  0
  1 20  1  0  0  0  0
  1 21  1  0  0  0  0
  2 18  1  0  0  0  0
  2  3  2  0  0  0  0
  3  4  1  0  0  0  0
  3 22  1  0  0  0  0
  4  5  1  0  0  0  0
  4 17  2  0  0  0  0
  5  6  1  0  0  0  0
  5 23  1  0  0  0  0
  6  7  2  0  0  0  0
  6  8  1  0  0  0  0
  8  9  1  0  0  0  0
  9 10  1  0  0  0  0
  9 24  1  0  0  0  0
  9 25  1  0  0  0  0
 10 11  1  0  0  0  0
 10 26  1  0  0  0  0
 10 27  1  0  0  0  0
 11 16  1  0  0  0  0
 11 12  1  0  0  0  0
 11 36  1  0  0  0  0
 12 13  1  0  0  0  0
 12 28  1  0  0  0  0
 12 29  1  0  0  0  0
 13 14  1  0  0  0  0
 13 30  1  0  0  0  0
 13 31  1  0  0  0  0
 14 15  1  0  0  0  0
 15 16  1  0  0  0  0
 15 32  1  0  0  0  0
 15 33  1  0  0  0  0
 16 34  1  0  0  0  0
 16 35  1  0  0  0  0
 17 18  1  0  0  0  0
M  CHG  1   8  -1
M  CHG  1  11   1
M  END
> <s_m_source_file>
AV-unprocessed.smi

> <i_m_source_file_index>
1593

> <i_lp_mmshare_version>
43012

> <i_f3d_flags>
0

> <s_epik_input>
W0NIM11jMVtjSF1jKG5vMSlbTkhdQyg9TylbTkhdW0NIMl1bQ0gyXU4yW0NIMl1bQ0gyXU9bQ0gyXVtDSDJdMg==

> <s_epik_cmdline>
J2VwaWtfcHl0aG9uJywgJy1waCcsICc3LjAnLCAnLXRuJywgJzgnLCAnLW1hJywgJzIwMCcsICctbWV0YWxfYmluZGluZycsICctaW1hZScsICc8aW5maWxlLm1hZT4nLCAnLW9tYWUnLCAnPG91dGZpbGUubWFlPic=

> <r_epik_Ionization_Penalty>
6.79272

> <r_epik_Ionization_Penalty_Charging>
6.79272

> <r_epik_Ionization_Penalty_Neutral>
5.6208e-06

> <r_epik_State_Penalty>
7.45901

> <r_epik_Charging_Adjusted_Penalty>
14.2517

> <i_epik_Tot_Q>
0

> <i_epik_Tot_abs_Q>
2

> <r_epik_Metal_State_Penalty>
3.38639

> <b_epik_Metal_Only>
1

> <s_lp_Force_Field>
OPLS_2005

> <r_lp_Energy>
12.9182

> <b_lp_Chiralities_Consistent>
1

> <s_lp_Variant>
AV-unprocessed.smi:1593-5

> <Gold.Version>
5.8.1

> <Gold.Id.Protein>
6NUR|6NUR_protein|mol2

> <Gold.PLP.Fitness>
40.3556

> <Gold.PLP.PLP>
-32.3280

> <Gold.PLP.part.hbond>
-3.7095

> <Gold.PLP.part.metal>
0.0000

> <Gold.PLP.part.buried>
-3.3693

> <Gold.PLP.part.nonpolar>
-25.1734

> <Gold.PLP.part.repulsive>
0.5924

> <Gold.PLP.ligand.clash>
0.0000

> <Gold.PLP.ligand.torsion>
0.5313

> <Gold.PLP.Chemscore.Hbond>
3.0140

> <Gold.PLP.Chemscore.CHOScore>
0.0000

> <Gold.PLP.Chemscore.Metal>
0.0000

> <Gold.Chemscore.Hbonds>
donor molecule, donor type, donor heavy atom, donor atom, acceptor molecule, acceptor atom, score
      L1  H     5    23       P1  8028  0.94
      L1  H    11    36       P1 10175  1.92

> <Gold.PLP.Chemscore.Internal.Correction>
0.0482

> <Gold.Rescore>
     Score         DG    S(hbond)    S(metal)    S(lipo)     H(rot)  DE(clash)    DE(int)     intcor
     13.49     -15.49       1.98        0.00      64.55       1.62       0.10       1.91       ----

> <Gold.Chemscore.Fitness>
13.4863

> <Gold.Chemscore.DG>
-15.4884

> <Gold.Chemscore.ZeroCoef>
-5.4800

> <Gold.Chemscore.Hbond>
1.9792

> <Gold.Chemscore.Metal>
0.0000

> <Gold.Chemscore.Lipo>
64.5472

> <Gold.Chemscore.Internal_Hbond>
0.0000

> <Gold.Chemscore.DEClash>
0.0967

> <Gold.Chemscore.DEInternal>
1.9053

> <Gold.Chemscore.Rot>
1.6228

> <Gold.Chemscore.Internal.Correction>
   9.000000E+99

> <Gold.Chemscore.Hbonds>
donor molecule, donor type, donor heavy atom, donor atom, acceptor molecule, acceptor atom, score
      L1  H     5    23       P1  8028  0.90
      L1  H    11    36       P1 10175  0.89

> <Gold.Chemscore.Hbond.Weighted>
-6.6106

> <Gold.Chemscore.Metal.Weighted>
-0.0000

> <Gold.Chemscore.Lipo.Weighted>
-7.5520

> <Gold.Chemscore.Internal_Hbond.Weighted>
0.0000

> <Gold.Chemscore.DEClash.Weighted>
0.0967

> <Gold.Chemscore.DEInternal.Weighted>
1.9053

> <Gold.Chemscore.Rot.Weighted>
4.1542

> <Gold.Chemscore.Internal.Correction.Weighted>
   9.000000E+99

> <Gold.Protein.RotatedTorsions>
[ 6907 6896 6895 6894 ] final -101.31 input  -60.11 | X-H torsion
[ 7974 7965 7964 7962 ] final   -2.33 input  175.53 | X-H torsion
[ 8008 7997 7996 7995 ] final  -70.70 input   59.86 | X-H torsion
[ 10167 10162 10161 10158 ] final -103.12 input  -65.29 | X-H torsion
[ 10718 10713 10712 10709 ] final  -71.02 input   66.30 | X-H torsion
[ 10763 10752 10751 10750 ] final -157.00 input  -60.55 | X-H torsion
[ 11005 11000 10999 10996 ] final   52.10 input  -57.11 | X-H torsion

> <Gold.Protein.ActiveResidues>
 VAL166  LYS551  ARG553  GLY616  TRP617  ASP618  TYR619  PRO620  LYS621  CYS622 
 ASP623  PHE694  ASN695  SER759  ASP760  ASP761  ALA762  ILE779  LEU786  VAL792 
 PHE793  MET794  SER795  GLU796  ALA797  LYS798  CYS799  TRP800  GLU811  SER814 

> <Gold.Protein.RotatedAtoms>
  150.7149  134.0754  159.3878 H   0  0  0  0  0  0  0  0  0  0  0  0  # atno 6907 bound_to 6896
  151.8737  135.0477  160.0491 H   0  0  0  0  0  0  0  0  0  0  0  0  # atno 6908 bound_to 6896
  152.2623  133.5272  159.5425 H   0  0  0  0  0  0  0  0  0  0  0  0  # atno 6909 bound_to 6896
  146.2406  140.1554  142.8333 H   0  0  0  0  0  0  0  0  0  0  0  0  # atno 7974 bound_to 7965
  154.5031  140.0829  156.7839 H   0  0  0  0  0  0  0  0  0  0  0  0  # atno 8008 bound_to 7997
  155.3956  140.3434  155.4235 H   0  0  0  0  0  0  0  0  0  0  0  0  # atno 8009 bound_to 7997
  156.1482  140.1550  156.8800 H   0  0  0  0  0  0  0  0  0  0  0  0  # atno 8010 bound_to 7997
  140.2233  143.3660  152.0950 H   0  0  0  0  0  0  0  0  0  0  0  0  # atno 10167 bound_to 10162
  156.0381  130.4343  150.2382 H   0  0  0  0  0  0  0  0  0  0  0  0  # atno 10718 bound_to 10713
  154.7670  135.3134  154.8266 H   0  0  0  0  0  0  0  0  0  0  0  0  # atno 10763 bound_to 10752
  153.9011  135.6815  153.4759 H   0  0  0  0  0  0  0  0  0  0  0  0  # atno 10764 bound_to 10752
  153.1278  135.4794  154.9233 H   0  0  0  0  0  0  0  0  0  0  0  0  # atno 10765 bound_to 10752
  140.0877  134.5251  155.8883 H   0  0  0  0  0  0  0  0  0  0  0  0  # atno 11005 bound_to 11000
  145.0133  140.8732  143.5211 LP  0  0  0  0  0  0  0  0  0  0  0  0  # atno 17320 bound_to 7965
  145.1591  139.2469  143.5401 LP  0  0  0  0  0  0  0  0  0  0  0  0  # atno 17321 bound_to 7965
  139.5136  144.6935  151.5695 LP  0  0  0  0  0  0  0  0  0  0  0  0  # atno 17342 bound_to 10162
  140.6239  143.9206  150.6548 LP  0  0  0  0  0  0  0  0  0  0  0  0  # atno 17343 bound_to 10162
  157.0480  131.0054  151.3263 LP  0  0  0  0  0  0  0  0  0  0  0  0  # atno 17370 bound_to 10713
  157.5161  130.7969  149.7758 LP  0  0  0  0  0  0  0  0  0  0  0  0  # atno 17371 bound_to 10713
  141.2068  133.6658  156.6264 LP  0  0  0  0  0  0  0  0  0  0  0  0  # atno 17394 bound_to 11000
  140.3396  134.7860  157.4388 LP  0  0  0  0  0  0  0  0  0  0  0  0  # atno 17395 bound_to 11000

$$$$
