#       Name:                AV-unprocessed.smi:3094
#       Creating user name   scv26
#       Creation time:       Fri Mar 27 17:16:40 2020


#       File generated by GOLD software.
#

@<TRIPOS>MOLECULE
AV-unprocessed.smi:3094
    32    33     1
SMALL
NO_CHARGES


@<TRIPOS>ATOM
      1 ****        -0.1103  -2.3532   2.2819 C.3            1 S1                 0.0000
      2 ****         0.0712  -1.5404   0.9929 C.3            1 S1                 0.0000
      3 ****         1.5664  -1.3603   0.6521 C.3            1 S1                 0.0000
      4 ****         1.7840  -0.7897  -0.6815 N.pl3          1 S1                 0.0000
      5 ****         1.6420  -1.4250  -1.8884 C.2            1 S1                 0.0000
      6 ****         1.9364  -0.4984  -2.8551 C.2            1 S1                 0.0000
      7 ****         2.2508   0.6609  -2.1979 N.pl3          1 S1                 1.0000
      8 ****         2.1623   0.4805  -0.8761 C.2            1 S1                 0.0000
      9 ****        -0.5941  -0.2477   1.1535 N.am           1 S1                 0.0000
     10 ****        -1.2565   0.4211   0.1961 C.2            1 S1                 0.0000
     11 ****        -1.3616   0.0110  -0.9609 O.2            1 S1                 0.0000
     12 ****        -1.8388   1.7169   0.6558 C.3            1 S1                 0.0000
     13 ****        -3.1210   2.1869  -0.0007 C.3            1 S1                 0.0000
     14 ****        -1.8181   2.8765  -0.3188 C.3            1 S1                 0.0000
     15 ****         0.3417  -3.3411   2.1900 H              1 S1                 0.0000
     16 ****        -1.1671  -2.4969   2.5103 H              1 S1                 0.0000
     17 ****         0.3509  -1.8552   3.1357 H              1 S1                 0.0000
     18 ****        -0.4090  -2.1028   0.1899 H              1 S1                 0.0000
     19 ****         2.0629  -0.7287   1.3906 H              1 S1                 0.0000
     20 ****         2.0757  -2.3248   0.6700 H              1 S1                 0.0000
     21 ****         1.3422  -2.4600  -1.9674 H              1 S1                 0.0000
     22 ****         1.9442  -0.5749  -3.9327 H              1 S1                 0.0000
     23 ****         2.3481   1.2192  -0.1168 H              1 S1                 0.0000
     24 ****        -0.5611   0.1655   2.0746 H              1 S1                 0.0000
     25 ****        -1.7077   1.9638   1.7086 H              1 S1                 0.0000
     26 ****        -3.5640   1.5703  -0.7811 H              1 S1                 0.0000
     27 ****        -3.8357   2.7110   0.6306 H              1 S1                 0.0000
     28 ****        -1.6500   3.8674   0.0980 H              1 S1                 0.0000
     29 ****        -1.3955   2.7164  -1.3091 H              1 S1                 0.0000
     30 ****         2.5110   1.5309  -2.6453 H              1 S1                 0.0000
     31 ****        -0.9424  -0.8581  -1.2233 LP             1 S1                 0.0000
     32 ****        -1.8660   0.5473  -1.6375 LP             1 S1                 0.0000
@<TRIPOS>BOND
    1    1    2 1     
    2    1   15 1     
    3    1   16 1     
    4    1   17 1     
    5    2    3 1     
    6    2    9 1     
    7    2   18 1     
    8    3    4 1     
    9    3   19 1     
   10    3   20 1     
   11    4    8 1     
   12    4    5 1     
   13    5    6 2     
   14    5   21 1     
   15    6    7 1     
   16    6   22 1     
   17    7    8 2     
   18    7   30 1     
   19    8   23 1     
   20    9   10 am    
   21    9   24 1     
   22   10   11 2     
   23   10   12 1     
   24   12   14 1     
   25   12   13 1     
   26   12   25 1     
   27   13   14 1     
   28   13   26 1     
   29   13   27 1     
   30   14   28 1     
   31   14   29 1     
   32   11   31 1     
   33   11   32 1     
@<TRIPOS>SUBSTRUCTURE
      1 S1             1
@<TRIPOS>SET
LONE_PAIRS      STATIC     ATOMS    <user>   **** ""
2 31 32
DONOR_HYDROGENS      STATIC     ATOMS    <user>   **** ""
2 30 24
ATOM$BLUE        STATIC     ATOMS    COLORGROUP SYSTEM
2 31 32
ATOM$RED        STATIC     ATOMS    COLORGROUP SYSTEM
2 30 24
