AV-unprocessed.smi:1368|AV-procd|sdf|5576|dock4
  -GOLD-   22720 5173D 1   1.00000     0.00000
 Structure written by MMmdl.
 46 48  0  0  0  0  0  0  0  0  1 V2000
  141.1856  146.6684  155.3456 C   0  0  0  0  0  0  0  0  0  0  0  0
  142.4887  146.0735  154.8205 C   0  0  0  0  0  0  0  0  0  0  0  0
  143.1386  146.6965  153.9822 O   0  0  0  0  0  0  0  0  0  0  0  0
  142.8456  144.8894  155.3523 N   0  0  0  0  0  0  0  0  0  0  0  0
  143.9830  144.0851  155.0662 C   0  0  0  0  0  0  0  0  0  0  0  0
  144.6921  144.3712  153.8824 C   0  0  0  0  0  0  0  0  0  0  0  0
  145.8387  143.6305  153.5381 C   0  0  0  0  0  0  0  0  0  0  0  0
  146.3069  142.5953  154.3714 C   0  0  0  0  0  0  0  0  0  0  0  0
  147.4352  141.9197  153.9580 O   0  0  0  0  0  0  0  0  0  0  0  0
  147.6706  140.6198  154.4834 C   0  0  0  0  0  0  0  0  0  0  0  0
  148.6468  140.7258  155.6656 C   0  0  1  0  0  0  0  0  0  0  0  0
  148.5838  139.5221  156.4056 O   0  0  0  0  0  0  0  0  0  0  0  0
  150.0960  140.9534  155.1889 C   0  0  0  0  0  0  0  0  0  0  0  0
  151.0801  140.7659  156.2471 N   0  0  0  0  0  0  0  0  0  0  0  0
  151.9906  139.7694  156.3726 C   0  0  0  0  0  0  0  0  0  0  0  0
  152.0985  138.6665  155.3679 C   0  0  0  0  0  0  0  0  0  0  0  0
  152.7771  139.8314  157.4470 N   0  0  0  0  0  0  0  0  0  0  0  0
  152.3340  140.9763  158.0807 C   0  0  0  0  0  0  0  0  0  0  0  0
  152.7645  141.5874  159.2804 C   0  0  0  0  0  0  0  0  0  0  0  0
  152.1518  142.7725  159.7378 C   0  0  0  0  0  0  0  0  0  0  0  0
  151.1025  143.3628  159.0039 C   0  0  0  0  0  0  0  0  0  0  0  0
  150.6572  142.7695  157.8071 C   0  0  0  0  0  0  0  0  0  0  0  0
  151.2715  141.5862  157.3550 C   0  0  0  0  0  0  0  0  0  0  0  0
  145.6038  142.3173  155.5700 C   0  0  0  0  0  0  0  0  0  0  0  0
  144.4564  143.0571  155.9160 C   0  0  0  0  0  0  0  0  0  0  0  0
  140.4959  145.8871  155.6674 H   0  0  0  0  0  0  0  0  0  0  0  0
  140.6931  147.2545  154.5690 H   0  0  0  0  0  0  0  0  0  0  0  0
  141.3854  147.3231  156.1942 H   0  0  0  0  0  0  0  0  0  0  0  0
  142.2513  144.5456  156.0926 H   0  0  0  0  0  0  0  0  0  0  0  0
  144.3561  145.1610  153.2260 H   0  0  0  0  0  0  0  0  0  0  0  0
  146.3655  143.8601  152.6233 H   0  0  0  0  0  0  0  0  0  0  0  0
  146.7425  140.1336  154.7902 H   0  0  0  0  0  0  0  0  0  0  0  0
  148.1220  140.0111  153.6980 H   0  0  0  0  0  0  0  0  0  0  0  0
  148.3485  141.5515  156.3120 H   0  0  0  0  0  0  0  0  0  0  0  0
  147.8082  139.0501  156.1432 H   0  0  0  0  0  0  0  0  0  0  0  0
  150.3339  140.2729  154.3703 H   0  0  0  0  0  0  0  0  0  0  0  0
  150.2069  141.9593  154.7834 H   0  0  0  0  0  0  0  0  0  0  0  0
  152.9055  137.9836  155.6358 H   0  0  0  0  0  0  0  0  0  0  0  0
  152.3084  139.0719  154.3785 H   0  0  0  0  0  0  0  0  0  0  0  0
  151.1690  138.0986  155.3291 H   0  0  0  0  0  0  0  0  0  0  0  0
  153.5680  141.1434  159.8495 H   0  0  0  0  0  0  0  0  0  0  0  0
  152.4888  143.2311  160.6559 H   0  0  0  0  0  0  0  0  0  0  0  0
  150.6400  144.2718  159.3596 H   0  0  0  0  0  0  0  0  0  0  0  0
  149.8557  143.2200  157.2408 H   0  0  0  0  0  0  0  0  0  0  0  0
  145.9264  141.5418  156.2476 H   0  0  0  0  0  0  0  0  0  0  0  0
  143.9658  142.8235  156.8479 H   0  0  0  0  0  0  0  0  0  0  0  0
  1  2  1  0  0  0  0
  1 26  1  0  0  0  0
  1 27  1  0  0  0  0
  1 28  1  0  0  0  0
  2  3  2  0  0  0  0
  2  4  1  0  0  0  0
  4  5  1  0  0  0  0
  4 29  1  0  0  0  0
  5 25  1  0  0  0  0
  5  6  2  0  0  0  0
  6  7  1  0  0  0  0
  6 30  1  0  0  0  0
  7  8  2  0  0  0  0
  7 31  1  0  0  0  0
  8  9  1  0  0  0  0
  8 24  1  0  0  0  0
  9 10  1  0  0  0  0
 10 11  1  0  0  0  0
 10 32  1  0  0  0  0
 10 33  1  0  0  0  0
 11 12  1  0  0  0  0
 11 13  1  0  0  0  0
 11 34  1  0  0  0  0
 12 35  1  0  0  0  0
 13 14  1  0  0  0  0
 13 36  1  0  0  0  0
 13 37  1  0  0  0  0
 14 23  1  0  0  0  0
 14 15  1  0  0  0  0
 15 16  1  0  0  0  0
 15 17  2  0  0  0  0
 16 38  1  0  0  0  0
 16 39  1  0  0  0  0
 16 40  1  0  0  0  0
 17 18  1  0  0  0  0
 18 23  2  0  0  0  0
 18 19  1  0  0  0  0
 19 20  2  0  0  0  0
 19 41  1  0  0  0  0
 20 21  1  0  0  0  0
 20 42  1  0  0  0  0
 21 22  2  0  0  0  0
 21 43  1  0  0  0  0
 22 23  1  0  0  0  0
 22 44  1  0  0  0  0
 24 25  2  0  0  0  0
 24 45  1  0  0  0  0
 25 46  1  0  0  0  0
M  END
> <s_m_source_file>
AV-unprocessed.smi

> <i_m_source_file_index>
1368

> <i_lp_mmshare_version>
43012

> <i_f3d_flags>
0

> <s_epik_input>
W0NIM11DKD1PKVtOSF1jMVtjSF1bY0hdYyhbY0hdW2NIXTEpT1tDSDJdW0NASF0oW09IXSlbQ0gyXW4oYyhuMilbQ0gzXSljKGMyMylbY0hdW2NIXVtjSF1bY0hdMw==

> <s_epik_cmdline>
J2VwaWtfcHl0aG9uJywgJy1waCcsICc3LjAnLCAnLXRuJywgJzgnLCAnLW1hJywgJzIwMCcsICctbWV0YWxfYmluZGluZycsICctaW1hZScsICc8aW5maWxlLm1hZT4nLCAnLW9tYWUnLCAnPG91dGZpbGUubWFlPic=

> <r_lp_tautomer_probability>
1

> <r_epik_Ionization_Penalty>
0.119634

> <r_epik_Ionization_Penalty_Charging>
0

> <r_epik_Ionization_Penalty_Neutral>
0.119634

> <r_epik_State_Penalty>
0.10919

> <r_epik_Charging_Adjusted_Penalty>
0.10919

> <i_epik_Tot_Q>
0

> <i_epik_Tot_abs_Q>
0

> <r_epik_Metal_State_Penalty>
0.0906856

> <b_epik_Metal_Only>
0

> <s_lp_Force_Field>
OPLS_2005

> <r_lp_Energy>
21.7849

> <b_lp_Chiralities_Consistent>
1

> <s_lp_Variant>
AV-unprocessed.smi:1368-2

> <Gold.Version>
5.8.1

> <Gold.Id.Protein>
6NUR|6NUR_protein|mol2

> <Gold.PLP.Fitness>
49.0252

> <Gold.PLP.PLP>
-47.7682

> <Gold.PLP.part.hbond>
-2.3568

> <Gold.PLP.part.metal>
0.0000

> <Gold.PLP.part.buried>
-6.5151

> <Gold.PLP.part.nonpolar>
-38.9789

> <Gold.PLP.part.repulsive>
0.2211

> <Gold.PLP.ligand.clash>
0.0000

> <Gold.PLP.ligand.torsion>
0.9123

> <Gold.PLP.Chemscore.Hbond>
1.0000

> <Gold.PLP.Chemscore.CHOScore>
0.0000

> <Gold.PLP.Chemscore.Metal>
0.0000

> <Gold.Chemscore.Hbonds>
donor molecule, donor type, donor heavy atom, donor atom, acceptor molecule, acceptor atom, score
      P1  H  7997  8010       L1    17  1.00

> <Gold.PLP.Chemscore.Internal.Correction>
0.0816

> <Gold.Rescore>
     Score         DG    S(hbond)    S(metal)    S(lipo)     H(rot)  DE(clash)    DE(int)     intcor
     12.00     -14.35       0.51        0.00     113.51       2.39       0.03       2.32       ----

> <Gold.Chemscore.Fitness>
12.0019

> <Gold.Chemscore.DG>
-14.3549

> <Gold.Chemscore.ZeroCoef>
-5.4800

> <Gold.Chemscore.Hbond>
0.5139

> <Gold.Chemscore.Metal>
0.0000

> <Gold.Chemscore.Lipo>
113.5083

> <Gold.Chemscore.Internal_Hbond>
0.0000

> <Gold.Chemscore.DEClash>
0.0327

> <Gold.Chemscore.DEInternal>
2.3204

> <Gold.Chemscore.Rot>
2.3914

> <Gold.Chemscore.Internal.Correction>
   9.000000E+99

> <Gold.Chemscore.Hbonds>
donor molecule, donor type, donor heavy atom, donor atom, acceptor molecule, acceptor atom, score
      P1  H  7997  8010       L1    17  0.52

> <Gold.Chemscore.Hbond.Weighted>
-1.7164

> <Gold.Chemscore.Metal.Weighted>
-0.0000

> <Gold.Chemscore.Lipo.Weighted>
-13.2805

> <Gold.Chemscore.Internal_Hbond.Weighted>
0.0000

> <Gold.Chemscore.DEClash.Weighted>
0.0327

> <Gold.Chemscore.DEInternal.Weighted>
2.3204

> <Gold.Chemscore.Rot.Weighted>
6.1220

> <Gold.Chemscore.Internal.Correction.Weighted>
   9.000000E+99

> <Gold.Protein.RotatedTorsions>
[ 6907 6896 6895 6894 ] final -172.56 input  -60.11 | X-H torsion
[ 7974 7965 7964 7962 ] final  -49.46 input  175.53 | X-H torsion
[ 8008 7997 7996 7995 ] final   37.60 input   59.86 | X-H torsion
[ 10167 10162 10161 10158 ] final   86.48 input  -65.29 | X-H torsion
[ 10718 10713 10712 10709 ] final -179.57 input   66.30 | X-H torsion
[ 10763 10752 10751 10750 ] final -150.89 input  -60.55 | X-H torsion
[ 11005 11000 10999 10996 ] final  175.81 input  -57.11 | X-H torsion

> <Gold.Protein.ActiveResidues>
 VAL166  LYS551  ARG553  GLY616  TRP617  ASP618  TYR619  PRO620  LYS621  CYS622 
 ASP623  PHE694  ASN695  SER759  ASP760  ASP761  ALA762  ILE779  LEU786  VAL792 
 PHE793  MET794  SER795  GLU796  ALA797  LYS798  CYS799  TRP800  GLU811  SER814 

> <Gold.Protein.RotatedAtoms>
  151.5419  133.3431  159.2936 H   0  0  0  0  0  0  0  0  0  0  0  0  # atno 6907 bound_to 6896
  150.8530  134.7864  159.7035 H   0  0  0  0  0  0  0  0  0  0  0  0  # atno 6908 bound_to 6896
  152.4571  134.5275  159.9852 H   0  0  0  0  0  0  0  0  0  0  0  0  # atno 6909 bound_to 6896
  145.9403  140.7668  142.9555 H   0  0  0  0  0  0  0  0  0  0  0  0  # atno 7974 bound_to 7965
  155.2064  140.3320  155.4335 H   0  0  0  0  0  0  0  0  0  0  0  0  # atno 8008 bound_to 7997
  156.2387  140.1885  156.7097 H   0  0  0  0  0  0  0  0  0  0  0  0  # atno 8009 bound_to 7997
  154.6107  140.0609  156.9475 H   0  0  0  0  0  0  0  0  0  0  0  0  # atno 8010 bound_to 7997
  139.8871  144.6407  150.8779 H   0  0  0  0  0  0  0  0  0  0  0  0  # atno 10167 bound_to 10162
  156.8611  130.9752  151.3083 H   0  0  0  0  0  0  0  0  0  0  0  0  # atno 10718 bound_to 10713
  154.8091  135.3273  154.7352 H   0  0  0  0  0  0  0  0  0  0  0  0  # atno 10763 bound_to 10752
  153.8005  135.6904  153.4861 H   0  0  0  0  0  0  0  0  0  0  0  0  # atno 10764 bound_to 10752
  153.1857  135.4569  155.0031 H   0  0  0  0  0  0  0  0  0  0  0  0  # atno 10765 bound_to 10752
  140.3663  134.7069  157.4363 H   0  0  0  0  0  0  0  0  0  0  0  0  # atno 11005 bound_to 11000
  144.6778  140.2269  143.7360 LP  0  0  0  0  0  0  0  0  0  0  0  0  # atno 17320 bound_to 7965
  145.8309  139.2085  143.1883 LP  0  0  0  0  0  0  0  0  0  0  0  0  # atno 17321 bound_to 7965
  140.7733  143.3539  151.1959 LP  0  0  0  0  0  0  0  0  0  0  0  0  # atno 17342 bound_to 10162
  139.7143  143.9326  152.2960 LP  0  0  0  0  0  0  0  0  0  0  0  0  # atno 17343 bound_to 10162
  157.6249  130.8684  149.9173 LP  0  0  0  0  0  0  0  0  0  0  0  0  # atno 17370 bound_to 10713
  156.0776  130.3677  150.0646 LP  0  0  0  0  0  0  0  0  0  0  0  0  # atno 17371 bound_to 10713
  140.0587  134.6027  155.8774 LP  0  0  0  0  0  0  0  0  0  0  0  0  # atno 17394 bound_to 11000
  141.1968  133.6593  156.5712 LP  0  0  0  0  0  0  0  0  0  0  0  0  # atno 17395 bound_to 11000

$$$$
