#       Name:                AV-unprocessed.smi:3033
#       Creating user name   scv26
#       Creation time:       Fri Mar 27 16:54:06 2020


#       File generated by GOLD software.
#

@<TRIPOS>MOLECULE
AV-unprocessed.smi:3033
    41    42     1
SMALL
NO_CHARGES


@<TRIPOS>ATOM
      1 ****        -2.2995   3.3931   0.1026 C.3            1 S1                 0.0000
      2 ****        -2.8469   2.1707   0.5751 O.3            1 S1                 0.0000
      3 ****        -1.9745   1.1760   0.9617 C.ar           1 S1                 0.0000
      4 ****        -2.5407  -0.0410   1.3916 C.ar           1 S1                 0.0000
      5 ****        -1.7225  -1.1135   1.7917 C.ar           1 S1                 0.0000
      6 ****        -0.3227  -0.9795   1.7651 C.ar           1 S1                 0.0000
      7 ****         0.2651   0.2321   1.3404 C.ar           1 S1                 0.0000
      8 ****         1.7811   0.3918   1.2607 C.3            1 S1                 0.0000
      9 ****         2.4877  -0.4145   2.1827 O.3            1 S1                 0.0000
     10 ****         2.3739   0.1980  -0.1611 C.3            1 S1                 0.0000
     11 ****         1.6040  -0.6504  -1.0431 N.am           1 S1                 0.0000
     12 ****         0.6704  -0.1510  -1.9398 C.2            1 S1                 0.0000
     13 ****        -0.0942  -0.9400  -2.7322 C.2            1 S1                 0.0000
     14 ****        -1.2470  -0.2416  -3.8125 Cl             1 S1                 0.0000
     15 ****         0.0463  -2.3942  -2.6703 C.2            1 S1                 0.0000
     16 ****        -0.5935  -3.2008  -3.3423 O.2            1 S1                 0.0000
     17 ****         0.9984  -2.8521  -1.7544 N.am           1 S1                 0.0000
     18 ****         1.7870  -2.0473  -0.9315 C.2            1 S1                 0.0000
     19 ****         2.5863  -2.5638  -0.1511 O.2            1 S1                 0.0000
     20 ****        -0.5629   1.3045   0.9451 C.ar           1 S1                 0.0000
     21 ****         1.1226  -3.8512  -1.6785 H              1 S1                 0.0000
     22 ****        -3.1097   4.0640  -0.1825 H              1 S1                 0.0000
     23 ****        -1.6760   3.2367  -0.7789 H              1 S1                 0.0000
     24 ****        -1.7144   3.8922   0.8763 H              1 S1                 0.0000
     25 ****        -3.6147  -0.1553   1.4103 H              1 S1                 0.0000
     26 ****        -2.1696  -2.0426   2.1132 H              1 S1                 0.0000
     27 ****         0.2937  -1.8168   2.0583 H              1 S1                 0.0000
     28 ****         2.0079   1.4124   1.5718 H              1 S1                 0.0000
     29 ****         2.2185  -0.1764   3.0567 H              1 S1                 0.0000
     30 ****         2.3905   1.1653  -0.6659 H              1 S1                 0.0000
     31 ****         3.4123  -0.1419  -0.1697 H              1 S1                 0.0000
     32 ****         0.5326   0.9190  -2.0048 H              1 S1                 0.0000
     33 ****        -0.0892   2.2167   0.6157 H              1 S1                 0.0000
     34 ****        -3.4170   1.7979  -0.1570 LP             1 S1                 0.0000
     35 ****        -3.4194   2.3876   1.3658 LP             1 S1                 0.0000
     36 ****         3.4707  -0.2628   2.0794 LP             1 S1                 0.0000
     37 ****         2.2798  -1.3784   2.0165 LP             1 S1                 0.0000
     38 ****        -1.2761  -2.8760  -3.9970 LP             1 S1                 0.0000
     39 ****        -0.4313  -4.1816  -3.2342 LP             1 S1                 0.0000
     40 ****         3.1463  -1.9882   0.4448 LP             1 S1                 0.0000
     41 ****         2.6758  -3.5590  -0.1129 LP             1 S1                 0.0000
@<TRIPOS>BOND
    1    1    2 1     
    2    1   22 1     
    3    1   23 1     
    4    1   24 1     
    5    2    3 1     
    6    3   20 ar    
    7    3    4 ar    
    8    4    5 ar    
    9    4   25 1     
   10    5    6 ar    
   11    5   26 1     
   12    6    7 ar    
   13    6   27 1     
   14    7    8 1     
   15    7   20 ar    
   16    8    9 1     
   17    8   10 1     
   18    8   28 1     
   19    9   29 1     
   20   10   11 1     
   21   10   30 1     
   22   10   31 1     
   23   11   18 1     
   24   11   12 1     
   25   12   13 2     
   26   12   32 1     
   27   13   14 1     
   28   13   15 1     
   29   15   16 2     
   30   15   17 1     
   31   17   21 1     
   32   17   18 1     
   33   18   19 2     
   34   20   33 1     
   35    2   34 1     
   36    2   35 1     
   37    9   36 1     
   38    9   37 1     
   39   16   38 1     
   40   16   39 1     
   41   19   40 1     
   42   19   41 1     
@<TRIPOS>SUBSTRUCTURE
      1 S1             1
@<TRIPOS>SET
LONE_PAIRS      STATIC     ATOMS    <user>   **** ""
8 34 35 36 37 38 39 40 41
DONOR_HYDROGENS      STATIC     ATOMS    <user>   **** ""
2 29 21
ATOM$BLUE        STATIC     ATOMS    COLORGROUP SYSTEM
8 34 35 36 37 38 39 40 41
ATOM$RED        STATIC     ATOMS    COLORGROUP SYSTEM
2 29 21
