AV-unprocessed.smi:1696|AV-procd|sdf|6800|dock1
  -GOLD-   22720 7563D 1   1.00000     0.00000
 Structure written by MMmdl.
 39 40  0  0  0  0  0  0  0  0  2 V2000
  146.9930  138.8272  153.0901 C   0  0  0  0  0  0  0  0  0  0  0  0
  146.5899  137.7773  154.1367 C   0  0  0  0  0  0  0  0  0  0  0  0
  145.9085  136.5109  153.5506 C   0  0  1  0  0  0  0  0  0  0  0  0
  145.0312  136.8345  152.3078 C   0  0  0  0  0  0  0  0  0  0  0  0
  143.8444  137.6289  152.6236 N   0  0  0  0  0  0  0  0  0  0  0  0
  142.6170  137.1417  152.8544 C   0  0  0  0  0  0  0  0  0  0  0  0
  142.3508  135.9408  152.8454 O   0  0  0  0  0  0  0  0  0  0  0  0
  141.7395  138.1297  153.0928 N   0  0  0  0  0  0  0  0  0  0  0  0
  140.3599  138.0103  153.3925 C   0  0  0  0  0  0  0  0  0  0  0  0
  139.6169  139.1166  153.4561 N   0  0  0  0  0  0  0  0  0  0  0  0
  138.2811  138.8349  153.7575 C   0  0  0  0  0  0  0  0  0  0  0  0
  138.0235  137.4968  153.9245 C   0  0  0  0  0  0  0  0  0  0  0  0
  139.4563  136.5274  153.7102 S   0  0  0  0  0  0  0  0  0  0  0  0
  146.9065  135.4433  153.2349 N   0  3  0  0  0  0  0  0  0  0  0  0
  147.5802  134.8129  154.3916 C   0  0  0  0  0  0  0  0  0  0  0  0
  148.1308  133.4952  153.8599 C   0  0  0  0  0  0  0  0  0  0  0  0
  147.0511  133.0379  152.8869 C   0  0  0  0  0  0  0  0  0  0  0  0
  146.3949  134.3332  152.3895 C   0  0  0  0  0  0  0  0  0  0  0  0
  147.3524  139.7335  153.5779 H   0  0  0  0  0  0  0  0  0  0  0  0
  146.1457  139.1049  152.4630 H   0  0  0  0  0  0  0  0  0  0  0  0
  147.7938  138.4766  152.4405 H   0  0  0  0  0  0  0  0  0  0  0  0
  147.4590  137.4997  154.7332 H   0  0  0  0  0  0  0  0  0  0  0  0
  145.9111  138.2844  154.8208 H   0  0  0  0  0  0  0  0  0  0  0  0
  145.2499  136.1155  154.3257 H   0  0  0  0  0  0  0  0  0  0  0  0
  145.6125  137.4157  151.5922 H   0  0  0  0  0  0  0  0  0  0  0  0
  144.7592  135.9314  151.7620 H   0  0  0  0  0  0  0  0  0  0  0  0
  143.9617  138.6317  152.6402 H   0  0  0  0  0  0  0  0  0  0  0  0
  142.0942  139.0737  153.0550 H   0  0  0  0  0  0  0  0  0  0  0  0
  137.5772  139.6506  153.8331 H   0  0  0  0  0  0  0  0  0  0  0  0
  137.0811  137.0243  154.1588 H   0  0  0  0  0  0  0  0  0  0  0  0
  148.3714  135.4431  154.7989 H   0  0  0  0  0  0  0  0  0  0  0  0
  146.8530  134.6178  155.1818 H   0  0  0  0  0  0  0  0  0  0  0  0
  149.0632  133.6731  153.3222 H   0  0  0  0  0  0  0  0  0  0  0  0
  148.3290  132.7680  154.6480 H   0  0  0  0  0  0  0  0  0  0  0  0
  147.4542  132.4331  152.0741 H   0  0  0  0  0  0  0  0  0  0  0  0
  146.3137  132.4322  153.4154 H   0  0  0  0  0  0  0  0  0  0  0  0
  145.3102  134.2400  152.4594 H   0  0  0  0  0  0  0  0  0  0  0  0
  146.6446  134.5300  151.3466 H   0  0  0  0  0  0  0  0  0  0  0  0
  147.6425  135.8824  152.7004 H   0  0  0  0  0  0  0  0  0  0  0  0
  1  2  1  0  0  0  0
  1 19  1  0  0  0  0
  1 20  1  0  0  0  0
  1 21  1  0  0  0  0
  2  3  1  0  0  0  0
  2 22  1  0  0  0  0
  2 23  1  0  0  0  0
  3  4  1  0  0  0  0
  3 14  1  0  0  0  0
  3 24  1  0  0  0  0
  4  5  1  0  0  0  0
  4 25  1  0  0  0  0
  4 26  1  0  0  0  0
  5  6  1  0  0  0  0
  5 27  1  0  0  0  0
  6  7  2  0  0  0  0
  6  8  1  0  0  0  0
  8  9  1  0  0  0  0
  8 28  1  0  0  0  0
  9 13  1  0  0  0  0
  9 10  2  0  0  0  0
 10 11  1  0  0  0  0
 11 12  2  0  0  0  0
 11 29  1  0  0  0  0
 12 13  1  0  0  0  0
 12 30  1  0  0  0  0
 14 18  1  0  0  0  0
 14 15  1  0  0  0  0
 14 39  1  0  0  0  0
 15 16  1  0  0  0  0
 15 31  1  0  0  0  0
 15 32  1  0  0  0  0
 16 17  1  0  0  0  0
 16 33  1  0  0  0  0
 16 34  1  0  0  0  0
 17 18  1  0  0  0  0
 17 35  1  0  0  0  0
 17 36  1  0  0  0  0
 18 37  1  0  0  0  0
 18 38  1  0  0  0  0
M  CHG  1  14   1
M  END
> <s_m_source_file>
AV-unprocessed.smi

> <i_m_source_file_index>
1696

> <i_lp_mmshare_version>
43012

> <i_f3d_flags>
0

> <s_epik_input>
W0NIMl0xW0NIMl1bQ0gyXVtDSDJdTjFbQ0BIXShbQ0gyXVtDSDNdKVtDSDJdW05IXUMoPU8pW05IXWMybltjSF1bY0hdczI=

> <s_epik_cmdline>
J2VwaWtfcHl0aG9uJywgJy1waCcsICc3LjAnLCAnLXRuJywgJzgnLCAnLW1hJywgJzIwMCcsICctbWV0YWxfYmluZGluZycsICctaW1hZScsICc8aW5maWxlLm1hZT4nLCAnLW9tYWUnLCAnPG91dGZpbGUubWFlPic=

> <r_lp_tautomer_probability>
1

> <r_epik_Ionization_Penalty>
0.0013883

> <r_epik_Ionization_Penalty_Charging>
0.00115997

> <r_epik_Ionization_Penalty_Neutral>
0.000228323

> <r_epik_State_Penalty>
-0

> <r_epik_Charging_Adjusted_Penalty>
0.00115997

> <i_epik_Tot_Q>
1

> <i_epik_Tot_abs_Q>
1

> <r_epik_Metal_State_Penalty>
0.0131845

> <b_epik_Metal_Only>
0

> <s_lp_Force_Field>
OPLS_2005

> <r_lp_Energy>
36.9264

> <b_lp_Chiralities_Consistent>
1

> <s_lp_Variant>
AV-unprocessed.smi:1696-2

> <Gold.Version>
5.8.1

> <Gold.Id.Protein>
6NUR|6NUR_protein|mol2

> <Gold.PLP.Fitness>
38.6107

> <Gold.PLP.PLP>
-28.0995

> <Gold.PLP.part.hbond>
-4.0000

> <Gold.PLP.part.metal>
0.0000

> <Gold.PLP.part.buried>
-4.4050

> <Gold.PLP.part.nonpolar>
-20.8144

> <Gold.PLP.part.repulsive>
1.1598

> <Gold.PLP.ligand.clash>
0.0000

> <Gold.PLP.ligand.torsion>
0.7896

> <Gold.PLP.Chemscore.Hbond>
4.0000

> <Gold.PLP.Chemscore.CHOScore>
0.0000

> <Gold.PLP.Chemscore.Metal>
0.0000

> <Gold.Chemscore.Hbonds>
donor molecule, donor type, donor heavy atom, donor atom, acceptor molecule, acceptor atom, score
      L1  H     5    27       P1 10175  1.00
      L1  H     8    28       P1 10175  0.80
      L1  H    14    39       P1  7948  2.00

> <Gold.PLP.Chemscore.Internal.Correction>
0.0904

> <Gold.Rescore>
     Score         DG    S(hbond)    S(metal)    S(lipo)     H(rot)  DE(clash)    DE(int)     intcor
     15.85     -17.44       2.95        0.00      56.93       1.77       0.02       1.57       ----

> <Gold.Chemscore.Fitness>
15.8541

> <Gold.Chemscore.DG>
-17.4447

> <Gold.Chemscore.ZeroCoef>
-5.4800

> <Gold.Chemscore.Hbond>
2.9450

> <Gold.Chemscore.Metal>
0.0000

> <Gold.Chemscore.Lipo>
56.9294

> <Gold.Chemscore.Internal_Hbond>
0.0000

> <Gold.Chemscore.DEClash>
0.0243

> <Gold.Chemscore.DEInternal>
1.5662

> <Gold.Chemscore.Rot>
1.7705

> <Gold.Chemscore.Internal.Correction>
   9.000000E+99

> <Gold.Chemscore.Hbonds>
donor molecule, donor type, donor heavy atom, donor atom, acceptor molecule, acceptor atom, score
      L1  H     5    27       P1 10175  1.00
      L1  H     8    28       P1 10175  0.73
      L1  H    14    39       P1  7948  0.98

> <Gold.Chemscore.Hbond.Weighted>
-9.8364

> <Gold.Chemscore.Metal.Weighted>
-0.0000

> <Gold.Chemscore.Lipo.Weighted>
-6.6607

> <Gold.Chemscore.Internal_Hbond.Weighted>
0.0000

> <Gold.Chemscore.DEClash.Weighted>
0.0243

> <Gold.Chemscore.DEInternal.Weighted>
1.5662

> <Gold.Chemscore.Rot.Weighted>
4.5324

> <Gold.Chemscore.Internal.Correction.Weighted>
   9.000000E+99

> <Gold.Protein.RotatedTorsions>
[ 6907 6896 6895 6894 ] final  -39.15 input  -60.11 | X-H torsion
[ 7974 7965 7964 7962 ] final  -85.26 input  175.53 | X-H torsion
[ 8008 7997 7996 7995 ] final   -2.46 input   59.86 | X-H torsion
[ 10167 10162 10161 10158 ] final   41.81 input  -65.29 | X-H torsion
[ 10718 10713 10712 10709 ] final -146.18 input   66.30 | X-H torsion
[ 10763 10752 10751 10750 ] final   59.55 input  -60.55 | X-H torsion
[ 11005 11000 10999 10996 ] final -152.58 input  -57.11 | X-H torsion

> <Gold.Protein.ActiveResidues>
 VAL166  LYS551  ARG553  GLY616  TRP617  ASP618  TYR619  PRO620  LYS621  CYS622 
 ASP623  PHE694  ASN695  SER759  ASP760  ASP761  ALA762  ILE779  LEU786  VAL792 
 PHE793  MET794  SER795  GLU796  ALA797  LYS798  CYS799  TRP800  GLU811  SER814 

> <Gold.Protein.RotatedAtoms>
  150.9938  134.9267  159.7914 H   0  0  0  0  0  0  0  0  0  0  0  0  # atno 6907 bound_to 6896
  152.5259  134.3245  159.9170 H   0  0  0  0  0  0  0  0  0  0  0  0  # atno 6908 bound_to 6896
  151.3251  133.3982  159.2692 H   0  0  0  0  0  0  0  0  0  0  0  0  # atno 6909 bound_to 6896
  145.4956  140.9550  143.1788 H   0  0  0  0  0  0  0  0  0  0  0  0  # atno 7974 bound_to 7965
  154.6355  140.2534  155.7383 H   0  0  0  0  0  0  0  0  0  0  0  0  # atno 8008 bound_to 7997
  156.2502  140.2898  156.0646 H   0  0  0  0  0  0  0  0  0  0  0  0  # atno 8009 bound_to 7997
  155.1677  140.0386  157.2846 H   0  0  0  0  0  0  0  0  0  0  0  0  # atno 8010 bound_to 7997
  140.3607  144.2232  150.6138 H   0  0  0  0  0  0  0  0  0  0  0  0  # atno 10167 bound_to 10162
  156.3917  130.7889  151.2091 H   0  0  0  0  0  0  0  0  0  0  0  0  # atno 10718 bound_to 10713
  152.9897  135.5567  154.5731 H   0  0  0  0  0  0  0  0  0  0  0  0  # atno 10763 bound_to 10752
  154.5127  135.2803  155.1331 H   0  0  0  0  0  0  0  0  0  0  0  0  # atno 10764 bound_to 10752
  154.2716  135.6362  153.5365 H   0  0  0  0  0  0  0  0  0  0  0  0  # atno 10765 bound_to 10752
  140.7174  134.3765  157.5189 H   0  0  0  0  0  0  0  0  0  0  0  0  # atno 11005 bound_to 11000
  144.7809  139.6528  143.7155 LP  0  0  0  0  0  0  0  0  0  0  0  0  # atno 17320 bound_to 7965
  146.2257  139.5719  142.9588 LP  0  0  0  0  0  0  0  0  0  0  0  0  # atno 17321 bound_to 7965
  140.5130  143.2285  151.8506 LP  0  0  0  0  0  0  0  0  0  0  0  0  # atno 17342 bound_to 10162
  139.4814  144.4927  151.9164 LP  0  0  0  0  0  0  0  0  0  0  0  0  # atno 17343 bound_to 10162
  157.7499  131.0313  150.4178 LP  0  0  0  0  0  0  0  0  0  0  0  0  # atno 17370 bound_to 10713
  156.4441  130.3997  149.6678 LP  0  0  0  0  0  0  0  0  0  0  0  0  # atno 17371 bound_to 10713
  139.8856  134.8931  156.2631 LP  0  0  0  0  0  0  0  0  0  0  0  0  # atno 17394 bound_to 11000
  141.0033  133.7138  156.0995 LP  0  0  0  0  0  0  0  0  0  0  0  0  # atno 17395 bound_to 11000

$$$$
