AV-unprocessed.smi:3015|AV-procd|sdf|11470|dock2
  -GOLD-   2272016403D 1   1.00000     0.00000
 Structure written by MMmdl.
 24 24  0  0  0  0  0  0  0  0  2 V2000
  145.8287  139.1186  151.2650 N   0  3  0  0  0  0  0  0  0  0  0  0
  146.2704  137.9903  152.1068 C   0  0  2  0  0  0  0  0  0  0  0  0
  145.4268  136.7392  151.8067 C   0  0  0  0  0  0  0  0  0  0  0  0
  145.4023  136.4890  150.4168 O   0  0  0  0  0  0  0  0  0  0  0  0
  146.2020  138.3713  153.5982 C   0  0  0  0  0  0  0  0  0  0  0  0
  147.1776  139.4718  153.9776 C   0  0  0  0  0  0  0  0  0  0  0  0
  148.5520  139.1968  154.1352 C   0  0  0  0  0  0  0  0  0  0  0  0
  149.4195  140.2497  154.4839 C   0  0  0  0  0  0  0  0  0  0  0  0
  148.8746  141.5370  154.6627 C   0  0  0  0  0  0  0  0  0  0  0  0
  147.5604  141.8117  154.5155 N   0  0  0  0  0  0  0  0  0  0  0  0
  146.7349  140.7961  154.1850 C   0  0  0  0  0  0  0  0  0  0  0  0
  145.3603  139.8058  151.8375 H   0  0  0  0  0  0  0  0  0  0  0  0
  145.1913  138.7768  150.5598 H   0  0  0  0  0  0  0  0  0  0  0  0
  147.3098  137.7751  151.8544 H   0  0  0  0  0  0  0  0  0  0  0  0
  145.8557  135.8648  152.2976 H   0  0  0  0  0  0  0  0  0  0  0  0
  144.4074  136.8500  152.1786 H   0  0  0  0  0  0  0  0  0  0  0  0
  144.8505  137.1355  150.0021 H   0  0  0  0  0  0  0  0  0  0  0  0
  145.1888  138.6774  153.8632 H   0  0  0  0  0  0  0  0  0  0  0  0
  146.4239  137.4984  154.2138 H   0  0  0  0  0  0  0  0  0  0  0  0
  148.9369  138.1980  153.9895 H   0  0  0  0  0  0  0  0  0  0  0  0
  150.4776  140.0755  154.6124 H   0  0  0  0  0  0  0  0  0  0  0  0
  149.5113  142.3674  154.9301 H   0  0  0  0  0  0  0  0  0  0  0  0
  145.6910  141.0507  154.0745 H   0  0  0  0  0  0  0  0  0  0  0  0
  146.6314  139.5398  150.8196 H   0  0  0  0  0  0  0  0  0  0  0  0
  1  2  1  0  0  0  0
  1 12  1  0  0  0  0
  1 13  1  0  0  0  0
  1 24  1  0  0  0  0
  2  3  1  0  0  0  0
  2  5  1  0  0  0  0
  2 14  1  0  0  0  0
  3  4  1  0  0  0  0
  3 15  1  0  0  0  0
  3 16  1  0  0  0  0
  4 17  1  0  0  0  0
  5  6  1  0  0  0  0
  5 18  1  0  0  0  0
  5 19  1  0  0  0  0
  6 11  1  0  0  0  0
  6  7  2  0  0  0  0
  7  8  1  0  0  0  0
  7 20  1  0  0  0  0
  8  9  2  0  0  0  0
  8 21  1  0  0  0  0
  9 10  1  0  0  0  0
  9 22  1  0  0  0  0
 10 11  2  0  0  0  0
 11 23  1  0  0  0  0
M  CHG  1   1   1
M  END
> <s_m_source_file>
AV-unprocessed.smi

> <i_m_source_file_index>
3015

> <i_lp_mmshare_version>
43012

> <i_f3d_flags>
0

> <s_epik_input>
W09IXVtDSDJdW0NAQEhdKFtOSDJdKVtDSDJdYzFbY0hdW2NIXVtjSF1uW2NIXTE=

> <s_epik_cmdline>
J2VwaWtfcHl0aG9uJywgJy1waCcsICc3LjAnLCAnLXRuJywgJzgnLCAnLW1hJywgJzIwMCcsICctbWV0YWxfYmluZGluZycsICctaW1hZScsICc8aW5maWxlLm1hZT4nLCAnLW9tYWUnLCAnPG91dGZpbGUubWFlPic=

> <r_epik_Ionization_Penalty>
0.0193991

> <r_epik_Ionization_Penalty_Charging>
0.0188044

> <r_epik_Ionization_Penalty_Neutral>
0.000594726

> <r_epik_State_Penalty>
0.00921718

> <r_epik_Charging_Adjusted_Penalty>
0.0280216

> <i_epik_Tot_Q>
1

> <i_epik_Tot_abs_Q>
1

> <r_epik_Metal_State_Penalty>
0.00867471

> <b_epik_Metal_Only>
0

> <s_lp_Force_Field>
OPLS_2005

> <r_lp_Energy>
6.76442

> <b_lp_Chiralities_Consistent>
1

> <s_lp_Variant>
AV-unprocessed.smi:3015-1

> <Gold.Version>
5.8.1

> <Gold.Id.Protein>
6NUR|6NUR_protein|mol2

> <Gold.PLP.Fitness>
37.7811

> <Gold.PLP.PLP>
-20.3265

> <Gold.PLP.part.hbond>
-3.4297

> <Gold.PLP.part.metal>
0.0000

> <Gold.PLP.part.buried>
-1.0274

> <Gold.PLP.part.nonpolar>
-16.7303

> <Gold.PLP.part.repulsive>
0.2294

> <Gold.PLP.ligand.clash>
0.0000

> <Gold.PLP.ligand.torsion>
0.2694

> <Gold.PLP.Chemscore.Hbond>
3.9920

> <Gold.PLP.Chemscore.CHOScore>
2.0000

> <Gold.PLP.Chemscore.Metal>
0.0000

> <Gold.Chemscore.Hbonds>
donor molecule, donor type, donor heavy atom, donor atom, acceptor molecule, acceptor atom, score
      L1  H     1    12       P1 10175  1.82
      L1  H     1    13       P1 10171  0.94
      L1  H     4    17       P1 10171  1.00
      L1  C     9    22       P1  8028  0.98
      L1  C    11    23       P1 10175  0.78

> <Gold.PLP.Chemscore.Internal.Correction>
0.0175

> <Gold.Rescore>
     Score         DG    S(hbond)    S(metal)    S(lipo)     H(rot)  DE(clash)    DE(int)     intcor
     14.63     -15.26       2.86        0.00      48.67       2.14       0.14       0.49       ----

> <Gold.Chemscore.Fitness>
14.6273

> <Gold.Chemscore.DG>
-15.2602

> <Gold.Chemscore.ZeroCoef>
-5.4800

> <Gold.Chemscore.Hbond>
2.8639

> <Gold.Chemscore.Metal>
0.0000

> <Gold.Chemscore.Lipo>
48.6694

> <Gold.Chemscore.Internal_Hbond>
0.0000

> <Gold.Chemscore.DEClash>
0.1386

> <Gold.Chemscore.DEInternal>
0.4942

> <Gold.Chemscore.Rot>
2.1405

> <Gold.Chemscore.Internal.Correction>
   9.000000E+99

> <Gold.Chemscore.Hbonds>
donor molecule, donor type, donor heavy atom, donor atom, acceptor molecule, acceptor atom, score
      L1  H     1    12       P1 10175  0.58
      L1  H     1    13       P1 10171  0.89
      L1  H     4    17       P1 10171  1.00

> <Gold.Chemscore.Hbond.Weighted>
-9.5656

> <Gold.Chemscore.Metal.Weighted>
-0.0000

> <Gold.Chemscore.Lipo.Weighted>
-5.6943

> <Gold.Chemscore.Internal_Hbond.Weighted>
0.0000

> <Gold.Chemscore.DEClash.Weighted>
0.1386

> <Gold.Chemscore.DEInternal.Weighted>
0.4942

> <Gold.Chemscore.Rot.Weighted>
5.4797

> <Gold.Chemscore.Internal.Correction.Weighted>
   9.000000E+99

> <Gold.Protein.RotatedTorsions>
[ 6907 6896 6895 6894 ] final    1.46 input  -60.11 | X-H torsion
[ 7974 7965 7964 7962 ] final   46.59 input  175.53 | X-H torsion
[ 8008 7997 7996 7995 ] final  170.83 input   59.86 | X-H torsion
[ 10167 10162 10161 10158 ] final  -64.61 input  -65.29 | X-H torsion
[ 10718 10713 10712 10709 ] final   83.15 input   66.30 | X-H torsion
[ 10763 10752 10751 10750 ] final  -21.52 input  -60.55 | X-H torsion
[ 11005 11000 10999 10996 ] final   68.56 input  -57.11 | X-H torsion

> <Gold.Protein.ActiveResidues>
 VAL166  LYS551  ARG553  GLY616  TRP617  ASP618  TYR619  PRO620  LYS621  CYS622 
 ASP623  PHE694  ASN695  SER759  ASP760  ASP761  ALA762  ILE779  LEU786  VAL792 
 PHE793  MET794  SER795  GLU796  ALA797  LYS798  CYS799  TRP800  GLU811  SER814 

> <Gold.Protein.RotatedAtoms>
  151.5930  135.1052  160.0043 H   0  0  0  0  0  0  0  0  0  0  0  0  # atno 6907 bound_to 6896
  152.4296  133.7251  159.6566 H   0  0  0  0  0  0  0  0  0  0  0  0  # atno 6908 bound_to 6896
  150.8188  133.8219  159.3171 H   0  0  0  0  0  0  0  0  0  0  0  0  # atno 6909 bound_to 6896
  146.0376  139.4839  142.9799 H   0  0  0  0  0  0  0  0  0  0  0  0  # atno 7974 bound_to 7965
  156.1329  140.1528  156.9039 H   0  0  0  0  0  0  0  0  0  0  0  0  # atno 8008 bound_to 7997
  154.4923  140.0848  156.7661 H   0  0  0  0  0  0  0  0  0  0  0  0  # atno 8009 bound_to 7997
  155.4223  140.3423  155.4275 H   0  0  0  0  0  0  0  0  0  0  0  0  # atno 8010 bound_to 7997
  140.5789  143.2325  151.6384 H   0  0  0  0  0  0  0  0  0  0  0  0  # atno 10167 bound_to 10162
  157.6873  131.0078  150.2480 H   0  0  0  0  0  0  0  0  0  0  0  0  # atno 10718 bound_to 10713
  153.6374  135.6986  153.5254 H   0  0  0  0  0  0  0  0  0  0  0  0  # atno 10763 bound_to 10752
  153.2810  135.4185  155.1078 H   0  0  0  0  0  0  0  0  0  0  0  0  # atno 10764 bound_to 10752
  154.8508  135.3602  154.5917 H   0  0  0  0  0  0  0  0  0  0  0  0  # atno 10765 bound_to 10752
  139.9704  134.6909  156.0458 H   0  0  0  0  0  0  0  0  0  0  0  0  # atno 11005 bound_to 11000
  145.6939  141.0156  143.1541 LP  0  0  0  0  0  0  0  0  0  0  0  0  # atno 17320 bound_to 7965
  144.7059  139.8564  143.7430 LP  0  0  0  0  0  0  0  0  0  0  0  0  # atno 17321 bound_to 7965
  139.5158  144.3366  152.0778 LP  0  0  0  0  0  0  0  0  0  0  0  0  # atno 17342 bound_to 10162
  140.2514  144.4165  150.6220 LP  0  0  0  0  0  0  0  0  0  0  0  0  # atno 17343 bound_to 10162
  156.3082  130.3768  149.7686 LP  0  0  0  0  0  0  0  0  0  0  0  0  # atno 17370 bound_to 10713
  156.5295  130.8251  151.3232 LP  0  0  0  0  0  0  0  0  0  0  0  0  # atno 17371 bound_to 10713
  141.1384  133.6570  156.3659 LP  0  0  0  0  0  0  0  0  0  0  0  0  # atno 17394 bound_to 11000
  140.5305  134.6217  157.5348 LP  0  0  0  0  0  0  0  0  0  0  0  0  # atno 17395 bound_to 11000

$$$$
