#       Name:                AV-unprocessed.smi:100
#       Creating user name   scv26
#       Creation time:       Thu Mar 26 17:40:59 2020


#       File generated by GOLD software.
#

@<TRIPOS>MOLECULE
AV-unprocessed.smi:100
    40    42     1
SMALL
NO_CHARGES


@<TRIPOS>ATOM
      1 ****        -4.9756   0.1862   0.3366 N.pl3          1 S1                 0.0000
      2 ****        -3.6600   0.4417   0.3613 C.ar           1 S1                 0.0000
      3 ****        -3.2572   1.7304   0.4571 N.ar           1 S1                 0.0000
      4 ****        -1.9504   2.0113   0.4852 C.ar           1 S1                 0.0000
      5 ****        -0.9139   1.1707   0.4317 N.ar           1 S1                 0.0000
      6 ****        -1.3211  -0.1290   0.3358 C.ar           1 S1                 0.0000
      7 ****        -2.6720  -0.5731   0.2926 C.ar           1 S1                 0.0000
      8 ****        -2.7123  -1.9567   0.1882 N.2            1 S1                 0.0000
      9 ****        -1.4542  -2.3068   0.1721 C.2            1 S1                 0.0000
     10 ****        -0.5487  -1.2715   0.2559 N.pl3          1 S1                 0.0000
     11 ****         0.9460  -1.3714   0.2596 C.3            1 S1                 0.0000
     12 ****         1.4786  -0.3987   1.1047 O.3            1 S1                 0.0000
     13 ****         2.6683   0.1616   0.5469 C.3            1 S1                 0.0000
     14 ****         2.4491   1.6716   0.3551 C.3            1 S1                 0.0000
     15 ****         3.6712   2.3104   0.0505 O.3            1 S1                 0.0000
     16 ****         2.9238  -0.5954  -0.7651 C.3            1 S1                 0.0000
     17 ****         3.7782  -1.5952  -0.5395 F              1 S1                 0.0000
     18 ****         1.5697  -1.1743  -1.1280 C.3            1 S1                 0.0000
     19 ****         0.8420  -0.3083  -1.9799 O.3            1 S1                 0.0000
     20 ****        -5.3020  -0.7667   0.2661 H              1 S1                 0.0000
     21 ****        -5.6374   0.9466   0.3945 H              1 S1                 0.0000
     22 ****        -1.6987   3.0588   0.5620 H              1 S1                 0.0000
     23 ****        -1.1488  -3.3404   0.0967 H              1 S1                 0.0000
     24 ****         1.1640  -2.3551   0.6787 H              1 S1                 0.0000
     25 ****         3.4875   0.0032   1.2500 H              1 S1                 0.0000
     26 ****         1.7247   1.8713  -0.4345 H              1 S1                 0.0000
     27 ****         2.0555   2.1119   1.2717 H              1 S1                 0.0000
     28 ****         3.5089   3.2361  -0.0486 H              1 S1                 0.0000
     29 ****         3.3630   0.0191  -1.5522 H              1 S1                 0.0000
     30 ****         1.6559  -2.1391  -1.6292 H              1 S1                 0.0000
     31 ****        -0.0339  -0.6502  -2.0755 H              1 S1                 0.0000
     32 ****        -3.9320   2.4668   0.5065 LP             1 S1                 0.0000
     33 ****         0.0435   1.4582   0.4586 LP             1 S1                 0.0000
     34 ****        -3.5173  -2.5478   0.1372 LP             1 S1                 0.0000
     35 ****         1.6950  -0.8146   1.9880 LP             1 S1                 0.0000
     36 ****         0.8038   0.3278   1.2347 LP             1 S1                 0.0000
     37 ****         4.0425   1.9400  -0.8009 LP             1 S1                 0.0000
     38 ****         4.3246   2.1600   0.7924 LP             1 S1                 0.0000
     39 ****         1.2863  -0.2629  -2.8746 LP             1 S1                 0.0000
     40 ****         0.8053   0.6072  -1.5792 LP             1 S1                 0.0000
@<TRIPOS>BOND
    1    1    2 1     
    2    1   20 1     
    3    1   21 1     
    4    2    7 ar    
    5    2    3 ar    
    6    3    4 ar    
    7    4    5 ar    
    8    4   22 1     
    9    5    6 ar    
   10    6   10 1     
   11    6    7 ar    
   12    7    8 1     
   13    8    9 2     
   14    9   10 1     
   15    9   23 1     
   16   10   11 1     
   17   11   18 1     
   18   11   12 1     
   19   11   24 1     
   20   12   13 1     
   21   13   14 1     
   22   13   16 1     
   23   13   25 1     
   24   14   15 1     
   25   14   26 1     
   26   14   27 1     
   27   15   28 1     
   28   16   17 1     
   29   16   18 1     
   30   16   29 1     
   31   18   19 1     
   32   18   30 1     
   33   19   31 1     
   34    3   32 1     
   35    5   33 1     
   36    8   34 1     
   37   12   35 1     
   38   12   36 1     
   39   15   37 1     
   40   15   38 1     
   41   19   39 1     
   42   19   40 1     
@<TRIPOS>SUBSTRUCTURE
      1 S1             1
@<TRIPOS>SET
LONE_PAIRS      STATIC     ATOMS    <user>   **** ""
9 32 33 34 35 36 37 38 39 40
DONOR_HYDROGENS      STATIC     ATOMS    <user>   **** ""
4 20 21 28 31
ATOM$BLUE        STATIC     ATOMS    COLORGROUP SYSTEM
9 32 33 34 35 36 37 38 39 40
ATOM$RED        STATIC     ATOMS    COLORGROUP SYSTEM
4 20 21 28 31
