AV-unprocessed.smi:1019|AV-procd|sdf|4444|dock2
  -GOLD-   22720 2403D 1   1.00000     0.00000
 Structure written by MMmdl.
 44 46  0  0  0  0  0  0  0  0  2 V2000
  145.6349  136.9865  150.5553 C   0  0  0  0  0  0  0  0  0  0  0  0
  145.9303  136.6491  151.9707 N   0  3  2  0  0  0  0  0  0  0  0  0
  145.1469  135.4846  152.4567 C   0  0  0  0  0  0  0  0  0  0  0  0
  145.0672  134.3735  151.4244 C   0  0  0  0  0  0  0  0  0  0  0  0
  143.8191  133.7981  151.1050 C   0  0  0  0  0  0  0  0  0  0  0  0
  143.7394  132.7659  150.1501 C   0  0  0  0  0  0  0  0  0  0  0  0
  144.9063  132.3069  149.5094 C   0  0  0  0  0  0  0  0  0  0  0  0
  146.1535  132.8810  149.8234 C   0  0  0  0  0  0  0  0  0  0  0  0
  146.2345  133.9130  150.7786 C   0  0  0  0  0  0  0  0  0  0  0  0
  145.8105  137.8230  152.8740 C   0  0  0  0  0  0  0  0  0  0  0  0
  147.1803  138.4565  153.2110 C   0  0  2  0  0  0  0  0  0  0  0  0
  147.9658  137.5153  153.9151 O   0  0  0  0  0  0  0  0  0  0  0  0
  147.0754  139.7215  154.0874 C   0  0  0  0  0  0  0  0  0  0  0  0
  148.3662  140.1741  154.5744 N   0  0  0  0  0  0  0  0  0  0  0  0
  149.5540  140.0630  153.9480 C   0  0  0  0  0  0  0  0  0  0  0  0
  150.6238  140.5315  154.5833 N   0  0  0  0  0  0  0  0  0  0  0  0
  150.0648  141.0177  155.7525 C   0  0  0  0  0  0  0  0  0  0  0  0
  150.6680  141.6466  156.8650 C   0  0  0  0  0  0  0  0  0  0  0  0
  149.8846  142.0647  157.9609 C   0  0  0  0  0  0  0  0  0  0  0  0
  148.4891  141.8635  157.9605 C   0  0  0  0  0  0  0  0  0  0  0  0
  147.8656  141.2379  156.8639 C   0  0  0  0  0  0  0  0  0  0  0  0
  148.6514  140.8175  155.7744 C   0  0  0  0  0  0  0  0  0  0  0  0
  144.5847  137.2535  150.4297 H   0  0  0  0  0  0  0  0  0  0  0  0
  145.8518  136.1463  149.8959 H   0  0  0  0  0  0  0  0  0  0  0  0
  146.2375  137.8237  150.2060 H   0  0  0  0  0  0  0  0  0  0  0  0
  145.6151  135.0633  153.3475 H   0  0  0  0  0  0  0  0  0  0  0  0
  144.1464  135.8041  152.7537 H   0  0  0  0  0  0  0  0  0  0  0  0
  142.9200  134.1457  151.5923 H   0  0  0  0  0  0  0  0  0  0  0  0
  142.7826  132.3262  149.9088 H   0  0  0  0  0  0  0  0  0  0  0  0
  144.8446  131.5161  148.7763 H   0  0  0  0  0  0  0  0  0  0  0  0
  147.0481  132.5298  149.3303 H   0  0  0  0  0  0  0  0  0  0  0  0
  147.1952  134.3473  151.0142 H   0  0  0  0  0  0  0  0  0  0  0  0
  145.1422  138.5457  152.4041 H   0  0  0  0  0  0  0  0  0  0  0  0
  145.3292  137.5388  153.8110 H   0  0  0  0  0  0  0  0  0  0  0  0
  147.7152  138.7170  152.2992 H   0  0  0  0  0  0  0  0  0  0  0  0
  148.4812  137.0196  153.2978 H   0  0  0  0  0  0  0  0  0  0  0  0
  146.6147  140.5345  153.5237 H   0  0  0  0  0  0  0  0  0  0  0  0
  146.4326  139.5352  154.9488 H   0  0  0  0  0  0  0  0  0  0  0  0
  149.6406  139.6011  152.9752 H   0  0  0  0  0  0  0  0  0  0  0  0
  151.7357  141.8093  156.8752 H   0  0  0  0  0  0  0  0  0  0  0  0
  150.3571  142.5453  158.8052 H   0  0  0  0  0  0  0  0  0  0  0  0
  147.8975  142.1914  158.8028 H   0  0  0  0  0  0  0  0  0  0  0  0
  146.7967  141.0854  156.8614 H   0  0  0  0  0  0  0  0  0  0  0  0
  146.8979  136.3632  152.0128 H   0  0  0  0  0  0  0  0  0  0  0  0
  1  2  1  0  0  0  0
  1 23  1  0  0  0  0
  1 24  1  0  0  0  0
  1 25  1  0  0  0  0
  2  3  1  0  0  0  0
  2 10  1  0  0  0  0
  2 44  1  0  0  0  0
  3  4  1  0  0  0  0
  3 26  1  0  0  0  0
  3 27  1  0  0  0  0
  4  9  1  0  0  0  0
  4  5  2  0  0  0  0
  5  6  1  0  0  0  0
  5 28  1  0  0  0  0
  6  7  2  0  0  0  0
  6 29  1  0  0  0  0
  7  8  1  0  0  0  0
  7 30  1  0  0  0  0
  8  9  2  0  0  0  0
  8 31  1  0  0  0  0
  9 32  1  0  0  0  0
 10 11  1  0  0  0  0
 10 33  1  0  0  0  0
 10 34  1  0  0  0  0
 11 12  1  0  0  0  0
 11 13  1  0  0  0  0
 11 35  1  0  0  0  0
 12 36  1  0  0  0  0
 13 14  1  0  0  0  0
 13 37  1  0  0  0  0
 13 38  1  0  0  0  0
 14 22  1  0  0  0  0
 14 15  1  0  0  0  0
 15 16  2  0  0  0  0
 15 39  1  0  0  0  0
 16 17  1  0  0  0  0
 17 22  2  0  0  0  0
 17 18  1  0  0  0  0
 18 19  2  0  0  0  0
 18 40  1  0  0  0  0
 19 20  1  0  0  0  0
 19 41  1  0  0  0  0
 20 21  2  0  0  0  0
 20 42  1  0  0  0  0
 21 22  1  0  0  0  0
 21 43  1  0  0  0  0
M  CHG  1   2   1
M  END
> <s_m_source_file>
AV-unprocessed.smi

> <i_m_source_file_index>
1019

> <i_lp_mmshare_version>
43012

> <i_f3d_flags>
0

> <s_epik_input>
W2NIXTFbY0hdW2NIXVtjSF1bY0hdYzFbQ0gyXU4oW0NIM10pW0NIMl1bQ0BIXShbT0hdKVtDSDJdbihbY0hdbjIpYyhjMjMpW2NIXVtjSF1bY0hdW2NIXTM=

> <s_epik_cmdline>
J2VwaWtfcHl0aG9uJywgJy1waCcsICc3LjAnLCAnLXRuJywgJzgnLCAnLW1hJywgJzIwMCcsICctbWV0YWxfYmluZGluZycsICctaW1hZScsICc8aW5maWxlLm1hZT4nLCAnLW9tYWUnLCAnPG91dGZpbGUubWFlPic=

> <r_epik_Ionization_Penalty>
0.0996557

> <r_epik_Ionization_Penalty_Charging>
0.0475377

> <r_epik_Ionization_Penalty_Neutral>
0.0521179

> <r_epik_State_Penalty>
0.0851777

> <r_epik_Charging_Adjusted_Penalty>
0.132715

> <i_epik_Tot_Q>
1

> <i_epik_Tot_abs_Q>
1

> <r_epik_Metal_State_Penalty>
0.0423478

> <b_epik_Metal_Only>
0

> <s_lp_Force_Field>
OPLS_2005

> <r_lp_Energy>
17.6047

> <b_lp_Chiralities_Consistent>
1

> <s_lp_Variant>
AV-unprocessed.smi:1019-2

> <Gold.Version>
5.8.1

> <Gold.Id.Protein>
6NUR|6NUR_protein|mol2

> <Gold.PLP.Fitness>
49.8419

> <Gold.PLP.PLP>
-36.8885

> <Gold.PLP.part.hbond>
-3.0000

> <Gold.PLP.part.metal>
0.0000

> <Gold.PLP.part.buried>
1.4711

> <Gold.PLP.part.nonpolar>
-35.9676

> <Gold.PLP.part.repulsive>
0.1318

> <Gold.PLP.ligand.clash>
0.0000

> <Gold.PLP.ligand.torsion>
1.2575

> <Gold.PLP.Chemscore.Hbond>
4.0000

> <Gold.PLP.Chemscore.CHOScore>
1.0000

> <Gold.PLP.Chemscore.Metal>
0.0000

> <Gold.Chemscore.Hbonds>
donor molecule, donor type, donor heavy atom, donor atom, acceptor molecule, acceptor atom, score
      L1  H     2    44       P1  7948  1.95
      L1  H    12    36       P1  7948  1.00
      P1  H  7989  7998       L1    16  0.96
      L1  C    15    39       P1  7957  0.58

> <Gold.PLP.Chemscore.Internal.Correction>
0.4685

> <Gold.Rescore>
     Score         DG    S(hbond)    S(metal)    S(lipo)     H(rot)  DE(clash)    DE(int)     intcor
     14.83     -20.31       2.49        0.00     107.38       2.36       3.11       2.37       ----

> <Gold.Chemscore.Fitness>
14.8305

> <Gold.Chemscore.DG>
-20.3126

> <Gold.Chemscore.ZeroCoef>
-5.4800

> <Gold.Chemscore.Hbond>
2.4896

> <Gold.Chemscore.Metal>
0.0000

> <Gold.Chemscore.Lipo>
107.3759

> <Gold.Chemscore.Internal_Hbond>
0.0000

> <Gold.Chemscore.DEClash>
3.1095

> <Gold.Chemscore.DEInternal>
2.3726

> <Gold.Chemscore.Rot>
2.3616

> <Gold.Chemscore.Internal.Correction>
   9.000000E+99

> <Gold.Chemscore.Hbonds>
donor molecule, donor type, donor heavy atom, donor atom, acceptor molecule, acceptor atom, score
      L1  H     2    44       P1  7948  0.91
      L1  H    12    36       P1  7948  1.00
      P1  H  7989  7998       L1    16  0.48

> <Gold.Chemscore.Hbond.Weighted>
-8.3154

> <Gold.Chemscore.Metal.Weighted>
-0.0000

> <Gold.Chemscore.Lipo.Weighted>
-12.5630

> <Gold.Chemscore.Internal_Hbond.Weighted>
0.0000

> <Gold.Chemscore.DEClash.Weighted>
3.1095

> <Gold.Chemscore.DEInternal.Weighted>
2.3726

> <Gold.Chemscore.Rot.Weighted>
6.0457

> <Gold.Chemscore.Internal.Correction.Weighted>
   9.000000E+99

> <Gold.Protein.RotatedTorsions>
[ 6907 6896 6895 6894 ] final  158.17 input  -60.11 | X-H torsion
[ 7974 7965 7964 7962 ] final -100.67 input  175.53 | X-H torsion
[ 8008 7997 7996 7995 ] final   83.22 input   59.86 | X-H torsion
[ 10167 10162 10161 10158 ] final  -45.66 input  -65.29 | X-H torsion
[ 10718 10713 10712 10709 ] final   41.71 input   66.30 | X-H torsion
[ 10763 10752 10751 10750 ] final  -20.35 input  -60.55 | X-H torsion
[ 11005 11000 10999 10996 ] final  -27.16 input  -57.11 | X-H torsion

> <Gold.Protein.ActiveResidues>
 VAL166  LYS551  ARG553  GLY616  TRP617  ASP618  TYR619  PRO620  LYS621  CYS622 
 ASP623  PHE694  ASN695  SER759  ASP760  ASP761  ALA762  ILE779  LEU786  VAL792 
 PHE793  MET794  SER795  GLU796  ALA797  LYS798  CYS799  TRP800  GLU811  SER814 

> <Gold.Protein.RotatedAtoms>
  152.0043  133.3837  159.4193 H   0  0  0  0  0  0  0  0  0  0  0  0  # atno 6907 bound_to 6896
  150.6906  134.3800  159.5039 H   0  0  0  0  0  0  0  0  0  0  0  0  # atno 6908 bound_to 6896
  152.1552  134.8956  160.0596 H   0  0  0  0  0  0  0  0  0  0  0  0  # atno 6909 bound_to 6896
  145.2916  140.9354  143.2875 H   0  0  0  0  0  0  0  0  0  0  0  0  # atno 7974 bound_to 7965
  155.9210  140.3421  155.6173 H   0  0  0  0  0  0  0  0  0  0  0  0  # atno 8008 bound_to 7997
  155.7273  140.0791  157.2323 H   0  0  0  0  0  0  0  0  0  0  0  0  # atno 8009 bound_to 7997
  154.4069  140.1594  156.2457 H   0  0  0  0  0  0  0  0  0  0  0  0  # atno 8010 bound_to 7997
  140.6849  143.2869  151.3671 H   0  0  0  0  0  0  0  0  0  0  0  0  # atno 10167 bound_to 10162
  157.3966  130.7836  149.7313 H   0  0  0  0  0  0  0  0  0  0  0  0  # atno 10718 bound_to 10713
  153.6190  135.6993  153.5317 H   0  0  0  0  0  0  0  0  0  0  0  0  # atno 10763 bound_to 10752
  153.2953  135.4145  155.1203 H   0  0  0  0  0  0  0  0  0  0  0  0  # atno 10764 bound_to 10752
  154.8547  135.3635  154.5731 H   0  0  0  0  0  0  0  0  0  0  0  0  # atno 10765 bound_to 10752
  140.9095  133.7470  156.0651 H   0  0  0  0  0  0  0  0  0  0  0  0  # atno 11005 bound_to 11000
  144.9168  139.4460  143.6560 LP  0  0  0  0  0  0  0  0  0  0  0  0  # atno 17320 bound_to 7965
  146.3183  139.8007  142.8966 LP  0  0  0  0  0  0  0  0  0  0  0  0  # atno 17321 bound_to 7965
  139.6200  144.0927  152.2382 LP  0  0  0  0  0  0  0  0  0  0  0  0  # atno 17342 bound_to 10162
  140.0368  144.6038  150.7443 LP  0  0  0  0  0  0  0  0  0  0  0  0  # atno 17343 bound_to 10162
  155.9812  130.4022  150.3485 LP  0  0  0  0  0  0  0  0  0  0  0  0  # atno 17370 bound_to 10713
  157.1608  131.0344  151.2842 LP  0  0  0  0  0  0  0  0  0  0  0  0  # atno 17371 bound_to 10713
  140.8129  134.3379  157.5406 LP  0  0  0  0  0  0  0  0  0  0  0  0  # atno 17394 bound_to 11000
  139.8755  134.9264  156.3400 LP  0  0  0  0  0  0  0  0  0  0  0  0  # atno 17395 bound_to 11000

$$$$
