AV-unprocessed.smi:3030|AV-procd|sdf|11533|dock1
  -GOLD-   2272016483D 1   1.00000     0.00000
 Structure written by MMmdl.
 52 53  0  0  0  0  0  0  0  0  1 V2000
  153.7141  142.7712  163.9793 C   0  0  0  0  0  0  0  0  0  0  0  0
  152.5955  143.2282  163.0363 C   0  0  0  0  0  0  0  0  0  0  0  0
  152.6317  142.5108  161.7703 N   0  0  0  0  0  0  0  0  0  0  0  0
  153.5803  141.5230  161.5255 C   0  0  0  0  0  0  0  0  0  0  0  0
  153.6422  140.8006  160.3901 C   0  0  0  0  0  0  0  0  0  0  0  0
  152.6515  141.0446  159.3223 C   0  0  0  0  0  0  0  0  0  0  0  0
  152.6857  140.4117  158.2670 O   0  0  0  0  0  0  0  0  0  0  0  0
  151.6249  142.0852  159.5932 C   0  0  0  0  0  0  0  0  0  0  0  0
  150.6890  142.3200  158.5737 N   0  0  0  0  0  0  0  0  0  0  0  0
  149.9021  141.4402  157.9287 C   0  0  0  0  0  0  0  0  0  0  0  0
  149.9046  140.2202  158.0909 O   0  0  0  0  0  0  0  0  0  0  0  0
  149.1013  142.0719  157.0582 N   0  0  0  0  0  0  0  0  0  0  0  0
  148.1268  141.4451  156.1653 C   0  0  2  0  0  0  0  0  0  0  0  0
  148.5452  141.7607  154.7131 C   0  0  0  0  0  0  0  0  0  0  0  0
  147.5472  141.2383  153.6637 C   0  0  1  0  0  0  0  0  0  0  0  0
  147.6056  139.7095  153.4954 C   0  0  0  0  0  0  0  0  0  0  0  0
  146.1309  141.7507  153.9774 C   0  0  0  0  0  0  0  0  0  0  0  0
  145.6928  141.4108  155.4105 C   0  0  0  0  0  0  0  0  0  0  0  0
  146.6858  141.9486  156.4685 C   0  0  1  0  0  0  0  0  0  0  0  0
  146.2152  141.6880  157.9316 C   0  0  0  0  0  0  0  0  0  0  0  0
  144.6853  141.6338  158.1000 C   0  0  0  0  0  0  0  0  0  0  0  0
  146.8328  142.6797  158.9328 C   0  0  0  0  0  0  0  0  0  0  0  0
  151.6813  142.7445  160.7784 C   0  0  0  0  0  0  0  0  0  0  0  0
  153.6736  143.3172  164.9218 H   0  0  0  0  0  0  0  0  0  0  0  0
  154.6962  142.9422  163.5375 H   0  0  0  0  0  0  0  0  0  0  0  0
  153.6281  141.7081  164.2063 H   0  0  0  0  0  0  0  0  0  0  0  0
  151.6257  143.0781  163.5119 H   0  0  0  0  0  0  0  0  0  0  0  0
  152.6819  144.2992  162.8502 H   0  0  0  0  0  0  0  0  0  0  0  0
  154.2878  141.3756  162.3288 H   0  0  0  0  0  0  0  0  0  0  0  0
  154.4002  140.0454  160.2423 H   0  0  0  0  0  0  0  0  0  0  0  0
  150.6224  143.2835  158.2797 H   0  0  0  0  0  0  0  0  0  0  0  0
  149.1766  143.0771  157.0000 H   0  0  0  0  0  0  0  0  0  0  0  0
  148.1552  140.3620  156.2863 H   0  0  0  0  0  0  0  0  0  0  0  0
  148.6359  142.8419  154.5958 H   0  0  0  0  0  0  0  0  0  0  0  0
  149.5381  141.3549  154.5134 H   0  0  0  0  0  0  0  0  0  0  0  0
  147.8388  141.6612  152.7014 H   0  0  0  0  0  0  0  0  0  0  0  0
  147.3321  139.1831  154.4094 H   0  0  0  0  0  0  0  0  0  0  0  0
  148.6092  139.3859  153.2184 H   0  0  0  0  0  0  0  0  0  0  0  0
  146.9270  139.3782  152.7090 H   0  0  0  0  0  0  0  0  0  0  0  0
  146.1053  142.8335  153.8475 H   0  0  0  0  0  0  0  0  0  0  0  0
  145.4154  141.3441  153.2619 H   0  0  0  0  0  0  0  0  0  0  0  0
  144.7002  141.8289  155.5736 H   0  0  0  0  0  0  0  0  0  0  0  0
  145.5862  140.3307  155.5063 H   0  0  0  0  0  0  0  0  0  0  0  0
  146.7112  143.0328  156.3448 H   0  0  0  0  0  0  0  0  0  0  0  0
  146.5956  140.7118  158.2308 H   0  0  0  0  0  0  0  0  0  0  0  0
  144.2210  142.5982  157.8964 H   0  0  0  0  0  0  0  0  0  0  0  0
  144.4199  141.3568  159.1205 H   0  0  0  0  0  0  0  0  0  0  0  0
  144.2285  140.8962  157.4416 H   0  0  0  0  0  0  0  0  0  0  0  0
  146.4444  143.6892  158.7989 H   0  0  0  0  0  0  0  0  0  0  0  0
  147.9175  142.7207  158.8321 H   0  0  0  0  0  0  0  0  0  0  0  0
  146.6120  142.3830  159.9586 H   0  0  0  0  0  0  0  0  0  0  0  0
  150.9951  143.5339  161.0423 H   0  0  0  0  0  0  0  0  0  0  0  0
  1  2  1  0  0  0  0
  1 24  1  0  0  0  0
  1 25  1  0  0  0  0
  1 26  1  0  0  0  0
  2  3  1  0  0  0  0
  2 27  1  0  0  0  0
  2 28  1  0  0  0  0
  3 23  1  0  0  0  0
  3  4  1  0  0  0  0
  4  5  2  0  0  0  0
  4 29  1  0  0  0  0
  5  6  1  0  0  0  0
  5 30  1  0  0  0  0
  6  7  2  0  0  0  0
  6  8  1  0  0  0  0
  8  9  1  0  0  0  0
  8 23  2  0  0  0  0
  9 10  1  0  0  0  0
  9 31  1  0  0  0  0
 10 11  2  0  0  0  0
 10 12  1  0  0  0  0
 12 13  1  0  0  0  0
 12 32  1  0  0  0  0
 13 19  1  0  0  0  0
 13 14  1  0  0  0  0
 13 33  1  0  0  0  0
 14 15  1  0  0  0  0
 14 34  1  0  0  0  0
 14 35  1  0  0  0  0
 15 16  1  0  0  0  0
 15 17  1  0  0  0  0
 15 36  1  0  0  0  0
 16 37  1  0  0  0  0
 16 38  1  0  0  0  0
 16 39  1  0  0  0  0
 17 18  1  0  0  0  0
 17 40  1  0  0  0  0
 17 41  1  0  0  0  0
 18 19  1  0  0  0  0
 18 42  1  0  0  0  0
 18 43  1  0  0  0  0
 19 20  1  0  0  0  0
 19 44  1  0  0  0  0
 20 21  1  0  0  0  0
 20 22  1  0  0  0  0
 20 45  1  0  0  0  0
 21 46  1  0  0  0  0
 21 47  1  0  0  0  0
 21 48  1  0  0  0  0
 22 49  1  0  0  0  0
 22 50  1  0  0  0  0
 22 51  1  0  0  0  0
 23 52  1  0  0  0  0
M  END
> <s_m_source_file>
AV-unprocessed.smi

> <i_m_source_file_index>
3030

> <i_lp_mmshare_version>
43012

> <i_f3d_flags>
0

> <s_epik_input>
W0NIM11bQ0gyXW4xW2NIXVtjSF1jKD1PKWMoW2NIXTEpW05IXUMoPU8pW05IXVtDQEBIXTJbQ0gyXVtDQEBIXShbQ0gzXSlbQ0gyXVtDSDJdW0NASF0yW0NIXShbQ0gzXSlbQ0gzXQ==

> <s_epik_cmdline>
J2VwaWtfcHl0aG9uJywgJy1waCcsICc3LjAnLCAnLXRuJywgJzgnLCAnLW1hJywgJzIwMCcsICctbWV0YWxfYmluZGluZycsICctaW1hZScsICc8aW5maWxlLm1hZT4nLCAnLW9tYWUnLCAnPG91dGZpbGUubWFlPic=

> <r_lp_tautomer_probability>
1

> <r_epik_Ionization_Penalty>
0.00147933

> <r_epik_Ionization_Penalty_Charging>
0.00145753

> <r_epik_Ionization_Penalty_Neutral>
2.17987e-05

> <r_epik_State_Penalty>
0.00097457

> <r_epik_Charging_Adjusted_Penalty>
0.0024321

> <i_epik_Tot_Q>
0

> <i_epik_Tot_abs_Q>
0

> <r_epik_Metal_State_Penalty>
-0

> <b_epik_Metal_Only>
0

> <s_lp_Force_Field>
OPLS_2005

> <r_lp_Energy>
11.9489

> <b_lp_Chiralities_Consistent>
1

> <s_lp_Variant>
AV-unprocessed.smi:3030-1

> <Gold.Version>
5.8.1

> <Gold.Id.Protein>
6NUR|6NUR_protein|mol2

> <Gold.PLP.Fitness>
46.4466

> <Gold.PLP.PLP>
-44.4976

> <Gold.PLP.part.hbond>
-1.8254

> <Gold.PLP.part.metal>
0.0000

> <Gold.PLP.part.buried>
1.0754

> <Gold.PLP.part.nonpolar>
-41.6703

> <Gold.PLP.part.repulsive>
0.0783

> <Gold.PLP.ligand.clash>
0.0000

> <Gold.PLP.ligand.torsion>
0.9885

> <Gold.PLP.Chemscore.Hbond>
1.2777

> <Gold.PLP.Chemscore.CHOScore>
0.0000

> <Gold.PLP.Chemscore.Metal>
0.0000

> <Gold.Chemscore.Hbonds>
donor molecule, donor type, donor heavy atom, donor atom, acceptor molecule, acceptor atom, score
      L1  H    12    32       P1  8028  0.63
      P1  H  7997  8009       L1     7  0.31

> <Gold.PLP.Chemscore.Internal.Correction>
0.0928

> <Gold.Rescore>
     Score         DG    S(hbond)    S(metal)    S(lipo)     H(rot)  DE(clash)    DE(int)     intcor
     14.19     -20.40       1.64        0.00     108.37       1.27       2.61       3.61       ----

> <Gold.Chemscore.Fitness>
14.1854

> <Gold.Chemscore.DG>
-20.3978

> <Gold.Chemscore.ZeroCoef>
-5.4800

> <Gold.Chemscore.Hbond>
1.6425

> <Gold.Chemscore.Metal>
0.0000

> <Gold.Chemscore.Lipo>
108.3704

> <Gold.Chemscore.Internal_Hbond>
0.0000

> <Gold.Chemscore.DEClash>
2.6062

> <Gold.Chemscore.DEInternal>
3.6062

> <Gold.Chemscore.Rot>
1.2685

> <Gold.Chemscore.Internal.Correction>
   9.000000E+99

> <Gold.Chemscore.Hbonds>
donor molecule, donor type, donor heavy atom, donor atom, acceptor molecule, acceptor atom, score
      L1  H    12    32       P1  8028  0.57
      P1  H  7997  8009       L1     7  0.30

> <Gold.Chemscore.Hbond.Weighted>
-5.4859

> <Gold.Chemscore.Metal.Weighted>
-0.0000

> <Gold.Chemscore.Lipo.Weighted>
-12.6793

> <Gold.Chemscore.Internal_Hbond.Weighted>
0.0000

> <Gold.Chemscore.DEClash.Weighted>
2.6062

> <Gold.Chemscore.DEInternal.Weighted>
3.6062

> <Gold.Chemscore.Rot.Weighted>
3.2474

> <Gold.Chemscore.Internal.Correction.Weighted>
   9.000000E+99

> <Gold.Protein.RotatedTorsions>
[ 6907 6896 6895 6894 ] final  -59.19 input  -60.11 | X-H torsion
[ 7974 7965 7964 7962 ] final  -40.84 input  175.53 | X-H torsion
[ 8008 7997 7996 7995 ] final  157.84 input   59.86 | X-H torsion
[ 10167 10162 10161 10158 ] final   36.53 input  -65.29 | X-H torsion
[ 10718 10713 10712 10709 ] final    0.66 input   66.30 | X-H torsion
[ 10763 10752 10751 10750 ] final   93.70 input  -60.55 | X-H torsion
[ 11005 11000 10999 10996 ] final  -29.65 input  -57.11 | X-H torsion

> <Gold.Protein.ActiveResidues>
 VAL166  LYS551  ARG553  GLY616  TRP617  ASP618  TYR619  PRO620  LYS621  CYS622 
 ASP623  PHE694  ASN695  SER759  ASP760  ASP761  ALA762  ILE779  LEU786  VAL792 
 PHE793  MET794  SER795  GLU796  ALA797  LYS798  CYS799  TRP800  GLU811  SER814 

> <Gold.Protein.RotatedAtoms>
  150.7949  134.7001  159.6544 H   0  0  0  0  0  0  0  0  0  0  0  0  # atno 6907 bound_to 6896
  152.4060  134.6203  160.0058 H   0  0  0  0  0  0  0  0  0  0  0  0  # atno 6908 bound_to 6896
  151.6460  133.3286  159.3177 H   0  0  0  0  0  0  0  0  0  0  0  0  # atno 6909 bound_to 6896
  146.0267  140.6783  142.9152 H   0  0  0  0  0  0  0  0  0  0  0  0  # atno 7974 bound_to 7965
  156.2339  140.1874  156.7169 H   0  0  0  0  0  0  0  0  0  0  0  0  # atno 8008 bound_to 7997
  154.6072  140.0627  156.9474 H   0  0  0  0  0  0  0  0  0  0  0  0  # atno 8009 bound_to 7997
  155.2076  140.3297  155.4336 H   0  0  0  0  0  0  0  0  0  0  0  0  # atno 8010 bound_to 7997
  140.4119  144.1581  150.6140 H   0  0  0  0  0  0  0  0  0  0  0  0  # atno 10167 bound_to 10162
  156.8367  130.5507  149.5681 H   0  0  0  0  0  0  0  0  0  0  0  0  # atno 10718 bound_to 10713
  153.2333  135.4316  155.0618 H   0  0  0  0  0  0  0  0  0  0  0  0  # atno 10763 bound_to 10752
  154.8307  135.3385  154.6756 H   0  0  0  0  0  0  0  0  0  0  0  0  # atno 10764 bound_to 10752
  153.7182  135.7018  153.5076 H   0  0  0  0  0  0  0  0  0  0  0  0  # atno 10765 bound_to 10752
  140.9314  133.7335  156.0942 H   0  0  0  0  0  0  0  0  0  0  0  0  # atno 11005 bound_to 11000
  144.7012  140.3663  143.7154 LP  0  0  0  0  0  0  0  0  0  0  0  0  # atno 17320 bound_to 7965
  145.7106  139.1684  143.2541 LP  0  0  0  0  0  0  0  0  0  0  0  0  # atno 17321 bound_to 7965
  140.4629  143.2442  151.9196 LP  0  0  0  0  0  0  0  0  0  0  0  0  # atno 17342 bound_to 10162
  139.4782  144.5449  151.8473 LP  0  0  0  0  0  0  0  0  0  0  0  0  # atno 17343 bound_to 10162
  156.0903  130.5891  150.9722 LP  0  0  0  0  0  0  0  0  0  0  0  0  # atno 17370 bound_to 10713
  157.6378  131.0914  150.8314 LP  0  0  0  0  0  0  0  0  0  0  0  0  # atno 17371 bound_to 10713
  140.7857  134.3675  157.5477 LP  0  0  0  0  0  0  0  0  0  0  0  0  # atno 17394 bound_to 11000
  139.8797  134.9109  156.3024 LP  0  0  0  0  0  0  0  0  0  0  0  0  # atno 17395 bound_to 11000

$$$$
