AV-unprocessed.smi:2010|AV-procd|sdf|8152|dock8
  -GOLD-   2272010393D 1   1.00000     0.00000
 Structure written by MMmdl.
 40 41  0  0  0  0  0  0  0  0  2 V2000
  151.2048  145.8867  160.4005 C   0  0  0  0  0  0  0  0  0  0  0  0
  152.1941  144.7941  159.9719 C   0  0  0  0  0  0  0  0  0  0  0  0
  152.0908  144.4969  158.4679 C   0  0  0  0  0  0  0  0  0  0  0  0
  153.0648  143.3829  158.0423 C   0  0  0  0  0  0  0  0  0  0  0  0
  152.8865  142.1588  158.8517 N   0  0  0  0  0  0  0  0  0  0  0  0
  151.9062  140.8587  158.2287 S   0  0  0  0  0  0  0  0  0  0  0  0
  152.8074  140.0188  157.4227 O   0  0  0  0  0  0  0  0  0  0  0  0
  151.2499  140.2365  159.3900 O   0  0  0  0  0  0  0  0  0  0  0  0
  150.8963  141.7649  157.3427 N   0  5  0  0  0  0  0  0  0  0  0  0
  149.7236  141.1705  156.7201 C   0  0  1  0  0  0  0  0  0  0  0  0
  148.4734  141.6568  157.4697 C   0  0  0  0  0  0  0  0  0  0  0  0
  149.6885  141.4915  155.1995 C   0  0  0  0  0  0  0  0  0  0  0  0
  148.6517  140.8003  154.4350 N   0  0  0  0  0  0  0  0  0  0  0  0
  147.5083  141.3212  153.8598 C   0  0  0  0  0  0  0  0  0  0  0  0
  146.8392  140.2899  153.2658 C   0  0  0  0  0  0  0  0  0  0  0  0
  147.6497  139.1556  153.5479 C   0  0  0  0  0  0  0  0  0  0  0  0
  148.7222  139.4595  154.2588 N   0  0  0  0  0  0  0  0  0  0  0  0
  152.9524  142.3878  160.3103 C   0  0  0  0  0  0  0  0  0  0  0  0
  151.9781  143.4925  160.7604 C   0  0  0  0  0  0  0  0  0  0  0  0
  150.1746  145.5823  160.2129 H   0  0  0  0  0  0  0  0  0  0  0  0
  151.3829  146.8136  159.8549 H   0  0  0  0  0  0  0  0  0  0  0  0
  151.2992  146.1062  161.4643 H   0  0  0  0  0  0  0  0  0  0  0  0
  153.2023  145.1549  160.1794 H   0  0  0  0  0  0  0  0  0  0  0  0
  151.0687  144.2146  158.2160 H   0  0  0  0  0  0  0  0  0  0  0  0
  152.3031  145.4001  157.8952 H   0  0  0  0  0  0  0  0  0  0  0  0
  152.9397  143.1583  156.9835 H   0  0  0  0  0  0  0  0  0  0  0  0
  154.0913  143.7297  158.1644 H   0  0  0  0  0  0  0  0  0  0  0  0
  149.7448  140.0846  156.8192 H   0  0  0  0  0  0  0  0  0  0  0  0
  147.5663  141.2595  157.0141 H   0  0  0  0  0  0  0  0  0  0  0  0
  148.3977  142.7446  157.4720 H   0  0  0  0  0  0  0  0  0  0  0  0
  148.4886  141.3275  158.5092 H   0  0  0  0  0  0  0  0  0  0  0  0
  149.5824  142.5649  155.0394 H   0  0  0  0  0  0  0  0  0  0  0  0
  150.6500  141.2272  154.7585 H   0  0  0  0  0  0  0  0  0  0  0  0
  147.2749  142.3743  153.9144 H   0  0  0  0  0  0  0  0  0  0  0  0
  145.9120  140.3385  152.7152 H   0  0  0  0  0  0  0  0  0  0  0  0
  147.4892  138.1261  153.2638 H   0  0  0  0  0  0  0  0  0  0  0  0
  152.7490  141.4618  160.8473 H   0  0  0  0  0  0  0  0  0  0  0  0
  153.9721  142.6749  160.5671 H   0  0  0  0  0  0  0  0  0  0  0  0
  152.1119  143.6787  161.8262 H   0  0  0  0  0  0  0  0  0  0  0  0
  150.9494  143.1517  160.6413 H   0  0  0  0  0  0  0  0  0  0  0  0
  1  2  1  0  0  0  0
  1 20  1  0  0  0  0
  1 21  1  0  0  0  0
  1 22  1  0  0  0  0
  2 19  1  0  0  0  0
  2  3  1  0  0  0  0
  2 23  1  0  0  0  0
  3  4  1  0  0  0  0
  3 24  1  0  0  0  0
  3 25  1  0  0  0  0
  4  5  1  0  0  0  0
  4 26  1  0  0  0  0
  4 27  1  0  0  0  0
  5  6  1  0  0  0  0
  5 18  1  0  0  0  0
  6  7  2  0  0  0  0
  6  8  2  0  0  0  0
  6  9  1  0  0  0  0
  9 10  1  0  0  0  0
 10 11  1  0  0  0  0
 10 12  1  0  0  0  0
 10 28  1  0  0  0  0
 11 29  1  0  0  0  0
 11 30  1  0  0  0  0
 11 31  1  0  0  0  0
 12 13  1  0  0  0  0
 12 32  1  0  0  0  0
 12 33  1  0  0  0  0
 13 17  1  0  0  0  0
 13 14  1  0  0  0  0
 14 15  2  0  0  0  0
 14 34  1  0  0  0  0
 15 16  1  0  0  0  0
 15 35  1  0  0  0  0
 16 17  2  0  0  0  0
 16 36  1  0  0  0  0
 18 19  1  0  0  0  0
 18 37  1  0  0  0  0
 18 38  1  0  0  0  0
 19 39  1  0  0  0  0
 19 40  1  0  0  0  0
M  CHG  1   9  -1
M  END
> <s_m_source_file>
AV-unprocessed.smi

> <i_m_source_file_index>
2010

> <i_lp_mmshare_version>
43012

> <i_f3d_flags>
0

> <s_epik_input>
W0NIM11bQ0hdMVtDSDJdW0NIMl1OKFtDSDJdW0NIMl0xKVMoPU8pKD1PKVtOSF1bQ0BIXShbQ0gzXSlbQ0gyXW4yW2NIXVtjSF1bY0hdbjI=

> <s_epik_cmdline>
J2VwaWtfcHl0aG9uJywgJy1waCcsICc3LjAnLCAnLXRuJywgJzgnLCAnLW1hJywgJzIwMCcsICctbWV0YWxfYmluZGluZycsICctaW1hZScsICc8aW5maWxlLm1hZT4nLCAnLW9tYWUnLCAnPG91dGZpbGUubWFlPic=

> <r_lp_tautomer_probability>
1

> <r_epik_Ionization_Penalty>
1.75622

> <r_epik_Ionization_Penalty_Charging>
1.7562

> <r_epik_Ionization_Penalty_Neutral>
2.39925e-05

> <r_epik_State_Penalty>
1.86645

> <r_epik_Charging_Adjusted_Penalty>
3.62264

> <i_epik_Tot_Q>
-1

> <i_epik_Tot_abs_Q>
1

> <r_epik_Metal_State_Penalty>
0.460135

> <b_epik_Metal_Only>
0

> <s_lp_Force_Field>
OPLS_2005

> <r_lp_Energy>
3.33366

> <b_lp_Chiralities_Consistent>
1

> <s_lp_Variant>
AV-unprocessed.smi:2010-4

> <Gold.Version>
5.8.1

> <Gold.Id.Protein>
6NUR|6NUR_protein|mol2

> <Gold.PLP.Fitness>
40.2468

> <Gold.PLP.PLP>
-35.0706

> <Gold.PLP.part.hbond>
-1.3361

> <Gold.PLP.part.metal>
0.0000

> <Gold.PLP.part.buried>
1.9309

> <Gold.PLP.part.nonpolar>
-33.9924

> <Gold.PLP.part.repulsive>
0.2012

> <Gold.PLP.ligand.clash>
0.0000

> <Gold.PLP.ligand.torsion>
1.9710

> <Gold.PLP.Chemscore.Hbond>
1.0000

> <Gold.PLP.Chemscore.CHOScore>
1.0000

> <Gold.PLP.Chemscore.Metal>
0.0000

> <Gold.Chemscore.Hbonds>
donor molecule, donor type, donor heavy atom, donor atom, acceptor molecule, acceptor atom, score
      P1  H  7997  8008       L1     7  1.00
      L1  C    16    36       P1  7948  0.41

> <Gold.PLP.Chemscore.Internal.Correction>
3.1181

> <Gold.Rescore>
     Score         DG    S(hbond)    S(metal)    S(lipo)     H(rot)  DE(clash)    DE(int)     intcor
     13.65     -18.33       0.99        0.00     111.46       1.37       2.90       1.78       ----

> <Gold.Chemscore.Fitness>
13.6482

> <Gold.Chemscore.DG>
-18.3275

> <Gold.Chemscore.ZeroCoef>
-5.4800

> <Gold.Chemscore.Hbond>
0.9886

> <Gold.Chemscore.Metal>
0.0000

> <Gold.Chemscore.Lipo>
111.4568

> <Gold.Chemscore.Internal_Hbond>
0.0000

> <Gold.Chemscore.DEClash>
2.8959

> <Gold.Chemscore.DEInternal>
1.7835

> <Gold.Chemscore.Rot>
1.3652

> <Gold.Chemscore.Internal.Correction>
   9.000000E+99

> <Gold.Chemscore.Hbonds>
donor molecule, donor type, donor heavy atom, donor atom, acceptor molecule, acceptor atom, score
      P1  H  7997  8008       L1     7  0.94

> <Gold.Chemscore.Hbond.Weighted>
-3.3019

> <Gold.Chemscore.Metal.Weighted>
-0.0000

> <Gold.Chemscore.Lipo.Weighted>
-13.0405

> <Gold.Chemscore.Internal_Hbond.Weighted>
0.0000

> <Gold.Chemscore.DEClash.Weighted>
2.8959

> <Gold.Chemscore.DEInternal.Weighted>
1.7835

> <Gold.Chemscore.Rot.Weighted>
3.4948

> <Gold.Chemscore.Internal.Correction.Weighted>
   9.000000E+99

> <Gold.Protein.RotatedTorsions>
[ 6907 6896 6895 6894 ] final -107.23 input  -60.11 | X-H torsion
[ 7974 7965 7964 7962 ] final  147.16 input  175.53 | X-H torsion
[ 8008 7997 7996 7995 ] final  -79.12 input   59.86 | X-H torsion
[ 10167 10162 10161 10158 ] final   58.22 input  -65.29 | X-H torsion
[ 10718 10713 10712 10709 ] final  -97.57 input   66.30 | X-H torsion
[ 10763 10752 10751 10750 ] final   90.35 input  -60.55 | X-H torsion
[ 11005 11000 10999 10996 ] final  -60.44 input  -57.11 | X-H torsion

> <Gold.Protein.ActiveResidues>
 VAL166  LYS551  ARG553  GLY616  TRP617  ASP618  TYR619  PRO620  LYS621  CYS622 
 ASP623  PHE694  ASN695  SER759  ASP760  ASP761  ALA762  ILE779  LEU786  VAL792 
 PHE793  MET794  SER795  GLU796  ALA797  LYS798  CYS799  TRP800  GLU811  SER814 

> <Gold.Protein.RotatedAtoms>
  150.7432  133.9857  159.3590 H   0  0  0  0  0  0  0  0  0  0  0  0  # atno 6907 bound_to 6896
  151.7802  135.0761  160.0382 H   0  0  0  0  0  0  0  0  0  0  0  0  # atno 6908 bound_to 6896
  152.3279  133.5889  159.5825 H   0  0  0  0  0  0  0  0  0  0  0  0  # atno 6909 bound_to 6896
  144.8613  139.5994  143.5929 H   0  0  0  0  0  0  0  0  0  0  0  0  # atno 7974 bound_to 7965
  154.5755  140.0683  156.9027 H   0  0  0  0  0  0  0  0  0  0  0  0  # atno 8008 bound_to 7997
  155.2557  140.3355  155.4259 H   0  0  0  0  0  0  0  0  0  0  0  0  # atno 8009 bound_to 7997
  156.2150  140.1775  156.7594 H   0  0  0  0  0  0  0  0  0  0  0  0  # atno 8010 bound_to 7997
  140.1895  144.4100  150.6577 H   0  0  0  0  0  0  0  0  0  0  0  0  # atno 10167 bound_to 10162
  156.0087  130.5200  150.6394 H   0  0  0  0  0  0  0  0  0  0  0  0  # atno 10718 bound_to 10713
  153.1966  135.4437  155.0216 H   0  0  0  0  0  0  0  0  0  0  0  0  # atno 10763 bound_to 10752
  154.8122  135.3299  154.7275 H   0  0  0  0  0  0  0  0  0  0  0  0  # atno 10764 bound_to 10752
  153.7724  135.6983  153.4959 H   0  0  0  0  0  0  0  0  0  0  0  0  # atno 10765 bound_to 10752
  141.1287  133.6622  156.5223 H   0  0  0  0  0  0  0  0  0  0  0  0  # atno 11005 bound_to 11000
  146.2863  139.7013  142.9193 LP  0  0  0  0  0  0  0  0  0  0  0  0  # atno 17320 bound_to 7965
  145.4306  141.0415  143.2913 LP  0  0  0  0  0  0  0  0  0  0  0  0  # atno 17321 bound_to 7965
  140.6465  143.2215  151.6174 LP  0  0  0  0  0  0  0  0  0  0  0  0  # atno 17342 bound_to 10162
  139.5262  144.3053  152.1039 LP  0  0  0  0  0  0  0  0  0  0  0  0  # atno 17343 bound_to 10162
  157.4177  131.0832  151.1161 LP  0  0  0  0  0  0  0  0  0  0  0  0  # atno 17370 bound_to 10713
  157.1773  130.6293  149.5660 LP  0  0  0  0  0  0  0  0  0  0  0  0  # atno 17371 bound_to 10713
  140.4282  134.7126  157.4927 LP  0  0  0  0  0  0  0  0  0  0  0  0  # atno 17394 bound_to 11000
  140.0312  134.6403  155.9104 LP  0  0  0  0  0  0  0  0  0  0  0  0  # atno 17395 bound_to 11000

$$$$
