AV-unprocessed.smi:1071|AV-procd|sdf|4677|dock8
  -GOLD-   22720 3193D 1   1.00000     0.00000
 Structure written by MMmdl.
 47 48  0  0  0  0  0  0  0  0  2 V2000
  151.0881  143.0766  157.6168 C   0  0  0  0  0  0  0  0  0  0  0  0
  150.4450  141.9294  157.0897 O   0  0  0  0  0  0  0  0  0  0  0  0
  151.3667  140.9545  156.6309 C   0  0  0  0  0  0  0  0  0  0  0  0
  150.6259  139.9340  155.7627 C   0  0  0  0  0  0  0  0  0  0  0  0
  149.8529  140.6358  154.7938 O   0  0  0  0  0  0  0  0  0  0  0  0
  148.7455  140.0120  154.2567 C   0  0  0  0  0  0  0  0  0  0  0  0
  148.6081  138.6205  154.4269 C   0  0  0  0  0  0  0  0  0  0  0  0
  147.4793  137.9796  153.8833 C   0  0  0  0  0  0  0  0  0  0  0  0
  146.5166  138.7445  153.1945 C   0  0  0  0  0  0  0  0  0  0  0  0
  145.3947  138.0593  152.6531 N   0  0  0  0  0  0  0  0  0  0  0  0
  144.7412  136.9839  153.1357 C   0  0  0  0  0  0  0  0  0  0  0  0
  144.9245  136.5097  154.2555 O   0  0  0  0  0  0  0  0  0  0  0  0
  143.7636  136.5532  152.3007 N   0  0  0  0  0  0  0  0  0  0  0  0
  144.0519  136.3487  150.8730 C   0  0  0  0  0  0  0  0  0  0  0  0
  144.4961  134.8884  150.6517 C   0  0  0  0  0  0  0  0  0  0  0  0
  143.4846  133.9272  151.1640 N   0  3  1  0  0  0  0  0  0  0  0  0
  143.9011  132.5201  150.9850 C   0  0  0  0  0  0  0  0  0  0  0  0
  143.0437  134.2167  152.5539 C   0  0  0  0  0  0  0  0  0  0  0  0
  142.6326  135.6957  152.7090 C   0  0  1  0  0  0  0  0  0  0  0  0
  142.0431  136.0060  154.1011 C   0  0  0  0  0  0  0  0  0  0  0  0
  146.7522  140.1357  153.0652 C   0  0  0  0  0  0  0  0  0  0  0  0
  147.8334  140.7559  153.5835 N   0  0  0  0  0  0  0  0  0  0  0  0
  150.3397  143.7948  157.9520 H   0  0  0  0  0  0  0  0  0  0  0  0
  151.7071  143.5634  156.8620 H   0  0  0  0  0  0  0  0  0  0  0  0
  151.7153  142.8198  158.4717 H   0  0  0  0  0  0  0  0  0  0  0  0
  152.1588  141.4313  156.0509 H   0  0  0  0  0  0  0  0  0  0  0  0
  151.8344  140.4526  157.4794 H   0  0  0  0  0  0  0  0  0  0  0  0
  151.3460  139.2784  155.2701 H   0  0  0  0  0  0  0  0  0  0  0  0
  149.9803  139.3179  156.3910 H   0  0  0  0  0  0  0  0  0  0  0  0
  149.3549  138.0554  154.9650 H   0  0  0  0  0  0  0  0  0  0  0  0
  147.3545  136.9129  154.0004 H   0  0  0  0  0  0  0  0  0  0  0  0
  145.1197  138.3548  151.7276 H   0  0  0  0  0  0  0  0  0  0  0  0
  143.1584  136.5636  150.2851 H   0  0  0  0  0  0  0  0  0  0  0  0
  144.8192  137.0235  150.4911 H   0  0  0  0  0  0  0  0  0  0  0  0
  144.6622  134.7088  149.5889 H   0  0  0  0  0  0  0  0  0  0  0  0
  145.4480  134.7116  151.1553 H   0  0  0  0  0  0  0  0  0  0  0  0
  144.7830  132.2936  151.5855 H   0  0  0  0  0  0  0  0  0  0  0  0
  144.1378  132.3190  149.9399 H   0  0  0  0  0  0  0  0  0  0  0  0
  143.1008  131.8414  151.2819 H   0  0  0  0  0  0  0  0  0  0  0  0
  142.2033  133.5681  152.8044 H   0  0  0  0  0  0  0  0  0  0  0  0
  143.8489  133.9749  153.2499 H   0  0  0  0  0  0  0  0  0  0  0  0
  141.8204  135.8899  152.0060 H   0  0  0  0  0  0  0  0  0  0  0  0
  141.0963  135.4828  154.2382 H   0  0  0  0  0  0  0  0  0  0  0  0
  141.8440  137.0717  154.2186 H   0  0  0  0  0  0  0  0  0  0  0  0
  142.6961  135.6898  154.9139 H   0  0  0  0  0  0  0  0  0  0  0  0
  146.0838  140.7868  152.5250 H   0  0  0  0  0  0  0  0  0  0  0  0
  142.6669  134.0566  150.5854 H   0  0  0  0  0  0  0  0  0  0  0  0
  1  2  1  0  0  0  0
  1 23  1  0  0  0  0
  1 24  1  0  0  0  0
  1 25  1  0  0  0  0
  2  3  1  0  0  0  0
  3  4  1  0  0  0  0
  3 26  1  0  0  0  0
  3 27  1  0  0  0  0
  4  5  1  0  0  0  0
  4 28  1  0  0  0  0
  4 29  1  0  0  0  0
  5  6  1  0  0  0  0
  6 22  1  0  0  0  0
  6  7  2  0  0  0  0
  7  8  1  0  0  0  0
  7 30  1  0  0  0  0
  8  9  2  0  0  0  0
  8 31  1  0  0  0  0
  9 10  1  0  0  0  0
  9 21  1  0  0  0  0
 10 11  1  0  0  0  0
 10 32  1  0  0  0  0
 11 12  2  0  0  0  0
 11 13  1  0  0  0  0
 13 19  1  0  0  0  0
 13 14  1  0  0  0  0
 14 15  1  0  0  0  0
 14 33  1  0  0  0  0
 14 34  1  0  0  0  0
 15 16  1  0  0  0  0
 15 35  1  0  0  0  0
 15 36  1  0  0  0  0
 16 17  1  0  0  0  0
 16 18  1  0  0  0  0
 16 47  1  0  0  0  0
 17 37  1  0  0  0  0
 17 38  1  0  0  0  0
 17 39  1  0  0  0  0
 18 19  1  0  0  0  0
 18 40  1  0  0  0  0
 18 41  1  0  0  0  0
 19 20  1  0  0  0  0
 19 42  1  0  0  0  0
 20 43  1  0  0  0  0
 20 44  1  0  0  0  0
 20 45  1  0  0  0  0
 21 22  2  0  0  0  0
 21 46  1  0  0  0  0
M  CHG  1  16   1
M  END
> <s_m_source_file>
AV-unprocessed.smi

> <i_m_source_file_index>
1071

> <i_lp_mmshare_version>
43012

> <i_f3d_flags>
0

> <s_epik_input>
W0NIM11PW0NIMl1bQ0gyXU9jMVtjSF1bY0hdYyhbY0hdbjEpW05IXUMoPU8pTjJbQ0gyXVtDSDJdTihbQ0gzXSlbQ0gyXVtDQEhdMltDSDNd

> <s_epik_cmdline>
J2VwaWtfcHl0aG9uJywgJy1waCcsICc3LjAnLCAnLXRuJywgJzgnLCAnLW1hJywgJzIwMCcsICctbWV0YWxfYmluZGluZycsICctaW1hZScsICc8aW5maWxlLm1hZT4nLCAnLW9tYWUnLCAnPG91dGZpbGUubWFlPic=

> <r_lp_tautomer_probability>
1

> <r_epik_Ionization_Penalty>
0.25455

> <r_epik_Ionization_Penalty_Charging>
0.254506

> <r_epik_Ionization_Penalty_Neutral>
4.43365e-05

> <r_epik_State_Penalty>
0.245983

> <r_epik_Charging_Adjusted_Penalty>
0.500488

> <i_epik_Tot_Q>
1

> <i_epik_Tot_abs_Q>
1

> <r_epik_Metal_State_Penalty>
0.245987

> <b_epik_Metal_Only>
0

> <s_lp_Force_Field>
OPLS_2005

> <r_lp_Energy>
54.998

> <b_lp_Chiralities_Consistent>
1

> <s_lp_Variant>
AV-unprocessed.smi:1071-1

> <Gold.Version>
5.8.1

> <Gold.Id.Protein>
6NUR|6NUR_protein|mol2

> <Gold.PLP.Fitness>
37.7272

> <Gold.PLP.PLP>
-28.2720

> <Gold.PLP.part.hbond>
-3.1189

> <Gold.PLP.part.metal>
0.0000

> <Gold.PLP.part.buried>
0.4165

> <Gold.PLP.part.nonpolar>
-28.2142

> <Gold.PLP.part.repulsive>
1.4374

> <Gold.PLP.ligand.clash>
0.0000

> <Gold.PLP.ligand.torsion>
1.0850

> <Gold.PLP.Chemscore.Hbond>
2.8138

> <Gold.PLP.Chemscore.CHOScore>
0.8550

> <Gold.PLP.Chemscore.Metal>
0.0000

> <Gold.Chemscore.Hbonds>
donor molecule, donor type, donor heavy atom, donor atom, acceptor molecule, acceptor atom, score
      L1  H    10    32       P1 10171  0.34
      L1  H    16    47       P1 10186  2.00
      P1  H  7989  7998       L1     5  0.28
      L1  C    21    46       P1 10175  0.87

> <Gold.PLP.Chemscore.Internal.Correction>
0.6189

> <Gold.Rescore>
     Score         DG    S(hbond)    S(metal)    S(lipo)     H(rot)  DE(clash)    DE(int)     intcor
     10.13     -16.09       1.55        0.00      81.70       1.60       2.61       3.36       ----

> <Gold.Chemscore.Fitness>
10.1257

> <Gold.Chemscore.DG>
-16.0932

> <Gold.Chemscore.ZeroCoef>
-5.4800

> <Gold.Chemscore.Hbond>
1.5453

> <Gold.Chemscore.Metal>
0.0000

> <Gold.Chemscore.Lipo>
81.7049

> <Gold.Chemscore.Internal_Hbond>
0.0000

> <Gold.Chemscore.DEClash>
2.6114

> <Gold.Chemscore.DEInternal>
3.3561

> <Gold.Chemscore.Rot>
1.6045

> <Gold.Chemscore.Internal.Correction>
   9.000000E+99

> <Gold.Chemscore.Hbonds>
donor molecule, donor type, donor heavy atom, donor atom, acceptor molecule, acceptor atom, score
      L1  H    10    32       P1 10171  0.35
      L1  H    16    47       P1 10186  0.76
      P1  H  7989  7998       L1     5  0.02

> <Gold.Chemscore.Hbond.Weighted>
-5.1612

> <Gold.Chemscore.Metal.Weighted>
-0.0000

> <Gold.Chemscore.Lipo.Weighted>
-9.5595

> <Gold.Chemscore.Internal_Hbond.Weighted>
0.0000

> <Gold.Chemscore.DEClash.Weighted>
2.6114

> <Gold.Chemscore.DEInternal.Weighted>
3.3561

> <Gold.Chemscore.Rot.Weighted>
4.1075

> <Gold.Chemscore.Internal.Correction.Weighted>
   9.000000E+99

> <Gold.Protein.RotatedTorsions>
[ 6907 6896 6895 6894 ] final -150.09 input  -60.11 | X-H torsion
[ 7974 7965 7964 7962 ] final   65.34 input  175.53 | X-H torsion
[ 8008 7997 7996 7995 ] final  152.89 input   59.86 | X-H torsion
[ 10167 10162 10161 10158 ] final -124.15 input  -65.29 | X-H torsion
[ 10718 10713 10712 10709 ] final  -20.30 input   66.30 | X-H torsion
[ 10763 10752 10751 10750 ] final  -81.10 input  -60.55 | X-H torsion
[ 11005 11000 10999 10996 ] final   56.74 input  -57.11 | X-H torsion

> <Gold.Protein.ActiveResidues>
 VAL166  LYS551  ARG553  GLY616  TRP617  ASP618  TYR619  PRO620  LYS621  CYS622 
 ASP623  PHE694  ASN695  SER759  ASP760  ASP761  ALA762  ILE779  LEU786  VAL792 
 PHE793  MET794  SER795  GLU796  ALA797  LYS798  CYS799  TRP800  GLU811  SER814 

> <Gold.Protein.RotatedAtoms>
  151.1935  133.4653  159.2594 H   0  0  0  0  0  0  0  0  0  0  0  0  # atno 6907 bound_to 6896
  151.1139  135.0042  159.8517 H   0  0  0  0  0  0  0  0  0  0  0  0  # atno 6908 bound_to 6896
  152.5452  134.1852  159.8705 H   0  0  0  0  0  0  0  0  0  0  0  0  # atno 6909 bound_to 6896
  145.8396  139.3187  143.0939 H   0  0  0  0  0  0  0  0  0  0  0  0  # atno 7974 bound_to 7965
  156.2608  140.2008  156.6404 H   0  0  0  0  0  0  0  0  0  0  0  0  # atno 8008 bound_to 7997
  154.6614  140.0560  157.0091 H   0  0  0  0  0  0  0  0  0  0  0  0  # atno 8009 bound_to 7997
  155.1271  140.3230  155.4486 H   0  0  0  0  0  0  0  0  0  0  0  0  # atno 8010 bound_to 7997
  139.9959  143.5592  152.2323 H   0  0  0  0  0  0  0  0  0  0  0  0  # atno 10167 bound_to 10162
  156.5337  130.4661  149.6534 H   0  0  0  0  0  0  0  0  0  0  0  0  # atno 10718 bound_to 10713
  154.5593  135.5638  153.6993 H   0  0  0  0  0  0  0  0  0  0  0  0  # atno 10763 bound_to 10752
  153.0013  135.6270  154.2266 H   0  0  0  0  0  0  0  0  0  0  0  0  # atno 10764 bound_to 10752
  154.2203  135.2870  155.2907 H   0  0  0  0  0  0  0  0  0  0  0  0  # atno 10765 bound_to 10752
  140.0506  134.5743  155.9269 H   0  0  0  0  0  0  0  0  0  0  0  0  # atno 11005 bound_to 11000
  145.9480  140.8930  143.0274 LP  0  0  0  0  0  0  0  0  0  0  0  0  # atno 17320 bound_to 7965
  144.6734  140.1640  143.7420 LP  0  0  0  0  0  0  0  0  0  0  0  0  # atno 17321 bound_to 7965
  139.6306  144.7643  151.2543 LP  0  0  0  0  0  0  0  0  0  0  0  0  # atno 17342 bound_to 10162
  140.7437  143.6485  150.8270 LP  0  0  0  0  0  0  0  0  0  0  0  0  # atno 17343 bound_to 10162
  156.3036  130.7190  151.2067 LP  0  0  0  0  0  0  0  0  0  0  0  0  # atno 17370 bound_to 10713
  157.7417  131.0500  150.5076 LP  0  0  0  0  0  0  0  0  0  0  0  0  # atno 17371 bound_to 10713
  141.1928  133.6576  156.5519 LP  0  0  0  0  0  0  0  0  0  0  0  0  # atno 17394 bound_to 11000
  140.3924  134.7428  157.4730 LP  0  0  0  0  0  0  0  0  0  0  0  0  # atno 17395 bound_to 11000

$$$$
