#       Name:                AV-unprocessed.smi:2157
#       Creating user name   scv26
#       Creation time:       Fri Mar 27 11:56:36 2020


#       File generated by GOLD software.
#

@<TRIPOS>MOLECULE
AV-unprocessed.smi:2157
    47    48     1
SMALL
NO_CHARGES


@<TRIPOS>ATOM
      1 ****        -3.5121  -2.7641  -1.6008 C.3            1 S1                 0.0000
      2 ****        -3.1858  -2.1171  -0.2472 C.3            1 S1                 0.0000
      3 ****        -3.4703  -3.0816   0.9202 C.3            1 S1                 0.0000
      4 ****        -3.1427  -2.4363   2.2758 C.3            1 S1                 0.0000
      5 ****        -1.6879  -1.9454   2.3204 C.3            1 S1                 0.0000
      6 ****        -1.3884  -0.9750   1.1636 C.3            1 S1                 0.0000
      7 ****         0.0163  -0.5811   1.2094 N.am           1 S1                 0.0000
      8 ****         0.5173   0.5706   0.7378 C.2            1 S1                 0.0000
      9 ****        -0.1738   1.4400   0.2043 O.2            1 S1                 0.0000
     10 ****         2.0297   0.7613   0.9180 C.3            1 S1                 0.0000
     11 ****         2.5746   1.8865   0.1466 N.am           1 S1                 0.0000
     12 ****         2.7587   3.1104   0.7642 C.2            1 S1                 0.0000
     13 ****         3.2475   4.1989   0.1311 C.2            1 S1                 0.0000
     14 ****         3.6194   4.1385  -1.2766 C.2            1 S1                 0.0000
     15 ****         4.0675   5.1010  -1.9016 O.2            1 S1                 0.0000
     16 ****         3.4246   2.8773  -1.8843 N.am           1 S1                 0.0000
     17 ****         3.7812   2.7771  -3.2844 C.3            1 S1                 0.0000
     18 ****         2.9049   1.7419  -1.2189 C.2            1 S1                 0.0000
     19 ****         2.7370   0.6606  -1.7876 O.2            1 S1                 0.0000
     20 ****        -1.7271  -1.6213  -0.1959 C.3            1 S1                 0.0000
     21 ****        -2.8910  -3.6423  -1.7806 H              1 S1                 0.0000
     22 ****        -3.3454  -2.0648  -2.4208 H              1 S1                 0.0000
     23 ****        -4.5551  -3.0789  -1.6440 H              1 S1                 0.0000
     24 ****        -3.8384  -1.2503  -0.1326 H              1 S1                 0.0000
     25 ****        -4.5170  -3.3874   0.9054 H              1 S1                 0.0000
     26 ****        -2.8815  -3.9921   0.7996 H              1 S1                 0.0000
     27 ****        -3.8174  -1.5983   2.4552 H              1 S1                 0.0000
     28 ****        -3.3179  -3.1519   3.0796 H              1 S1                 0.0000
     29 ****        -1.4943  -1.4587   3.2772 H              1 S1                 0.0000
     30 ****        -1.0162  -2.8037   2.2681 H              1 S1                 0.0000
     31 ****        -2.0118  -0.0886   1.2976 H              1 S1                 0.0000
     32 ****         0.6572  -1.2358   1.6338 H              1 S1                 0.0000
     33 ****         2.2295   0.9114   1.9798 H              1 S1                 0.0000
     34 ****         2.5455  -0.1629   0.6511 H              1 S1                 0.0000
     35 ****         2.4952   3.2055   1.8076 H              1 S1                 0.0000
     36 ****         3.3643   5.1259   0.6730 H              1 S1                 0.0000
     37 ****         3.6726   1.7571  -3.6511 H              1 S1                 0.0000
     38 ****         4.8239   3.0860  -3.3783 H              1 S1                 0.0000
     39 ****         3.1168   3.4469  -3.8330 H              1 S1                 0.0000
     40 ****        -1.0514  -2.4575  -0.3828 H              1 S1                 0.0000
     41 ****        -1.5564  -0.9031  -0.9991 H              1 S1                 0.0000
     42 ****        -1.1597   1.3046   0.1059 LP             1 S1                 0.0000
     43 ****         0.2511   2.2811  -0.1303 LP             1 S1                 0.0000
     44 ****         4.1923   5.9808  -1.4429 LP             1 S1                 0.0000
     45 ****         4.3064   5.0025  -2.8676 LP             1 S1                 0.0000
     46 ****         2.3656  -0.1180  -1.2818 LP             1 S1                 0.0000
     47 ****         2.9721   0.5624  -2.7546 LP             1 S1                 0.0000
@<TRIPOS>BOND
    1    1    2 1     
    2    1   21 1     
    3    1   22 1     
    4    1   23 1     
    5    2   20 1     
    6    2    3 1     
    7    2   24 1     
    8    3    4 1     
    9    3   25 1     
   10    3   26 1     
   11    4    5 1     
   12    4   27 1     
   13    4   28 1     
   14    5    6 1     
   15    5   29 1     
   16    5   30 1     
   17    6    7 1     
   18    6   20 1     
   19    6   31 1     
   20    7    8 am    
   21    7   32 1     
   22    8    9 2     
   23    8   10 1     
   24   10   11 1     
   25   10   33 1     
   26   10   34 1     
   27   11   18 am    
   28   11   12 1     
   29   12   13 2     
   30   12   35 1     
   31   13   14 1     
   32   13   36 1     
   33   14   15 2     
   34   14   16 am    
   35   16   17 1     
   36   16   18 am    
   37   17   37 1     
   38   17   38 1     
   39   17   39 1     
   40   18   19 2     
   41   20   40 1     
   42   20   41 1     
   43    9   42 1     
   44    9   43 1     
   45   15   44 1     
   46   15   45 1     
   47   19   46 1     
   48   19   47 1     
@<TRIPOS>SUBSTRUCTURE
      1 S1             1
@<TRIPOS>SET
LONE_PAIRS      STATIC     ATOMS    <user>   **** ""
6 42 43 44 45 46 47
DONOR_HYDROGENS      STATIC     ATOMS    <user>   **** ""
1 32
ATOM$BLUE        STATIC     ATOMS    COLORGROUP SYSTEM
6 42 43 44 45 46 47
ATOM$RED        STATIC     ATOMS    COLORGROUP SYSTEM
1 32
