AV-unprocessed.smi:3287|AV-procd|sdf|12604|dock4
  -GOLD-   2272018533D 1   1.00000     0.00000
 Structure written by MMmdl.
 43 44  0  0  0  0  0  0  0  0  2 V2000
  152.0759  144.0256  161.5028 C   0  0  0  0  0  0  0  0  0  0  0  0
  152.8008  143.9826  160.1424 C   0  0  2  0  0  0  0  0  0  0  0  0
  152.1896  144.9858  159.1426 C   0  0  0  0  0  0  0  0  0  0  0  0
  150.8221  144.5265  158.6074 C   0  0  0  0  0  0  0  0  0  0  0  0
  150.9097  143.1239  157.9713 C   0  0  2  0  0  0  0  0  0  0  0  0
  149.5906  142.6469  157.4994 N   0  3  0  0  0  0  0  0  0  0  0  0
  149.4996  141.1954  157.2300 C   0  0  0  0  0  0  0  0  0  0  0  0
  149.4328  140.9048  155.7207 C   0  0  1  0  0  0  0  0  0  0  0  0
  149.7749  142.0803  155.0123 O   0  0  0  0  0  0  0  0  0  0  0  0
  150.3355  139.7382  155.3514 C   0  0  0  0  0  0  0  0  0  0  0  0
  151.7180  139.7638  155.6375 C   0  0  0  0  0  0  0  0  0  0  0  0
  152.5001  138.6461  155.2841 C   0  0  0  0  0  0  0  0  0  0  0  0
  151.9937  137.5466  154.6861 N   0  0  0  0  0  0  0  0  0  0  0  0
  150.6711  137.5267  154.4157 C   0  0  0  0  0  0  0  0  0  0  0  0
  149.8016  138.5912  154.7276 C   0  0  0  0  0  0  0  0  0  0  0  0
  151.4998  142.1146  158.9738 C   0  0  0  0  0  0  0  0  0  0  0  0
  152.8739  142.5717  159.5038 C   0  0  2  0  0  0  0  0  0  0  0  0
  153.5091  141.5172  160.4252 C   0  0  0  0  0  0  0  0  0  0  0  0
  151.0501  143.6649  161.4355 H   0  0  0  0  0  0  0  0  0  0  0  0
  152.0399  145.0442  161.8899 H   0  0  0  0  0  0  0  0  0  0  0  0
  152.5914  143.4227  162.2501 H   0  0  0  0  0  0  0  0  0  0  0  0
  153.8248  144.3080  160.3319 H   0  0  0  0  0  0  0  0  0  0  0  0
  152.0974  145.9698  159.6041 H   0  0  0  0  0  0  0  0  0  0  0  0
  152.8730  145.1128  158.3017 H   0  0  0  0  0  0  0  0  0  0  0  0
  150.0887  144.5253  159.4144 H   0  0  0  0  0  0  0  0  0  0  0  0
  150.4722  145.2571  157.8784 H   0  0  0  0  0  0  0  0  0  0  0  0
  151.5781  143.1686  157.1100 H   0  0  0  0  0  0  0  0  0  0  0  0
  148.9149  142.8610  158.2188 H   0  0  0  0  0  0  0  0  0  0  0  0
  150.3507  140.6773  157.6724 H   0  0  0  0  0  0  0  0  0  0  0  0
  148.6014  140.8069  157.7122 H   0  0  0  0  0  0  0  0  0  0  0  0
  148.4079  140.6476  155.4486 H   0  0  0  0  0  0  0  0  0  0  0  0
  149.2801  142.8014  155.3720 H   0  0  0  0  0  0  0  0  0  0  0  0
  152.1736  140.6166  156.1193 H   0  0  0  0  0  0  0  0  0  0  0  0
  153.5602  138.6343  155.4905 H   0  0  0  0  0  0  0  0  0  0  0  0
  150.2928  136.6346  153.9389 H   0  0  0  0  0  0  0  0  0  0  0  0
  148.7495  138.5217  154.4923 H   0  0  0  0  0  0  0  0  0  0  0  0
  150.8100  141.9671  159.8059 H   0  0  0  0  0  0  0  0  0  0  0  0
  151.6031  141.1423  158.4903 H   0  0  0  0  0  0  0  0  0  0  0  0
  153.5344  142.6540  158.6388 H   0  0  0  0  0  0  0  0  0  0  0  0
  152.8771  141.2972  161.2857 H   0  0  0  0  0  0  0  0  0  0  0  0
  154.4786  141.8509  160.7960 H   0  0  0  0  0  0  0  0  0  0  0  0
  153.6678  140.5799  159.8913 H   0  0  0  0  0  0  0  0  0  0  0  0
  149.3352  143.1521  156.6627 H   0  0  0  0  0  0  0  0  0  0  0  0
  1  2  1  0  0  0  0
  1 19  1  0  0  0  0
  1 20  1  0  0  0  0
  1 21  1  0  0  0  0
  2 17  1  0  0  0  0
  2  3  1  0  0  0  0
  2 22  1  0  0  0  0
  3  4  1  0  0  0  0
  3 23  1  0  0  0  0
  3 24  1  0  0  0  0
  4  5  1  0  0  0  0
  4 25  1  0  0  0  0
  4 26  1  0  0  0  0
  5  6  1  0  0  0  0
  5 16  1  0  0  0  0
  5 27  1  0  0  0  0
  6  7  1  0  0  0  0
  6 28  1  0  0  0  0
  6 43  1  0  0  0  0
  7  8  1  0  0  0  0
  7 29  1  0  0  0  0
  7 30  1  0  0  0  0
  8  9  1  0  0  0  0
  8 10  1  0  0  0  0
  8 31  1  0  0  0  0
  9 32  1  0  0  0  0
 10 15  1  0  0  0  0
 10 11  2  0  0  0  0
 11 12  1  0  0  0  0
 11 33  1  0  0  0  0
 12 13  2  0  0  0  0
 12 34  1  0  0  0  0
 13 14  1  0  0  0  0
 14 15  2  0  0  0  0
 14 35  1  0  0  0  0
 15 36  1  0  0  0  0
 16 17  1  0  0  0  0
 16 37  1  0  0  0  0
 16 38  1  0  0  0  0
 17 18  1  0  0  0  0
 17 39  1  0  0  0  0
 18 40  1  0  0  0  0
 18 41  1  0  0  0  0
 18 42  1  0  0  0  0
M  CHG  1   6   1
M  END
> <s_m_source_file>
AV-unprocessed.smi

> <i_m_source_file_index>
3287

> <i_lp_mmshare_version>
43012

> <i_f3d_flags>
0

> <s_epik_input>
W0NIM11bQ0BASF0xW0NIMl1bQ0gyXVtDQEhdKFtDSDJdW0NASF0xW0NIM10pW05IXVtDSDJdW0NASF0oW09IXSljMltjSF1bY0hdbltjSF1bY0hdMg==

> <s_epik_cmdline>
J2VwaWtfcHl0aG9uJywgJy1waCcsICc3LjAnLCAnLXRuJywgJzgnLCAnLW1hJywgJzIwMCcsICctbWV0YWxfYmluZGluZycsICctaW1hZScsICc8aW5maWxlLm1hZT4nLCAnLW9tYWUnLCAnPG91dGZpbGUubWFlPic=

> <r_lp_tautomer_probability>
1

> <r_epik_Ionization_Penalty>
0.00537262

> <r_epik_Ionization_Penalty_Charging>
0.00321624

> <r_epik_Ionization_Penalty_Neutral>
0.00215638

> <r_epik_State_Penalty>
-0

> <r_epik_Charging_Adjusted_Penalty>
0.00321624

> <i_epik_Tot_Q>
1

> <i_epik_Tot_abs_Q>
1

> <r_epik_Metal_State_Penalty>
-0

> <b_epik_Metal_Only>
0

> <s_lp_Force_Field>
OPLS_2005

> <r_lp_Energy>
17.5476

> <b_lp_Chiralities_Consistent>
1

> <s_lp_Variant>
AV-unprocessed.smi:3287-15

> <Gold.Version>
5.8.1

> <Gold.Id.Protein>
6NUR|6NUR_protein|mol2

> <Gold.PLP.Fitness>
57.1268

> <Gold.PLP.PLP>
-45.6077

> <Gold.PLP.part.hbond>
-4.7260

> <Gold.PLP.part.metal>
0.0000

> <Gold.PLP.part.buried>
-2.7009

> <Gold.PLP.part.nonpolar>
-39.2336

> <Gold.PLP.part.repulsive>
0.1226

> <Gold.PLP.ligand.clash>
0.0000

> <Gold.PLP.ligand.torsion>
1.1563

> <Gold.PLP.Chemscore.Hbond>
3.6063

> <Gold.PLP.Chemscore.CHOScore>
0.9984

> <Gold.PLP.Chemscore.Metal>
0.0000

> <Gold.Chemscore.Hbonds>
donor molecule, donor type, donor heavy atom, donor atom, acceptor molecule, acceptor atom, score
      L1  H     6    43       P1  8028  2.00
      L1  H     9    32       P1  8028  1.00
      P1  H 10752 10763       L1    13  0.56
      L1  C    14    35       P1  7948  0.79
      L1  C    14    35       P1  7949  0.15

> <Gold.PLP.Chemscore.Internal.Correction>
0.0176

> <Gold.Rescore>
     Score         DG    S(hbond)    S(metal)    S(lipo)     H(rot)  DE(clash)    DE(int)     intcor
     23.05     -24.94       2.61        0.00     133.49       1.90       0.75       1.14       ----

> <Gold.Chemscore.Fitness>
23.0505

> <Gold.Chemscore.DG>
-24.9409

> <Gold.Chemscore.ZeroCoef>
-5.4800

> <Gold.Chemscore.Hbond>
2.6095

> <Gold.Chemscore.Metal>
0.0000

> <Gold.Chemscore.Lipo>
133.4887

> <Gold.Chemscore.Internal_Hbond>
0.0000

> <Gold.Chemscore.DEClash>
0.7493

> <Gold.Chemscore.DEInternal>
1.1411

> <Gold.Chemscore.Rot>
1.9035

> <Gold.Chemscore.Internal.Correction>
   9.000000E+99

> <Gold.Chemscore.Hbonds>
donor molecule, donor type, donor heavy atom, donor atom, acceptor molecule, acceptor atom, score
      L1  H     6    43       P1  8028  0.97
      L1  H     9    32       P1  8028  0.95
      P1  H 10752 10763       L1    13  0.48

> <Gold.Chemscore.Hbond.Weighted>
-8.7156

> <Gold.Chemscore.Metal.Weighted>
-0.0000

> <Gold.Chemscore.Lipo.Weighted>
-15.6182

> <Gold.Chemscore.Internal_Hbond.Weighted>
0.0000

> <Gold.Chemscore.DEClash.Weighted>
0.7493

> <Gold.Chemscore.DEInternal.Weighted>
1.1411

> <Gold.Chemscore.Rot.Weighted>
4.8729

> <Gold.Chemscore.Internal.Correction.Weighted>
   9.000000E+99

> <Gold.Protein.RotatedTorsions>
[ 6907 6896 6895 6894 ] final  -44.82 input  -60.11 | X-H torsion
[ 7974 7965 7964 7962 ] final   90.62 input  175.53 | X-H torsion
[ 8008 7997 7996 7995 ] final   94.64 input   59.86 | X-H torsion
[ 10167 10162 10161 10158 ] final  127.22 input  -65.29 | X-H torsion
[ 10718 10713 10712 10709 ] final  -36.00 input   66.30 | X-H torsion
[ 10763 10752 10751 10750 ] final   37.25 input  -60.55 | X-H torsion
[ 11005 11000 10999 10996 ] final  -43.48 input  -57.11 | X-H torsion

> <Gold.Protein.ActiveResidues>
 VAL166  LYS551  ARG553  GLY616  TRP617  ASP618  TYR619  PRO620  LYS621  CYS622 
 ASP623  PHE694  ASN695  SER759  ASP760  ASP761  ALA762  ILE779  LEU786  VAL792 
 PHE793  MET794  SER795  GLU796  ALA797  LYS798  CYS799  TRP800  GLU811  SER814 

> <Gold.Protein.RotatedAtoms>
  150.9287  134.8703  159.7536 H   0  0  0  0  0  0  0  0  0  0  0  0  # atno 6907 bound_to 6896
  152.5027  134.4111  159.9459 H   0  0  0  0  0  0  0  0  0  0  0  0  # atno 6908 bound_to 6896
  151.4139  133.3679  159.2782 H   0  0  0  0  0  0  0  0  0  0  0  0  # atno 6909 bound_to 6896
  145.5166  139.2278  143.2695 H   0  0  0  0  0  0  0  0  0  0  0  0  # atno 7974 bound_to 7965
  156.0601  140.3297  155.7452 H   0  0  0  0  0  0  0  0  0  0  0  0  # atno 8008 bound_to 7997
  155.5468  140.0606  157.2876 H   0  0  0  0  0  0  0  0  0  0  0  0  # atno 8009 bound_to 7997
  154.4477  140.1901  156.0634 H   0  0  0  0  0  0  0  0  0  0  0  0  # atno 8010 bound_to 7997
  139.5590  144.6868  151.4099 H   0  0  0  0  0  0  0  0  0  0  0  0  # atno 10167 bound_to 10162
  156.3319  130.4280  149.7864 H   0  0  0  0  0  0  0  0  0  0  0  0  # atno 10718 bound_to 10713
  153.0045  135.6283  154.2115 H   0  0  0  0  0  0  0  0  0  0  0  0  # atno 10763 bound_to 10752
  154.1858  135.2811  155.3039 H   0  0  0  0  0  0  0  0  0  0  0  0  # atno 10764 bound_to 10752
  154.5799  135.5651  153.7234 H   0  0  0  0  0  0  0  0  0  0  0  0  # atno 10765 bound_to 10752
  141.0387  133.6789  156.2739 H   0  0  0  0  0  0  0  0  0  0  0  0  # atno 11005 bound_to 11000
  146.2133  140.5976  142.9050 LP  0  0  0  0  0  0  0  0  0  0  0  0  # atno 17320 bound_to 7965
  144.7698  140.5613  143.6678 LP  0  0  0  0  0  0  0  0  0  0  0  0  # atno 17321 bound_to 7965
  140.6867  143.7957  150.7196 LP  0  0  0  0  0  0  0  0  0  0  0  0  # atno 17342 bound_to 10162
  140.1427  143.4427  152.2183 LP  0  0  0  0  0  0  0  0  0  0  0  0  # atno 17343 bound_to 10162
  156.5133  130.8182  151.3177 LP  0  0  0  0  0  0  0  0  0  0  0  0  # atno 17370 bound_to 10713
  157.7432  130.9906  150.2573 LP  0  0  0  0  0  0  0  0  0  0  0  0  # atno 17371 bound_to 10713
  140.6275  134.5298  157.5555 LP  0  0  0  0  0  0  0  0  0  0  0  0  # atno 17394 bound_to 11000
  139.9259  134.8056  156.1069 LP  0  0  0  0  0  0  0  0  0  0  0  0  # atno 17395 bound_to 11000

$$$$
