AV-unprocessed.smi:18|AV-procd|sdf|107|dock10
  -GOLD-   2262015263D 1   1.00000     0.00000
 Structure written by MMmdl.
 47 50  0  0  0  0  0  0  0  0  1 V2000
  155.2523  137.3777  165.2467 O   0  0  0  0  0  0  0  0  0  0  0  0
  154.9746  137.4447  163.8625 C   0  0  0  0  0  0  0  0  0  0  0  0
  156.0698  136.7506  163.0338 C   0  0  0  0  0  0  0  0  0  0  0  0
  155.6724  136.6823  161.5443 C   0  0  0  0  0  0  0  0  0  0  0  0
  155.1552  137.9327  161.0094 N   0  0  0  0  0  0  0  0  0  0  0  0
  155.7515  139.1720  161.0925 C   0  0  0  0  0  0  0  0  0  0  0  0
  155.0945  140.1472  160.5260 N   0  0  0  0  0  0  0  0  0  0  0  0
  153.9509  139.5361  160.0291 C   0  0  0  0  0  0  0  0  0  0  0  0
  152.8204  140.0011  159.3064 C   0  0  0  0  0  0  0  0  0  0  0  0
  152.6791  141.3038  158.9624 N   0  0  0  0  0  0  0  0  0  0  0  0
  153.0483  142.1561  160.0881 C   0  0  0  0  0  0  0  0  0  0  0  0
  153.0648  143.6299  159.6644 C   0  0  0  0  0  0  0  0  0  0  0  0
  151.7899  143.9685  159.1376 O   0  0  0  0  0  0  0  0  0  0  0  0
  151.4822  143.2122  157.9729 C   0  0  0  0  0  0  0  0  0  0  0  0
  151.4294  141.6999  158.2955 C   0  0  1  0  0  0  0  0  0  0  0  0
  151.1673  140.8752  157.0079 C   0  0  0  0  0  0  0  0  0  0  0  0
  149.8255  141.1792  156.3238 C   0  0  0  0  0  0  0  0  0  0  0  0
  149.5664  140.2458  155.4088 F   0  0  0  0  0  0  0  0  0  0  0  0
  148.8367  141.1968  157.2170 F   0  0  0  0  0  0  0  0  0  0  0  0
  151.8534  139.0980  158.9925 N   0  0  0  0  0  0  0  0  0  0  0  0
  151.9944  137.8172  159.3472 C   0  0  0  0  0  0  0  0  0  0  0  0
  152.9998  137.2403  160.0090 N   0  0  0  0  0  0  0  0  0  0  0  0
  153.9669  138.1460  160.3325 C   0  0  0  0  0  0  0  0  0  0  0  0
  157.4926  137.2471  163.3293 C   0  0  0  0  0  0  0  0  0  0  0  0
  157.7696  136.1143  164.1794 O   0  0  0  0  0  0  0  0  0  0  0  0
  156.6076  135.4482  163.6423 C   0  0  0  0  0  0  0  0  0  0  0  0
  154.6791  137.9788  165.6975 H   0  0  0  0  0  0  0  0  0  0  0  0
  153.9908  137.0158  163.6721 H   0  0  0  0  0  0  0  0  0  0  0  0
  154.8993  138.4980  163.5900 H   0  0  0  0  0  0  0  0  0  0  0  0
  156.5273  136.3877  160.9344 H   0  0  0  0  0  0  0  0  0  0  0  0
  154.9222  135.9074  161.3836 H   0  0  0  0  0  0  0  0  0  0  0  0
  156.7023  139.3288  161.5811 H   0  0  0  0  0  0  0  0  0  0  0  0
  152.3356  142.0130  160.9017 H   0  0  0  0  0  0  0  0  0  0  0  0
  154.0315  141.8758  160.4693 H   0  0  0  0  0  0  0  0  0  0  0  0
  153.2760  144.2664  160.5237 H   0  0  0  0  0  0  0  0  0  0  0  0
  153.8453  143.8184  158.9253 H   0  0  0  0  0  0  0  0  0  0  0  0
  150.5192  143.5603  157.6020 H   0  0  0  0  0  0  0  0  0  0  0  0
  152.2169  143.4209  157.1933 H   0  0  0  0  0  0  0  0  0  0  0  0
  150.6087  141.5331  158.9947 H   0  0  0  0  0  0  0  0  0  0  0  0
  151.9793  141.0443  156.2994 H   0  0  0  0  0  0  0  0  0  0  0  0
  151.1831  139.8077  157.2255 H   0  0  0  0  0  0  0  0  0  0  0  0
  149.8243  142.1362  155.8034 H   0  0  0  0  0  0  0  0  0  0  0  0
  151.1865  137.1609  159.0592 H   0  0  0  0  0  0  0  0  0  0  0  0
  158.1525  137.2618  162.4611 H   0  0  0  0  0  0  0  0  0  0  0  0
  157.5318  138.1967  163.8642 H   0  0  0  0  0  0  0  0  0  0  0  0
  155.9714  135.0211  164.4183 H   0  0  0  0  0  0  0  0  0  0  0  0
  156.8799  134.6932  162.9030 H   0  0  0  0  0  0  0  0  0  0  0  0
  1  2  1  0  0  0  0
  1 27  1  0  0  0  0
  2  3  1  0  0  0  0
  2 28  1  0  0  0  0
  2 29  1  0  0  0  0
  3 26  1  0  0  0  0
  3  4  1  0  0  0  0
  3 24  1  0  0  0  0
  4  5  1  0  0  0  0
  4 30  1  0  0  0  0
  4 31  1  0  0  0  0
  5 23  1  0  0  0  0
  5  6  1  0  0  0  0
  6  7  2  0  0  0  0
  6 32  1  0  0  0  0
  7  8  1  0  0  0  0
  8 23  2  0  0  0  0
  8  9  1  0  0  0  0
  9 10  1  0  0  0  0
  9 20  2  0  0  0  0
 10 15  1  0  0  0  0
 10 11  1  0  0  0  0
 11 12  1  0  0  0  0
 11 33  1  0  0  0  0
 11 34  1  0  0  0  0
 12 13  1  0  0  0  0
 12 35  1  0  0  0  0
 12 36  1  0  0  0  0
 13 14  1  0  0  0  0
 14 15  1  0  0  0  0
 14 37  1  0  0  0  0
 14 38  1  0  0  0  0
 15 16  1  0  0  0  0
 15 39  1  0  0  0  0
 16 17  1  0  0  0  0
 16 40  1  0  0  0  0
 16 41  1  0  0  0  0
 17 18  1  0  0  0  0
 17 19  1  0  0  0  0
 17 42  1  0  0  0  0
 20 21  1  0  0  0  0
 21 22  2  0  0  0  0
 21 43  1  0  0  0  0
 22 23  1  0  0  0  0
 24 25  1  0  0  0  0
 24 44  1  0  0  0  0
 24 45  1  0  0  0  0
 25 26  1  0  0  0  0
 26 46  1  0  0  0  0
 26 47  1  0  0  0  0
M  END
> <s_m_source_file>
AV-unprocessed.smi

> <i_m_source_file_index>
18

> <i_lp_mmshare_version>
43012

> <i_f3d_flags>
0

> <s_epik_input>
W0NIMl0xT1tDSDJdQzEoW0NIMl1bT0hdKVtDSDJdbihbY0hdbjIpYyhjMjMpbltjSF1uYzNONFtDSDJdW0NIMl1PW0NIMl1bQ0BIXTRbQ0gyXVtDSF0oRilG

> <s_epik_cmdline>
J2VwaWtfcHl0aG9uJywgJy1waCcsICc3LjAnLCAnLXRuJywgJzgnLCAnLW1hJywgJzIwMCcsICctbWV0YWxfYmluZGluZycsICctaW1hZScsICc8aW5maWxlLm1hZT4nLCAnLW9tYWUnLCAnPG91dGZpbGUubWFlPic=

> <r_lp_tautomer_probability>
1

> <r_epik_Ionization_Penalty>
6.63711e-05

> <r_epik_Ionization_Penalty_Charging>
0

> <r_epik_Ionization_Penalty_Neutral>
6.63711e-05

> <r_epik_State_Penalty>
-0

> <r_epik_Charging_Adjusted_Penalty>
0

> <i_epik_Tot_Q>
0

> <i_epik_Tot_abs_Q>
0

> <r_epik_Metal_State_Penalty>
-0

> <b_epik_Metal_Only>
0

> <s_lp_Force_Field>
OPLS_2005

> <r_lp_Energy>
38.6486

> <b_lp_Chiralities_Consistent>
1

> <s_lp_Variant>
AV-unprocessed.smi:18-1

> <Gold.Version>
5.8.1

> <Gold.Id.Protein>
6NUR|6NUR_protein|mol2

> <Gold.PLP.Fitness>
49.0087

> <Gold.PLP.PLP>
-46.8411

> <Gold.PLP.part.hbond>
-2.8620

> <Gold.PLP.part.metal>
0.0000

> <Gold.PLP.part.buried>
-6.8622

> <Gold.PLP.part.nonpolar>
-36.4538

> <Gold.PLP.part.repulsive>
0.0893

> <Gold.PLP.ligand.clash>
0.0000

> <Gold.PLP.ligand.torsion>
0.6740

> <Gold.PLP.Chemscore.Hbond>
0.9913

> <Gold.PLP.Chemscore.CHOScore>
0.0000

> <Gold.PLP.Chemscore.Metal>
0.0000

> <Gold.PLP.Chemscore.Internal.Correction>
0.5418

> <Gold.Rescore>
     Score         DG    S(hbond)    S(metal)    S(lipo)     H(rot)  DE(clash)    DE(int)     intcor
      7.07     -11.85       0.97        0.00      91.73       2.96       0.33       4.45       ----

> <Gold.Chemscore.Fitness>
7.0707

> <Gold.Chemscore.DG>
-11.8505

> <Gold.Chemscore.ZeroCoef>
-5.4800

> <Gold.Chemscore.Hbond>
0.9660

> <Gold.Chemscore.Metal>
0.0000

> <Gold.Chemscore.Lipo>
91.7334

> <Gold.Chemscore.Internal_Hbond>
0.0000

> <Gold.Chemscore.DEClash>
0.3287

> <Gold.Chemscore.DEInternal>
4.4512

> <Gold.Chemscore.Rot>
2.9643

> <Gold.Chemscore.Internal.Correction>
   9.000000E+99

> <Gold.Chemscore.Hbond.Weighted>
-3.2263

> <Gold.Chemscore.Metal.Weighted>
-0.0000

> <Gold.Chemscore.Lipo.Weighted>
-10.7328

> <Gold.Chemscore.Internal_Hbond.Weighted>
0.0000

> <Gold.Chemscore.DEClash.Weighted>
0.3287

> <Gold.Chemscore.DEInternal.Weighted>
4.4512

> <Gold.Chemscore.Rot.Weighted>
7.5886

> <Gold.Chemscore.Internal.Correction.Weighted>
   9.000000E+99

> <Gold.Protein.RotatedTorsions>
[ 6907 6896 6895 6894 ] final -114.15 input  -60.11 | X-H torsion
[ 7974 7965 7964 7962 ] final   42.78 input  175.53 | X-H torsion
[ 8008 7997 7996 7995 ] final -143.40 input   59.86 | X-H torsion
[ 10167 10162 10161 10158 ] final   12.39 input  -65.29 | X-H torsion
[ 10718 10713 10712 10709 ] final   -3.19 input   66.30 | X-H torsion
[ 10763 10752 10751 10750 ] final  -73.53 input  -60.55 | X-H torsion
[ 11005 11000 10999 10996 ] final -119.17 input  -57.11 | X-H torsion

> <Gold.Protein.ActiveResidues>
 VAL166  LYS551  ARG553  GLY616  TRP617  ASP618  TYR619  PRO620  LYS621  CYS622 
 ASP623  PHE694  ASN695  SER759  ASP760  ASP761  ALA762  ILE779  LEU786  VAL792 
 PHE793  MET794  SER795  GLU796  ALA797  LYS798  CYS799  TRP800  GLU811  SER814 

> <Gold.Protein.RotatedAtoms>
  150.7881  133.8843  159.3294 H   0  0  0  0  0  0  0  0  0  0  0  0  # atno 6907 bound_to 6896
  151.6688  135.0977  160.0203 H   0  0  0  0  0  0  0  0  0  0  0  0  # atno 6908 bound_to 6896
  152.3949  133.6693  159.6303 H   0  0  0  0  0  0  0  0  0  0  0  0  # atno 6909 bound_to 6896
  146.0711  139.5261  142.9597 H   0  0  0  0  0  0  0  0  0  0  0  0  # atno 7974 bound_to 7965
  155.5099  140.0582  157.2925 H   0  0  0  0  0  0  0  0  0  0  0  0  # atno 8008 bound_to 7997
  154.4555  140.1971  156.0339 H   0  0  0  0  0  0  0  0  0  0  0  0  # atno 8009 bound_to 7997
  156.0791  140.3249  155.7675 H   0  0  0  0  0  0  0  0  0  0  0  0  # atno 8010 bound_to 7997
  140.6071  143.8486  150.7025 H   0  0  0  0  0  0  0  0  0  0  0  0  # atno 10167 bound_to 10162
  156.7798  130.5327  149.5753 H   0  0  0  0  0  0  0  0  0  0  0  0  # atno 10718 bound_to 10713
  154.4607  135.5894  153.6253 H   0  0  0  0  0  0  0  0  0  0  0  0  # atno 10763 bound_to 10752
  152.9823  135.6043  154.3490 H   0  0  0  0  0  0  0  0  0  0  0  0  # atno 10764 bound_to 10752
  154.3361  135.2842  155.2425 H   0  0  0  0  0  0  0  0  0  0  0  0  # atno 10765 bound_to 10752
  141.0234  134.0090  157.3249 H   0  0  0  0  0  0  0  0  0  0  0  0  # atno 11005 bound_to 11000
  145.6390  141.0288  143.1822 LP  0  0  0  0  0  0  0  0  0  0  0  0  # atno 17320 bound_to 7965
  144.7232  139.7960  143.7374 LP  0  0  0  0  0  0  0  0  0  0  0  0  # atno 17321 bound_to 7965
  140.2045  143.3932  152.1766 LP  0  0  0  0  0  0  0  0  0  0  0  0  # atno 17342 bound_to 10162
  139.5333  144.7182  151.4981 LP  0  0  0  0  0  0  0  0  0  0  0  0  # atno 17343 bound_to 10162
  156.1225  130.6120  151.0215 LP  0  0  0  0  0  0  0  0  0  0  0  0  # atno 17370 bound_to 10713
  157.6652  131.0873  150.7746 LP  0  0  0  0  0  0  0  0  0  0  0  0  # atno 17371 bound_to 10713
  139.9160  135.0197  156.7884 LP  0  0  0  0  0  0  0  0  0  0  0  0  # atno 17394 bound_to 11000
  140.6533  133.9711  155.7766 LP  0  0  0  0  0  0  0  0  0  0  0  0  # atno 17395 bound_to 11000

$$$$
