AV-unprocessed.smi:2076|AV-procd|sdf|8458|dock2
  -GOLD-   2272011153D 1   1.00000     0.00000
 Structure written by MMmdl.
 44 45  0  0  0  0  0  0  0  0  1 V2000
  150.9814  145.1898  159.7490 C   0  0  0  0  0  0  0  0  0  0  0  0
  151.8848  144.1568  160.3549 C   0  0  0  0  0  0  0  0  0  0  0  0
  152.1752  143.9369  161.7304 C   0  0  0  0  0  0  0  0  0  0  0  0
  153.0459  142.8838  161.7280 C   0  0  0  0  0  0  0  0  0  0  0  0
  153.7108  142.1825  162.8666 C   0  0  0  0  0  0  0  0  0  0  0  0
  153.2391  142.5258  160.4052 N   0  0  0  0  0  0  0  0  0  0  0  0
  154.0642  141.4631  159.8520 C   0  0  0  0  0  0  0  0  0  0  0  0
  153.2279  140.4875  159.0228 C   0  0  0  0  0  0  0  0  0  0  0  0
  153.7436  139.4690  158.5632 O   0  0  0  0  0  0  0  0  0  0  0  0
  151.9397  140.8114  158.8403 N   0  0  0  0  0  0  0  0  0  0  0  0
  150.9798  140.0134  158.0865 C   0  0  0  0  0  0  0  0  0  0  0  0
  150.5415  140.7084  156.7679 C   0  0  1  0  0  0  0  0  0  0  0  0
  151.7040  140.6181  155.7464 C   0  0  0  0  0  0  0  0  0  0  0  0
  149.2646  140.1888  156.2244 N   0  0  0  0  0  0  0  0  0  0  0  0
  149.3026  138.7405  155.9903 C   0  0  0  0  0  0  0  0  0  0  0  0
  147.9908  138.1941  155.4005 C   0  0  0  0  0  0  0  0  0  0  0  0
  147.6876  138.8768  154.1920 O   0  0  0  0  0  0  0  0  0  0  0  0
  147.5624  140.2781  154.3894 C   0  0  0  0  0  0  0  0  0  0  0  0
  148.8725  140.8393  154.9686 C   0  0  0  0  0  0  0  0  0  0  0  0
  152.5252  143.3091  159.5665 N   0  0  0  0  0  0  0  0  0  0  0  0
  150.4873  145.7817  160.5197 H   0  0  0  0  0  0  0  0  0  0  0  0
  150.2056  144.7252  159.1398 H   0  0  0  0  0  0  0  0  0  0  0  0
  151.5413  145.8753  159.1126 H   0  0  0  0  0  0  0  0  0  0  0  0
  151.7993  144.4712  162.5903 H   0  0  0  0  0  0  0  0  0  0  0  0
  153.4950  142.6828  163.8106 H   0  0  0  0  0  0  0  0  0  0  0  0
  154.7928  142.1664  162.7379 H   0  0  0  0  0  0  0  0  0  0  0  0
  153.3617  141.1528  162.9448 H   0  0  0  0  0  0  0  0  0  0  0  0
  154.8513  141.8974  159.2331 H   0  0  0  0  0  0  0  0  0  0  0  0
  154.5602  140.9341  160.6663 H   0  0  0  0  0  0  0  0  0  0  0  0
  151.5996  141.6650  159.2592 H   0  0  0  0  0  0  0  0  0  0  0  0
  151.4024  139.0313  157.8665 H   0  0  0  0  0  0  0  0  0  0  0  0
  150.1376  139.8577  158.7588 H   0  0  0  0  0  0  0  0  0  0  0  0
  150.4017  141.7658  156.9988 H   0  0  0  0  0  0  0  0  0  0  0  0
  152.6558  140.9444  156.1645 H   0  0  0  0  0  0  0  0  0  0  0  0
  151.5428  141.2570  154.8794 H   0  0  0  0  0  0  0  0  0  0  0  0
  151.8374  139.5953  155.3924 H   0  0  0  0  0  0  0  0  0  0  0  0
  150.1291  138.4954  155.3216 H   0  0  0  0  0  0  0  0  0  0  0  0
  149.4793  138.2049  156.9212 H   0  0  0  0  0  0  0  0  0  0  0  0
  148.0855  137.1285  155.1916 H   0  0  0  0  0  0  0  0  0  0  0  0
  147.1699  138.3098  156.1098 H   0  0  0  0  0  0  0  0  0  0  0  0
  147.3368  140.7531  153.4345 H   0  0  0  0  0  0  0  0  0  0  0  0
  146.7242  140.4870  155.0562 H   0  0  0  0  0  0  0  0  0  0  0  0
  148.7175  141.9058  155.1180 H   0  0  0  0  0  0  0  0  0  0  0  0
  149.6700  140.7328  154.2317 H   0  0  0  0  0  0  0  0  0  0  0  0
  1  2  1  0  0  0  0
  1 21  1  0  0  0  0
  1 22  1  0  0  0  0
  1 23  1  0  0  0  0
  2 20  2  0  0  0  0
  2  3  1  0  0  0  0
  3  4  2  0  0  0  0
  3 24  1  0  0  0  0
  4  5  1  0  0  0  0
  4  6  1  0  0  0  0
  5 25  1  0  0  0  0
  5 26  1  0  0  0  0
  5 27  1  0  0  0  0
  6  7  1  0  0  0  0
  6 20  1  0  0  0  0
  7  8  1  0  0  0  0
  7 28  1  0  0  0  0
  7 29  1  0  0  0  0
  8  9  2  0  0  0  0
  8 10  1  0  0  0  0
 10 11  1  0  0  0  0
 10 30  1  0  0  0  0
 11 12  1  0  0  0  0
 11 31  1  0  0  0  0
 11 32  1  0  0  0  0
 12 13  1  0  0  0  0
 12 14  1  0  0  0  0
 12 33  1  0  0  0  0
 13 34  1  0  0  0  0
 13 35  1  0  0  0  0
 13 36  1  0  0  0  0
 14 19  1  0  0  0  0
 14 15  1  0  0  0  0
 15 16  1  0  0  0  0
 15 37  1  0  0  0  0
 15 38  1  0  0  0  0
 16 17  1  0  0  0  0
 16 39  1  0  0  0  0
 16 40  1  0  0  0  0
 17 18  1  0  0  0  0
 18 19  1  0  0  0  0
 18 41  1  0  0  0  0
 18 42  1  0  0  0  0
 19 43  1  0  0  0  0
 19 44  1  0  0  0  0
M  END
> <s_m_source_file>
AV-unprocessed.smi

> <i_m_source_file_index>
2076

> <i_lp_mmshare_version>
43012

> <i_f3d_flags>
0

> <s_epik_input>
W0NIM11jMVtjSF1jKFtDSDNdKW4objEpW0NIMl1DKD1PKVtOSF1bQ0gyXVtDQEhdKFtDSDNdKU4yW0NIMl1bQ0gyXU9bQ0gyXVtDSDJdMg==

> <s_epik_cmdline>
J2VwaWtfcHl0aG9uJywgJy1waCcsICc3LjAnLCAnLXRuJywgJzgnLCAnLW1hJywgJzIwMCcsICctbWV0YWxfYmluZGluZycsICctaW1hZScsICc8aW5maWxlLm1hZT4nLCAnLW9tYWUnLCAnPG91dGZpbGUubWFlPic=

> <r_lp_tautomer_probability>
1

> <r_epik_Ionization_Penalty>
0.197284

> <r_epik_Ionization_Penalty_Charging>
0

> <r_epik_Ionization_Penalty_Neutral>
0.197284

> <r_epik_State_Penalty>
0.186684

> <r_epik_Charging_Adjusted_Penalty>
0.186684

> <i_epik_Tot_Q>
0

> <i_epik_Tot_abs_Q>
0

> <r_epik_Metal_State_Penalty>
0.186636

> <b_epik_Metal_Only>
0

> <s_lp_Force_Field>
OPLS_2005

> <r_lp_Energy>
27.1724

> <b_lp_Chiralities_Consistent>
1

> <s_lp_Variant>
AV-unprocessed.smi:2076-2

> <Gold.Version>
5.8.1

> <Gold.Id.Protein>
6NUR|6NUR_protein|mol2

> <Gold.PLP.Fitness>
41.8637

> <Gold.PLP.PLP>
-39.2599

> <Gold.PLP.part.hbond>
-1.0000

> <Gold.PLP.part.metal>
0.0000

> <Gold.PLP.part.buried>
-5.4704

> <Gold.PLP.part.nonpolar>
-32.2609

> <Gold.PLP.part.repulsive>
0.3003

> <Gold.PLP.ligand.clash>
0.0000

> <Gold.PLP.ligand.torsion>
0.2322

> <Gold.PLP.Chemscore.Hbond>
1.0000

> <Gold.PLP.Chemscore.CHOScore>
0.0000

> <Gold.PLP.Chemscore.Metal>
0.0000

> <Gold.Chemscore.Hbonds>
donor molecule, donor type, donor heavy atom, donor atom, acceptor molecule, acceptor atom, score
      P1  H  7997  8009       L1     9  1.00

> <Gold.PLP.Chemscore.Internal.Correction>
0.0682

> <Gold.Rescore>
     Score         DG    S(hbond)    S(metal)    S(lipo)     H(rot)  DE(clash)    DE(int)     intcor
     13.93     -15.67       0.98        0.00      96.42       1.70       0.03       1.71       ----

> <Gold.Chemscore.Fitness>
13.9338

> <Gold.Chemscore.DG>
-15.6745

> <Gold.Chemscore.ZeroCoef>
-5.4800

> <Gold.Chemscore.Hbond>
0.9772

> <Gold.Chemscore.Metal>
0.0000

> <Gold.Chemscore.Lipo>
96.4164

> <Gold.Chemscore.Internal_Hbond>
0.0000

> <Gold.Chemscore.DEClash>
0.0282

> <Gold.Chemscore.DEInternal>
1.7124

> <Gold.Chemscore.Rot>
1.6993

> <Gold.Chemscore.Internal.Correction>
   9.000000E+99

> <Gold.Chemscore.Hbonds>
donor molecule, donor type, donor heavy atom, donor atom, acceptor molecule, acceptor atom, score
      P1  H  7997  8009       L1     9  0.50

> <Gold.Chemscore.Hbond.Weighted>
-3.2640

> <Gold.Chemscore.Metal.Weighted>
-0.0000

> <Gold.Chemscore.Lipo.Weighted>
-11.2807

> <Gold.Chemscore.Internal_Hbond.Weighted>
0.0000

> <Gold.Chemscore.DEClash.Weighted>
0.0282

> <Gold.Chemscore.DEInternal.Weighted>
1.7124

> <Gold.Chemscore.Rot.Weighted>
4.3502

> <Gold.Chemscore.Internal.Correction.Weighted>
   9.000000E+99

> <Gold.Protein.RotatedTorsions>
[ 6907 6896 6895 6894 ] final  102.46 input  -60.11 | X-H torsion
[ 7974 7965 7964 7962 ] final   63.18 input  175.53 | X-H torsion
[ 8008 7997 7996 7995 ] final  143.68 input   59.86 | X-H torsion
[ 10167 10162 10161 10158 ] final  -60.36 input  -65.29 | X-H torsion
[ 10718 10713 10712 10709 ] final  156.01 input   66.30 | X-H torsion
[ 10763 10752 10751 10750 ] final   30.77 input  -60.55 | X-H torsion
[ 11005 11000 10999 10996 ] final  141.99 input  -57.11 | X-H torsion

> <Gold.Protein.ActiveResidues>
 VAL166  LYS551  ARG553  GLY616  TRP617  ASP618  TYR619  PRO620  LYS621  CYS622 
 ASP623  PHE694  ASN695  SER759  ASP760  ASP761  ALA762  ILE779  LEU786  VAL792 
 PHE793  MET794  SER795  GLU796  ALA797  LYS798  CYS799  TRP800  GLU811  SER814 

> <Gold.Protein.RotatedAtoms>
  152.5323  133.9973  159.7878 H   0  0  0  0  0  0  0  0  0  0  0  0  # atno 6907 bound_to 6896
  151.0198  133.5879  159.2680 H   0  0  0  0  0  0  0  0  0  0  0  0  # atno 6908 bound_to 6896
  151.2923  135.0752  159.9262 H   0  0  0  0  0  0  0  0  0  0  0  0  # atno 6909 bound_to 6896
  145.8648  139.3338  143.0797 H   0  0  0  0  0  0  0  0  0  0  0  0  # atno 7974 bound_to 7965
  156.2925  140.2256  156.4930 H   0  0  0  0  0  0  0  0  0  0  0  0  # atno 8008 bound_to 7997
  154.7754  140.0464  157.1106 H   0  0  0  0  0  0  0  0  0  0  0  0  # atno 8009 bound_to 7997
  154.9823  140.3080  155.4944 H   0  0  0  0  0  0  0  0  0  0  0  0  # atno 8010 bound_to 7997
  140.6076  143.2378  151.5785 H   0  0  0  0  0  0  0  0  0  0  0  0  # atno 10167 bound_to 10162
  157.2107  131.0697  151.1971 H   0  0  0  0  0  0  0  0  0  0  0  0  # atno 10718 bound_to 10713
  153.0353  135.6456  154.1095 H   0  0  0  0  0  0  0  0  0  0  0  0  # atno 10763 bound_to 10752
  154.0811  135.2873  155.3291 H   0  0  0  0  0  0  0  0  0  0  0  0  # atno 10764 bound_to 10752
  154.6529  135.5419  153.7988 H   0  0  0  0  0  0  0  0  0  0  0  0  # atno 10765 bound_to 10752
  140.0443  134.9289  157.0901 H   0  0  0  0  0  0  0  0  0  0  0  0  # atno 11005 bound_to 11000
  145.9206  140.9118  143.0407 LP  0  0  0  0  0  0  0  0  0  0  0  0  # atno 17320 bound_to 7965
  144.6726  140.1284  143.7445 LP  0  0  0  0  0  0  0  0  0  0  0  0  # atno 17321 bound_to 7965
  139.5336  144.2844  152.1203 LP  0  0  0  0  0  0  0  0  0  0  0  0  # atno 17342 bound_to 10162
  140.2036  144.4633  150.6419 LP  0  0  0  0  0  0  0  0  0  0  0  0  # atno 17343 bound_to 10162
  157.3675  130.7163  149.6542 LP  0  0  0  0  0  0  0  0  0  0  0  0  # atno 17370 bound_to 10713
  155.9691  130.4208  150.4440 LP  0  0  0  0  0  0  0  0  0  0  0  0  # atno 17371 bound_to 10713
  140.4018  134.2074  155.7163 LP  0  0  0  0  0  0  0  0  0  0  0  0  # atno 17394 bound_to 11000
  141.1899  133.8228  157.0939 LP  0  0  0  0  0  0  0  0  0  0  0  0  # atno 17395 bound_to 11000

$$$$
