#       Name:                AV-unprocessed.smi:111
#       Creating user name   scv26
#       Creation time:       Thu Mar 26 18:17:12 2020


#       File generated by GOLD software.
#

@<TRIPOS>MOLECULE
AV-unprocessed.smi:111
    54    56     1
SMALL
NO_CHARGES


@<TRIPOS>ATOM
      1 ****        -2.2797  -2.1795  -2.1890 O.2            1 S1                 0.0000
      2 ****        -2.1117  -1.2559  -1.3910 C.2            1 S1                 0.0000
      3 ****        -2.6263   0.0913  -1.6115 C.2            1 S1                 0.0000
      4 ****        -3.3459   0.3550  -2.7155 F              1 S1                 0.0000
      5 ****        -2.3878   1.0837  -0.7275 C.2            1 S1                 0.0000
      6 ****        -1.6554   0.9011   0.4336 N.am           1 S1                 0.0000
      7 ****        -1.3978   2.0409   1.3954 C.3            1 S1                 0.0000
      8 ****        -2.4390   2.0332   2.5189 C.3            1 S1                 0.0000
      9 ****        -3.5090   2.9402   1.9518 C.3            1 S1                 0.0000
     10 ****        -2.6739   3.9641   1.1901 C.3            1 S1                 0.0000
     11 ****        -1.5301   3.2560   0.7154 O.3            1 S1                 0.0000
     12 ****        -1.1418  -0.3766   0.7426 C.2            1 S1                 0.0000
     13 ****        -0.5086  -0.5672   1.7837 O.2            1 S1                 0.0000
     14 ****        -1.3816  -1.4174  -0.1860 N.am           1 S1                 0.0000
     15 ****        -0.7880  -2.7162   0.1011 C.3            1 S1                 0.0000
     16 ****         0.7355  -2.7785  -0.1545 C.3            1 S1                 0.0000
     17 ****         1.2026  -4.0432   0.2669 O.3            1 S1                 0.0000
     18 ****         1.1434  -2.5580  -1.6281 C.3            1 S1                 0.0000
     19 ****         2.6396  -2.2522  -1.8247 C.3            1 S1                 0.0000
     20 ****         3.0733  -0.9679  -1.1365 C.ar           1 S1                 0.0000
     21 ****         2.5854   0.2769  -1.5887 C.ar           1 S1                 0.0000
     22 ****         2.9609   1.4658  -0.9340 C.ar           1 S1                 0.0000
     23 ****         3.8305   1.4159   0.1723 C.ar           1 S1                 0.0000
     24 ****         4.3241   0.1767   0.6237 C.ar           1 S1                 0.0000
     25 ****         3.9463  -1.0131  -0.0288 C.ar           1 S1                 0.0000
     26 ****        -2.7978   2.0575  -0.9493 H              1 S1                 0.0000
     27 ****        -0.3689   1.9192   1.7384 H              1 S1                 0.0000
     28 ****        -2.7870   1.0282   2.7606 H              1 S1                 0.0000
     29 ****        -1.9932   2.4772   3.4096 H              1 S1                 0.0000
     30 ****        -4.1487   2.3846   1.2652 H              1 S1                 0.0000
     31 ****        -4.1405   3.3902   2.7181 H              1 S1                 0.0000
     32 ****        -3.2247   4.4276   0.3716 H              1 S1                 0.0000
     33 ****        -2.3378   4.7536   1.8632 H              1 S1                 0.0000
     34 ****        -1.0210  -2.9287   1.1466 H              1 S1                 0.0000
     35 ****        -1.3184  -3.4837  -0.4630 H              1 S1                 0.0000
     36 ****         1.2235  -2.0376   0.4772 H              1 S1                 0.0000
     37 ****         0.7831  -4.7082  -0.2573 H              1 S1                 0.0000
     38 ****         0.8611  -3.4282  -2.2215 H              1 S1                 0.0000
     39 ****         0.5838  -1.7243  -2.0487 H              1 S1                 0.0000
     40 ****         3.2420  -3.0876  -1.4659 H              1 S1                 0.0000
     41 ****         2.8552  -2.1580  -2.8895 H              1 S1                 0.0000
     42 ****         1.9148   0.3224  -2.4341 H              1 S1                 0.0000
     43 ****         2.5807   2.4156  -1.2797 H              1 S1                 0.0000
     44 ****         4.1188   2.3274   0.6748 H              1 S1                 0.0000
     45 ****         4.9901   0.1384   1.4731 H              1 S1                 0.0000
     46 ****         4.3218  -1.9602   0.3299 H              1 S1                 0.0000
     47 ****        -1.8949  -3.0823  -1.9971 LP             1 S1                 0.0000
     48 ****        -2.8009  -2.0263  -3.0286 LP             1 S1                 0.0000
     49 ****        -1.6348   3.0773  -0.2629 LP             1 S1                 0.0000
     50 ****        -0.7119   3.8104   0.8674 LP             1 S1                 0.0000
     51 ****        -0.3540   0.1883   2.4203 LP             1 S1                 0.0000
     52 ****        -0.1499  -1.4773   1.9912 LP             1 S1                 0.0000
     53 ****         0.9769  -4.1818   1.2312 LP             1 S1                 0.0000
     54 ****         2.1939  -4.0940   0.1459 LP             1 S1                 0.0000
@<TRIPOS>BOND
    1    1    2 2     
    2    2   14 am    
    3    2    3 1     
    4    3    4 1     
    5    3    5 2     
    6    5    6 1     
    7    5   26 1     
    8    6    7 1     
    9    6   12 am    
   10    7   11 1     
   11    7    8 1     
   12    7   27 1     
   13    8    9 1     
   14    8   28 1     
   15    8   29 1     
   16    9   10 1     
   17    9   30 1     
   18    9   31 1     
   19   10   11 1     
   20   10   32 1     
   21   10   33 1     
   22   12   13 2     
   23   12   14 am    
   24   14   15 1     
   25   15   16 1     
   26   15   34 1     
   27   15   35 1     
   28   16   17 1     
   29   16   18 1     
   30   16   36 1     
   31   17   37 1     
   32   18   19 1     
   33   18   38 1     
   34   18   39 1     
   35   19   20 1     
   36   19   40 1     
   37   19   41 1     
   38   20   25 ar    
   39   20   21 ar    
   40   21   22 ar    
   41   21   42 1     
   42   22   23 ar    
   43   22   43 1     
   44   23   24 ar    
   45   23   44 1     
   46   24   25 ar    
   47   24   45 1     
   48   25   46 1     
   49    1   47 1     
   50    1   48 1     
   51   11   49 1     
   52   11   50 1     
   53   13   51 1     
   54   13   52 1     
   55   17   53 1     
   56   17   54 1     
@<TRIPOS>SUBSTRUCTURE
      1 S1             1
@<TRIPOS>SET
LONE_PAIRS      STATIC     ATOMS    <user>   **** ""
8 47 48 49 50 51 52 53 54
DONOR_HYDROGENS      STATIC     ATOMS    <user>   **** ""
1 37
ATOM$BLUE        STATIC     ATOMS    COLORGROUP SYSTEM
8 47 48 49 50 51 52 53 54
ATOM$RED        STATIC     ATOMS    COLORGROUP SYSTEM
1 37
