AV-unprocessed.smi:3271|AV-procd|sdf|12516|dock9
  -GOLD-   2272018423D 1   1.00000     0.00000
 Structure written by MMmdl.
 41 41  0  0  0  0  0  0  0  0  1 V2000
  152.6927  140.9415  159.2582 C   0  0  0  0  0  0  0  0  0  0  0  0
  152.3417  142.4359  159.1818 C   0  0  0  0  0  0  0  0  0  0  0  0
  151.9036  142.9183  157.7801 C   0  0  0  0  0  0  0  0  0  0  0  0
  151.9699  144.4603  157.6913 C   0  0  0  0  0  0  0  0  0  0  0  0
  151.3421  145.1967  158.8850 C   0  0  0  0  0  0  0  0  0  0  0  0
  150.5038  142.3908  157.4210 C   0  0  0  0  0  0  0  0  0  0  0  0
  149.5283  142.6959  158.1071 O   0  0  0  0  0  0  0  0  0  0  0  0
  150.4244  141.6037  156.3380 N   0  0  0  0  0  0  0  0  0  0  0  0
  149.1988  141.0076  155.8115 C   0  0  0  0  0  0  0  0  0  0  0  0
  149.4293  140.0118  154.6423 C   0  0  1  0  0  0  0  0  0  0  0  0
  148.1018  139.3406  154.2499 C   0  0  0  0  0  0  0  0  0  0  0  0
  149.7875  140.7843  153.5125 O   0  0  0  0  0  0  0  0  0  0  0  0
  150.4662  138.9504  154.9531 C   0  0  0  0  0  0  0  0  0  0  0  0
  151.0235  137.9753  154.0741 C   0  0  0  0  0  0  0  0  0  0  0  0
  151.9200  137.1995  154.6607 N   0  0  0  0  0  0  0  0  0  0  0  0
  151.9580  137.6369  155.9349 N   0  0  0  0  0  0  0  0  0  0  0  0
  152.8518  137.0045  156.8809 C   0  0  0  0  0  0  0  0  0  0  0  0
  151.0875  138.6839  156.1425 C   0  0  0  0  0  0  0  0  0  0  0  0
  153.0597  140.6830  160.2517 H   0  0  0  0  0  0  0  0  0  0  0  0
  153.4715  140.6833  158.5403 H   0  0  0  0  0  0  0  0  0  0  0  0
  151.8263  140.3112  159.0567 H   0  0  0  0  0  0  0  0  0  0  0  0
  151.5660  142.6627  159.9147 H   0  0  0  0  0  0  0  0  0  0  0  0
  153.2185  143.0044  159.4943 H   0  0  0  0  0  0  0  0  0  0  0  0
  152.6166  142.5198  157.0559 H   0  0  0  0  0  0  0  0  0  0  0  0
  153.0043  144.7854  157.5717 H   0  0  0  0  0  0  0  0  0  0  0  0
  151.4521  144.7825  156.7872 H   0  0  0  0  0  0  0  0  0  0  0  0
  151.3250  146.2724  158.7092 H   0  0  0  0  0  0  0  0  0  0  0  0
  151.9093  145.0279  159.7997 H   0  0  0  0  0  0  0  0  0  0  0  0
  150.3159  144.8718  159.0588 H   0  0  0  0  0  0  0  0  0  0  0  0
  151.2769  141.4085  155.8338 H   0  0  0  0  0  0  0  0  0  0  0  0
  148.7744  140.4617  156.6548 H   0  0  0  0  0  0  0  0  0  0  0  0
  148.4601  141.7703  155.5568 H   0  0  0  0  0  0  0  0  0  0  0  0
  147.7166  138.7212  155.0607 H   0  0  0  0  0  0  0  0  0  0  0  0
  148.2241  138.6973  153.3773 H   0  0  0  0  0  0  0  0  0  0  0  0
  147.3357  140.0793  154.0105 H   0  0  0  0  0  0  0  0  0  0  0  0
  149.6484  140.2613  152.7370 H   0  0  0  0  0  0  0  0  0  0  0  0
  150.8114  137.8165  153.0271 H   0  0  0  0  0  0  0  0  0  0  0  0
  152.5740  137.2805  157.8985 H   0  0  0  0  0  0  0  0  0  0  0  0
  153.8753  137.3287  156.6907 H   0  0  0  0  0  0  0  0  0  0  0  0
  152.7944  135.9199  156.7815 H   0  0  0  0  0  0  0  0  0  0  0  0
  150.9881  139.1576  157.1080 H   0  0  0  0  0  0  0  0  0  0  0  0
  1  2  1  0  0  0  0
  1 19  1  0  0  0  0
  1 20  1  0  0  0  0
  1 21  1  0  0  0  0
  2  3  1  0  0  0  0
  2 22  1  0  0  0  0
  2 23  1  0  0  0  0
  3  4  1  0  0  0  0
  3  6  1  0  0  0  0
  3 24  1  0  0  0  0
  4  5  1  0  0  0  0
  4 25  1  0  0  0  0
  4 26  1  0  0  0  0
  5 27  1  0  0  0  0
  5 28  1  0  0  0  0
  5 29  1  0  0  0  0
  6  7  2  0  0  0  0
  6  8  1  0  0  0  0
  8  9  1  0  0  0  0
  8 30  1  0  0  0  0
  9 10  1  0  0  0  0
  9 31  1  0  0  0  0
  9 32  1  0  0  0  0
 10 11  1  0  0  0  0
 10 12  1  0  0  0  0
 10 13  1  0  0  0  0
 11 33  1  0  0  0  0
 11 34  1  0  0  0  0
 11 35  1  0  0  0  0
 12 36  1  0  0  0  0
 13 18  2  0  0  0  0
 13 14  1  0  0  0  0
 14 15  2  0  0  0  0
 14 37  1  0  0  0  0
 15 16  1  0  0  0  0
 16 17  1  0  0  0  0
 16 18  1  0  0  0  0
 17 38  1  0  0  0  0
 17 39  1  0  0  0  0
 17 40  1  0  0  0  0
 18 41  1  0  0  0  0
M  END
> <s_m_source_file>
AV-unprocessed.smi

> <i_m_source_file_index>
3271

> <i_lp_mmshare_version>
43012

> <i_f3d_flags>
0

> <s_epik_input>
W0NIM11bQ0gyXVtDSF0oW0NIMl1bQ0gzXSlDKD1PKVtOSF1bQ0gyXVtDQEBdKFtDSDNdKShbT0hdKWMxW2NIXW5uKFtDSDNdKVtjSF0x

> <s_epik_cmdline>
J2VwaWtfcHl0aG9uJywgJy1waCcsICc3LjAnLCAnLXRuJywgJzgnLCAnLW1hJywgJzIwMCcsICctbWV0YWxfYmluZGluZycsICctaW1hZScsICc8aW5maWxlLm1hZT4nLCAnLW9tYWUnLCAnPG91dGZpbGUubWFlPic=

> <r_lp_tautomer_probability>
1

> <r_epik_Ionization_Penalty>
6.03488e-05

> <r_epik_Ionization_Penalty_Charging>
0

> <r_epik_Ionization_Penalty_Neutral>
6.03488e-05

> <r_epik_State_Penalty>
-0

> <r_epik_Charging_Adjusted_Penalty>
0

> <i_epik_Tot_Q>
0

> <i_epik_Tot_abs_Q>
0

> <r_epik_Metal_State_Penalty>
-0

> <b_epik_Metal_Only>
0

> <s_lp_Force_Field>
OPLS_2005

> <r_lp_Energy>
0.472609

> <b_lp_Chiralities_Consistent>
1

> <s_lp_Variant>
AV-unprocessed.smi:3271-1

> <Gold.Version>
5.8.1

> <Gold.Id.Protein>
6NUR|6NUR_protein|mol2

> <Gold.PLP.Fitness>
44.9978

> <Gold.PLP.PLP>
-34.3871

> <Gold.PLP.part.hbond>
-3.4717

> <Gold.PLP.part.metal>
0.0000

> <Gold.PLP.part.buried>
-5.0778

> <Gold.PLP.part.nonpolar>
-26.1660

> <Gold.PLP.part.repulsive>
0.3675

> <Gold.PLP.ligand.clash>
0.0000

> <Gold.PLP.ligand.torsion>
0.4553

> <Gold.PLP.Chemscore.Hbond>
2.7312

> <Gold.PLP.Chemscore.CHOScore>
1.0546

> <Gold.PLP.Chemscore.Metal>
0.0000

> <Gold.Chemscore.Hbonds>
donor molecule, donor type, donor heavy atom, donor atom, acceptor molecule, acceptor atom, score
      L1  H    12    36       P1  7957  1.00
      P1  H  7989  7998       L1    12  0.35
      P1  H  8011  8017       L1    12  0.40
      P1  H 10752 10763       L1    15  0.96
      L1  C    14    37       P1  7948  0.22
      L1  C    14    37       P1  7949  0.83

> <Gold.PLP.Chemscore.Internal.Correction>
0.1639

> <Gold.Rescore>
     Score         DG    S(hbond)    S(metal)    S(lipo)     H(rot)  DE(clash)    DE(int)     intcor
     17.46     -18.07       2.23        0.00      94.85       2.33       0.15       0.46       ----

> <Gold.Chemscore.Fitness>
17.4599

> <Gold.Chemscore.DG>
-18.0661

> <Gold.Chemscore.ZeroCoef>
-5.4800

> <Gold.Chemscore.Hbond>
2.2346

> <Gold.Chemscore.Metal>
0.0000

> <Gold.Chemscore.Lipo>
94.8520

> <Gold.Chemscore.Internal_Hbond>
0.0000

> <Gold.Chemscore.DEClash>
0.1461

> <Gold.Chemscore.DEInternal>
0.4601

> <Gold.Chemscore.Rot>
2.3341

> <Gold.Chemscore.Internal.Correction>
   9.000000E+99

> <Gold.Chemscore.Hbonds>
donor molecule, donor type, donor heavy atom, donor atom, acceptor molecule, acceptor atom, score
      L1  H    12    36       P1  7957  0.95
      P1  H  7989  7998       L1    12  0.05
      P1  H  8011  8017       L1    12  0.01
      P1  H 10752 10763       L1    15  0.72

> <Gold.Chemscore.Hbond.Weighted>
-7.4637

> <Gold.Chemscore.Metal.Weighted>
-0.0000

> <Gold.Chemscore.Lipo.Weighted>
-11.0977

> <Gold.Chemscore.Internal_Hbond.Weighted>
0.0000

> <Gold.Chemscore.DEClash.Weighted>
0.1461

> <Gold.Chemscore.DEInternal.Weighted>
0.4601

> <Gold.Chemscore.Rot.Weighted>
5.9753

> <Gold.Chemscore.Internal.Correction.Weighted>
   9.000000E+99

> <Gold.Protein.RotatedTorsions>
[ 6907 6896 6895 6894 ] final   13.36 input  -60.11 | X-H torsion
[ 7974 7965 7964 7962 ] final  -24.64 input  175.53 | X-H torsion
[ 8008 7997 7996 7995 ] final  -33.68 input   59.86 | X-H torsion
[ 10167 10162 10161 10158 ] final  -10.57 input  -65.29 | X-H torsion
[ 10718 10713 10712 10709 ] final  178.36 input   66.30 | X-H torsion
[ 10763 10752 10751 10750 ] final   50.87 input  -60.55 | X-H torsion
[ 11005 11000 10999 10996 ] final -109.27 input  -57.11 | X-H torsion

> <Gold.Protein.ActiveResidues>
 VAL166  LYS551  ARG553  GLY616  TRP617  ASP618  TYR619  PRO620  LYS621  CYS622 
 ASP623  PHE694  ASN695  SER759  ASP760  ASP761  ALA762  ILE779  LEU786  VAL792 
 PHE793  MET794  SER795  GLU796  ALA797  LYS798  CYS799  TRP800  GLU811  SER814 

> <Gold.Protein.RotatedAtoms>
  151.7851  135.0751  160.0378 H   0  0  0  0  0  0  0  0  0  0  0  0  # atno 6907 bound_to 6896
  152.3196  133.5835  159.5744 H   0  0  0  0  0  0  0  0  0  0  0  0  # atno 6908 bound_to 6896
  150.7362  133.9947  159.3660 H   0  0  0  0  0  0  0  0  0  0  0  0  # atno 6909 bound_to 6896
  146.1542  140.4779  142.8598 H   0  0  0  0  0  0  0  0  0  0  0  0  # atno 7974 bound_to 7965
  154.4142  140.1704  156.1927 H   0  0  0  0  0  0  0  0  0  0  0  0  # atno 8008 bound_to 7997
  155.9590  140.3395  155.6450 H   0  0  0  0  0  0  0  0  0  0  0  0  # atno 8009 bound_to 7997
  155.6773  140.0718  157.2488 H   0  0  0  0  0  0  0  0  0  0  0  0  # atno 8010 bound_to 7997
  140.7117  143.5733  150.9069 H   0  0  0  0  0  0  0  0  0  0  0  0  # atno 10167 bound_to 10162
  156.8917  130.9849  151.3048 H   0  0  0  0  0  0  0  0  0  0  0  0  # atno 10718 bound_to 10713
  152.9784  135.5865  154.4322 H   0  0  0  0  0  0  0  0  0  0  0  0  # atno 10763 bound_to 10752
  154.3934  135.2768  155.2143 H   0  0  0  0  0  0  0  0  0  0  0  0  # atno 10764 bound_to 10752
  154.4005  135.6104  153.5949 H   0  0  0  0  0  0  0  0  0  0  0  0  # atno 10765 bound_to 10752
  141.0856  133.9144  157.2192 H   0  0  0  0  0  0  0  0  0  0  0  0  # atno 11005 bound_to 11000
  144.7942  140.6090  143.6521 LP  0  0  0  0  0  0  0  0  0  0  0  0  # atno 17320 bound_to 7965
  145.4749  139.1500  143.3793 LP  0  0  0  0  0  0  0  0  0  0  0  0  # atno 17321 bound_to 7965
  139.9459  143.6328  152.3042 LP  0  0  0  0  0  0  0  0  0  0  0  0  # atno 17342 bound_to 10162
  139.6829  144.7654  151.1576 LP  0  0  0  0  0  0  0  0  0  0  0  0  # atno 17343 bound_to 10162
  157.6079  130.8561  149.8905 LP  0  0  0  0  0  0  0  0  0  0  0  0  # atno 17370 bound_to 10713
  156.0625  130.3697  150.0949 LP  0  0  0  0  0  0  0  0  0  0  0  0  # atno 17371 bound_to 10713
  139.9674  135.0138  156.9424 LP  0  0  0  0  0  0  0  0  0  0  0  0  # atno 17394 bound_to 11000
  140.5369  134.0758  155.7331 LP  0  0  0  0  0  0  0  0  0  0  0  0  # atno 17395 bound_to 11000

$$$$
