AV-unprocessed.smi:1622|AV-procd|sdf|6498|dock6
  -GOLD-   22720 7163D 1   1.00000     0.00000
 Structure written by MMmdl.
 41 42  0  0  0  0  0  0  0  0  2 V2000
  144.9367  137.9839  154.9745 C   0  0  0  0  0  0  0  0  0  0  0  0
  145.5912  136.7783  154.2830 C   0  0  0  0  0  0  0  0  0  0  0  0
  145.4944  136.7939  152.7331 C   0  0  1  0  0  0  0  0  0  0  0  0
  146.1191  138.0782  152.1183 C   0  0  0  0  0  0  0  0  0  0  0  0
  147.4335  138.4023  152.6719 N   0  0  0  0  0  0  0  0  0  0  0  0
  147.6768  139.3160  153.6222 C   0  0  0  0  0  0  0  0  0  0  0  0
  146.7977  139.9931  154.1533 O   0  0  0  0  0  0  0  0  0  0  0  0
  148.9867  139.3794  153.9095 N   0  0  0  0  0  0  0  0  0  0  0  0
  149.6330  140.2230  154.8472 C   0  0  0  0  0  0  0  0  0  0  0  0
  150.9666  140.1832  154.9123 N   0  0  0  0  0  0  0  0  0  0  0  0
  151.4653  141.0604  155.8661 N   0  0  0  0  0  0  0  0  0  0  0  0
  150.4951  141.7367  156.4944 C   0  0  0  0  0  0  0  0  0  0  0  0
  150.7721  142.7451  157.5563 C   0  0  0  0  0  0  0  0  0  0  0  0
  148.8630  141.3499  155.9641 S   0  0  0  0  0  0  0  0  0  0  0  0
  146.1002  135.5677  152.1292 N   0  3  0  0  0  0  0  0  0  0  0  0
  146.0712  134.3435  152.9594 C   0  0  0  0  0  0  0  0  0  0  0  0
  146.2781  133.1957  151.9785 C   0  0  0  0  0  0  0  0  0  0  0  0
  145.5097  133.6537  150.7449 C   0  0  0  0  0  0  0  0  0  0  0  0
  145.5559  135.1868  150.8000 C   0  0  0  0  0  0  0  0  0  0  0  0
  144.9402  137.8515  156.0565 H   0  0  0  0  0  0  0  0  0  0  0  0
  143.8992  138.1033  154.6610 H   0  0  0  0  0  0  0  0  0  0  0  0
  145.4621  138.9146  154.7664 H   0  0  0  0  0  0  0  0  0  0  0  0
  146.6312  136.6935  154.5984 H   0  0  0  0  0  0  0  0  0  0  0  0
  145.0884  135.8977  154.6806 H   0  0  0  0  0  0  0  0  0  0  0  0
  144.4331  136.7866  152.4791 H   0  0  0  0  0  0  0  0  0  0  0  0
  146.2568  137.9416  151.0459 H   0  0  0  0  0  0  0  0  0  0  0  0
  145.4431  138.9294  152.1958 H   0  0  0  0  0  0  0  0  0  0  0  0
  148.2230  137.9052  152.2858 H   0  0  0  0  0  0  0  0  0  0  0  0
  149.5953  138.7592  153.3961 H   0  0  0  0  0  0  0  0  0  0  0  0
  151.7528  142.5739  158.0012 H   0  0  0  0  0  0  0  0  0  0  0  0
  150.0180  142.6808  158.3407 H   0  0  0  0  0  0  0  0  0  0  0  0
  150.7502  143.7482  157.1302 H   0  0  0  0  0  0  0  0  0  0  0  0
  146.8397  134.3538  153.7328 H   0  0  0  0  0  0  0  0  0  0  0  0
  145.0969  134.2471  153.4418 H   0  0  0  0  0  0  0  0  0  0  0  0
  147.3382  133.0986  151.7403 H   0  0  0  0  0  0  0  0  0  0  0  0
  145.9303  132.2375  152.3659 H   0  0  0  0  0  0  0  0  0  0  0  0
  145.9314  133.2545  149.8216 H   0  0  0  0  0  0  0  0  0  0  0  0
  144.4745  133.3149  150.8095 H   0  0  0  0  0  0  0  0  0  0  0  0
  144.5520  135.5855  150.6469 H   0  0  0  0  0  0  0  0  0  0  0  0
  146.1976  135.5932  150.0176 H   0  0  0  0  0  0  0  0  0  0  0  0
  147.0787  135.7696  151.9804 H   0  0  0  0  0  0  0  0  0  0  0  0
  1  2  1  0  0  0  0
  1 20  1  0  0  0  0
  1 21  1  0  0  0  0
  1 22  1  0  0  0  0
  2  3  1  0  0  0  0
  2 23  1  0  0  0  0
  2 24  1  0  0  0  0
  3  4  1  0  0  0  0
  3 15  1  0  0  0  0
  3 25  1  0  0  0  0
  4  5  1  0  0  0  0
  4 26  1  0  0  0  0
  4 27  1  0  0  0  0
  5  6  1  0  0  0  0
  5 28  1  0  0  0  0
  6  7  2  0  0  0  0
  6  8  1  0  0  0  0
  8  9  1  0  0  0  0
  8 29  1  0  0  0  0
  9 14  1  0  0  0  0
  9 10  2  0  0  0  0
 10 11  1  0  0  0  0
 11 12  2  0  0  0  0
 12 13  1  0  0  0  0
 12 14  1  0  0  0  0
 13 30  1  0  0  0  0
 13 31  1  0  0  0  0
 13 32  1  0  0  0  0
 15 19  1  0  0  0  0
 15 16  1  0  0  0  0
 15 41  1  0  0  0  0
 16 17  1  0  0  0  0
 16 33  1  0  0  0  0
 16 34  1  0  0  0  0
 17 18  1  0  0  0  0
 17 35  1  0  0  0  0
 17 36  1  0  0  0  0
 18 19  1  0  0  0  0
 18 37  1  0  0  0  0
 18 38  1  0  0  0  0
 19 39  1  0  0  0  0
 19 40  1  0  0  0  0
M  CHG  1  15   1
M  END
> <s_m_source_file>
AV-unprocessed.smi

> <i_m_source_file_index>
1622

> <i_lp_mmshare_version>
43012

> <i_f3d_flags>
0

> <s_epik_input>
W0NIMl0xW0NIMl1bQ0gyXVtDSDJdTjFbQ0BIXShbQ0gyXVtDSDNdKVtDSDJdW05IXUMoPU8pW05IXWMybm5jKHMyKVtDSDNd

> <s_epik_cmdline>
J2VwaWtfcHl0aG9uJywgJy1waCcsICc3LjAnLCAnLXRuJywgJzgnLCAnLW1hJywgJzIwMCcsICctbWV0YWxfYmluZGluZycsICctaW1hZScsICc8aW5maWxlLm1hZT4nLCAnLW9tYWUnLCAnPG91dGZpbGUubWFlPic=

> <r_lp_tautomer_probability>
1

> <r_epik_Ionization_Penalty>
0.00164835

> <r_epik_Ionization_Penalty_Charging>
0.00115997

> <r_epik_Ionization_Penalty_Neutral>
0.00048838

> <r_epik_State_Penalty>
-0

> <r_epik_Charging_Adjusted_Penalty>
0.00115997

> <i_epik_Tot_Q>
1

> <i_epik_Tot_abs_Q>
1

> <r_epik_Metal_State_Penalty>
0.216651

> <b_epik_Metal_Only>
0

> <s_lp_Force_Field>
OPLS_2005

> <r_lp_Energy>
37.4677

> <b_lp_Chiralities_Consistent>
1

> <s_lp_Variant>
AV-unprocessed.smi:1622-2

> <Gold.Version>
5.8.1

> <Gold.Id.Protein>
6NUR|6NUR_protein|mol2

> <Gold.PLP.Fitness>
39.8273

> <Gold.PLP.PLP>
-29.7686

> <Gold.PLP.part.hbond>
-6.0000

> <Gold.PLP.part.metal>
0.0000

> <Gold.PLP.part.buried>
-0.8983

> <Gold.PLP.part.nonpolar>
-23.7179

> <Gold.PLP.part.repulsive>
0.3998

> <Gold.PLP.ligand.clash>
0.0000

> <Gold.PLP.ligand.torsion>
0.8670

> <Gold.PLP.Chemscore.Hbond>
3.8760

> <Gold.PLP.Chemscore.CHOScore>
0.0000

> <Gold.PLP.Chemscore.Metal>
0.0000

> <Gold.Chemscore.Hbonds>
donor molecule, donor type, donor heavy atom, donor atom, acceptor molecule, acceptor atom, score
      L1  H     5    28       P1  7948  0.94
      L1  H    15    41       P1  7948  2.00
      P1  H  7989  7998       L1    10  1.00

> <Gold.PLP.Chemscore.Internal.Correction>
0.1646

> <Gold.Rescore>
     Score         DG    S(hbond)    S(metal)    S(lipo)     H(rot)  DE(clash)    DE(int)     intcor
     12.94     -15.97       2.58        0.00      54.79       1.77       0.17       2.85       ----

> <Gold.Chemscore.Fitness>
12.9427

> <Gold.Chemscore.DG>
-15.9672

> <Gold.Chemscore.ZeroCoef>
-5.4800

> <Gold.Chemscore.Hbond>
2.5802

> <Gold.Chemscore.Metal>
0.0000

> <Gold.Chemscore.Lipo>
54.7907

> <Gold.Chemscore.Internal_Hbond>
0.0000

> <Gold.Chemscore.DEClash>
0.1745

> <Gold.Chemscore.DEInternal>
2.8499

> <Gold.Chemscore.Rot>
1.7738

> <Gold.Chemscore.Internal.Correction>
   9.000000E+99

> <Gold.Chemscore.Hbonds>
donor molecule, donor type, donor heavy atom, donor atom, acceptor molecule, acceptor atom, score
      L1  H     5    28       P1  7948  0.92
      L1  H    15    41       P1  7948  1.00
      P1  H  7989  7998       L1    10  0.19

> <Gold.Chemscore.Hbond.Weighted>
-8.6177

> <Gold.Chemscore.Metal.Weighted>
-0.0000

> <Gold.Chemscore.Lipo.Weighted>
-6.4105

> <Gold.Chemscore.Internal_Hbond.Weighted>
0.0000

> <Gold.Chemscore.DEClash.Weighted>
0.1745

> <Gold.Chemscore.DEInternal.Weighted>
2.8499

> <Gold.Chemscore.Rot.Weighted>
4.5411

> <Gold.Chemscore.Internal.Correction.Weighted>
   9.000000E+99

> <Gold.Protein.RotatedTorsions>
[ 6907 6896 6895 6894 ] final   42.76 input  -60.11 | X-H torsion
[ 7974 7965 7964 7962 ] final  -19.94 input  175.53 | X-H torsion
[ 8008 7997 7996 7995 ] final  123.77 input   59.86 | X-H torsion
[ 10167 10162 10161 10158 ] final  176.87 input  -65.29 | X-H torsion
[ 10718 10713 10712 10709 ] final -136.79 input   66.30 | X-H torsion
[ 10763 10752 10751 10750 ] final -137.14 input  -60.55 | X-H torsion
[ 11005 11000 10999 10996 ] final  -38.36 input  -57.11 | X-H torsion

> <Gold.Protein.ActiveResidues>
 VAL166  LYS551  ARG553  GLY616  TRP617  ASP618  TYR619  PRO620  LYS621  CYS622 
 ASP623  PHE694  ASN695  SER759  ASP760  ASP761  ALA762  ILE779  LEU786  VAL792 
 PHE793  MET794  SER795  GLU796  ALA797  LYS798  CYS799  TRP800  GLU811  SER814 

> <Gold.Protein.RotatedAtoms>
  152.2119  134.8494  160.0496 H   0  0  0  0  0  0  0  0  0  0  0  0  # atno 6907 bound_to 6896
  151.9309  133.3606  159.3938 H   0  0  0  0  0  0  0  0  0  0  0  0  # atno 6908 bound_to 6896
  150.6978  134.4463  159.5359 H   0  0  0  0  0  0  0  0  0  0  0  0  # atno 6909 bound_to 6896
  146.1815  140.4132  142.8493 H   0  0  0  0  0  0  0  0  0  0  0  0  # atno 7974 bound_to 7965
  156.2778  140.2755  156.1680 H   0  0  0  0  0  0  0  0  0  0  0  0  # atno 8008 bound_to 7997
  155.0684  140.0387  157.2618 H   0  0  0  0  0  0  0  0  0  0  0  0  # atno 8009 bound_to 7997
  154.7060  140.2659  155.6679 H   0  0  0  0  0  0  0  0  0  0  0  0  # atno 8010 bound_to 7997
  139.5231  144.2865  152.0501 H   0  0  0  0  0  0  0  0  0  0  0  0  # atno 10167 bound_to 10162
  156.2810  130.7320  151.1317 H   0  0  0  0  0  0  0  0  0  0  0  0  # atno 10718 bound_to 10713
  154.8668  135.3651  154.5175 H   0  0  0  0  0  0  0  0  0  0  0  0  # atno 10763 bound_to 10752
  153.5807  135.7018  153.5469 H   0  0  0  0  0  0  0  0  0  0  0  0  # atno 10764 bound_to 10752
  153.3459  135.4085  155.1571 H   0  0  0  0  0  0  0  0  0  0  0  0  # atno 10765 bound_to 10752
  141.0021  133.6950  156.2043 H   0  0  0  0  0  0  0  0  0  0  0  0  # atno 11005 bound_to 11000
  144.8323  140.6726  143.6283 LP  0  0  0  0  0  0  0  0  0  0  0  0  # atno 17320 bound_to 7965
  145.4063  139.1588  143.4150 LP  0  0  0  0  0  0  0  0  0  0  0  0  # atno 17321 bound_to 7965
  140.2317  144.4361  150.6297 LP  0  0  0  0  0  0  0  0  0  0  0  0  # atno 17342 bound_to 10162
  140.6350  143.2193  151.6413 LP  0  0  0  0  0  0  0  0  0  0  0  0  # atno 17343 bound_to 10162
  157.7314  131.0608  150.5679 LP  0  0  0  0  0  0  0  0  0  0  0  0  # atno 17370 bound_to 10713
  156.5785  130.4298  149.5988 LP  0  0  0  0  0  0  0  0  0  0  0  0  # atno 17371 bound_to 10713
  140.6871  134.4705  157.5589 LP  0  0  0  0  0  0  0  0  0  0  0  0  # atno 17394 bound_to 11000
  139.9044  134.8482  156.1764 LP  0  0  0  0  0  0  0  0  0  0  0  0  # atno 17395 bound_to 11000

$$$$
