AV-unprocessed.smi:2171|AV-procd|sdf|8829|dock6
  -GOLD-   2272012 23D 1   1.00000     0.00000
 Structure written by MMmdl.
 39 41  0  0  0  0  0  0  0  0  2 V2000
  148.1975  140.1465  155.5116 O   0  0  0  0  0  0  0  0  0  0  0  0
  148.8537  140.0989  154.4718 C   0  0  0  0  0  0  0  0  0  0  0  0
  150.3318  140.4959  154.4796 C   0  0  0  0  0  0  0  0  0  0  0  0
  150.7990  140.7739  155.8282 N   0  0  0  0  0  0  0  0  0  0  0  0
  150.3390  141.7255  156.7152 C   0  0  0  0  0  0  0  0  0  0  0  0
  151.0931  141.6232  157.8489 C   0  0  0  0  0  0  0  0  0  0  0  0
  151.9975  140.5632  157.5596 C   0  0  0  0  0  0  0  0  0  0  0  0
  151.8192  140.0569  156.3503 N   0  0  0  0  0  0  0  0  0  0  0  0
  148.3489  139.6857  153.2979 N   0  0  0  0  0  0  0  0  0  0  0  0
  147.0060  139.1472  153.0979 C   0  0  1  0  0  0  0  0  0  0  0  0
  146.7059  138.8140  151.6238 C   0  0  0  0  0  0  0  0  0  0  0  0
  145.9578  137.4777  151.6719 C   0  0  0  0  0  0  0  0  0  0  0  0
  146.5615  136.8055  152.8281 N   0  3  2  0  0  0  0  0  0  0  0  0
  145.9254  135.5760  153.3425 C   0  0  0  0  0  0  0  0  0  0  0  0
  146.8447  134.9667  154.4230 C   0  0  0  0  0  0  0  0  0  0  0  0
  147.2263  135.9931  155.5139 C   0  0  0  0  0  0  0  0  0  0  0  0
  147.7626  137.3062  154.9044 C   0  0  0  0  0  0  0  0  0  0  0  0
  146.7490  137.8301  153.8697 C   0  0  1  0  0  0  0  0  0  0  0  0
  150.9303  139.6903  154.0526 H   0  0  0  0  0  0  0  0  0  0  0  0
  150.4901  141.3802  153.8601 H   0  0  0  0  0  0  0  0  0  0  0  0
  149.5248  142.3907  156.4674 H   0  0  0  0  0  0  0  0  0  0  0  0
  151.0096  142.2137  158.7494 H   0  0  0  0  0  0  0  0  0  0  0  0
  152.7732  140.1497  158.1875 H   0  0  0  0  0  0  0  0  0  0  0  0
  148.9624  139.6915  152.4959 H   0  0  0  0  0  0  0  0  0  0  0  0
  146.2740  139.8869  153.4286 H   0  0  0  0  0  0  0  0  0  0  0  0
  146.1308  139.5949  151.1251 H   0  0  0  0  0  0  0  0  0  0  0  0
  147.6355  138.6845  151.0671 H   0  0  0  0  0  0  0  0  0  0  0  0
  144.8938  137.6386  151.8525 H   0  0  0  0  0  0  0  0  0  0  0  0
  146.0718  136.8971  150.7560 H   0  0  0  0  0  0  0  0  0  0  0  0
  144.9402  135.8044  153.7520 H   0  0  0  0  0  0  0  0  0  0  0  0
  145.7817  134.8662  152.5272 H   0  0  0  0  0  0  0  0  0  0  0  0
  146.3645  134.0996  154.8773 H   0  0  0  0  0  0  0  0  0  0  0  0
  147.7559  134.5982  153.9496 H   0  0  0  0  0  0  0  0  0  0  0  0
  146.3474  136.2123  156.1216 H   0  0  0  0  0  0  0  0  0  0  0  0
  147.9666  135.5644  156.1900 H   0  0  0  0  0  0  0  0  0  0  0  0
  147.9195  138.0400  155.6952 H   0  0  0  0  0  0  0  0  0  0  0  0
  148.7323  137.1319  154.4353 H   0  0  0  0  0  0  0  0  0  0  0  0
  145.7908  137.9581  154.3782 H   0  0  0  0  0  0  0  0  0  0  0  0
  147.4894  136.5416  152.5289 H   0  0  0  0  0  0  0  0  0  0  0  0
  1  2  2  0  0  0  0
  2  3  1  0  0  0  0
  2  9  1  0  0  0  0
  3  4  1  0  0  0  0
  3 19  1  0  0  0  0
  3 20  1  0  0  0  0
  4  8  1  0  0  0  0
  4  5  1  0  0  0  0
  5  6  2  0  0  0  0
  5 21  1  0  0  0  0
  6  7  1  0  0  0  0
  6 22  1  0  0  0  0
  7  8  2  0  0  0  0
  7 23  1  0  0  0  0
  9 10  1  0  0  0  0
  9 24  1  0  0  0  0
 10 18  1  0  0  0  0
 10 11  1  0  0  0  0
 10 25  1  0  0  0  0
 11 12  1  0  0  0  0
 11 26  1  0  0  0  0
 11 27  1  0  0  0  0
 12 13  1  0  0  0  0
 12 28  1  0  0  0  0
 12 29  1  0  0  0  0
 13 18  1  0  0  0  0
 13 14  1  0  0  0  0
 13 39  1  0  0  0  0
 14 15  1  0  0  0  0
 14 30  1  0  0  0  0
 14 31  1  0  0  0  0
 15 16  1  0  0  0  0
 15 32  1  0  0  0  0
 15 33  1  0  0  0  0
 16 17  1  0  0  0  0
 16 34  1  0  0  0  0
 16 35  1  0  0  0  0
 17 18  1  0  0  0  0
 17 36  1  0  0  0  0
 17 37  1  0  0  0  0
 18 38  1  0  0  0  0
M  CHG  1  13   1
M  END
> <s_m_source_file>
AV-unprocessed.smi

> <i_m_source_file_index>
2171

> <i_lp_mmshare_version>
43012

> <i_f3d_flags>
0

> <s_epik_input>
bjFbY0hdW2NIXVtjSF1uMVtDSDJdQyg9TylbTkhdW0NASF0oW0NIMl1bQ0gyXTIpW0NAQEhdKE4yMylbQ0gyXVtDSDJdW0NIMl1bQ0gyXTM=

> <s_epik_cmdline>
J2VwaWtfcHl0aG9uJywgJy1waCcsICc3LjAnLCAnLXRuJywgJzgnLCAnLW1hJywgJzIwMCcsICctbWV0YWxfYmluZGluZycsICctaW1hZScsICc8aW5maWxlLm1hZT4nLCAnLW9tYWUnLCAnPG91dGZpbGUubWFlPic=

> <r_lp_tautomer_probability>
1

> <r_epik_Ionization_Penalty>
0.00204179

> <r_epik_Ionization_Penalty_Charging>
0.00203239

> <r_epik_Ionization_Penalty_Neutral>
9.40205e-06

> <r_epik_State_Penalty>
0.00138983

> <r_epik_Charging_Adjusted_Penalty>
0.00342221

> <i_epik_Tot_Q>
1

> <i_epik_Tot_abs_Q>
1

> <r_epik_Metal_State_Penalty>
-0

> <b_epik_Metal_Only>
0

> <s_lp_Force_Field>
OPLS_2005

> <r_lp_Energy>
40.8782

> <b_lp_Chiralities_Consistent>
1

> <s_lp_Variant>
AV-unprocessed.smi:2171-4

> <Gold.Version>
5.8.1

> <Gold.Id.Protein>
6NUR|6NUR_protein|mol2

> <Gold.PLP.Fitness>
36.3081

> <Gold.PLP.PLP>
-24.4143

> <Gold.PLP.part.hbond>
-1.8950

> <Gold.PLP.part.metal>
0.0000

> <Gold.PLP.part.buried>
2.8839

> <Gold.PLP.part.nonpolar>
-26.5156

> <Gold.PLP.part.repulsive>
0.1679

> <Gold.PLP.ligand.clash>
0.0000

> <Gold.PLP.ligand.torsion>
0.0421

> <Gold.PLP.Chemscore.Hbond>
2.9913

> <Gold.PLP.Chemscore.CHOScore>
1.0000

> <Gold.PLP.Chemscore.Metal>
0.0000

> <Gold.Chemscore.Hbonds>
donor molecule, donor type, donor heavy atom, donor atom, acceptor molecule, acceptor atom, score
      L1  H     9    24       P1  7957  0.98
      L1  H    13    39       P1  7948  2.00
      L1  C     5    21       P1  8028  0.96

> <Gold.PLP.Chemscore.Internal.Correction>
0.0043

> <Gold.Rescore>
     Score         DG    S(hbond)    S(metal)    S(lipo)     H(rot)  DE(clash)    DE(int)     intcor
     14.60     -15.07       1.99        0.00      56.70       1.44       0.24       0.24       ----

> <Gold.Chemscore.Fitness>
14.5971

> <Gold.Chemscore.DG>
-15.0712

> <Gold.Chemscore.ZeroCoef>
-5.4800

> <Gold.Chemscore.Hbond>
1.9900

> <Gold.Chemscore.Metal>
0.0000

> <Gold.Chemscore.Lipo>
56.6975

> <Gold.Chemscore.Internal_Hbond>
0.0000

> <Gold.Chemscore.DEClash>
0.2379

> <Gold.Chemscore.DEInternal>
0.2363

> <Gold.Chemscore.Rot>
1.4410

> <Gold.Chemscore.Internal.Correction>
   9.000000E+99

> <Gold.Chemscore.Hbonds>
donor molecule, donor type, donor heavy atom, donor atom, acceptor molecule, acceptor atom, score
      L1  H     9    24       P1  7957  0.91
      L1  H    13    39       P1  7948  0.99

> <Gold.Chemscore.Hbond.Weighted>
-6.6466

> <Gold.Chemscore.Metal.Weighted>
-0.0000

> <Gold.Chemscore.Lipo.Weighted>
-6.6336

> <Gold.Chemscore.Internal_Hbond.Weighted>
0.0000

> <Gold.Chemscore.DEClash.Weighted>
0.2379

> <Gold.Chemscore.DEInternal.Weighted>
0.2363

> <Gold.Chemscore.Rot.Weighted>
3.6889

> <Gold.Chemscore.Internal.Correction.Weighted>
   9.000000E+99

> <Gold.Protein.RotatedTorsions>
[ 6907 6896 6895 6894 ] final  -50.29 input  -60.11 | X-H torsion
[ 7974 7965 7964 7962 ] final   27.31 input  175.53 | X-H torsion
[ 8008 7997 7996 7995 ] final   31.70 input   59.86 | X-H torsion
[ 10167 10162 10161 10158 ] final  118.88 input  -65.29 | X-H torsion
[ 10718 10713 10712 10709 ] final  142.40 input   66.30 | X-H torsion
[ 10763 10752 10751 10750 ] final   83.15 input  -60.55 | X-H torsion
[ 11005 11000 10999 10996 ] final   88.45 input  -57.11 | X-H torsion

> <Gold.Protein.ActiveResidues>
 VAL166  LYS551  ARG553  GLY616  TRP617  ASP618  TYR619  PRO620  LYS621  CYS622 
 ASP623  PHE694  ASN695  SER759  ASP760  ASP761  ALA762  ILE779  LEU786  VAL792 
 PHE793  MET794  SER795  GLU796  ALA797  LYS798  CYS799  TRP800  GLU811  SER814 

> <Gold.Protein.RotatedAtoms>
  150.8721  134.8097  159.7162 H   0  0  0  0  0  0  0  0  0  0  0  0  # atno 6907 bound_to 6896
  152.4722  134.4930  159.9711 H   0  0  0  0  0  0  0  0  0  0  0  0  # atno 6908 bound_to 6896
  151.5017  133.3464  159.2905 H   0  0  0  0  0  0  0  0  0  0  0  0  # atno 6909 bound_to 6896
  146.1791  139.7209  142.8913 H   0  0  0  0  0  0  0  0  0  0  0  0  # atno 7974 bound_to 7965
  155.1105  140.3238  155.4523 H   0  0  0  0  0  0  0  0  0  0  0  0  # atno 8008 bound_to 7997
  156.2692  140.2045  156.6177 H   0  0  0  0  0  0  0  0  0  0  0  0  # atno 8009 bound_to 7997
  154.6759  140.0531  157.0202 H   0  0  0  0  0  0  0  0  0  0  0  0  # atno 8010 bound_to 7997
  139.6082  144.7075  151.2904 H   0  0  0  0  0  0  0  0  0  0  0  0  # atno 10167 bound_to 10162
  157.3809  131.0992  151.0739 H   0  0  0  0  0  0  0  0  0  0  0  0  # atno 10718 bound_to 10713
  153.1265  135.4702  154.9281 H   0  0  0  0  0  0  0  0  0  0  0  0  # atno 10763 bound_to 10752
  154.7625  135.3135  154.8353 H   0  0  0  0  0  0  0  0  0  0  0  0  # atno 10764 bound_to 10752
  153.8905  135.6885  153.4815 H   0  0  0  0  0  0  0  0  0  0  0  0  # atno 10765 bound_to 10752
  139.8896  134.8488  156.3002 H   0  0  0  0  0  0  0  0  0  0  0  0  # atno 11005 bound_to 11000
  145.4127  141.0398  143.3008 LP  0  0  0  0  0  0  0  0  0  0  0  0  # atno 17320 bound_to 7965
  144.8285  139.5669  143.6954 LP  0  0  0  0  0  0  0  0  0  0  0  0  # atno 17321 bound_to 7965
  140.7300  143.6892  150.7936 LP  0  0  0  0  0  0  0  0  0  0  0  0  # atno 17342 bound_to 10162
  140.0481  143.5277  152.2686 LP  0  0  0  0  0  0  0  0  0  0  0  0  # atno 17343 bound_to 10162
  157.1808  130.6309  149.5671 LP  0  0  0  0  0  0  0  0  0  0  0  0  # atno 17370 bound_to 10713
  155.9775  130.4754  150.6601 LP  0  0  0  0  0  0  0  0  0  0  0  0  # atno 17371 bound_to 10713
  140.9918  133.7204  156.0826 LP  0  0  0  0  0  0  0  0  0  0  0  0  # atno 17394 bound_to 11000
  140.7615  134.3934  157.5525 LP  0  0  0  0  0  0  0  0  0  0  0  0  # atno 17395 bound_to 11000

$$$$
