AV-unprocessed.smi:1401|AV-procd|sdf|5692|dock2
  -GOLD-   22720 5323D 1   1.00000     0.00000
 Structure written by MMmdl.
 48 50  0  0  0  0  0  0  0  0  1 V2000
  145.5971  134.6643  151.0531 C   0  0  0  0  0  0  0  0  0  0  0  0
  146.1366  133.6499  152.0255 C   0  0  0  0  0  0  0  0  0  0  0  0
  147.1266  134.0268  152.7658 N   0  0  0  0  0  0  0  0  0  0  0  0
  147.6964  133.1764  153.6935 N   0  0  0  0  0  0  0  0  0  0  0  0
  148.8236  133.7652  154.4318 C   0  0  0  0  0  0  0  0  0  0  0  0
  148.4560  135.0433  155.2008 C   0  0  0  0  0  0  0  0  0  0  0  0
  148.3328  135.0323  156.4266 O   0  0  0  0  0  0  0  0  0  0  0  0
  148.2969  136.1468  154.4538 N   0  0  0  0  0  0  0  0  0  0  0  0
  147.9471  137.4750  154.9556 C   0  0  2  0  0  0  0  0  0  0  0  0
  147.0314  138.1617  153.9267 C   0  0  0  0  0  0  0  0  0  0  0  0
  149.2397  138.2784  155.2444 C   0  0  2  0  0  0  0  0  0  0  0  0
  148.9831  139.6445  155.9305 C   0  0  0  0  0  0  0  0  0  0  0  0
  149.7181  140.6443  155.0211 C   0  0  1  0  0  0  0  0  0  0  0  0
  151.2382  140.4389  155.1492 C   0  0  0  0  0  0  0  0  0  0  0  0
  151.4623  139.1090  154.4057 C   0  0  0  0  0  0  0  0  0  0  0  0
  150.0346  138.7091  153.9850 C   0  0  2  0  0  0  0  0  0  0  0  0
  149.4314  140.0677  153.6419 C   0  0  0  0  0  0  0  0  0  0  0  0
  147.2825  131.8985  153.9327 C   0  0  0  0  0  0  0  0  0  0  0  0
  147.8118  131.1784  154.7808 O   0  0  0  0  0  0  0  0  0  0  0  0
  146.1628  131.4769  153.0881 C   0  0  0  0  0  0  0  0  0  0  0  0
  145.6987  130.1445  153.3044 C   0  0  0  0  0  0  0  0  0  0  0  0
  145.3421  129.0570  153.4793 N   0  0  0  0  0  0  0  0  0  0  0  0
  145.6040  132.2980  152.1642 C   0  0  0  0  0  0  0  0  0  0  0  0
  144.4391  131.9053  151.2659 C   0  0  0  0  0  0  0  0  0  0  0  0
  144.5182  134.7752  151.1644 H   0  0  0  0  0  0  0  0  0  0  0  0
  145.8028  134.3612  150.0261 H   0  0  0  0  0  0  0  0  0  0  0  0
  146.0440  135.6484  151.2028 H   0  0  0  0  0  0  0  0  0  0  0  0
  149.2229  133.0438  155.1471 H   0  0  0  0  0  0  0  0  0  0  0  0
  149.6457  133.9810  153.7467 H   0  0  0  0  0  0  0  0  0  0  0  0
  148.4233  136.0607  153.4557 H   0  0  0  0  0  0  0  0  0  0  0  0
  147.3923  137.3743  155.8898 H   0  0  0  0  0  0  0  0  0  0  0  0
  146.6663  139.1235  154.2844 H   0  0  0  0  0  0  0  0  0  0  0  0
  146.1548  137.5490  153.7136 H   0  0  0  0  0  0  0  0  0  0  0  0
  147.5520  138.3326  152.9838 H   0  0  0  0  0  0  0  0  0  0  0  0
  149.8783  137.6668  155.8843 H   0  0  0  0  0  0  0  0  0  0  0  0
  147.9197  139.8871  155.9566 H   0  0  0  0  0  0  0  0  0  0  0  0
  149.3507  139.6685  156.9569 H   0  0  0  0  0  0  0  0  0  0  0  0
  149.4024  141.6782  155.1629 H   0  0  0  0  0  0  0  0  0  0  0  0
  151.7842  141.2474  154.6614 H   0  0  0  0  0  0  0  0  0  0  0  0
  151.5619  140.3949  156.1897 H   0  0  0  0  0  0  0  0  0  0  0  0
  152.0930  139.2635  153.5293 H   0  0  0  0  0  0  0  0  0  0  0  0
  151.9419  138.3554  155.0312 H   0  0  0  0  0  0  0  0  0  0  0  0
  150.0248  137.9891  153.1679 H   0  0  0  0  0  0  0  0  0  0  0  0
  148.3679  140.0272  153.4009 H   0  0  0  0  0  0  0  0  0  0  0  0
  149.9591  140.5856  152.8390 H   0  0  0  0  0  0  0  0  0  0  0  0
  144.2385  130.8348  151.3011 H   0  0  0  0  0  0  0  0  0  0  0  0
  144.6441  132.1586  150.2254 H   0  0  0  0  0  0  0  0  0  0  0  0
  143.5318  132.4248  151.5756 H   0  0  0  0  0  0  0  0  0  0  0  0
  1  2  1  0  0  0  0
  1 25  1  0  0  0  0
  1 26  1  0  0  0  0
  1 27  1  0  0  0  0
  2 23  1  0  0  0  0
  2  3  2  0  0  0  0
  3  4  1  0  0  0  0
  4  5  1  0  0  0  0
  4 18  1  0  0  0  0
  5  6  1  0  0  0  0
  5 28  1  0  0  0  0
  5 29  1  0  0  0  0
  6  7  2  0  0  0  0
  6  8  1  0  0  0  0
  8  9  1  0  0  0  0
  8 30  1  0  0  0  0
  9 10  1  0  0  0  0
  9 11  1  0  0  0  0
  9 31  1  0  0  0  0
 10 32  1  0  0  0  0
 10 33  1  0  0  0  0
 10 34  1  0  0  0  0
 11 16  1  0  0  0  0
 11 12  1  0  0  0  0
 11 35  1  0  0  0  0
 12 13  1  0  0  0  0
 12 36  1  0  0  0  0
 12 37  1  0  0  0  0
 13 17  1  0  0  0  0
 13 14  1  0  0  0  0
 13 38  1  0  0  0  0
 14 15  1  0  0  0  0
 14 39  1  0  0  0  0
 14 40  1  0  0  0  0
 15 16  1  0  0  0  0
 15 41  1  0  0  0  0
 15 42  1  0  0  0  0
 16 17  1  0  0  0  0
 16 43  1  0  0  0  0
 17 44  1  0  0  0  0
 17 45  1  0  0  0  0
 18 19  2  0  0  0  0
 18 20  1  0  0  0  0
 20 21  1  0  0  0  0
 20 23  2  0  0  0  0
 21 22  3  0  0  0  0
 23 24  1  0  0  0  0
 24 46  1  0  0  0  0
 24 47  1  0  0  0  0
 24 48  1  0  0  0  0
M  END
> <s_m_source_file>
AV-unprocessed.smi

> <i_m_source_file_index>
1401

> <i_lp_mmshare_version>
43012

> <i_f3d_flags>
0

> <s_epik_input>
TiNDYyhjMVtDSDNdKWMoPU8pbihuYzFbQ0gzXSlbQ0gyXUMoPU8pW05IXVtDQEhdKFtDSDNdKVtDQEhdKFtDSDJdW0NASF0yMylbQ0BIXShbQ0gyXTMpW0NIMl1bQ0gyXTI=

> <s_epik_cmdline>
J2VwaWtfcHl0aG9uJywgJy1waCcsICc3LjAnLCAnLXRuJywgJzgnLCAnLW1hJywgJzIwMCcsICctbWV0YWxfYmluZGluZycsICctaW1hZScsICc8aW5maWxlLm1hZT4nLCAnLW9tYWUnLCAnPG91dGZpbGUubWFlPic=

> <r_lp_tautomer_probability>
1

> <r_epik_Ionization_Penalty>
2.16501e-08

> <r_epik_Ionization_Penalty_Charging>
2.29436e-11

> <r_epik_Ionization_Penalty_Neutral>
2.16271e-08

> <r_epik_State_Penalty>
-0

> <r_epik_Charging_Adjusted_Penalty>
2.29436e-11

> <i_epik_Tot_Q>
0

> <i_epik_Tot_abs_Q>
0

> <r_epik_Metal_State_Penalty>
-0

> <b_epik_Metal_Only>
0

> <s_lp_Force_Field>
OPLS_2005

> <r_lp_Energy>
66.5869

> <b_lp_Chiralities_Consistent>
1

> <s_lp_Variant>
AV-unprocessed.smi:1401-5

> <Gold.Version>
5.8.1

> <Gold.Id.Protein>
6NUR|6NUR_protein|mol2

> <Gold.PLP.Fitness>
42.6008

> <Gold.PLP.PLP>
-40.7746

> <Gold.PLP.part.hbond>
-1.0000

> <Gold.PLP.part.metal>
0.0000

> <Gold.PLP.part.buried>
-6.1162

> <Gold.PLP.part.nonpolar>
-34.9941

> <Gold.PLP.part.repulsive>
1.8438

> <Gold.PLP.ligand.clash>
0.0000

> <Gold.PLP.ligand.torsion>
0.6011

> <Gold.PLP.Chemscore.Hbond>
1.0000

> <Gold.PLP.Chemscore.CHOScore>
0.0000

> <Gold.PLP.Chemscore.Metal>
0.0000

> <Gold.Chemscore.Hbonds>
donor molecule, donor type, donor heavy atom, donor atom, acceptor molecule, acceptor atom, score
      L1  H     8    30       P1  7948  1.00

> <Gold.PLP.Chemscore.Internal.Correction>
0.0284

> <Gold.Rescore>
     Score         DG    S(hbond)    S(metal)    S(lipo)     H(rot)  DE(clash)    DE(int)     intcor
     13.78     -14.67       0.98        0.00      86.29       1.63       0.15       0.74       ----

> <Gold.Chemscore.Fitness>
13.7797

> <Gold.Chemscore.DG>
-14.6677

> <Gold.Chemscore.ZeroCoef>
-5.4800

> <Gold.Chemscore.Hbond>
0.9760

> <Gold.Chemscore.Metal>
0.0000

> <Gold.Chemscore.Lipo>
86.2875

> <Gold.Chemscore.Internal_Hbond>
0.0000

> <Gold.Chemscore.DEClash>
0.1487

> <Gold.Chemscore.DEInternal>
0.7393

> <Gold.Chemscore.Rot>
1.6281

> <Gold.Chemscore.Internal.Correction>
   9.000000E+99

> <Gold.Chemscore.Hbonds>
donor molecule, donor type, donor heavy atom, donor atom, acceptor molecule, acceptor atom, score
      L1  H     8    30       P1  7948  1.00

> <Gold.Chemscore.Hbond.Weighted>
-3.2599

> <Gold.Chemscore.Metal.Weighted>
-0.0000

> <Gold.Chemscore.Lipo.Weighted>
-10.0956

> <Gold.Chemscore.Internal_Hbond.Weighted>
0.0000

> <Gold.Chemscore.DEClash.Weighted>
0.1487

> <Gold.Chemscore.DEInternal.Weighted>
0.7393

> <Gold.Chemscore.Rot.Weighted>
4.1678

> <Gold.Chemscore.Internal.Correction.Weighted>
   9.000000E+99

> <Gold.Protein.RotatedTorsions>
[ 6907 6896 6895 6894 ] final -172.18 input  -60.11 | X-H torsion
[ 7974 7965 7964 7962 ] final -139.65 input  175.53 | X-H torsion
[ 8008 7997 7996 7995 ] final  101.15 input   59.86 | X-H torsion
[ 10167 10162 10161 10158 ] final   14.27 input  -65.29 | X-H torsion
[ 10718 10713 10712 10709 ] final  -40.02 input   66.30 | X-H torsion
[ 10763 10752 10751 10750 ] final   -6.71 input  -60.55 | X-H torsion
[ 11005 11000 10999 10996 ] final  -42.87 input  -57.11 | X-H torsion

> <Gold.Protein.ActiveResidues>
 VAL166  LYS551  ARG553  GLY616  TRP617  ASP618  TYR619  PRO620  LYS621  CYS622 
 ASP623  PHE694  ASN695  SER759  ASP760  ASP761  ALA762  ILE779  LEU786  VAL792 
 PHE793  MET794  SER795  GLU796  ALA797  LYS798  CYS799  TRP800  GLU811  SER814 

> <Gold.Protein.RotatedAtoms>
  151.5359  133.3441  159.2926 H   0  0  0  0  0  0  0  0  0  0  0  0  # atno 6907 bound_to 6896
  150.8565  134.7908  159.7061 H   0  0  0  0  0  0  0  0  0  0  0  0  # atno 6908 bound_to 6896
  152.4597  134.5220  159.9837 H   0  0  0  0  0  0  0  0  0  0  0  0  # atno 6909 bound_to 6896
  144.8660  140.6293  143.5298 H   0  0  0  0  0  0  0  0  0  0  0  0  # atno 7974 bound_to 7965
  156.1271  140.3202  155.8294 H   0  0  0  0  0  0  0  0  0  0  0  0  # atno 8008 bound_to 7997
  155.4399  140.0525  157.3028 H   0  0  0  0  0  0  0  0  0  0  0  0  # atno 8009 bound_to 7997
  154.4871  140.2077  155.9644 H   0  0  0  0  0  0  0  0  0  0  0  0  # atno 8010 bound_to 7997
  140.5947  143.8725  150.6907 H   0  0  0  0  0  0  0  0  0  0  0  0  # atno 10167 bound_to 10162
  156.2859  130.4222  149.8288 H   0  0  0  0  0  0  0  0  0  0  0  0  # atno 10718 bound_to 10713
  153.4162  135.7009  153.6325 H   0  0  0  0  0  0  0  0  0  0  0  0  # atno 10763 bound_to 10752
  153.4799  135.3696  155.2437 H   0  0  0  0  0  0  0  0  0  0  0  0  # atno 10764 bound_to 10752
  154.8720  135.4063  154.3522 H   0  0  0  0  0  0  0  0  0  0  0  0  # atno 10765 bound_to 10752
  141.0345  133.6806  156.2654 H   0  0  0  0  0  0  0  0  0  0  0  0  # atno 11005 bound_to 11000
  145.4221  139.1562  143.4068 LP  0  0  0  0  0  0  0  0  0  0  0  0  # atno 17320 bound_to 7965
  146.2896  140.4332  142.8745 LP  0  0  0  0  0  0  0  0  0  0  0  0  # atno 17321 bound_to 7965
  140.2257  143.3774  152.1607 LP  0  0  0  0  0  0  0  0  0  0  0  0  # atno 17342 bound_to 10162
  139.5250  144.7091  151.5263 LP  0  0  0  0  0  0  0  0  0  0  0  0  # atno 17343 bound_to 10162
  156.5719  130.8428  151.3359 LP  0  0  0  0  0  0  0  0  0  0  0  0  # atno 17370 bound_to 10713
  157.7328  130.9721  150.1948 LP  0  0  0  0  0  0  0  0  0  0  0  0  # atno 17371 bound_to 10713
  140.6347  134.5227  157.5563 LP  0  0  0  0  0  0  0  0  0  0  0  0  # atno 17394 bound_to 11000
  139.9231  134.8110  156.1151 LP  0  0  0  0  0  0  0  0  0  0  0  0  # atno 17395 bound_to 11000

$$$$
