AV-unprocessed.smi:1606|AV-procd|sdf|6462|dock6
  -GOLD-   22720 7113D 1   1.00000     0.00000
 Structure written by MMmdl.
 36 37  0  0  0  0  0  0  0  0  2 V2000
  150.9703  140.5237  155.3639 O   0  0  0  0  0  0  0  0  0  0  0  0
  150.1411  141.4224  155.5063 C   0  0  0  0  0  0  0  0  0  0  0  0
  150.3400  142.4846  156.3018 N   0  0  0  0  0  0  0  0  0  0  0  0
  151.5362  142.7267  157.1040 C   0  0  0  0  0  0  0  0  0  0  0  0
  151.3066  143.6851  158.2926 C   0  0  0  0  0  0  0  0  0  0  0  0
  151.9795  143.2461  159.5821 C   0  0  0  0  0  0  0  0  0  0  0  0
  152.8051  142.1026  159.6455 C   0  0  0  0  0  0  0  0  0  0  0  0
  153.3900  141.7427  160.8778 C   0  0  0  0  0  0  0  0  0  0  0  0
  153.1363  142.5313  162.0195 C   0  0  0  0  0  0  0  0  0  0  0  0
  152.3033  143.6623  161.8999 C   0  0  0  0  0  0  0  0  0  0  0  0
  151.7630  143.9747  160.7019 N   0  3  0  0  0  0  0  0  0  0  0  0
  148.8118  141.3811  154.7418 C   0  0  0  0  0  0  0  0  0  0  0  0
  147.6162  141.6559  155.6721 C   0  0  0  0  0  0  0  0  0  0  0  0
  146.2917  141.5095  154.9052 C   0  0  0  0  0  0  0  0  0  0  0  0
  146.2058  140.2114  154.3263 O   0  0  0  0  0  0  0  0  0  0  0  0
  147.2329  139.9568  153.3741 C   0  0  0  0  0  0  0  0  0  0  0  0
  148.6087  140.0176  154.0573 C   0  0  0  0  0  0  0  0  0  0  0  0
  149.6038  143.1733  156.3632 H   0  0  0  0  0  0  0  0  0  0  0  0
  151.8678  141.7598  157.4834 H   0  0  0  0  0  0  0  0  0  0  0  0
  152.3414  143.0984  156.4682 H   0  0  0  0  0  0  0  0  0  0  0  0
  151.6625  144.6818  158.0293 H   0  0  0  0  0  0  0  0  0  0  0  0
  150.2370  143.7932  158.4779 H   0  0  0  0  0  0  0  0  0  0  0  0
  152.9868  141.5065  158.7630 H   0  0  0  0  0  0  0  0  0  0  0  0
  154.0247  140.8713  160.9467 H   0  0  0  0  0  0  0  0  0  0  0  0
  153.5742  142.2718  162.9724 H   0  0  0  0  0  0  0  0  0  0  0  0
  152.0542  144.3214  162.7189 H   0  0  0  0  0  0  0  0  0  0  0  0
  148.8283  142.1531  153.9698 H   0  0  0  0  0  0  0  0  0  0  0  0
  147.6181  140.9596  156.5125 H   0  0  0  0  0  0  0  0  0  0  0  0
  147.6883  142.6579  156.0972 H   0  0  0  0  0  0  0  0  0  0  0  0
  145.4497  141.6480  155.5835 H   0  0  0  0  0  0  0  0  0  0  0  0
  146.2042  142.2719  154.1295 H   0  0  0  0  0  0  0  0  0  0  0  0
  147.0736  138.9694  152.9403 H   0  0  0  0  0  0  0  0  0  0  0  0
  147.1718  140.6765  152.5562 H   0  0  0  0  0  0  0  0  0  0  0  0
  149.3937  139.8427  153.3204 H   0  0  0  0  0  0  0  0  0  0  0  0
  148.6802  139.2100  154.7879 H   0  0  0  0  0  0  0  0  0  0  0  0
  151.1614  144.7967  160.6379 H   0  0  0  0  0  0  0  0  0  0  0  0
  1  2  2  0  0  0  0
  2  3  1  0  0  0  0
  2 12  1  0  0  0  0
  3  4  1  0  0  0  0
  3 18  1  0  0  0  0
  4  5  1  0  0  0  0
  4 19  1  0  0  0  0
  4 20  1  0  0  0  0
  5  6  1  0  0  0  0
  5 21  1  0  0  0  0
  5 22  1  0  0  0  0
  6 11  1  0  0  0  0
  6  7  2  0  0  0  0
  7  8  1  0  0  0  0
  7 23  1  0  0  0  0
  8  9  2  0  0  0  0
  8 24  1  0  0  0  0
  9 10  1  0  0  0  0
  9 25  1  0  0  0  0
 10 11  2  0  0  0  0
 10 26  1  0  0  0  0
 11 36  1  0  0  0  0
 12 17  1  0  0  0  0
 12 13  1  0  0  0  0
 12 27  1  0  0  0  0
 13 14  1  0  0  0  0
 13 28  1  0  0  0  0
 13 29  1  0  0  0  0
 14 15  1  0  0  0  0
 14 30  1  0  0  0  0
 14 31  1  0  0  0  0
 15 16  1  0  0  0  0
 16 17  1  0  0  0  0
 16 32  1  0  0  0  0
 16 33  1  0  0  0  0
 17 34  1  0  0  0  0
 17 35  1  0  0  0  0
M  CHG  1  11   1
M  END
> <s_m_source_file>
AV-unprocessed.smi

> <i_m_source_file_index>
1606

> <i_lp_mmshare_version>
43012

> <i_f3d_flags>
0

> <s_epik_input>
W0NIMl0xW0NIMl1PW0NIMl1bQ0gyXVtDSF0xQyg9TylbTkhdW0NIMl1bQ0gyXWMyW2NIXVtjSF1bY0hdW2NIXW4y

> <s_epik_cmdline>
J2VwaWtfcHl0aG9uJywgJy1waCcsICc3LjAnLCAnLXRuJywgJzgnLCAnLW1hJywgJzIwMCcsICctbWV0YWxfYmluZGluZycsICctaW1hZScsICc8aW5maWxlLm1hZT4nLCAnLW9tYWUnLCAnPG91dGZpbGUubWFlPic=

> <r_epik_Ionization_Penalty>
1.82741

> <r_epik_Ionization_Penalty_Charging>
1.82741

> <r_epik_Ionization_Penalty_Neutral>
1.59153e-08

> <r_epik_State_Penalty>
1.94311

> <r_epik_Charging_Adjusted_Penalty>
3.77052

> <i_epik_Tot_Q>
1

> <i_epik_Tot_abs_Q>
1

> <r_epik_Metal_State_Penalty>
1.96982

> <b_epik_Metal_Only>
0

> <s_lp_Force_Field>
OPLS_2005

> <r_lp_Energy>
14.6238

> <b_lp_Chiralities_Consistent>
1

> <s_lp_Variant>
AV-unprocessed.smi:1606-2

> <Gold.Version>
5.8.1

> <Gold.Id.Protein>
6NUR|6NUR_protein|mol2

> <Gold.PLP.Fitness>
43.7644

> <Gold.PLP.PLP>
-39.3134

> <Gold.PLP.part.hbond>
-2.0000

> <Gold.PLP.part.metal>
0.0000

> <Gold.PLP.part.buried>
-4.5643

> <Gold.PLP.part.nonpolar>
-33.6299

> <Gold.PLP.part.repulsive>
0.3279

> <Gold.PLP.ligand.clash>
0.0000

> <Gold.PLP.ligand.torsion>
0.6859

> <Gold.PLP.Chemscore.Hbond>
1.9360

> <Gold.PLP.Chemscore.CHOScore>
0.0000

> <Gold.PLP.Chemscore.Metal>
0.0000

> <Gold.Chemscore.Hbonds>
donor molecule, donor type, donor heavy atom, donor atom, acceptor molecule, acceptor atom, score
      L1  H     3    18       P1  8028  0.93
      P1  H  7989  7998       L1     1  0.94

> <Gold.PLP.Chemscore.Internal.Correction>
0.0149

> <Gold.Rescore>
     Score         DG    S(hbond)    S(metal)    S(lipo)     H(rot)  DE(clash)    DE(int)     intcor
     16.92     -18.21       1.21        0.00     108.20       1.56       0.64       0.65       ----

> <Gold.Chemscore.Fitness>
16.9152

> <Gold.Chemscore.DG>
-18.2097

> <Gold.Chemscore.ZeroCoef>
-5.4800

> <Gold.Chemscore.Hbond>
1.2144

> <Gold.Chemscore.Metal>
0.0000

> <Gold.Chemscore.Lipo>
108.1993

> <Gold.Chemscore.Internal_Hbond>
0.0000

> <Gold.Chemscore.DEClash>
0.6448

> <Gold.Chemscore.DEInternal>
0.6497

> <Gold.Chemscore.Rot>
1.5569

> <Gold.Chemscore.Internal.Correction>
   9.000000E+99

> <Gold.Chemscore.Hbonds>
donor molecule, donor type, donor heavy atom, donor atom, acceptor molecule, acceptor atom, score
      L1  H     3    18       P1  8028  0.90
      P1  H  7989  7998       L1     1  0.26

> <Gold.Chemscore.Hbond.Weighted>
-4.0561

> <Gold.Chemscore.Metal.Weighted>
-0.0000

> <Gold.Chemscore.Lipo.Weighted>
-12.6593

> <Gold.Chemscore.Internal_Hbond.Weighted>
0.0000

> <Gold.Chemscore.DEClash.Weighted>
0.6448

> <Gold.Chemscore.DEInternal.Weighted>
0.6497

> <Gold.Chemscore.Rot.Weighted>
3.9857

> <Gold.Chemscore.Internal.Correction.Weighted>
   9.000000E+99

> <Gold.Protein.RotatedTorsions>
[ 6907 6896 6895 6894 ] final -101.39 input  -60.11 | X-H torsion
[ 7974 7965 7964 7962 ] final   69.43 input  175.53 | X-H torsion
[ 8008 7997 7996 7995 ] final -172.87 input   59.86 | X-H torsion
[ 10167 10162 10161 10158 ] final  172.21 input  -65.29 | X-H torsion
[ 10718 10713 10712 10709 ] final   72.59 input   66.30 | X-H torsion
[ 10763 10752 10751 10750 ] final  -91.18 input  -60.55 | X-H torsion
[ 11005 11000 10999 10996 ] final  128.37 input  -57.11 | X-H torsion

> <Gold.Protein.ActiveResidues>
 VAL166  LYS551  ARG553  GLY616  TRP617  ASP618  TYR619  PRO620  LYS621  CYS622 
 ASP623  PHE694  ASN695  SER759  ASP760  ASP761  ALA762  ILE779  LEU786  VAL792 
 PHE793  MET794  SER795  GLU796  ALA797  LYS798  CYS799  TRP800  GLU811  SER814 

> <Gold.Protein.RotatedAtoms>
  150.7153  134.0741  159.3874 H   0  0  0  0  0  0  0  0  0  0  0  0  # atno 6907 bound_to 6896
  151.8723  135.0482  160.0490 H   0  0  0  0  0  0  0  0  0  0  0  0  # atno 6908 bound_to 6896
  152.2633  133.5281  159.5431 H   0  0  0  0  0  0  0  0  0  0  0  0  # atno 6909 bound_to 6896
  145.7905  139.2932  143.1213 H   0  0  0  0  0  0  0  0  0  0  0  0  # atno 7974 bound_to 7965
  155.9502  140.1125  157.0983 H   0  0  0  0  0  0  0  0  0  0  0  0  # atno 8008 bound_to 7997
  154.4108  140.1202  156.5108 H   0  0  0  0  0  0  0  0  0  0  0  0  # atno 8009 bound_to 7997
  155.6852  140.3473  155.4873 H   0  0  0  0  0  0  0  0  0  0  0  0  # atno 8010 bound_to 7997
  139.5069  144.3399  152.0028 H   0  0  0  0  0  0  0  0  0  0  0  0  # atno 10167 bound_to 10162
  157.6508  130.9586  150.0950 H   0  0  0  0  0  0  0  0  0  0  0  0  # atno 10718 bound_to 10713
  154.6734  135.5277  153.8167 H   0  0  0  0  0  0  0  0  0  0  0  0  # atno 10763 bound_to 10752
  153.0516  135.6534  154.0689 H   0  0  0  0  0  0  0  0  0  0  0  0  # atno 10764 bound_to 10752
  154.0586  135.2963  155.3308 H   0  0  0  0  0  0  0  0  0  0  0  0  # atno 10765 bound_to 10752
  139.9557  134.9613  156.8992 H   0  0  0  0  0  0  0  0  0  0  0  0  # atno 11005 bound_to 11000
  145.9981  140.8544  143.0032 LP  0  0  0  0  0  0  0  0  0  0  0  0  # atno 17320 bound_to 7965
  144.6782  140.2313  143.7355 LP  0  0  0  0  0  0  0  0  0  0  0  0  # atno 17321 bound_to 7965
  140.2837  144.3831  150.6110 LP  0  0  0  0  0  0  0  0  0  0  0  0  # atno 17342 bound_to 10162
  140.5999  143.2167  151.7093 LP  0  0  0  0  0  0  0  0  0  0  0  0  # atno 17343 bound_to 10162
  156.1888  130.3653  149.8937 LP  0  0  0  0  0  0  0  0  0  0  0  0  # atno 17370 bound_to 10713
  156.6871  130.8881  151.3583 LP  0  0  0  0  0  0  0  0  0  0  0  0  # atno 17371 bound_to 10713
  140.5614  134.0531  155.7400 LP  0  0  0  0  0  0  0  0  0  0  0  0  # atno 17394 bound_to 11000
  141.1228  133.9433  157.2695 LP  0  0  0  0  0  0  0  0  0  0  0  0  # atno 17395 bound_to 11000

$$$$
