AV-unprocessed.smi:148|AV-procd|sdf|1208|dock4
  -GOLD-   2262018383D 1   1.00000     0.00000
 Structure written by MMmdl.
 63 67  0  0  0  0  0  0  0  0  1 V2000
  147.5224  133.2164  155.2744 O   0  0  0  0  0  0  0  0  0  0  0  0
  148.0505  133.5144  156.5499 C   0  0  0  0  0  0  0  0  0  0  0  0
  149.5891  133.3681  156.5679 C   0  0  2  0  0  0  0  0  0  0  0  0
  150.2629  134.3793  155.6044 C   0  0  0  0  0  0  0  0  0  0  0  0
  150.2939  135.7298  156.1374 N   0  0  0  0  0  0  0  0  0  0  0  0
  149.7046  136.1757  157.3001 C   0  0  0  0  0  0  0  0  0  0  0  0
  149.8684  137.4453  157.5562 N   0  0  0  0  0  0  0  0  0  0  0  0
  150.6233  137.9075  156.4863 C   0  0  0  0  0  0  0  0  0  0  0  0
  151.1438  139.1759  156.1210 C   0  0  0  0  0  0  0  0  0  0  0  0
  150.9460  140.2744  156.8819 N   0  0  0  0  0  0  0  0  0  0  0  0
  152.1879  140.6285  157.5731 C   0  0  0  0  0  0  0  0  0  0  0  0
  151.9444  141.6812  158.6583 C   0  0  0  0  0  0  0  0  0  0  0  0
  151.2734  142.9103  158.0441 C   0  0  0  0  0  0  0  0  0  0  0  0
  149.9801  142.4956  157.3312 C   0  0  0  0  0  0  0  0  0  0  0  0
  150.2075  141.3936  156.2600 C   0  0  2  0  0  0  0  0  0  0  0  0
  148.8403  140.9691  155.6159 C   0  0  1  0  0  0  0  0  0  0  0  0
  147.9230  142.1336  155.1946 C   0  0  0  0  0  0  0  0  0  0  0  0
  146.8940  141.5482  154.2206 C   0  0  0  0  0  0  0  0  0  0  0  0
  147.4632  140.2035  153.7554 C   0  0  0  0  0  0  0  0  0  0  0  0
  148.8856  140.1266  154.3196 C   0  0  1  0  0  0  0  0  0  0  0  0
  149.7800  140.6838  153.3743 O   0  0  0  0  0  0  0  0  0  0  0  0
  151.8640  139.2650  154.9714 N   0  0  0  0  0  0  0  0  0  0  0  0
  152.0444  138.1786  154.2140 C   0  0  0  0  0  0  0  0  0  0  0  0
  151.6061  136.9342  154.4204 N   0  0  0  0  0  0  0  0  0  0  0  0
  150.8971  136.8442  155.5826 C   0  0  0  0  0  0  0  0  0  0  0  0
  150.0378  131.8998  156.3303 C   0  0  2  0  0  0  0  0  0  0  0  0
  151.4433  131.5548  156.8274 C   0  0  0  0  0  0  0  0  0  0  0  0
  152.1132  130.8916  155.6245 C   0  0  0  0  0  0  0  0  0  0  0  0
  151.0261  130.4034  154.8557 O   0  0  0  0  0  0  0  0  0  0  0  0
  150.0342  131.4163  154.8729 C   0  0  0  0  0  0  0  0  0  0  0  0
  148.2398  133.1153  154.6673 H   0  0  0  0  0  0  0  0  0  0  0  0
  147.7510  134.5217  156.8401 H   0  0  0  0  0  0  0  0  0  0  0  0
  147.5838  132.8293  157.2574 H   0  0  0  0  0  0  0  0  0  0  0  0
  149.9168  133.6240  157.5768 H   0  0  0  0  0  0  0  0  0  0  0  0
  151.2910  134.0948  155.3843 H   0  0  0  0  0  0  0  0  0  0  0  0
  149.7411  134.4059  154.6481 H   0  0  0  0  0  0  0  0  0  0  0  0
  149.1477  135.5250  157.9587 H   0  0  0  0  0  0  0  0  0  0  0  0
  152.6297  139.7391  158.0258 H   0  0  0  0  0  0  0  0  0  0  0  0
  152.9115  141.0105  156.8512 H   0  0  0  0  0  0  0  0  0  0  0  0
  151.3123  141.2646  159.4436 H   0  0  0  0  0  0  0  0  0  0  0  0
  152.8874  141.9616  159.1282 H   0  0  0  0  0  0  0  0  0  0  0  0
  151.0581  143.6482  158.8172 H   0  0  0  0  0  0  0  0  0  0  0  0
  151.9506  143.3869  157.3342 H   0  0  0  0  0  0  0  0  0  0  0  0
  149.2610  142.1418  158.0715 H   0  0  0  0  0  0  0  0  0  0  0  0
  149.5485  143.3902  156.8831 H   0  0  0  0  0  0  0  0  0  0  0  0
  150.8462  141.8228  155.4870 H   0  0  0  0  0  0  0  0  0  0  0  0
  148.2873  140.3952  156.3621 H   0  0  0  0  0  0  0  0  0  0  0  0
  147.4380  142.6121  156.0461 H   0  0  0  0  0  0  0  0  0  0  0  0
  148.5067  142.8971  154.6781 H   0  0  0  0  0  0  0  0  0  0  0  0
  145.9333  141.3985  154.7147 H   0  0  0  0  0  0  0  0  0  0  0  0
  146.7277  142.2243  153.3814 H   0  0  0  0  0  0  0  0  0  0  0  0
  146.8642  139.3986  154.1830 H   0  0  0  0  0  0  0  0  0  0  0  0
  147.4291  140.0849  152.6716 H   0  0  0  0  0  0  0  0  0  0  0  0
  149.1579  139.0871  154.4897 H   0  0  0  0  0  0  0  0  0  0  0  0
  149.8734  140.0762  152.6566 H   0  0  0  0  0  0  0  0  0  0  0  0
  152.6191  138.3292  153.3122 H   0  0  0  0  0  0  0  0  0  0  0  0
  149.3622  131.2442  156.8815 H   0  0  0  0  0  0  0  0  0  0  0  0
  152.0133  132.4122  157.1847 H   0  0  0  0  0  0  0  0  0  0  0  0
  151.3770  130.8487  157.6561 H   0  0  0  0  0  0  0  0  0  0  0  0
  152.6690  131.6259  155.0389 H   0  0  0  0  0  0  0  0  0  0  0  0
  152.7977  130.0923  155.9100 H   0  0  0  0  0  0  0  0  0  0  0  0
  149.0635  131.0281  154.5634 H   0  0  0  0  0  0  0  0  0  0  0  0
  150.3255  132.1966  154.1706 H   0  0  0  0  0  0  0  0  0  0  0  0
  1  2  1  0  0  0  0
  1 31  1  0  0  0  0
  2  3  1  0  0  0  0
  2 32  1  0  0  0  0
  2 33  1  0  0  0  0
  3  4  1  0  0  0  0
  3 26  1  0  0  0  0
  3 34  1  0  0  0  0
  4  5  1  0  0  0  0
  4 35  1  0  0  0  0
  4 36  1  0  0  0  0
  5 25  1  0  0  0  0
  5  6  1  0  0  0  0
  6  7  2  0  0  0  0
  6 37  1  0  0  0  0
  7  8  1  0  0  0  0
  8 25  2  0  0  0  0
  8  9  1  0  0  0  0
  9 10  1  0  0  0  0
  9 22  2  0  0  0  0
 10 15  1  0  0  0  0
 10 11  1  0  0  0  0
 11 12  1  0  0  0  0
 11 38  1  0  0  0  0
 11 39  1  0  0  0  0
 12 13  1  0  0  0  0
 12 40  1  0  0  0  0
 12 41  1  0  0  0  0
 13 14  1  0  0  0  0
 13 42  1  0  0  0  0
 13 43  1  0  0  0  0
 14 15  1  0  0  0  0
 14 44  1  0  0  0  0
 14 45  1  0  0  0  0
 15 16  1  0  0  0  0
 15 46  1  0  0  0  0
 16 20  1  0  0  0  0
 16 17  1  0  0  0  0
 16 47  1  0  0  0  0
 17 18  1  0  0  0  0
 17 48  1  0  0  0  0
 17 49  1  0  0  0  0
 18 19  1  0  0  0  0
 18 50  1  0  0  0  0
 18 51  1  0  0  0  0
 19 20  1  0  0  0  0
 19 52  1  0  0  0  0
 19 53  1  0  0  0  0
 20 21  1  0  0  0  0
 20 54  1  0  0  0  0
 21 55  1  0  0  0  0
 22 23  1  0  0  0  0
 23 24  2  0  0  0  0
 23 56  1  0  0  0  0
 24 25  1  0  0  0  0
 26 30  1  0  0  0  0
 26 27  1  0  0  0  0
 26 57  1  0  0  0  0
 27 28  1  0  0  0  0
 27 58  1  0  0  0  0
 27 59  1  0  0  0  0
 28 29  1  0  0  0  0
 28 60  1  0  0  0  0
 28 61  1  0  0  0  0
 29 30  1  0  0  0  0
 30 62  1  0  0  0  0
 30 63  1  0  0  0  0
M  END
> <s_m_source_file>
AV-unprocessed.smi

> <i_m_source_file_index>
148

> <i_lp_mmshare_version>
43012

> <i_f3d_flags>
0

> <s_epik_input>
W0NIMl0xT1tDSDJdW0NIMl1bQ0BIXTFbQ0BIXShbQ0gyXVtPSF0pW0NIMl1uKFtjSF1uMiljKGMyMyluW2NIXW5jM040W0NIMl1bQ0gyXVtDSDJdW0NIMl1bQ0BIXTRbQ0BASF01W0NIMl1bQ0gyXVtDSDJdW0NASF01W09IXQ==

> <s_epik_cmdline>
J2VwaWtfcHl0aG9uJywgJy1waCcsICc3LjAnLCAnLXRuJywgJzgnLCAnLW1hJywgJzIwMCcsICctbWV0YWxfYmluZGluZycsICctaW1hZScsICc8aW5maWxlLm1hZT4nLCAnLW9tYWUnLCAnPG91dGZpbGUubWFlPic=

> <r_lp_tautomer_probability>
1

> <r_epik_Ionization_Penalty>
0.00556303

> <r_epik_Ionization_Penalty_Charging>
0

> <r_epik_Ionization_Penalty_Neutral>
0.00556303

> <r_epik_State_Penalty>
0.00401767

> <r_epik_Charging_Adjusted_Penalty>
0.00401767

> <i_epik_Tot_Q>
0

> <i_epik_Tot_abs_Q>
0

> <r_epik_Metal_State_Penalty>
-0

> <b_epik_Metal_Only>
0

> <s_lp_Force_Field>
OPLS_2005

> <r_lp_Energy>
70.8238

> <b_lp_Chiralities_Consistent>
1

> <s_lp_Variant>
AV-unprocessed.smi:148-7

> <Gold.Version>
5.8.1

> <Gold.Id.Protein>
6NUR|6NUR_protein|mol2

> <Gold.PLP.Fitness>
47.1140

> <Gold.PLP.PLP>
-38.0602

> <Gold.PLP.part.hbond>
-3.6674

> <Gold.PLP.part.metal>
0.0000

> <Gold.PLP.part.buried>
-0.7458

> <Gold.PLP.part.nonpolar>
-32.8389

> <Gold.PLP.part.repulsive>
0.4165

> <Gold.PLP.ligand.clash>
0.0000

> <Gold.PLP.ligand.torsion>
0.8280

> <Gold.PLP.Chemscore.Hbond>
3.3354

> <Gold.PLP.Chemscore.CHOScore>
0.0000

> <Gold.PLP.Chemscore.Metal>
0.0000

> <Gold.Chemscore.Hbonds>
donor molecule, donor type, donor heavy atom, donor atom, acceptor molecule, acceptor atom, score
      L1  H    21    55       P1  7957  0.74
      P1  H  7989  7998       L1    22  0.63
      P1  H  8011  8017       L1    21  0.95
      P1  H 10752 10763       L1    24  1.00

> <Gold.PLP.Chemscore.Internal.Correction>
0.7037

> <Gold.Rescore>
     Score         DG    S(hbond)    S(metal)    S(lipo)     H(rot)  DE(clash)    DE(int)     intcor
     13.16     -16.10       2.14        0.00     102.33       3.32       1.94       1.00       ----

> <Gold.Chemscore.Fitness>
13.1643

> <Gold.Chemscore.DG>
-16.1013

> <Gold.Chemscore.ZeroCoef>
-5.4800

> <Gold.Chemscore.Hbond>
2.1404

> <Gold.Chemscore.Metal>
0.0000

> <Gold.Chemscore.Lipo>
102.3278

> <Gold.Chemscore.Internal_Hbond>
0.0000

> <Gold.Chemscore.DEClash>
1.9386

> <Gold.Chemscore.DEInternal>
0.9984

> <Gold.Chemscore.Rot>
3.3203

> <Gold.Chemscore.Internal.Correction>
   9.000000E+99

> <Gold.Chemscore.Hbonds>
donor molecule, donor type, donor heavy atom, donor atom, acceptor molecule, acceptor atom, score
      L1  H    21    55       P1  7957  0.69
      P1  H  7989  7998       L1    22  0.24
      P1  H  8011  8017       L1    21  0.20
      P1  H 10752 10763       L1    24  0.63

> <Gold.Chemscore.Hbond.Weighted>
-7.1490

> <Gold.Chemscore.Metal.Weighted>
-0.0000

> <Gold.Chemscore.Lipo.Weighted>
-11.9723

> <Gold.Chemscore.Internal_Hbond.Weighted>
0.0000

> <Gold.Chemscore.DEClash.Weighted>
1.9386

> <Gold.Chemscore.DEInternal.Weighted>
0.9984

> <Gold.Chemscore.Rot.Weighted>
8.5000

> <Gold.Chemscore.Internal.Correction.Weighted>
   9.000000E+99

> <Gold.Protein.RotatedTorsions>
[ 6907 6896 6895 6894 ] final   20.18 input  -60.11 | X-H torsion
[ 7974 7965 7964 7962 ] final   22.92 input  175.53 | X-H torsion
[ 8008 7997 7996 7995 ] final   98.19 input   59.86 | X-H torsion
[ 10167 10162 10161 10158 ] final -147.07 input  -65.29 | X-H torsion
[ 10718 10713 10712 10709 ] final  -81.26 input   66.30 | X-H torsion
[ 10763 10752 10751 10750 ] final   50.45 input  -60.55 | X-H torsion
[ 11005 11000 10999 10996 ] final  166.91 input  -57.11 | X-H torsion

> <Gold.Protein.ActiveResidues>
 VAL166  LYS551  ARG553  GLY616  TRP617  ASP618  TYR619  PRO620  LYS621  CYS622 
 ASP623  PHE694  ASN695  SER759  ASP760  ASP761  ALA762  ILE779  LEU786  VAL792 
 PHE793  MET794  SER795  GLU796  ALA797  LYS798  CYS799  TRP800  GLU811  SER814 

> <Gold.Protein.RotatedAtoms>
  151.8923  135.0411  160.0498 H   0  0  0  0  0  0  0  0  0  0  0  0  # atno 6907 bound_to 6896
  152.2425  133.5143  159.5287 H   0  0  0  0  0  0  0  0  0  0  0  0  # atno 6908 bound_to 6896
  150.7058  134.0985  159.4000 H   0  0  0  0  0  0  0  0  0  0  0  0  # atno 6909 bound_to 6896
  146.2007  139.7817  142.8763 H   0  0  0  0  0  0  0  0  0  0  0  0  # atno 7974 bound_to 7965
  156.0979  140.3247  155.7902 H   0  0  0  0  0  0  0  0  0  0  0  0  # atno 8008 bound_to 7997
  155.4887  140.0560  157.2974 H   0  0  0  0  0  0  0  0  0  0  0  0  # atno 8009 bound_to 7997
  154.4678  140.1997  156.0088 H   0  0  0  0  0  0  0  0  0  0  0  0  # atno 8010 bound_to 7997
  139.7655  143.8313  152.2615 H   0  0  0  0  0  0  0  0  0  0  0  0  # atno 10167 bound_to 10162
  156.0054  130.4598  150.3925 H   0  0  0  0  0  0  0  0  0  0  0  0  # atno 10718 bound_to 10713
  152.9785  135.5878  154.4254 H   0  0  0  0  0  0  0  0  0  0  0  0  # atno 10763 bound_to 10752
  154.3873  135.2767  155.2177 H   0  0  0  0  0  0  0  0  0  0  0  0  # atno 10764 bound_to 10752
  154.4065  135.6091  153.5982 H   0  0  0  0  0  0  0  0  0  0  0  0  # atno 10765 bound_to 10752
  140.2713  134.7824  157.3678 H   0  0  0  0  0  0  0  0  0  0  0  0  # atno 11005 bound_to 11000
  145.3492  141.0304  143.3348 LP  0  0  0  0  0  0  0  0  0  0  0  0  # atno 17320 bound_to 7965
  144.8678  139.5082  143.6782 LP  0  0  0  0  0  0  0  0  0  0  0  0  # atno 17321 bound_to 7965
  139.8332  144.7244  150.9423 LP  0  0  0  0  0  0  0  0  0  0  0  0  # atno 17342 bound_to 10162
  140.7810  143.4050  151.1085 LP  0  0  0  0  0  0  0  0  0  0  0  0  # atno 17343 bound_to 10162
  157.1999  131.0435  151.2656 LP  0  0  0  0  0  0  0  0  0  0  0  0  # atno 17370 bound_to 10713
  157.3985  130.7320  149.6749 LP  0  0  0  0  0  0  0  0  0  0  0  0  # atno 17371 bound_to 10713
  140.1370  134.5021  155.8061 LP  0  0  0  0  0  0  0  0  0  0  0  0  # atno 17394 bound_to 11000
  141.2177  133.6811  156.7142 LP  0  0  0  0  0  0  0  0  0  0  0  0  # atno 17395 bound_to 11000

$$$$
