AV-unprocessed.smi:55|AV-procd|sdf|571|dock6
  -GOLD-   2262016473D 1   1.00000     0.00000
 Structure written by MMmdl.
 30 31  0  0  0  0  0  0  0  0  2 V2000
  150.4462  142.8979  158.6523 C   0  0  0  0  0  0  0  0  0  0  0  0
  150.7913  141.8870  157.5729 C   0  0  0  0  0  0  0  0  0  0  0  0
  150.0105  141.6973  156.4858 C   0  0  0  0  0  0  0  0  0  0  0  0
  150.3317  140.7764  155.5045 N   0  0  0  0  0  0  0  0  0  0  0  0
  149.4508  140.6060  154.2903 C   0  0  2  0  0  0  0  0  0  0  0  0
  148.3973  141.7042  154.2197 C   0  0  0  0  0  0  0  0  0  0  0  0
  147.2495  141.0006  153.5052 C   0  0  2  0  0  0  0  0  0  0  0  0
  146.0231  141.3046  154.1437 O   0  0  0  0  0  0  0  0  0  0  0  0
  147.6270  139.4984  153.5191 C   0  0  2  0  0  0  0  0  0  0  0  0
  146.5287  138.5238  153.9848 C   0  0  0  0  0  0  0  0  0  0  0  0
  145.5148  138.4302  153.0065 O   0  0  0  0  0  0  0  0  0  0  0  0
  148.7413  139.4176  154.3999 O   0  0  0  0  0  0  0  0  0  0  0  0
  151.5299  140.0243  155.6107 C   0  0  0  0  0  0  0  0  0  0  0  0
  151.8092  139.2461  154.6981 O   0  0  0  0  0  0  0  0  0  0  0  0
  152.3192  140.2014  156.7087 N   0  5  0  0  0  0  0  0  0  0  0  0
  152.0163  141.0877  157.7008 C   0  0  0  0  0  0  0  0  0  0  0  0
  152.7369  141.2357  158.6875 O   0  0  0  0  0  0  0  0  0  0  0  0
  150.0989  140.5538  153.4134 H   0  0  0  0  0  0  0  0  0  0  0  0
  147.1852  141.3459  152.4726 H   0  0  0  0  0  0  0  0  0  0  0  0
  147.9657  139.2279  152.5172 H   0  0  0  0  0  0  0  0  0  0  0  0
  149.5153  143.4183  158.4253 H   0  0  0  0  0  0  0  0  0  0  0  0
  151.2371  143.6432  158.7421 H   0  0  0  0  0  0  0  0  0  0  0  0
  150.3291  142.4013  159.6159 H   0  0  0  0  0  0  0  0  0  0  0  0
  149.1139  142.2902  156.3807 H   0  0  0  0  0  0  0  0  0  0  0  0
  148.1149  141.9946  155.2335 H   0  0  0  0  0  0  0  0  0  0  0  0
  148.7789  142.5789  153.6922 H   0  0  0  0  0  0  0  0  0  0  0  0
  145.3157  141.0276  153.5820 H   0  0  0  0  0  0  0  0  0  0  0  0
  146.9405  137.5375  154.2015 H   0  0  0  0  0  0  0  0  0  0  0  0
  146.0532  138.8890  154.8953 H   0  0  0  0  0  0  0  0  0  0  0  0
  144.9914  139.2161  153.0406 H   0  0  0  0  0  0  0  0  0  0  0  0
  1  2  1  0  0  0  0
  1 21  1  0  0  0  0
  1 22  1  0  0  0  0
  1 23  1  0  0  0  0
  2 16  1  0  0  0  0
  2  3  2  0  0  0  0
  3  4  1  0  0  0  0
  3 24  1  0  0  0  0
  4  5  1  0  0  0  0
  4 13  1  0  0  0  0
  5 18  1  0  0  0  0
  5 12  1  0  0  0  0
  5  6  1  0  0  0  0
  6  7  1  0  0  0  0
  6 25  1  0  0  0  0
  6 26  1  0  0  0  0
  7 19  1  0  0  0  0
  7  8  1  0  0  0  0
  7  9  1  0  0  0  0
  8 27  1  0  0  0  0
  9 20  1  0  0  0  0
  9 10  1  0  0  0  0
  9 12  1  0  0  0  0
 10 11  1  0  0  0  0
 10 28  1  0  0  0  0
 10 29  1  0  0  0  0
 11 30  1  0  0  0  0
 13 14  2  0  0  0  0
 13 15  1  0  0  0  0
 15 16  1  0  0  0  0
 16 17  2  0  0  0  0
M  CHG  1  15  -1
M  END
> <s_m_source_file>
AV-unprocessed.smi

> <i_m_source_file_index>
55

> <i_lp_mmshare_version>
43012

> <i_f3d_flags>
0

> <s_epik_input>
Tz1jMVtuSF1jKD1PKW4oW2NIXWMxW0NIM10pW0NAQEhdMltDSDJdW0NAQEhdKFtPSF0pW0NAQEhdKE8yKVtDSDJdW09IXQ==

> <s_epik_cmdline>
J2VwaWtfcHl0aG9uJywgJy1waCcsICc3LjAnLCAnLXRuJywgJzgnLCAnLW1hJywgJzIwMCcsICctbWV0YWxfYmluZGluZycsICctaW1hZScsICc8aW5maWxlLm1hZT4nLCAnLW9tYWUnLCAnPG91dGZpbGUubWFlPic=

> <r_lp_tautomer_probability>
0.999537

> <r_epik_Ionization_Penalty>
3.66603

> <r_epik_Ionization_Penalty_Charging>
1.09773e-07

> <r_epik_Ionization_Penalty_Neutral>
3.66603

> <r_epik_State_Penalty>
3.66562

> <r_epik_Charging_Adjusted_Penalty>
3.66562

> <i_epik_Tot_Q>
-1

> <i_epik_Tot_abs_Q>
1

> <r_epik_Metal_State_Penalty>
0.234536

> <b_epik_Metal_Only>
1

> <s_epik_Chemistry_Notes>
This compound contains an acetal/aminal-like group ( X-CH(R)-Y where X, Y are N, S, or O) that may be acid/base labile, releasing an aldehyde.

> <s_lp_Force_Field>
OPLS_2005

> <r_lp_Energy>
40.7454

> <b_lp_Chiralities_Consistent>
1

> <s_lp_Variant>
AV-unprocessed.smi:55-11

> <Gold.Version>
5.8.1

> <Gold.Id.Protein>
6NUR|6NUR_protein|mol2

> <Gold.PLP.Fitness>
43.3056

> <Gold.PLP.PLP>
-28.2625

> <Gold.PLP.part.hbond>
-4.0000

> <Gold.PLP.part.metal>
0.0000

> <Gold.PLP.part.buried>
1.3207

> <Gold.PLP.part.nonpolar>
-22.8768

> <Gold.PLP.part.repulsive>
0.1973

> <Gold.PLP.ligand.clash>
0.0000

> <Gold.PLP.ligand.torsion>
0.3640

> <Gold.PLP.Chemscore.Hbond>
4.2738

> <Gold.PLP.Chemscore.CHOScore>
0.9752

> <Gold.PLP.Chemscore.Metal>
0.0000

> <Gold.Chemscore.Hbonds>
donor molecule, donor type, donor heavy atom, donor atom, acceptor molecule, acceptor atom, score
      L1  H     8    27       P1 10175  0.99
      L1  H    11    30       P1 10175  1.00
      P1  H  7989  7998       L1    14  0.30
      P1  H  7997  8009       L1    15  1.98
      L1  C     3    24       P1  8028  0.95

> <Gold.PLP.Chemscore.Internal.Correction>
0.0242

> <Gold.Rescore>
     Score         DG    S(hbond)    S(metal)    S(lipo)     H(rot)  DE(clash)    DE(int)     intcor
     11.53     -11.98       2.47        0.00      43.98       2.69       0.05       0.41       ----

> <Gold.Chemscore.Fitness>
11.5297

> <Gold.Chemscore.DG>
-11.9839

> <Gold.Chemscore.ZeroCoef>
-5.4800

> <Gold.Chemscore.Hbond>
2.4664

> <Gold.Chemscore.Metal>
0.0000

> <Gold.Chemscore.Lipo>
43.9752

> <Gold.Chemscore.Internal_Hbond>
0.0000

> <Gold.Chemscore.DEClash>
0.0451

> <Gold.Chemscore.DEInternal>
0.4091

> <Gold.Chemscore.Rot>
2.6871

> <Gold.Chemscore.Internal.Correction>
   9.000000E+99

> <Gold.Chemscore.Hbonds>
donor molecule, donor type, donor heavy atom, donor atom, acceptor molecule, acceptor atom, score
      L1  H     8    27       P1 10175  0.60
      L1  H    11    30       P1 10175  0.98
      P1  H  7997  8009       L1    15  0.58

> <Gold.Chemscore.Hbond.Weighted>
-8.2378

> <Gold.Chemscore.Metal.Weighted>
-0.0000

> <Gold.Chemscore.Lipo.Weighted>
-5.1451

> <Gold.Chemscore.Internal_Hbond.Weighted>
0.0000

> <Gold.Chemscore.DEClash.Weighted>
0.0451

> <Gold.Chemscore.DEInternal.Weighted>
0.4091

> <Gold.Chemscore.Rot.Weighted>
6.8791

> <Gold.Chemscore.Internal.Correction.Weighted>
   9.000000E+99

> <Gold.Protein.RotatedTorsions>
[ 6907 6896 6895 6894 ] final -136.47 input  -60.11 | X-H torsion
[ 7974 7965 7964 7962 ] final  102.15 input  175.53 | X-H torsion
[ 8008 7997 7996 7995 ] final -174.65 input   59.86 | X-H torsion
[ 10167 10162 10161 10158 ] final -140.96 input  -65.29 | X-H torsion
[ 10718 10713 10712 10709 ] final   36.34 input   66.30 | X-H torsion
[ 10763 10752 10751 10750 ] final   39.45 input  -60.55 | X-H torsion
[ 11005 11000 10999 10996 ] final -159.17 input  -57.11 | X-H torsion

> <Gold.Protein.ActiveResidues>
 VAL166  LYS551  ARG553  GLY616  TRP617  ASP618  TYR619  PRO620  LYS621  CYS622 
 ASP623  PHE694  ASN695  SER759  ASP760  ASP761  ALA762  ILE779  LEU786  VAL792 
 PHE793  MET794  SER795  GLU796  ALA797  LYS798  CYS799  TRP800  GLU811  SER814 

> <Gold.Protein.RotatedAtoms>
  151.0105  133.5969  159.2683 H   0  0  0  0  0  0  0  0  0  0  0  0  # atno 6907 bound_to 6896
  151.3123  135.0796  159.9286 H   0  0  0  0  0  0  0  0  0  0  0  0  # atno 6908 bound_to 6896
  152.5298  133.9768  159.7842 H   0  0  0  0  0  0  0  0  0  0  0  0  # atno 6909 bound_to 6896
  145.3629  139.2414  143.3497 H   0  0  0  0  0  0  0  0  0  0  0  0  # atno 7974 bound_to 7965
  155.9728  140.1166  157.0797 H   0  0  0  0  0  0  0  0  0  0  0  0  # atno 8008 bound_to 7997
  154.4161  140.1160  156.5396 H   0  0  0  0  0  0  0  0  0  0  0  0  # atno 8009 bound_to 7997
  155.6575  140.3473  155.4772 H   0  0  0  0  0  0  0  0  0  0  0  0  # atno 8010 bound_to 7997
  139.8231  143.7547  152.2666 H   0  0  0  0  0  0  0  0  0  0  0  0  # atno 10167 bound_to 10162
  157.3337  130.7511  149.6864 H   0  0  0  0  0  0  0  0  0  0  0  0  # atno 10718 bound_to 10713
  152.9967  135.6220  154.2467 H   0  0  0  0  0  0  0  0  0  0  0  0  # atno 10763 bound_to 10752
  154.2206  135.2796  155.2928 H   0  0  0  0  0  0  0  0  0  0  0  0  # atno 10764 bound_to 10752
  154.5531  135.5727  153.6998 H   0  0  0  0  0  0  0  0  0  0  0  0  # atno 10765 bound_to 10752
  140.6455  134.4506  157.5234 H   0  0  0  0  0  0  0  0  0  0  0  0  # atno 11005 bound_to 11000
  146.2919  140.4266  142.8736 LP  0  0  0  0  0  0  0  0  0  0  0  0  # atno 17320 bound_to 7965
  144.8633  140.7170  143.6093 LP  0  0  0  0  0  0  0  0  0  0  0  0  # atno 17321 bound_to 7965
  139.7731  144.7470  151.0195 LP  0  0  0  0  0  0  0  0  0  0  0  0  # atno 17342 bound_to 10162
  140.7812  143.4623  151.0261 LP  0  0  0  0  0  0  0  0  0  0  0  0  # atno 17343 bound_to 10162
  155.9699  130.4188  150.4343 LP  0  0  0  0  0  0  0  0  0  0  0  0  # atno 17370 bound_to 10713
  157.2379  131.0519  151.2454 LP  0  0  0  0  0  0  0  0  0  0  0  0  # atno 17371 bound_to 10713
  139.9064  134.8439  156.1689 LP  0  0  0  0  0  0  0  0  0  0  0  0  # atno 17394 bound_to 11000
  141.0575  133.6858  156.1889 LP  0  0  0  0  0  0  0  0  0  0  0  0  # atno 17395 bound_to 11000

$$$$
