#       Name:                AV-unprocessed.smi:3353
#       Creating user name   scv26
#       Creation time:       Fri Mar 27 19:39:20 2020


#       File generated by GOLD software.
#

@<TRIPOS>MOLECULE
AV-unprocessed.smi:3353
    46    47     1
SMALL
NO_CHARGES


@<TRIPOS>ATOM
      1 ****        -5.5586   5.0179   1.1570 C.3            1 S1                 0.0000
      2 ****        -5.1666   4.3577  -0.1704 C.3            1 S1                 0.0000
      3 ****        -4.6362   3.0231   0.0292 N.pl3          1 S1                 0.0000
      4 ****        -3.3149   2.6222   0.0351 C.2            1 S1                 0.0000
      5 ****        -3.3385   1.2757   0.2657 C.2            1 S1                 0.0000
      6 ****        -2.2603   0.3610   0.3700 N.am           1 S1                 0.0000
      7 ****        -0.9488   0.6321   0.2706 C.2            1 S1                 0.0000
      8 ****        -0.4696   1.7485   0.0728 O.2            1 S1                 0.0000
      9 ****        -0.2114  -0.4774   0.4151 N.am           1 S1                 0.0000
     10 ****         1.2467  -0.5341   0.3584 C.3            1 S1                 0.0000
     11 ****         1.7489  -1.7977  -0.3815 C.3            1 S1                 0.0000
     12 ****         1.1920  -1.8506  -1.8225 C.3            1 S1                 0.0000
     13 ****         3.2404  -1.8597  -0.3822 N.4            1 S1                 1.0000
     14 ****         3.8728  -1.8558   0.9550 C.3            1 S1                 0.0000
     15 ****         5.2930  -2.3903   0.7564 C.3            1 S1                 0.0000
     16 ****         5.2618  -3.1523  -0.5707 C.3            1 S1                 0.0000
     17 ****         3.8254  -3.0235  -1.0835 C.3            1 S1                 0.0000
     18 ****        -4.7088   0.9284   0.3905 C.2            1 S1                 0.0000
     19 ****        -5.4874   1.9899   0.2458 N.2            1 S1                 0.0000
     20 ****        -5.9454   6.0233   0.9907 H              1 S1                 0.0000
     21 ****        -4.7002   5.0970   1.8246 H              1 S1                 0.0000
     22 ****        -6.3318   4.4453   1.6701 H              1 S1                 0.0000
     23 ****        -6.0296   4.2976  -0.8349 H              1 S1                 0.0000
     24 ****        -4.4138   4.9589  -0.6816 H              1 S1                 0.0000
     25 ****        -2.5042   3.3184  -0.1211 H              1 S1                 0.0000
     26 ****        -2.5172  -0.6007   0.5380 H              1 S1                 0.0000
     27 ****        -0.6952  -1.3485   0.5777 H              1 S1                 0.0000
     28 ****         1.6560   0.3547  -0.1254 H              1 S1                 0.0000
     29 ****         1.5972  -0.5175   1.3901 H              1 S1                 0.0000
     30 ****         1.3787  -2.6745   0.1528 H              1 S1                 0.0000
     31 ****         0.1036  -1.7959  -1.8397 H              1 S1                 0.0000
     32 ****         1.4539  -2.7797  -2.3280 H              1 S1                 0.0000
     33 ****         1.5719  -1.0236  -2.4232 H              1 S1                 0.0000
     34 ****         3.8782  -0.8619   1.4032 H              1 S1                 0.0000
     35 ****         3.3225  -2.5240   1.6198 H              1 S1                 0.0000
     36 ****         6.0024  -1.5643   0.6921 H              1 S1                 0.0000
     37 ****         5.6017  -3.0241   1.5884 H              1 S1                 0.0000
     38 ****         5.9584  -2.6958  -1.2752 H              1 S1                 0.0000
     39 ****         5.5519  -4.1970  -0.4524 H              1 S1                 0.0000
     40 ****         3.2645  -3.9233  -0.8249 H              1 S1                 0.0000
     41 ****         3.7945  -2.9055  -2.1670 H              1 S1                 0.0000
     42 ****        -5.1553  -0.0372   0.5771 H              1 S1                 0.0000
     43 ****         3.5794  -1.0379  -0.8621 H              1 S1                 0.0000
     44 ****        -1.0718   2.5406  -0.0270 LP             1 S1                 0.0000
     45 ****         0.5219   1.8634   0.0119 LP             1 S1                 0.0000
     46 ****        -6.4861   2.0225   0.2873 LP             1 S1                 0.0000
@<TRIPOS>BOND
    1    1    2 1     
    2    1   20 1     
    3    1   21 1     
    4    1   22 1     
    5    2    3 1     
    6    2   23 1     
    7    2   24 1     
    8    3   19 1     
    9    3    4 1     
   10    4    5 2     
   11    4   25 1     
   12    5    6 1     
   13    5   18 1     
   14    6    7 am    
   15    6   26 1     
   16    7    8 2     
   17    7    9 am    
   18    9   10 1     
   19    9   27 1     
   20   10   11 1     
   21   10   28 1     
   22   10   29 1     
   23   11   12 1     
   24   11   13 1     
   25   11   30 1     
   26   12   31 1     
   27   12   32 1     
   28   12   33 1     
   29   13   17 1     
   30   13   14 1     
   31   13   43 1     
   32   14   15 1     
   33   14   34 1     
   34   14   35 1     
   35   15   16 1     
   36   15   36 1     
   37   15   37 1     
   38   16   17 1     
   39   16   38 1     
   40   16   39 1     
   41   17   40 1     
   42   17   41 1     
   43   18   19 2     
   44   18   42 1     
   45    8   44 1     
   46    8   45 1     
   47   19   46 1     
@<TRIPOS>SUBSTRUCTURE
      1 S1             1
@<TRIPOS>SET
LONE_PAIRS      STATIC     ATOMS    <user>   **** ""
3 44 45 46
DONOR_HYDROGENS      STATIC     ATOMS    <user>   **** ""
3 26 27 43
ATOM$BLUE        STATIC     ATOMS    COLORGROUP SYSTEM
3 44 45 46
ATOM$RED        STATIC     ATOMS    COLORGROUP SYSTEM
3 26 27 43
