AV-unprocessed.smi:169|AV-procd|sdf|1402|dock7
  -GOLD-   2262019153D 1   1.00000     0.00000
 Structure written by MMmdl.
 56 60  0  0  0  0  0  0  0  0  2 V2000
  152.7559  140.9020  159.0531 C   0  0  0  0  0  0  0  0  0  0  0  0
  151.8066  141.7393  158.1781 C   0  0  0  0  0  0  0  0  0  0  0  0
  150.9760  140.9282  157.2498 N   0  3  2  0  0  0  0  0  0  0  0  0
  151.7947  140.2638  156.1736 C   0  0  0  0  0  0  0  0  0  0  0  0
  151.1253  139.0013  155.5120 C   0  0  0  0  0  0  0  0  0  0  0  0
  149.6039  139.1554  155.3198 C   0  0  3  0  0  0  0  0  0  0  0  0
  148.6549  139.6831  154.2360 C   0  0  0  0  0  0  0  0  0  0  0  0
  147.9454  140.8320  155.0255 C   0  0  0  0  0  0  0  0  0  0  0  0
  148.4989  140.7396  156.4865 C   0  0  2  0  0  0  0  0  0  0  0  0
  149.7380  141.6600  156.7847 C   0  0  0  0  0  0  0  0  0  0  0  0
  148.9133  139.3533  156.5819 N   0  0  0  0  0  0  0  0  0  0  0  0
  148.0417  138.4166  157.0386 C   0  0  0  0  0  0  0  0  0  0  0  0
  146.9109  138.1536  156.3312 N   0  0  0  0  0  0  0  0  0  0  0  0
  146.0452  137.2300  156.7580 C   0  0  0  0  0  0  0  0  0  0  0  0
  146.1207  136.4541  157.8404 N   0  0  0  0  0  0  0  0  0  0  0  0
  147.2656  136.6926  158.5416 C   0  0  0  0  0  0  0  0  0  0  0  0
  148.2691  137.6488  158.2164 C   0  0  0  0  0  0  0  0  0  0  0  0
  149.2896  137.5980  159.1587 N   0  0  0  0  0  0  0  0  0  0  0  0
  148.9034  136.6783  159.9999 C   0  0  0  0  0  0  0  0  0  0  0  0
  147.7076  136.0674  159.6954 N   0  0  0  0  0  0  0  0  0  0  0  0
  147.0456  135.0093  160.4472 C   0  0  0  0  0  0  0  0  0  0  0  0
  146.6021  135.3999  161.8768 C   0  0  0  0  0  0  0  0  0  0  0  0
  145.8716  134.1711  162.4466 C   0  0  0  0  0  0  0  0  0  0  0  0
  144.7532  133.7887  161.6713 O   0  0  0  0  0  0  0  0  0  0  0  0
  147.6551  136.0767  162.7738 C   0  0  0  0  0  0  0  0  0  0  0  0
  147.1116  137.3874  162.5018 O   0  0  0  0  0  0  0  0  0  0  0  0
  145.9024  136.7634  162.0166 C   0  0  0  0  0  0  0  0  0  0  0  0
  153.3451  141.5496  159.7029 H   0  0  0  0  0  0  0  0  0  0  0  0
  153.4565  140.3228  158.4517 H   0  0  0  0  0  0  0  0  0  0  0  0
  152.2107  140.2103  159.6953 H   0  0  0  0  0  0  0  0  0  0  0  0
  151.1507  142.3334  158.8156 H   0  0  0  0  0  0  0  0  0  0  0  0
  152.3845  142.4597  157.5976 H   0  0  0  0  0  0  0  0  0  0  0  0
  152.0229  141.0037  155.4049 H   0  0  0  0  0  0  0  0  0  0  0  0
  152.7577  139.9551  156.5826 H   0  0  0  0  0  0  0  0  0  0  0  0
  151.6150  138.7672  154.5652 H   0  0  0  0  0  0  0  0  0  0  0  0
  151.2971  138.1378  156.1555 H   0  0  0  0  0  0  0  0  0  0  0  0
  150.0185  140.1025  154.9960 H   0  0  0  0  0  0  0  0  0  0  0  0
  149.1312  140.0152  153.3079 H   0  0  0  0  0  0  0  0  0  0  0  0
  147.9304  138.9138  153.9663 H   0  0  0  0  0  0  0  0  0  0  0  0
  148.1230  141.8116  154.5809 H   0  0  0  0  0  0  0  0  0  0  0  0
  146.8674  140.6650  155.0185 H   0  0  0  0  0  0  0  0  0  0  0  0
  147.7003  140.9841  157.1849 H   0  0  0  0  0  0  0  0  0  0  0  0
  149.4297  142.3646  157.5584 H   0  0  0  0  0  0  0  0  0  0  0  0
  149.9897  142.2749  155.9197 H   0  0  0  0  0  0  0  0  0  0  0  0
  145.1691  137.0898  156.1421 H   0  0  0  0  0  0  0  0  0  0  0  0
  149.4898  136.4164  160.8682 H   0  0  0  0  0  0  0  0  0  0  0  0
  146.1849  134.6809  159.8632 H   0  0  0  0  0  0  0  0  0  0  0  0
  147.7234  134.1551  160.4777 H   0  0  0  0  0  0  0  0  0  0  0  0
  146.5446  133.3150  162.5057 H   0  0  0  0  0  0  0  0  0  0  0  0
  145.5216  134.3658  163.4610 H   0  0  0  0  0  0  0  0  0  0  0  0
  144.9171  134.0215  160.7701 H   0  0  0  0  0  0  0  0  0  0  0  0
  147.5760  135.8245  163.8323 H   0  0  0  0  0  0  0  0  0  0  0  0
  148.6852  135.9661  162.4397 H   0  0  0  0  0  0  0  0  0  0  0  0
  145.5485  137.1899  161.0794 H   0  0  0  0  0  0  0  0  0  0  0  0
  145.1100  136.7937  162.7660 H   0  0  0  0  0  0  0  0  0  0  0  0
  150.6314  140.1727  157.8254 H   0  0  0  0  0  0  0  0  0  0  0  0
  1  2  1  0  0  0  0
  1 28  1  0  0  0  0
  1 29  1  0  0  0  0
  1 30  1  0  0  0  0
  2  3  1  0  0  0  0
  2 31  1  0  0  0  0
  2 32  1  0  0  0  0
  3 10  1  0  0  0  0
  3  4  1  0  0  0  0
  3 56  1  0  0  0  0
  4  5  1  0  0  0  0
  4 33  1  0  0  0  0
  4 34  1  0  0  0  0
  5  6  1  0  0  0  0
  5 35  1  0  0  0  0
  5 36  1  0  0  0  0
  6 11  1  0  0  0  0
  6  7  1  0  0  0  0
  6 37  1  0  0  0  0
  7  8  1  0  0  0  0
  7 38  1  0  0  0  0
  7 39  1  0  0  0  0
  8  9  1  0  0  0  0
  8 40  1  0  0  0  0
  8 41  1  0  0  0  0
  9 10  1  0  0  0  0
  9 11  1  0  0  0  0
  9 42  1  0  0  0  0
 10 43  1  0  0  0  0
 10 44  1  0  0  0  0
 11 12  1  0  0  0  0
 12 17  1  0  0  0  0
 12 13  2  0  0  0  0
 13 14  1  0  0  0  0
 14 15  2  0  0  0  0
 14 45  1  0  0  0  0
 15 16  1  0  0  0  0
 16 20  1  0  0  0  0
 16 17  2  0  0  0  0
 17 18  1  0  0  0  0
 18 19  2  0  0  0  0
 19 20  1  0  0  0  0
 19 46  1  0  0  0  0
 20 21  1  0  0  0  0
 21 22  1  0  0  0  0
 21 47  1  0  0  0  0
 21 48  1  0  0  0  0
 22 27  1  0  0  0  0
 22 23  1  0  0  0  0
 22 25  1  0  0  0  0
 23 24  1  0  0  0  0
 23 49  1  0  0  0  0
 23 50  1  0  0  0  0
 24 51  1  0  0  0  0
 25 26  1  0  0  0  0
 25 52  1  0  0  0  0
 25 53  1  0  0  0  0
 26 27  1  0  0  0  0
 27 54  1  0  0  0  0
 27 55  1  0  0  0  0
M  CHG  1   3   1
M  END
> <s_m_source_file>
AV-unprocessed.smi

> <i_m_source_file_index>
169

> <i_lp_mmshare_version>
43012

> <i_f3d_flags>
0

> <s_epik_input>
W0NASF0xMltDSDJdW0NIMl1OKFtDSDJdW0NIM10pW0NIMl1bQ0BIXShbQ0gyXVtDSDJdMSlOMmMobltjSF1uMyljKGMzNCluW2NIXW40W0NIMl1DNShbQ0gyXVtPSF0pW0NIMl1PW0NIMl01

> <s_epik_cmdline>
J2VwaWtfcHl0aG9uJywgJy1waCcsICc3LjAnLCAnLXRuJywgJzgnLCAnLW1hJywgJzIwMCcsICctbWV0YWxfYmluZGluZycsICctaW1hZScsICc8aW5maWxlLm1hZT4nLCAnLW9tYWUnLCAnPG91dGZpbGUubWFlPic=

> <r_lp_tautomer_probability>
1

> <r_epik_Ionization_Penalty>
0.00274162

> <r_epik_Ionization_Penalty_Charging>
0.00243722

> <r_epik_Ionization_Penalty_Neutral>
0.000304399

> <r_epik_State_Penalty>
-0

> <r_epik_Charging_Adjusted_Penalty>
0.00243722

> <i_epik_Tot_Q>
1

> <i_epik_Tot_abs_Q>
1

> <r_epik_Metal_State_Penalty>
-0

> <b_epik_Metal_Only>
0

> <s_lp_Force_Field>
OPLS_2005

> <r_lp_Energy>
131.144

> <b_lp_Chiralities_Consistent>
1

> <s_lp_Variant>
AV-unprocessed.smi:169-5

> <Gold.Version>
5.8.1

> <Gold.Id.Protein>
6NUR|6NUR_protein|mol2

> <Gold.PLP.Fitness>
39.1823

> <Gold.PLP.PLP>
-37.2867

> <Gold.PLP.part.hbond>
-2.2800

> <Gold.PLP.part.metal>
0.0000

> <Gold.PLP.part.buried>
-5.2199

> <Gold.PLP.part.nonpolar>
-29.4454

> <Gold.PLP.part.repulsive>
0.0632

> <Gold.PLP.ligand.clash>
0.0000

> <Gold.PLP.ligand.torsion>
0.3249

> <Gold.PLP.Chemscore.Hbond>
0.7057

> <Gold.PLP.Chemscore.CHOScore>
0.0000

> <Gold.PLP.Chemscore.Metal>
0.0000

> <Gold.Chemscore.Hbonds>
donor molecule, donor type, donor heavy atom, donor atom, acceptor molecule, acceptor atom, score
      P1  H  6931  6943       L1    26  0.32
      P1  H  6934  6947       L1    26  0.21

> <Gold.PLP.Chemscore.Internal.Correction>
0.4283

> <Gold.Rescore>
     Score         DG    S(hbond)    S(metal)    S(lipo)     H(rot)  DE(clash)    DE(int)     intcor
     11.81     -12.59       0.79        0.00      95.46       2.62       0.04       0.75       ----

> <Gold.Chemscore.Fitness>
11.8084

> <Gold.Chemscore.DG>
-12.5931

> <Gold.Chemscore.ZeroCoef>
-5.4800

> <Gold.Chemscore.Hbond>
0.7947

> <Gold.Chemscore.Metal>
0.0000

> <Gold.Chemscore.Lipo>
95.4606

> <Gold.Chemscore.Internal_Hbond>
0.0000

> <Gold.Chemscore.DEClash>
0.0363

> <Gold.Chemscore.DEInternal>
0.7484

> <Gold.Chemscore.Rot>
2.6212

> <Gold.Chemscore.Internal.Correction>
   9.000000E+99

> <Gold.Chemscore.Hbonds>
donor molecule, donor type, donor heavy atom, donor atom, acceptor molecule, acceptor atom, score
      P1  H  6931  6943       L1    26  0.04
      P1  H  6934  6947       L1    26  0.04

> <Gold.Chemscore.Hbond.Weighted>
-2.6544

> <Gold.Chemscore.Metal.Weighted>
-0.0000

> <Gold.Chemscore.Lipo.Weighted>
-11.1689

> <Gold.Chemscore.Internal_Hbond.Weighted>
0.0000

> <Gold.Chemscore.DEClash.Weighted>
0.0363

> <Gold.Chemscore.DEInternal.Weighted>
0.7484

> <Gold.Chemscore.Rot.Weighted>
6.7102

> <Gold.Chemscore.Internal.Correction.Weighted>
   9.000000E+99

> <Gold.Protein.RotatedTorsions>
[ 6907 6896 6895 6894 ] final  147.21 input  -60.11 | X-H torsion
[ 7974 7965 7964 7962 ] final   38.42 input  175.53 | X-H torsion
[ 8008 7997 7996 7995 ] final  119.12 input   59.86 | X-H torsion
[ 10167 10162 10161 10158 ] final -127.82 input  -65.29 | X-H torsion
[ 10718 10713 10712 10709 ] final   24.77 input   66.30 | X-H torsion
[ 10763 10752 10751 10750 ] final   80.82 input  -60.55 | X-H torsion
[ 11005 11000 10999 10996 ] final -138.60 input  -57.11 | X-H torsion

> <Gold.Protein.ActiveResidues>
 VAL166  LYS551  ARG553  GLY616  TRP617  ASP618  TYR619  PRO620  LYS621  CYS622 
 ASP623  PHE694  ASN695  SER759  ASP760  ASP761  ALA762  ILE779  LEU786  VAL792 
 PHE793  MET794  SER795  GLU796  ALA797  LYS798  CYS799  TRP800  GLU811  SER814 

> <Gold.Protein.RotatedAtoms>
  152.1577  133.4562  159.4845 H   0  0  0  0  0  0  0  0  0  0  0  0  # atno 6907 bound_to 6896
  150.6903  134.2110  159.4368 H   0  0  0  0  0  0  0  0  0  0  0  0  # atno 6908 bound_to 6896
  152.0010  134.9928  160.0615 H   0  0  0  0  0  0  0  0  0  0  0  0  # atno 6909 bound_to 6896
  146.1063  139.5774  142.9381 H   0  0  0  0  0  0  0  0  0  0  0  0  # atno 7974 bound_to 7965
  156.2580  140.2860  156.0941 H   0  0  0  0  0  0  0  0  0  0  0  0  # atno 8008 bound_to 7997
  155.1431  140.0396  157.2820 H   0  0  0  0  0  0  0  0  0  0  0  0  # atno 8009 bound_to 7997
  154.6515  140.2546  155.7214 H   0  0  0  0  0  0  0  0  0  0  0  0  # atno 8010 bound_to 7997
  139.9568  143.5994  152.2458 H   0  0  0  0  0  0  0  0  0  0  0  0  # atno 10167 bound_to 10162
  157.1843  130.6817  149.6125 H   0  0  0  0  0  0  0  0  0  0  0  0  # atno 10718 bound_to 10713
  153.1065  135.4788  154.8960 H   0  0  0  0  0  0  0  0  0  0  0  0  # atno 10763 bound_to 10752
  154.7435  135.3088  154.8688 H   0  0  0  0  0  0  0  0  0  0  0  0  # atno 10764 bound_to 10752
  153.9289  135.6847  153.4799 H   0  0  0  0  0  0  0  0  0  0  0  0  # atno 10765 bound_to 10752
  140.8600  134.2181  157.4713 H   0  0  0  0  0  0  0  0  0  0  0  0  # atno 11005 bound_to 11000
  145.5754  141.0389  143.2151 LP  0  0  0  0  0  0  0  0  0  0  0  0  # atno 17320 bound_to 7965
  144.7473  139.7285  143.7287 LP  0  0  0  0  0  0  0  0  0  0  0  0  # atno 17321 bound_to 7965
  139.6585  144.7662  151.2008 LP  0  0  0  0  0  0  0  0  0  0  0  0  # atno 17342 bound_to 10162
  140.7566  143.6047  150.8664 LP  0  0  0  0  0  0  0  0  0  0  0  0  # atno 17343 bound_to 10162
  155.9720  130.4636  150.6187 LP  0  0  0  0  0  0  0  0  0  0  0  0  # atno 17370 bound_to 10713
  157.3922  131.0797  151.1383 LP  0  0  0  0  0  0  0  0  0  0  0  0  # atno 17371 bound_to 10713
  139.8706  134.9725  156.4774 LP  0  0  0  0  0  0  0  0  0  0  0  0  # atno 17394 bound_to 11000
  140.8694  133.8000  155.9348 LP  0  0  0  0  0  0  0  0  0  0  0  0  # atno 17395 bound_to 11000

$$$$
