#       Name:                AV-unprocessed.smi:1455
#       Creating user name   scv26
#       Creation time:       Fri Mar 27 06:00:11 2020


#       File generated by GOLD software.
#

@<TRIPOS>MOLECULE
AV-unprocessed.smi:1455
    38    39     1
SMALL
NO_CHARGES


@<TRIPOS>ATOM
      1 ****        -0.5188   1.2549  -0.0967 O.2            1 S1                 0.0000
      2 ****         0.1409   0.2146  -0.1225 C.2            1 S1                 0.0000
      3 ****         1.6713   0.2442   0.0016 C.3            1 S1                 0.0000
      4 ****         2.2445   1.5894  -0.1544 N.am           1 S1                 0.0000
      5 ****         2.5588   2.3494   0.9633 C.2            1 S1                 0.0000
      6 ****         3.0828   3.5961   0.8943 C.2            1 S1                 0.0000
      7 ****         3.3475   4.2154  -0.3998 C.2            1 S1                 0.0000
      8 ****         3.8220   5.3368  -0.5658 O.2            1 S1                 0.0000
      9 ****         3.0144   3.4212  -1.5002 N.am           1 S1                 0.0000
     10 ****         2.4730   2.1362  -1.4359 C.2            1 S1                 0.0000
     11 ****         2.2122   1.5230  -2.4702 O.2            1 S1                 0.0000
     12 ****        -0.4131  -1.0020  -0.2368 N.am           1 S1                 0.0000
     13 ****        -1.8447  -1.2678  -0.3526 C.3            1 S1                 0.0000
     14 ****        -2.5450  -1.2072   1.0199 C.3            1 S1                 0.0000
     15 ****        -2.8811  -2.6531   1.3845 C.3            1 S1                 0.0000
     16 ****        -3.1213  -3.3289   0.0385 C.3            1 S1                 0.0000
     17 ****        -2.0950  -2.6876  -0.8975 C.3            1 S1                 0.0000
     18 ****         3.1759   3.8100  -2.4178 H              1 S1                 0.0000
     19 ****         1.9404  -0.1669   0.9756 H              1 S1                 0.0000
     20 ****         2.1083  -0.4395  -0.7288 H              1 S1                 0.0000
     21 ****         2.3757   1.9323   1.9434 H              1 S1                 0.0000
     22 ****         3.3068   4.1383   1.8016 H              1 S1                 0.0000
     23 ****         0.2012  -1.8033  -0.2446 H              1 S1                 0.0000
     24 ****        -2.2968  -0.5358  -1.0246 H              1 S1                 0.0000
     25 ****        -1.9506  -0.7190   1.7935 H              1 S1                 0.0000
     26 ****        -3.4704  -0.6379   0.9237 H              1 S1                 0.0000
     27 ****        -2.0273  -3.1154   1.8815 H              1 S1                 0.0000
     28 ****        -3.7388  -2.7284   2.0534 H              1 S1                 0.0000
     29 ****        -3.0232  -4.4137   0.0891 H              1 S1                 0.0000
     30 ****        -4.1296  -3.1011  -0.3099 H              1 S1                 0.0000
     31 ****        -2.4414  -2.6757  -1.9314 H              1 S1                 0.0000
     32 ****        -1.1771  -3.2773  -0.8738 H              1 S1                 0.0000
     33 ****        -0.0583   2.1365   0.0063 LP             1 S1                 0.0000
     34 ****        -1.5148   1.2175  -0.1788 LP             1 S1                 0.0000
     35 ****         4.0590   5.9014   0.2247 LP             1 S1                 0.0000
     36 ****         3.9711   5.6846  -1.4914 LP             1 S1                 0.0000
     37 ****         1.8237   0.6028  -2.4215 LP             1 S1                 0.0000
     38 ****         2.3886   1.9448  -3.3596 LP             1 S1                 0.0000
@<TRIPOS>BOND
    1    1    2 2     
    2    2    3 1     
    3    2   12 am    
    4    3    4 1     
    5    3   19 1     
    6    3   20 1     
    7    4   10 1     
    8    4    5 1     
    9    5    6 2     
   10    5   21 1     
   11    6    7 1     
   12    6   22 1     
   13    7    8 2     
   14    7    9 1     
   15    9   18 1     
   16    9   10 1     
   17   10   11 2     
   18   12   13 1     
   19   12   23 1     
   20   13   17 1     
   21   13   14 1     
   22   13   24 1     
   23   14   15 1     
   24   14   25 1     
   25   14   26 1     
   26   15   16 1     
   27   15   27 1     
   28   15   28 1     
   29   16   17 1     
   30   16   29 1     
   31   16   30 1     
   32   17   31 1     
   33   17   32 1     
   34    1   33 1     
   35    1   34 1     
   36    8   35 1     
   37    8   36 1     
   38   11   37 1     
   39   11   38 1     
@<TRIPOS>SUBSTRUCTURE
      1 S1             1
@<TRIPOS>SET
LONE_PAIRS      STATIC     ATOMS    <user>   **** ""
6 33 34 35 36 37 38
DONOR_HYDROGENS      STATIC     ATOMS    <user>   **** ""
2 18 23
ATOM$BLUE        STATIC     ATOMS    COLORGROUP SYSTEM
6 33 34 35 36 37 38
ATOM$RED        STATIC     ATOMS    COLORGROUP SYSTEM
2 18 23
