#       Name:                AV-unprocessed.smi:1433
#       Creating user name   scv26
#       Creation time:       Fri Mar 27 05:50:43 2020


#       File generated by GOLD software.
#

@<TRIPOS>MOLECULE
AV-unprocessed.smi:1433
    50    51     1
SMALL
NO_CHARGES


@<TRIPOS>ATOM
      1 ****        -0.9921  -4.0259  -0.9880 C.3            1 S1                 0.0000
      2 ****        -1.4084  -2.5592  -0.8346 C.3            1 S1                 0.0000
      3 ****        -0.7494  -1.6576  -1.9002 C.3            1 S1                 0.0000
      4 ****        -1.2170  -0.2490  -1.7816 N.4            1 S1                 1.0000
      5 ****        -0.6612   0.5280  -0.6196 C.3            1 S1                 0.0000
      6 ****        -1.2126   1.9742  -0.5834 C.3            1 S1                 0.0000
      7 ****         0.8942   0.5510  -0.6225 C.3            1 S1                 0.0000
      8 ****         1.4629   1.2943   0.4984 N.am           1 S1                 0.0000
      9 ****         1.4982   0.8614   1.7688 C.2            1 S1                 0.0000
     10 ****         1.0440  -0.2261   2.1241 O.2            1 S1                 0.0000
     11 ****         2.1275   1.8027   2.7974 C.3            1 S1                 0.0000
     12 ****         3.5730   1.8440   2.6660 N.pl3          1 S1                 0.0000
     13 ****         4.3443   2.7335   1.9467 C.2            1 S1                 0.0000
     14 ****         5.6500   2.3751   2.1232 C.2            1 S1                 0.0000
     15 ****         5.5763   1.2398   2.9779 C.2            1 S1                 0.0000
     16 ****         4.3324   0.9238   3.3000 N.2            1 S1                 0.0000
     17 ****        -2.7015  -0.2544  -1.8975 C.3            1 S1                 0.0000
     18 ****        -3.3417  -1.1685  -0.8305 C.3            1 S1                 0.0000
     19 ****        -4.8657  -1.2395  -0.9745 C.3            1 S1                 0.0000
     20 ****        -2.8237  -2.4871  -0.9813 O.3            1 S1                 0.0000
     21 ****         0.0859  -4.1414  -0.8729 H              1 S1                 0.0000
     22 ****        -1.2681  -4.4149  -1.9686 H              1 S1                 0.0000
     23 ****        -1.4747  -4.6491  -0.2348 H              1 S1                 0.0000
     24 ****        -1.1316  -2.2304   0.1678 H              1 S1                 0.0000
     25 ****         0.3338  -1.7461  -1.8794 H              1 S1                 0.0000
     26 ****        -1.0326  -2.0199  -2.8897 H              1 S1                 0.0000
     27 ****        -0.9824   0.0418   0.3007 H              1 S1                 0.0000
     28 ****        -0.7471   2.5733   0.1986 H              1 S1                 0.0000
     29 ****        -2.2788   2.0038  -0.3637 H              1 S1                 0.0000
     30 ****        -1.0445   2.4868  -1.5310 H              1 S1                 0.0000
     31 ****         1.3194  -0.4500  -0.5729 H              1 S1                 0.0000
     32 ****         1.2593   0.9993  -1.5471 H              1 S1                 0.0000
     33 ****         1.8629   2.1988   0.2939 H              1 S1                 0.0000
     34 ****         1.7310   2.8106   2.6678 H              1 S1                 0.0000
     35 ****         1.8672   1.4848   3.8082 H              1 S1                 0.0000
     36 ****         3.9054   3.5388   1.3760 H              1 S1                 0.0000
     37 ****         6.5250   2.8513   1.7064 H              1 S1                 0.0000
     38 ****         6.3840   0.6401   3.3711 H              1 S1                 0.0000
     39 ****        -3.1267   0.7466  -1.8709 H              1 S1                 0.0000
     40 ****        -2.9586  -0.6347  -2.8874 H              1 S1                 0.0000
     41 ****        -3.1118  -0.8035   0.1712 H              1 S1                 0.0000
     42 ****        -5.3177  -0.2551  -0.8508 H              1 S1                 0.0000
     43 ****        -5.2978  -1.8995  -0.2220 H              1 S1                 0.0000
     44 ****        -5.1532  -1.6198  -1.9553 H              1 S1                 0.0000
     45 ****        -0.8758   0.2290  -2.6034 H              1 S1                 0.0000
     46 ****         0.6227  -0.8356   1.4524 LP             1 S1                 0.0000
     47 ****         1.0962  -0.5001   3.0844 LP             1 S1                 0.0000
     48 ****         4.0234   0.1719   3.8825 LP             1 S1                 0.0000
     49 ****        -3.2444  -3.0740  -0.2895 LP             1 S1                 0.0000
     50 ****        -3.0653  -2.8203  -1.8927 LP             1 S1                 0.0000
@<TRIPOS>BOND
    1    1    2 1     
    2    1   21 1     
    3    1   22 1     
    4    1   23 1     
    5    2   20 1     
    6    2    3 1     
    7    2   24 1     
    8    3    4 1     
    9    3   25 1     
   10    3   26 1     
   11    4    5 1     
   12    4   17 1     
   13    4   45 1     
   14    5    6 1     
   15    5    7 1     
   16    5   27 1     
   17    6   28 1     
   18    6   29 1     
   19    6   30 1     
   20    7    8 1     
   21    7   31 1     
   22    7   32 1     
   23    8    9 am    
   24    8   33 1     
   25    9   10 2     
   26    9   11 1     
   27   11   12 1     
   28   11   34 1     
   29   11   35 1     
   30   12   16 1     
   31   12   13 1     
   32   13   14 2     
   33   13   36 1     
   34   14   15 1     
   35   14   37 1     
   36   15   16 2     
   37   15   38 1     
   38   17   18 1     
   39   17   39 1     
   40   17   40 1     
   41   18   19 1     
   42   18   20 1     
   43   18   41 1     
   44   19   42 1     
   45   19   43 1     
   46   19   44 1     
   47   10   46 1     
   48   10   47 1     
   49   16   48 1     
   50   20   49 1     
   51   20   50 1     
@<TRIPOS>SUBSTRUCTURE
      1 S1             1
@<TRIPOS>SET
LONE_PAIRS      STATIC     ATOMS    <user>   **** ""
5 46 47 48 49 50
DONOR_HYDROGENS      STATIC     ATOMS    <user>   **** ""
2 45 33
ATOM$BLUE        STATIC     ATOMS    COLORGROUP SYSTEM
5 46 47 48 49 50
ATOM$RED        STATIC     ATOMS    COLORGROUP SYSTEM
2 45 33
