AV-unprocessed.smi:2149|AV-procd|sdf|8752|dock9
  -GOLD-   2272011533D 1   1.00000     0.00000
 Structure written by MMmdl.
 42 43  0  0  0  0  0  0  0  0  1 V2000
  155.0882  132.7470  162.3441 C   0  0  0  0  0  0  0  0  0  0  0  0
  155.6757  133.7676  160.9312 S   0  0  0  0  0  0  0  0  0  0  0  0
  157.0593  133.3738  160.6247 O   0  0  0  0  0  0  0  0  0  0  0  0
  154.6526  133.7187  159.8756 O   0  0  0  0  0  0  0  0  0  0  0  0
  155.7111  135.3887  161.5637 N   0  0  0  0  0  0  0  0  0  0  0  0
  155.6845  135.6145  163.0234 C   0  0  0  0  0  0  0  0  0  0  0  0
  154.2872  136.0384  163.5082 C   0  0  0  0  0  0  0  0  0  0  0  0
  153.7691  137.2464  162.7196 C   0  0  0  0  0  0  0  0  0  0  0  0
  153.7651  136.9223  161.2149 C   0  0  1  0  0  0  0  0  0  0  0  0
  153.2550  138.1148  160.3946 C   0  0  0  0  0  0  0  0  0  0  0  0
  152.2976  137.9798  159.6321 O   0  0  0  0  0  0  0  0  0  0  0  0
  153.9054  139.2773  160.5586 N   0  0  0  0  0  0  0  0  0  0  0  0
  153.5826  140.5211  159.8697 C   0  0  0  0  0  0  0  0  0  0  0  0
  153.5300  141.7085  160.8451 C   0  0  0  0  0  0  0  0  0  0  0  0
  152.7926  142.8987  160.2615 C   0  0  0  0  0  0  0  0  0  0  0  0
  153.1952  143.4634  159.0324 C   0  0  0  0  0  0  0  0  0  0  0  0
  152.4818  144.5725  158.5382 C   0  0  0  0  0  0  0  0  0  0  0  0
  151.3995  145.0719  159.2881 C   0  0  0  0  0  0  0  0  0  0  0  0
  151.0778  144.4378  160.5047 C   0  0  0  0  0  0  0  0  0  0  0  0
  151.7564  143.3748  160.9880 N   0  0  0  0  0  0  0  0  0  0  0  0
  155.1810  136.5069  160.7562 C   0  0  0  0  0  0  0  0  0  0  0  0
  155.0639  131.7009  162.0401 H   0  0  0  0  0  0  0  0  0  0  0  0
  154.0834  133.0535  162.6298 H   0  0  0  0  0  0  0  0  0  0  0  0
  155.7673  132.8539  163.1877 H   0  0  0  0  0  0  0  0  0  0  0  0
  156.0158  134.7223  163.5537 H   0  0  0  0  0  0  0  0  0  0  0  0
  156.4045  136.3981  163.2619 H   0  0  0  0  0  0  0  0  0  0  0  0
  153.5878  135.2090  163.4107 H   0  0  0  0  0  0  0  0  0  0  0  0
  154.3252  136.2804  164.5706 H   0  0  0  0  0  0  0  0  0  0  0  0
  152.7648  137.5048  163.0580 H   0  0  0  0  0  0  0  0  0  0  0  0
  154.4019  138.1118  162.9234 H   0  0  0  0  0  0  0  0  0  0  0  0
  153.0843  136.0871  161.0522 H   0  0  0  0  0  0  0  0  0  0  0  0
  154.6805  139.3022  161.2055 H   0  0  0  0  0  0  0  0  0  0  0  0
  154.3059  140.7083  159.0739 H   0  0  0  0  0  0  0  0  0  0  0  0
  152.6142  140.3972  159.3844 H   0  0  0  0  0  0  0  0  0  0  0  0
  153.0448  141.4069  161.7743 H   0  0  0  0  0  0  0  0  0  0  0  0
  154.5401  142.0202  161.1153 H   0  0  0  0  0  0  0  0  0  0  0  0
  154.0311  143.0589  158.4806 H   0  0  0  0  0  0  0  0  0  0  0  0
  152.7597  145.0316  157.6010 H   0  0  0  0  0  0  0  0  0  0  0  0
  150.8295  145.9205  158.9401 H   0  0  0  0  0  0  0  0  0  0  0  0
  150.2542  144.7940  161.1055 H   0  0  0  0  0  0  0  0  0  0  0  0
  155.8689  137.3485  160.8513 H   0  0  0  0  0  0  0  0  0  0  0  0
  155.1763  136.2360  159.7004 H   0  0  0  0  0  0  0  0  0  0  0  0
  1  2  1  0  0  0  0
  1 22  1  0  0  0  0
  1 23  1  0  0  0  0
  1 24  1  0  0  0  0
  2  3  2  0  0  0  0
  2  4  2  0  0  0  0
  2  5  1  0  0  0  0
  5 21  1  0  0  0  0
  5  6  1  0  0  0  0
  6  7  1  0  0  0  0
  6 25  1  0  0  0  0
  6 26  1  0  0  0  0
  7  8  1  0  0  0  0
  7 27  1  0  0  0  0
  7 28  1  0  0  0  0
  8  9  1  0  0  0  0
  8 29  1  0  0  0  0
  8 30  1  0  0  0  0
  9 10  1  0  0  0  0
  9 21  1  0  0  0  0
  9 31  1  0  0  0  0
 10 11  2  0  0  0  0
 10 12  1  0  0  0  0
 12 13  1  0  0  0  0
 12 32  1  0  0  0  0
 13 14  1  0  0  0  0
 13 33  1  0  0  0  0
 13 34  1  0  0  0  0
 14 15  1  0  0  0  0
 14 35  1  0  0  0  0
 14 36  1  0  0  0  0
 15 20  1  0  0  0  0
 15 16  2  0  0  0  0
 16 17  1  0  0  0  0
 16 37  1  0  0  0  0
 17 18  2  0  0  0  0
 17 38  1  0  0  0  0
 18 19  1  0  0  0  0
 18 39  1  0  0  0  0
 19 20  2  0  0  0  0
 19 40  1  0  0  0  0
 21 41  1  0  0  0  0
 21 42  1  0  0  0  0
M  END
> <s_m_source_file>
AV-unprocessed.smi

> <i_m_source_file_index>
2149

> <i_lp_mmshare_version>
43012

> <i_f3d_flags>
0

> <s_epik_input>
W0NIM11TKD1PKSg9TylOMVtDSDJdW0NIMl1bQ0gyXVtDQEhdKFtDSDJdMSlDKD1PKVtOSF1bQ0gyXVtDSDJdYzJbY0hdW2NIXVtjSF1bY0hdbjI=

> <s_epik_cmdline>
J2VwaWtfcHl0aG9uJywgJy1waCcsICc3LjAnLCAnLXRuJywgJzgnLCAnLW1hJywgJzIwMCcsICctbWV0YWxfYmluZGluZycsICctaW1hZScsICc8aW5maWxlLm1hZT4nLCAnLW9tYWUnLCAnPG91dGZpbGUubWFlPic=

> <r_epik_Ionization_Penalty>
0.0273806

> <r_epik_Ionization_Penalty_Charging>
0

> <r_epik_Ionization_Penalty_Neutral>
0.0273806

> <r_epik_State_Penalty>
0.0224071

> <r_epik_Charging_Adjusted_Penalty>
0.0224071

> <i_epik_Tot_Q>
0

> <i_epik_Tot_abs_Q>
0

> <r_epik_Metal_State_Penalty>
0.0214134

> <b_epik_Metal_Only>
0

> <s_lp_Force_Field>
OPLS_2005

> <r_lp_Energy>
-0.402048

> <b_lp_Chiralities_Consistent>
1

> <s_lp_Variant>
AV-unprocessed.smi:2149-1

> <Gold.Version>
5.8.1

> <Gold.Id.Protein>
6NUR|6NUR_protein|mol2

> <Gold.PLP.Fitness>
46.3238

> <Gold.PLP.PLP>
-44.0327

> <Gold.PLP.part.hbond>
-1.2884

> <Gold.PLP.part.metal>
0.0000

> <Gold.PLP.part.buried>
-5.9268

> <Gold.PLP.part.nonpolar>
-37.4951

> <Gold.PLP.part.repulsive>
0.1558

> <Gold.PLP.ligand.clash>
0.0000

> <Gold.PLP.ligand.torsion>
1.3975

> <Gold.PLP.Chemscore.Hbond>
1.0000

> <Gold.PLP.Chemscore.CHOScore>
0.0000

> <Gold.PLP.Chemscore.Metal>
0.0000

> <Gold.Chemscore.Hbonds>
donor molecule, donor type, donor heavy atom, donor atom, acceptor molecule, acceptor atom, score
      P1  H  6896  6907       L1     4  0.89

> <Gold.PLP.Chemscore.Internal.Correction>
2.0862

> <Gold.Rescore>
     Score         DG    S(hbond)    S(metal)    S(lipo)     H(rot)  DE(clash)    DE(int)     intcor
     17.83     -19.28       1.00        0.00     123.70       1.56       0.00       1.44       ----

> <Gold.Chemscore.Fitness>
17.8347

> <Gold.Chemscore.DG>
-19.2779

> <Gold.Chemscore.ZeroCoef>
-5.4800

> <Gold.Chemscore.Hbond>
0.9968

> <Gold.Chemscore.Metal>
0.0000

> <Gold.Chemscore.Lipo>
123.7019

> <Gold.Chemscore.Internal_Hbond>
0.0000

> <Gold.Chemscore.DEClash>
0.0004

> <Gold.Chemscore.DEInternal>
1.4428

> <Gold.Chemscore.Rot>
1.5643

> <Gold.Chemscore.Internal.Correction>
   9.000000E+99

> <Gold.Chemscore.Hbonds>
donor molecule, donor type, donor heavy atom, donor atom, acceptor molecule, acceptor atom, score
      P1  H  6896  6907       L1     4  0.87

> <Gold.Chemscore.Hbond.Weighted>
-3.3294

> <Gold.Chemscore.Metal.Weighted>
-0.0000

> <Gold.Chemscore.Lipo.Weighted>
-14.4731

> <Gold.Chemscore.Internal_Hbond.Weighted>
0.0000

> <Gold.Chemscore.DEClash.Weighted>
0.0004

> <Gold.Chemscore.DEInternal.Weighted>
1.4428

> <Gold.Chemscore.Rot.Weighted>
4.0046

> <Gold.Chemscore.Internal.Correction.Weighted>
   9.000000E+99

> <Gold.Protein.RotatedTorsions>
[ 6907 6896 6895 6894 ] final   98.66 input  -60.11 | X-H torsion
[ 7974 7965 7964 7962 ] final  -97.41 input  175.53 | X-H torsion
[ 8008 7997 7996 7995 ] final  -23.66 input   59.86 | X-H torsion
[ 10167 10162 10161 10158 ] final -124.89 input  -65.29 | X-H torsion
[ 10718 10713 10712 10709 ] final   22.51 input   66.30 | X-H torsion
[ 10763 10752 10751 10750 ] final  -11.64 input  -60.55 | X-H torsion
[ 11005 11000 10999 10996 ] final  -54.48 input  -57.11 | X-H torsion

> <Gold.Protein.ActiveResidues>
 VAL166  LYS551  ARG553  GLY616  TRP617  ASP618  TYR619  PRO620  LYS621  CYS622 
 ASP623  PHE694  ASN695  SER759  ASP760  ASP761  ALA762  ILE779  LEU786  VAL792 
 PHE793  MET794  SER795  GLU796  ALA797  LYS798  CYS799  TRP800  GLU811  SER814 

> <Gold.Protein.RotatedAtoms>
  152.5405  134.0547  159.8125 H   0  0  0  0  0  0  0  0  0  0  0  0  # atno 6907 bound_to 6896
  151.0683  133.5479  159.2636 H   0  0  0  0  0  0  0  0  0  0  0  0  # atno 6908 bound_to 6896
  151.2352  135.0577  159.9057 H   0  0  0  0  0  0  0  0  0  0  0  0  # atno 6909 bound_to 6896
  145.3341  140.9447  143.2645 H   0  0  0  0  0  0  0  0  0  0  0  0  # atno 7974 bound_to 7965
  154.4572  140.1974  156.0345 H   0  0  0  0  0  0  0  0  0  0  0  0  # atno 8008 bound_to 7997
  156.0770  140.3277  155.7618 H   0  0  0  0  0  0  0  0  0  0  0  0  # atno 8009 bound_to 7997
  155.5173  140.0567  157.2904 H   0  0  0  0  0  0  0  0  0  0  0  0  # atno 8010 bound_to 7997
  139.9880  143.5671  152.2353 H   0  0  0  0  0  0  0  0  0  0  0  0  # atno 10167 bound_to 10162
  157.1533  130.6684  149.6019 H   0  0  0  0  0  0  0  0  0  0  0  0  # atno 10718 bound_to 10713
  153.4867  135.7017  153.5907 H   0  0  0  0  0  0  0  0  0  0  0  0  # atno 10763 bound_to 10752
  153.4097  135.3851  155.2042 H   0  0  0  0  0  0  0  0  0  0  0  0  # atno 10764 bound_to 10752
  154.8719  135.3901  154.4323 H   0  0  0  0  0  0  0  0  0  0  0  0  # atno 10765 bound_to 10752
  141.1027  133.6616  156.4326 H   0  0  0  0  0  0  0  0  0  0  0  0  # atno 11005 bound_to 11000
  144.8841  139.4863  143.6709 LP  0  0  0  0  0  0  0  0  0  0  0  0  # atno 17320 bound_to 7965
  146.3034  139.7499  142.9074 LP  0  0  0  0  0  0  0  0  0  0  0  0  # atno 17321 bound_to 7965
  139.6361  144.7650  151.2435 LP  0  0  0  0  0  0  0  0  0  0  0  0  # atno 17342 bound_to 10162
  140.7465  143.6396  150.8347 LP  0  0  0  0  0  0  0  0  0  0  0  0  # atno 17343 bound_to 10162
  155.9766  130.4737  150.6542 LP  0  0  0  0  0  0  0  0  0  0  0  0  # atno 17370 bound_to 10713
  157.4200  131.0835  151.1140 LP  0  0  0  0  0  0  0  0  0  0  0  0  # atno 17371 bound_to 10713
  140.4980  134.6513  157.5237 LP  0  0  0  0  0  0  0  0  0  0  0  0  # atno 17394 bound_to 11000
  139.9885  134.7023  155.9731 LP  0  0  0  0  0  0  0  0  0  0  0  0  # atno 17395 bound_to 11000

$$$$
