#       Name:                AV-unprocessed.smi:2564
#       Creating user name   scv26
#       Creation time:       Fri Mar 27 14:10:15 2020


#       File generated by GOLD software.
#

@<TRIPOS>MOLECULE
AV-unprocessed.smi:2564
    33    34     1
SMALL
NO_CHARGES


@<TRIPOS>ATOM
      1 ****        -2.0950   4.1339   0.2736 C.ar           1 S1                 0.0000
      2 ****        -3.4873   3.9388   0.2487 C.ar           1 S1                 0.0000
      3 ****        -4.0638   2.7165   0.2659 N.ar           1 S1                 0.0000
      4 ****        -3.2555   1.6426   0.3099 N.pl3          1 S1                 1.0000
      5 ****        -1.9013   1.7216   0.3371 C.ar           1 S1                 0.0000
      6 ****        -1.2072   0.5052   0.3812 N.pl3          1 S1                 0.0000
      7 ****        -1.9285  -0.7586   0.3960 C.3            1 S1                 0.0000
      8 ****        -0.9729  -1.9552   0.5172 C.3            1 S1                 0.0000
      9 ****        -1.7131  -3.2972   0.3439 C.3            1 S1                 0.0000
     10 ****        -0.7833  -4.4248   0.5541 N.4            1 S1                 1.0000
     11 ****        -0.1042  -4.3327   1.8611 C.3            1 S1                 0.0000
     12 ****         0.5776  -2.9619   2.0050 C.3            1 S1                 0.0000
     13 ****        -0.3855  -1.9295   1.8165 O.3            1 S1                 0.0000
     14 ****        -1.2783   2.9912   0.3190 C.ar           1 S1                 0.0000
     15 ****        -1.6703   5.1268   0.2585 H              1 S1                 0.0000
     16 ****        -4.1581   4.7847   0.2144 H              1 S1                 0.0000
     17 ****        -0.2175   0.5016   0.5836 H              1 S1                 0.0000
     18 ****        -2.6451  -0.7650   1.2184 H              1 S1                 0.0000
     19 ****        -2.4976  -0.8420  -0.5308 H              1 S1                 0.0000
     20 ****        -0.1924  -1.8702  -0.2418 H              1 S1                 0.0000
     21 ****        -2.5349  -3.3754   1.0574 H              1 S1                 0.0000
     22 ****        -2.1452  -3.3743  -0.6542 H              1 S1                 0.0000
     23 ****        -1.2919  -5.2962   0.5009 H              1 S1                 0.0000
     24 ****        -0.8368  -4.4747   2.6566 H              1 S1                 0.0000
     25 ****         0.6260  -5.1373   1.9482 H              1 S1                 0.0000
     26 ****         1.0152  -2.8620   2.9985 H              1 S1                 0.0000
     27 ****         1.3911  -2.8521   1.2860 H              1 S1                 0.0000
     28 ****        -0.2044   3.1021   0.3403 H              1 S1                 0.0000
     29 ****        -0.0836  -4.4080  -0.1745 H              1 S1                 0.0000
     30 ****        -3.6847   0.7172   0.3229 H              1 S1                 0.0000
     31 ****        -5.0583   2.6141   0.2465 LP             1 S1                 0.0000
     32 ****        -1.1097  -2.0393   2.4972 LP             1 S1                 0.0000
     33 ****         0.0634  -1.0455   1.9471 LP             1 S1                 0.0000
@<TRIPOS>BOND
    1    1   14 ar    
    2    1    2 ar    
    3    1   15 1     
    4    2    3 ar    
    5    2   16 1     
    6    3    4 ar    
    7    4    5 ar    
    8    4   30 1     
    9    5    6 1     
   10    5   14 ar    
   11    6    7 1     
   12    6   17 1     
   13    7    8 1     
   14    7   18 1     
   15    7   19 1     
   16    8   13 1     
   17    8    9 1     
   18    8   20 1     
   19    9   10 1     
   20    9   21 1     
   21    9   22 1     
   22   10   11 1     
   23   10   23 1     
   24   10   29 1     
   25   11   12 1     
   26   11   24 1     
   27   11   25 1     
   28   12   13 1     
   29   12   26 1     
   30   12   27 1     
   31   14   28 1     
   32    3   31 1     
   33   13   32 1     
   34   13   33 1     
@<TRIPOS>SUBSTRUCTURE
      1 S1             1
@<TRIPOS>SET
LONE_PAIRS      STATIC     ATOMS    <user>   **** ""
3 31 32 33
DONOR_HYDROGENS      STATIC     ATOMS    <user>   **** ""
4 30 17 23 29
ATOM$BLUE        STATIC     ATOMS    COLORGROUP SYSTEM
3 31 32 33
ATOM$RED        STATIC     ATOMS    COLORGROUP SYSTEM
4 30 17 23 29
