AV-unprocessed.smi:3245|AV-procd|sdf|12409|dock2
  -GOLD-   2272018293D 1   1.00000     0.00000
 Structure written by MMmdl.
 34 35  0  0  0  0  0  0  0  0  2 V2000
  150.9283  141.0044  155.8840 C   0  0  0  0  0  0  0  0  0  0  0  0
  151.5256  140.4869  157.2085 C   0  0  1  0  0  0  0  0  0  0  0  0
  150.9772  141.2352  158.4412 C   0  0  0  0  0  0  0  0  0  0  0  0
  151.5098  142.5795  158.5733 N   0  0  0  0  0  0  0  0  0  0  0  0
  151.3364  143.6562  157.7289 C   0  0  0  0  0  0  0  0  0  0  0  0
  152.0197  144.7088  158.2671 C   0  0  0  0  0  0  0  0  0  0  0  0
  152.5815  144.1726  159.4596 C   0  0  0  0  0  0  0  0  0  0  0  0
  152.2717  142.8990  159.6420 N   0  0  0  0  0  0  0  0  0  0  0  0
  151.2178  139.0732  157.3871 N   0  0  0  0  0  0  0  0  0  0  0  0
  151.7978  138.2399  156.3428 C   0  0  0  0  0  0  0  0  0  0  0  0
  153.3262  138.1639  156.5093 C   0  0  0  0  0  0  0  0  0  0  0  0
  153.7164  137.4451  157.7291 N   0  0  0  0  0  0  0  0  0  0  0  0
  154.4415  137.9826  158.7151 C   0  0  0  0  0  0  0  0  0  0  0  0
  154.8919  139.1263  158.7860 O   0  0  0  0  0  0  0  0  0  0  0  0
  154.6323  136.9207  159.7727 C   0  0  0  0  0  0  0  0  0  0  0  0
  153.9261  135.7929  159.2088 N   0  5  0  0  0  0  0  0  0  0  0  0
  153.4157  136.1620  158.0103 C   0  0  0  0  0  0  0  0  0  0  0  0
  152.7591  135.4568  157.2445 O   0  0  0  0  0  0  0  0  0  0  0  0
  151.1425  142.0633  155.7394 H   0  0  0  0  0  0  0  0  0  0  0  0
  149.8451  140.8807  155.8653 H   0  0  0  0  0  0  0  0  0  0  0  0
  151.3368  140.4840  155.0186 H   0  0  0  0  0  0  0  0  0  0  0  0
  152.6091  140.6133  157.1899 H   0  0  0  0  0  0  0  0  0  0  0  0
  149.8891  141.3032  158.3892 H   0  0  0  0  0  0  0  0  0  0  0  0
  151.2113  140.6861  159.3547 H   0  0  0  0  0  0  0  0  0  0  0  0
  150.7504  143.5830  156.8245 H   0  0  0  0  0  0  0  0  0  0  0  0
  152.1046  145.7094  157.8702 H   0  0  0  0  0  0  0  0  0  0  0  0
  153.1996  144.6681  160.1937 H   0  0  0  0  0  0  0  0  0  0  0  0
  151.5671  138.7618  158.2822 H   0  0  0  0  0  0  0  0  0  0  0  0
  151.3683  137.2388  156.3530 H   0  0  0  0  0  0  0  0  0  0  0  0
  151.5645  138.6798  155.3726 H   0  0  0  0  0  0  0  0  0  0  0  0
  153.7510  137.6440  155.6492 H   0  0  0  0  0  0  0  0  0  0  0  0
  153.7631  139.1636  156.4836 H   0  0  0  0  0  0  0  0  0  0  0  0
  155.6960  136.7321  159.9215 H   0  0  0  0  0  0  0  0  0  0  0  0
  154.2138  137.2611  160.7203 H   0  0  0  0  0  0  0  0  0  0  0  0
  1  2  1  0  0  0  0
  1 19  1  0  0  0  0
  1 20  1  0  0  0  0
  1 21  1  0  0  0  0
  2  3  1  0  0  0  0
  2  9  1  0  0  0  0
  2 22  1  0  0  0  0
  3  4  1  0  0  0  0
  3 23  1  0  0  0  0
  3 24  1  0  0  0  0
  4  8  1  0  0  0  0
  4  5  1  0  0  0  0
  5  6  2  0  0  0  0
  5 25  1  0  0  0  0
  6  7  1  0  0  0  0
  6 26  1  0  0  0  0
  7  8  2  0  0  0  0
  7 27  1  0  0  0  0
  9 10  1  0  0  0  0
  9 28  1  0  0  0  0
 10 11  1  0  0  0  0
 10 29  1  0  0  0  0
 10 30  1  0  0  0  0
 11 12  1  0  0  0  0
 11 31  1  0  0  0  0
 11 32  1  0  0  0  0
 12 17  1  0  0  0  0
 12 13  1  0  0  0  0
 13 14  2  0  0  0  0
 13 15  1  0  0  0  0
 15 16  1  0  0  0  0
 15 33  1  0  0  0  0
 15 34  1  0  0  0  0
 16 17  1  0  0  0  0
 17 18  2  0  0  0  0
M  CHG  1  16  -1
M  END
> <s_m_source_file>
AV-unprocessed.smi

> <i_m_source_file_index>
3245

> <i_lp_mmshare_version>
43012

> <i_f3d_flags>
0

> <s_epik_input>
bjFbY0hdW2NIXVtjSF1uMVtDSDJdW0NAQEhdKFtDSDNdKVtOSF1bQ0gyXVtDSDJdTjJDKD1PKVtDSDJdW05IXUMyPU8=

> <s_epik_cmdline>
J2VwaWtfcHl0aG9uJywgJy1waCcsICc3LjAnLCAnLXRuJywgJzgnLCAnLW1hJywgJzIwMCcsICctbWV0YWxfYmluZGluZycsICctaW1hZScsICc8aW5maWxlLm1hZT4nLCAnLW9tYWUnLCAnPG91dGZpbGUubWFlPic=

> <r_lp_tautomer_probability>
1

> <r_epik_Ionization_Penalty>
8.62027

> <r_epik_Ionization_Penalty_Charging>
6.28132

> <r_epik_Ionization_Penalty_Neutral>
2.33895

> <r_epik_State_Penalty>
8.57043

> <r_epik_Charging_Adjusted_Penalty>
14.8517

> <i_epik_Tot_Q>
-1

> <i_epik_Tot_abs_Q>
1

> <r_epik_Metal_State_Penalty>
4.56785

> <b_epik_Metal_Only>
1

> <s_lp_Force_Field>
OPLS_2005

> <r_lp_Energy>
21.4513

> <b_lp_Chiralities_Consistent>
1

> <s_lp_Variant>
AV-unprocessed.smi:3245-8

> <Gold.Version>
5.8.1

> <Gold.Id.Protein>
6NUR|6NUR_protein|mol2

> <Gold.PLP.Fitness>
43.3823

> <Gold.PLP.PLP>
-28.6006

> <Gold.PLP.part.hbond>
-3.1011

> <Gold.PLP.part.metal>
0.0000

> <Gold.PLP.part.buried>
-3.1401

> <Gold.PLP.part.nonpolar>
-22.6934

> <Gold.PLP.part.repulsive>
0.0000

> <Gold.PLP.ligand.clash>
0.0000

> <Gold.PLP.ligand.torsion>
0.1710

> <Gold.PLP.Chemscore.Hbond>
4.0000

> <Gold.PLP.Chemscore.CHOScore>
1.0000

> <Gold.PLP.Chemscore.Metal>
0.0000

> <Gold.Chemscore.Hbonds>
donor molecule, donor type, donor heavy atom, donor atom, acceptor molecule, acceptor atom, score
      P1  H  6896  6908       L1    16  2.00
      P1  H  7997  8008       L1    14  1.00
      P1  H 10752 10763       L1    18  0.93
      L1  C     5    25       P1  8028  1.00

> <Gold.PLP.Chemscore.Internal.Correction>
0.1238

> <Gold.Rescore>
     Score         DG    S(hbond)    S(metal)    S(lipo)     H(rot)  DE(clash)    DE(int)     intcor
     16.06     -16.46       2.71        0.00      72.90       2.58       0.20       0.19       ----

> <Gold.Chemscore.Fitness>
16.0612

> <Gold.Chemscore.DG>
-16.4555

> <Gold.Chemscore.ZeroCoef>
-5.4800

> <Gold.Chemscore.Hbond>
2.7107

> <Gold.Chemscore.Metal>
0.0000

> <Gold.Chemscore.Lipo>
72.9008

> <Gold.Chemscore.Internal_Hbond>
0.0000

> <Gold.Chemscore.DEClash>
0.2047

> <Gold.Chemscore.DEInternal>
0.1896

> <Gold.Chemscore.Rot>
2.5811

> <Gold.Chemscore.Internal.Correction>
   9.000000E+99

> <Gold.Chemscore.Hbonds>
donor molecule, donor type, donor heavy atom, donor atom, acceptor molecule, acceptor atom, score
      P1  H  6896  6908       L1    16  0.37
      P1  H  7997  8008       L1    14  0.98
      P1  H 10752 10763       L1    18  0.76

> <Gold.Chemscore.Hbond.Weighted>
-9.0537

> <Gold.Chemscore.Metal.Weighted>
-0.0000

> <Gold.Chemscore.Lipo.Weighted>
-8.5294

> <Gold.Chemscore.Internal_Hbond.Weighted>
0.0000

> <Gold.Chemscore.DEClash.Weighted>
0.2047

> <Gold.Chemscore.DEInternal.Weighted>
0.1896

> <Gold.Chemscore.Rot.Weighted>
6.6076

> <Gold.Chemscore.Internal.Correction.Weighted>
   9.000000E+99

> <Gold.Protein.RotatedTorsions>
[ 6907 6896 6895 6894 ] final  -58.60 input  -60.11 | X-H torsion
[ 7974 7965 7964 7962 ] final   28.34 input  175.53 | X-H torsion
[ 8008 7997 7996 7995 ] final -127.11 input   59.86 | X-H torsion
[ 10167 10162 10161 10158 ] final  101.15 input  -65.29 | X-H torsion
[ 10718 10713 10712 10709 ] final -140.58 input   66.30 | X-H torsion
[ 10763 10752 10751 10750 ] final  120.77 input  -60.55 | X-H torsion
[ 11005 11000 10999 10996 ] final -102.51 input  -57.11 | X-H torsion

> <Gold.Protein.ActiveResidues>
 VAL166  LYS551  ARG553  GLY616  TRP617  ASP618  TYR619  PRO620  LYS621  CYS622 
 ASP623  PHE694  ASN695  SER759  ASP760  ASP761  ALA762  ILE779  LEU786  VAL792 
 PHE793  MET794  SER795  GLU796  ALA797  LYS798  CYS799  TRP800  GLU811  SER814 

> <Gold.Protein.RotatedAtoms>
  150.7995  134.7078  159.6586 H   0  0  0  0  0  0  0  0  0  0  0  0  # atno 6907 bound_to 6896
  152.4110  134.6121  160.0038 H   0  0  0  0  0  0  0  0  0  0  0  0  # atno 6908 bound_to 6896
  151.6363  133.3292  159.3156 H   0  0  0  0  0  0  0  0  0  0  0  0  # atno 6909 bound_to 6896
  146.1734  139.7070  142.8951 H   0  0  0  0  0  0  0  0  0  0  0  0  # atno 7974 bound_to 7965
  155.2408  140.0428  157.2974 H   0  0  0  0  0  0  0  0  0  0  0  0  # atno 8008 bound_to 7997
  154.5829  140.2406  155.7998 H   0  0  0  0  0  0  0  0  0  0  0  0  # atno 8009 bound_to 7997
  156.2206  140.2971  155.9951 H   0  0  0  0  0  0  0  0  0  0  0  0  # atno 8010 bound_to 7997
  139.7463  144.6997  151.0498 H   0  0  0  0  0  0  0  0  0  0  0  0  # atno 10167 bound_to 10162
  156.3240  130.7550  151.1654 H   0  0  0  0  0  0  0  0  0  0  0  0  # atno 10718 bound_to 10713
  153.6036  135.3443  155.2954 H   0  0  0  0  0  0  0  0  0  0  0  0  # atno 10763 bound_to 10752
  154.8631  135.4233  154.2386 H   0  0  0  0  0  0  0  0  0  0  0  0  # atno 10764 bound_to 10752
  153.3220  135.7039  153.7094 H   0  0  0  0  0  0  0  0  0  0  0  0  # atno 10765 bound_to 10752
  141.1186  133.8564  157.1368 H   0  0  0  0  0  0  0  0  0  0  0  0  # atno 11005 bound_to 11000
  145.4277  141.0412  143.2928 LP  0  0  0  0  0  0  0  0  0  0  0  0  # atno 17320 bound_to 7965
  144.8199  139.5811  143.6992 LP  0  0  0  0  0  0  0  0  0  0  0  0  # atno 17321 bound_to 7965
  140.7792  143.4862  150.9952 LP  0  0  0  0  0  0  0  0  0  0  0  0  # atno 17342 bound_to 10162
  139.8550  143.7388  152.3176 LP  0  0  0  0  0  0  0  0  0  0  0  0  # atno 17343 bound_to 10162
  157.7417  131.0499  150.5074 LP  0  0  0  0  0  0  0  0  0  0  0  0  # atno 17370 bound_to 10713
  156.5231  130.4166  149.6240 LP  0  0  0  0  0  0  0  0  0  0  0  0  # atno 17371 bound_to 10713
  140.0126  134.9981  157.0427 LP  0  0  0  0  0  0  0  0  0  0  0  0  # atno 17394 bound_to 11000
  140.4574  134.1520  155.7187 LP  0  0  0  0  0  0  0  0  0  0  0  0  # atno 17395 bound_to 11000

$$$$
