AV-unprocessed.smi:2152|AV-procd|sdf|8762|dock9
  -GOLD-   2272011543D 1   1.00000     0.00000
 Structure written by MMmdl.
 41 42  0  0  0  0  0  0  0  0  1 V2000
  152.2052  139.8129  155.7820 C   0  0  0  0  0  0  0  0  0  0  0  0
  150.6759  139.9253  155.6456 C   0  0  2  0  0  0  0  0  0  0  0  0
  150.1593  138.9771  154.5444 C   0  0  0  0  0  0  0  0  0  0  0  0
  148.6337  139.0604  154.3859 C   0  0  0  0  0  0  0  0  0  0  0  0
  148.1873  140.5011  154.1027 C   0  0  0  0  0  0  0  0  0  0  0  0
  148.6805  141.4556  155.1994 C   0  0  0  0  0  0  0  0  0  0  0  0
  150.2111  141.3782  155.3763 C   0  0  1  0  0  0  0  0  0  0  0  0
  150.6218  142.2538  156.4715 N   0  0  0  0  0  0  0  0  0  0  0  0
  150.4208  142.0174  157.7765 C   0  0  0  0  0  0  0  0  0  0  0  0
  149.8822  140.9959  158.2053 O   0  0  0  0  0  0  0  0  0  0  0  0
  150.9297  143.0956  158.7419 C   0  0  0  0  0  0  0  0  0  0  0  0
  151.8931  142.5733  159.7191 N   0  0  0  0  0  0  0  0  0  0  0  0
  152.8105  141.6131  159.3331 C   0  0  0  0  0  0  0  0  0  0  0  0
  153.7179  141.0698  160.1737 C   0  0  0  0  0  0  0  0  0  0  0  0
  153.7843  141.4797  161.5714 C   0  0  0  0  0  0  0  0  0  0  0  0
  154.5838  140.9971  162.3741 O   0  0  0  0  0  0  0  0  0  0  0  0
  152.8437  142.4731  161.9362 N   0  0  0  0  0  0  0  0  0  0  0  0
  152.8167  142.9367  163.3081 C   0  0  0  0  0  0  0  0  0  0  0  0
  151.8866  143.0255  161.0563 C   0  0  0  0  0  0  0  0  0  0  0  0
  151.0664  143.8676  161.4312 O   0  0  0  0  0  0  0  0  0  0  0  0
  152.7082  140.1536  154.8764 H   0  0  0  0  0  0  0  0  0  0  0  0
  152.5075  138.7807  155.9607 H   0  0  0  0  0  0  0  0  0  0  0  0
  152.5819  140.4077  156.6144 H   0  0  0  0  0  0  0  0  0  0  0  0
  150.2386  139.5996  156.5909 H   0  0  0  0  0  0  0  0  0  0  0  0
  150.6355  139.2226  153.5941 H   0  0  0  0  0  0  0  0  0  0  0  0
  150.4438  137.9495  154.7735 H   0  0  0  0  0  0  0  0  0  0  0  0
  148.3077  138.4049  153.5779 H   0  0  0  0  0  0  0  0  0  0  0  0
  148.1498  138.6976  155.2937 H   0  0  0  0  0  0  0  0  0  0  0  0
  148.5754  140.8226  153.1354 H   0  0  0  0  0  0  0  0  0  0  0  0
  147.1002  140.5466  154.0315 H   0  0  0  0  0  0  0  0  0  0  0  0
  148.3818  142.4757  154.9544 H   0  0  0  0  0  0  0  0  0  0  0  0
  148.1874  141.2079  156.1405 H   0  0  0  0  0  0  0  0  0  0  0  0
  150.6831  141.7132  154.4501 H   0  0  0  0  0  0  0  0  0  0  0  0
  151.0793  143.1164  156.2139 H   0  0  0  0  0  0  0  0  0  0  0  0
  151.3898  143.8893  158.1518 H   0  0  0  0  0  0  0  0  0  0  0  0
  150.0892  143.5623  159.2594 H   0  0  0  0  0  0  0  0  0  0  0  0
  152.7991  141.2723  158.3079 H   0  0  0  0  0  0  0  0  0  0  0  0
  154.4027  140.3190  159.8080 H   0  0  0  0  0  0  0  0  0  0  0  0
  152.7097  144.0229  163.3008 H   0  0  0  0  0  0  0  0  0  0  0  0
  153.7471  142.6879  163.8185 H   0  0  0  0  0  0  0  0  0  0  0  0
  151.9645  142.4540  163.7888 H   0  0  0  0  0  0  0  0  0  0  0  0
  1  2  1  0  0  0  0
  1 21  1  0  0  0  0
  1 22  1  0  0  0  0
  1 23  1  0  0  0  0
  2  7  1  0  0  0  0
  2  3  1  0  0  0  0
  2 24  1  0  0  0  0
  3  4  1  0  0  0  0
  3 25  1  0  0  0  0
  3 26  1  0  0  0  0
  4  5  1  0  0  0  0
  4 27  1  0  0  0  0
  4 28  1  0  0  0  0
  5  6  1  0  0  0  0
  5 29  1  0  0  0  0
  5 30  1  0  0  0  0
  6  7  1  0  0  0  0
  6 31  1  0  0  0  0
  6 32  1  0  0  0  0
  7  8  1  0  0  0  0
  7 33  1  0  0  0  0
  8  9  1  0  0  0  0
  8 34  1  0  0  0  0
  9 10  2  0  0  0  0
  9 11  1  0  0  0  0
 11 12  1  0  0  0  0
 11 35  1  0  0  0  0
 11 36  1  0  0  0  0
 12 19  1  0  0  0  0
 12 13  1  0  0  0  0
 13 14  2  0  0  0  0
 13 37  1  0  0  0  0
 14 15  1  0  0  0  0
 14 38  1  0  0  0  0
 15 16  2  0  0  0  0
 15 17  1  0  0  0  0
 17 18  1  0  0  0  0
 17 19  1  0  0  0  0
 18 39  1  0  0  0  0
 18 40  1  0  0  0  0
 18 41  1  0  0  0  0
 19 20  2  0  0  0  0
M  END
> <s_m_source_file>
AV-unprocessed.smi

> <i_m_source_file_index>
2152

> <i_lp_mmshare_version>
43012

> <i_f3d_flags>
0

> <s_epik_input>
W0NIM11bQ0BASF0xW0NIMl1bQ0gyXVtDSDJdW0NIMl1bQ0BIXTFbTkhdQyg9TylbQ0gyXW4yW2NIXVtjSF1jKD1PKW4oW0NIM10pYzI9Tw==

> <s_epik_cmdline>
J2VwaWtfcHl0aG9uJywgJy1waCcsICc3LjAnLCAnLXRuJywgJzgnLCAnLW1hJywgJzIwMCcsICctbWV0YWxfYmluZGluZycsICctaW1hZScsICc8aW5maWxlLm1hZT4nLCAnLW9tYWUnLCAnPG91dGZpbGUubWFlPic=

> <r_lp_tautomer_probability>
1

> <r_epik_Ionization_Penalty>
3.20555e-08

> <r_epik_Ionization_Penalty_Charging>
1.30086e-08

> <r_epik_Ionization_Penalty_Neutral>
1.90469e-08

> <r_epik_State_Penalty>
-0

> <r_epik_Charging_Adjusted_Penalty>
1.30086e-08

> <i_epik_Tot_Q>
0

> <i_epik_Tot_abs_Q>
0

> <r_epik_Metal_State_Penalty>
-0

> <b_epik_Metal_Only>
0

> <s_lp_Force_Field>
OPLS_2005

> <r_lp_Energy>
17.5308

> <b_lp_Chiralities_Consistent>
1

> <s_lp_Variant>
AV-unprocessed.smi:2152-1

> <Gold.Version>
5.8.1

> <Gold.Id.Protein>
6NUR|6NUR_protein|mol2

> <Gold.PLP.Fitness>
46.0794

> <Gold.PLP.PLP>
-46.9672

> <Gold.PLP.part.hbond>
-2.3772

> <Gold.PLP.part.metal>
0.0000

> <Gold.PLP.part.buried>
-3.3956

> <Gold.PLP.part.nonpolar>
-40.6600

> <Gold.PLP.part.repulsive>
0.2885

> <Gold.PLP.ligand.clash>
0.0000

> <Gold.PLP.ligand.torsion>
0.4479

> <Gold.PLP.Chemscore.Hbond>
0.0000

> <Gold.PLP.Chemscore.CHOScore>
0.0000

> <Gold.PLP.Chemscore.Metal>
0.0000

> <Gold.PLP.Chemscore.Internal.Correction>
0.0079

> <Gold.Rescore>
     Score         DG    S(hbond)    S(metal)    S(lipo)     H(rot)  DE(clash)    DE(int)     intcor
      9.78     -11.41       0.00        0.00      83.99       1.52       0.10       1.53       ----

> <Gold.Chemscore.Fitness>
9.7796

> <Gold.Chemscore.DG>
-11.4050

> <Gold.Chemscore.ZeroCoef>
-5.4800

> <Gold.Chemscore.Hbond>
0.0000

> <Gold.Chemscore.Metal>
0.0000

> <Gold.Chemscore.Lipo>
83.9905

> <Gold.Chemscore.Internal_Hbond>
0.0000

> <Gold.Chemscore.DEClash>
0.0960

> <Gold.Chemscore.DEInternal>
1.5294

> <Gold.Chemscore.Rot>
1.5242

> <Gold.Chemscore.Internal.Correction>
   9.000000E+99

> <Gold.Chemscore.Hbond.Weighted>
-0.0000

> <Gold.Chemscore.Metal.Weighted>
-0.0000

> <Gold.Chemscore.Lipo.Weighted>
-9.8269

> <Gold.Chemscore.Internal_Hbond.Weighted>
0.0000

> <Gold.Chemscore.DEClash.Weighted>
0.0960

> <Gold.Chemscore.DEInternal.Weighted>
1.5294

> <Gold.Chemscore.Rot.Weighted>
3.9019

> <Gold.Chemscore.Internal.Correction.Weighted>
   9.000000E+99

> <Gold.Protein.RotatedTorsions>
[ 6907 6896 6895 6894 ] final -130.60 input  -60.11 | X-H torsion
[ 7974 7965 7964 7962 ] final    6.31 input  175.53 | X-H torsion
[ 8008 7997 7996 7995 ] final  101.16 input   59.86 | X-H torsion
[ 10167 10162 10161 10158 ] final -130.81 input  -65.29 | X-H torsion
[ 10718 10713 10712 10709 ] final -169.76 input   66.30 | X-H torsion
[ 10763 10752 10751 10750 ] final  -77.66 input  -60.55 | X-H torsion
[ 11005 11000 10999 10996 ] final -179.10 input  -57.11 | X-H torsion

> <Gold.Protein.ActiveResidues>
 VAL166  LYS551  ARG553  GLY616  TRP617  ASP618  TYR619  PRO620  LYS621  CYS622 
 ASP623  PHE694  ASN695  SER759  ASP760  ASP761  ALA762  ILE779  LEU786  VAL792 
 PHE793  MET794  SER795  GLU796  ALA797  LYS798  CYS799  TRP800  GLU811  SER814 

> <Gold.Protein.RotatedAtoms>
  150.9415  133.6651  159.2789 H   0  0  0  0  0  0  0  0  0  0  0  0  # atno 6907 bound_to 6896
  151.4039  135.0974  159.9574 H   0  0  0  0  0  0  0  0  0  0  0  0  # atno 6908 bound_to 6896
  152.5071  133.8903  159.7445 H   0  0  0  0  0  0  0  0  0  0  0  0  # atno 6909 bound_to 6896
  146.2435  140.0253  142.8394 H   0  0  0  0  0  0  0  0  0  0  0  0  # atno 7974 bound_to 7965
  156.1272  140.3202  155.8295 H   0  0  0  0  0  0  0  0  0  0  0  0  # atno 8008 bound_to 7997
  155.4397  140.0524  157.3028 H   0  0  0  0  0  0  0  0  0  0  0  0  # atno 8009 bound_to 7997
  154.4872  140.2077  155.9643 H   0  0  0  0  0  0  0  0  0  0  0  0  # atno 8010 bound_to 7997
  139.9254  143.6333  152.2543 H   0  0  0  0  0  0  0  0  0  0  0  0  # atno 10167 bound_to 10162
  156.7163  130.9253  151.3093 H   0  0  0  0  0  0  0  0  0  0  0  0  # atno 10718 bound_to 10713
  154.5158  135.5756  153.6641 H   0  0  0  0  0  0  0  0  0  0  0  0  # atno 10763 bound_to 10752
  152.9906  135.6169  154.2819 H   0  0  0  0  0  0  0  0  0  0  0  0  # atno 10764 bound_to 10752
  154.2737  135.2852  155.2707 H   0  0  0  0  0  0  0  0  0  0  0  0  # atno 10765 bound_to 10752
  140.4223  134.6594  157.4670 H   0  0  0  0  0  0  0  0  0  0  0  0  # atno 11005 bound_to 11000
  145.1204  140.9459  143.4604 LP  0  0  0  0  0  0  0  0  0  0  0  0  # atno 17320 bound_to 7965
  145.0487  139.3199  143.5939 LP  0  0  0  0  0  0  0  0  0  0  0  0  # atno 17321 bound_to 7965
  139.6826  144.7654  151.1581 LP  0  0  0  0  0  0  0  0  0  0  0  0  # atno 17342 bound_to 10162
  140.7651  143.5703  150.9003 LP  0  0  0  0  0  0  0  0  0  0  0  0  # atno 17343 bound_to 10162
  157.6916  130.9239  150.0529 LP  0  0  0  0  0  0  0  0  0  0  0  0  # atno 17370 bound_to 10713
  156.1626  130.3644  149.9278 LP  0  0  0  0  0  0  0  0  0  0  0  0  # atno 17371 bound_to 10713
  140.0191  134.6574  155.9266 LP  0  0  0  0  0  0  0  0  0  0  0  0  # atno 17394 bound_to 11000
  141.1779  133.6542  156.4901 LP  0  0  0  0  0  0  0  0  0  0  0  0  # atno 17395 bound_to 11000

$$$$
