#       Name:                AV-unprocessed.smi:2523
#       Creating user name   scv26
#       Creation time:       Fri Mar 27 13:55:50 2020


#       File generated by GOLD software.
#

@<TRIPOS>MOLECULE
AV-unprocessed.smi:2523
    40    42     1
SMALL
NO_CHARGES


@<TRIPOS>ATOM
      1 ****        -3.8618   1.4475  -2.6504 C.3            1 S1                 0.0000
      2 ****        -3.1016   1.8828  -1.4811 N.am           1 S1                 0.0000
      3 ****        -3.3847   3.1837  -1.0488 N.2            1 S1                 0.0000
      4 ****        -2.7815   3.6991  -0.0237 C.2            1 S1                 0.0000
      5 ****        -1.7912   2.8864   0.6757 C.2            1 S1                 0.0000
      6 ****        -0.9391   3.0798   1.7975 C.2            1 S1                 0.0000
      7 ****        -0.1922   2.0062   2.0482 N.2            1 S1                 0.0000
      8 ****        -0.5345   1.0899   1.1061 N.pl3          1 S1                 0.0000
      9 ****         0.1186  -0.2102   1.0995 C.3            1 S1                 0.0000
     10 ****         1.4693  -0.1940   0.3548 C.3            1 S1                 0.0000
     11 ****         1.2909   0.2521  -0.9760 O.3            1 S1                 0.0000
     12 ****         2.1477  -1.5534   0.4098 C.ar           1 S1                 0.0000
     13 ****         3.2812  -1.7476   1.2280 C.ar           1 S1                 0.0000
     14 ****         3.9084  -3.0075   1.2833 C.ar           1 S1                 0.0000
     15 ****         3.4043  -4.0805   0.5237 C.ar           1 S1                 0.0000
     16 ****         2.2718  -3.8937  -0.2924 C.ar           1 S1                 0.0000
     17 ****         1.6510  -5.2083  -1.2214 Cl             1 S1                 0.0000
     18 ****         1.6455  -2.6332  -0.3495 C.ar           1 S1                 0.0000
     19 ****        -1.5015   1.6233   0.2767 C.2            1 S1                 0.0000
     20 ****        -2.1960   1.0412  -0.8972 C.2            1 S1                 0.0000
     21 ****        -1.9617  -0.1004  -1.2936 O.2            1 S1                 0.0000
     22 ****        -4.4520   0.5604  -2.4165 H              1 S1                 0.0000
     23 ****        -3.1906   1.2039  -3.4752 H              1 S1                 0.0000
     24 ****        -4.5501   2.2182  -3.0011 H              1 S1                 0.0000
     25 ****        -3.0033   4.7122   0.3115 H              1 S1                 0.0000
     26 ****        -0.8364   3.9505   2.4281 H              1 S1                 0.0000
     27 ****         0.2718  -0.5198   2.1345 H              1 S1                 0.0000
     28 ****        -0.5571  -0.9462   0.6653 H              1 S1                 0.0000
     29 ****         2.1209   0.5345   0.8393 H              1 S1                 0.0000
     30 ****         2.1416   0.3495  -1.3755 H              1 S1                 0.0000
     31 ****         3.6745  -0.9317   1.8167 H              1 S1                 0.0000
     32 ****         4.7764  -3.1514   1.9095 H              1 S1                 0.0000
     33 ****         3.8862  -5.0461   0.5690 H              1 S1                 0.0000
     34 ****         0.7758  -2.4956  -0.9756 H              1 S1                 0.0000
     35 ****        -4.0658   3.7262  -1.5405 LP             1 S1                 0.0000
     36 ****         0.4815   1.8972   2.7791 LP             1 S1                 0.0000
     37 ****         0.8153   1.1317  -0.9761 LP             1 S1                 0.0000
     38 ****         0.7527  -0.4180  -1.4872 LP             1 S1                 0.0000
     39 ****        -2.4473  -0.4631  -2.0890 LP             1 S1                 0.0000
     40 ****        -1.2858  -0.6652  -0.8202 LP             1 S1                 0.0000
@<TRIPOS>BOND
    1    1    2 1     
    2    1   22 1     
    3    1   23 1     
    4    1   24 1     
    5    2   20 am    
    6    2    3 1     
    7    3    4 2     
    8    4    5 1     
    9    4   25 1     
   10    5   19 2     
   11    5    6 1     
   12    6    7 2     
   13    6   26 1     
   14    7    8 1     
   15    8    9 1     
   16    8   19 1     
   17    9   10 1     
   18    9   27 1     
   19    9   28 1     
   20   10   11 1     
   21   10   12 1     
   22   10   29 1     
   23   11   30 1     
   24   12   18 ar    
   25   12   13 ar    
   26   13   14 ar    
   27   13   31 1     
   28   14   15 ar    
   29   14   32 1     
   30   15   16 ar    
   31   15   33 1     
   32   16   17 1     
   33   16   18 ar    
   34   18   34 1     
   35   19   20 1     
   36   20   21 2     
   37    3   35 1     
   38    7   36 1     
   39   11   37 1     
   40   11   38 1     
   41   21   39 1     
   42   21   40 1     
@<TRIPOS>SUBSTRUCTURE
      1 S1             1
@<TRIPOS>SET
LONE_PAIRS      STATIC     ATOMS    <user>   **** ""
6 35 36 37 38 39 40
DONOR_HYDROGENS      STATIC     ATOMS    <user>   **** ""
1 30
ATOM$BLUE        STATIC     ATOMS    COLORGROUP SYSTEM
6 35 36 37 38 39 40
ATOM$RED        STATIC     ATOMS    COLORGROUP SYSTEM
1 30
