AV-unprocessed.smi:696|AV-procd|sdf|3387|dock1
  -GOLD-   22720 0363D 1   1.00000     0.00000
 Structure written by MMmdl.
 37 38  0  0  0  0  0  0  0  0  2 V2000
  148.8993  141.8556  157.5412 O   0  0  0  0  0  0  0  0  0  0  0  0
  149.9808  142.1086  157.0090 C   0  0  0  0  0  0  0  0  0  0  0  0
  150.2205  141.9141  155.7028 N   0  0  0  0  0  0  0  0  0  0  0  0
  149.2557  141.3938  154.7408 C   0  0  0  0  0  0  0  0  0  0  0  0
  149.2712  139.8514  154.7043 C   0  0  0  0  0  0  0  0  0  0  0  0
  150.5357  139.2032  155.2516 C   0  0  0  0  0  0  0  0  0  0  0  0
  151.7313  139.6665  155.2320 N   0  0  0  0  0  0  0  0  0  0  0  0
  152.5285  138.6656  155.8771 N   0  5  0  0  0  0  0  0  0  0  0  0
  151.6914  137.6613  156.2336 C   0  0  0  0  0  0  0  0  0  0  0  0
  151.9548  136.6089  156.8113 O   0  0  0  0  0  0  0  0  0  0  0  0
  150.4581  137.9783  155.8542 N   0  0  0  0  0  0  0  0  0  0  0  0
  151.1391  142.6738  157.8449 C   0  0  0  0  0  0  0  0  0  0  0  0
  151.4388  141.7387  159.0400 C   0  0  0  0  0  0  0  0  0  0  0  0
  152.8235  141.9843  159.6635 C   0  0  0  0  0  0  0  0  0  0  0  0
  152.8755  143.0683  160.7553 C   0  0  0  0  0  0  0  0  0  0  0  0
  152.0029  144.3165  160.5320 C   0  0  0  0  0  0  0  0  0  0  0  0
  151.9281  144.8197  159.0814 C   0  0  0  0  0  0  0  0  0  0  0  0
  150.8245  144.1258  158.2631 C   0  0  0  0  0  0  0  0  0  0  0  0
  149.6207  137.4302  155.9822 H   0  0  0  0  0  0  0  0  0  0  0  0
  151.1364  142.1484  155.3482 H   0  0  0  0  0  0  0  0  0  0  0  0
  148.2690  141.7526  155.0362 H   0  0  0  0  0  0  0  0  0  0  0  0
  149.4580  141.8099  153.7520 H   0  0  0  0  0  0  0  0  0  0  0  0
  148.4212  139.4591  155.2637 H   0  0  0  0  0  0  0  0  0  0  0  0
  149.1404  139.5163  153.6747 H   0  0  0  0  0  0  0  0  0  0  0  0
  152.0209  142.6948  157.2018 H   0  0  0  0  0  0  0  0  0  0  0  0
  150.6582  141.8053  159.7992 H   0  0  0  0  0  0  0  0  0  0  0  0
  151.4196  140.7056  158.6881 H   0  0  0  0  0  0  0  0  0  0  0  0
  153.1831  141.0532  160.1027 H   0  0  0  0  0  0  0  0  0  0  0  0
  153.5409  142.2221  158.8773 H   0  0  0  0  0  0  0  0  0  0  0  0
  152.5920  142.6256  161.7107 H   0  0  0  0  0  0  0  0  0  0  0  0
  153.9146  143.3767  160.8757 H   0  0  0  0  0  0  0  0  0  0  0  0
  150.9944  144.1283  160.9021 H   0  0  0  0  0  0  0  0  0  0  0  0
  152.3938  145.1146  161.1640 H   0  0  0  0  0  0  0  0  0  0  0  0
  151.6954  145.8848  159.1095 H   0  0  0  0  0  0  0  0  0  0  0  0
  152.8970  144.7404  158.5869 H   0  0  0  0  0  0  0  0  0  0  0  0
  150.6554  144.7152  157.3604 H   0  0  0  0  0  0  0  0  0  0  0  0
  149.8853  144.1663  158.8173 H   0  0  0  0  0  0  0  0  0  0  0  0
  1  2  2  0  0  0  0
  2  3  1  0  0  0  0
  2 12  1  0  0  0  0
  3  4  1  0  0  0  0
  3 20  1  0  0  0  0
  4  5  1  0  0  0  0
  4 21  1  0  0  0  0
  4 22  1  0  0  0  0
  5  6  1  0  0  0  0
  5 23  1  0  0  0  0
  5 24  1  0  0  0  0
  6 11  1  0  0  0  0
  6  7  2  0  0  0  0
  7  8  1  0  0  0  0
  8  9  1  0  0  0  0
  9 10  2  0  0  0  0
  9 11  1  0  0  0  0
 11 19  1  0  0  0  0
 12 18  1  0  0  0  0
 12 13  1  0  0  0  0
 12 25  1  0  0  0  0
 13 14  1  0  0  0  0
 13 26  1  0  0  0  0
 13 27  1  0  0  0  0
 14 15  1  0  0  0  0
 14 28  1  0  0  0  0
 14 29  1  0  0  0  0
 15 16  1  0  0  0  0
 15 30  1  0  0  0  0
 15 31  1  0  0  0  0
 16 17  1  0  0  0  0
 16 32  1  0  0  0  0
 16 33  1  0  0  0  0
 17 18  1  0  0  0  0
 17 34  1  0  0  0  0
 17 35  1  0  0  0  0
 18 36  1  0  0  0  0
 18 37  1  0  0  0  0
M  CHG  1   8  -1
M  END
> <s_m_source_file>
AV-unprocessed.smi

> <i_m_source_file_index>
696

> <i_lp_mmshare_version>
43012

> <i_f3d_flags>
0

> <s_epik_input>
W0NIMl0xW0NIMl1bQ0gyXVtDSDJdW0NIMl1bQ0gyXVtDSF0xQyg9TylbTkhdW0NIMl1bQ0gyXWMybltuSF1jKD1PKVtuSF0y

> <s_epik_cmdline>
J2VwaWtfcHl0aG9uJywgJy1waCcsICc3LjAnLCAnLXRuJywgJzgnLCAnLW1hJywgJzIwMCcsICctbWV0YWxfYmluZGluZycsICctaW1hZScsICc8aW5maWxlLm1hZT4nLCAnLW9tYWUnLCAnPG91dGZpbGUubWFlPic=

> <r_lp_tautomer_probability>
1

> <r_epik_Ionization_Penalty>
14.1589

> <r_epik_Ionization_Penalty_Charging>
13.7723

> <r_epik_Ionization_Penalty_Neutral>
0.386566

> <r_epik_State_Penalty>
4.88838

> <r_epik_Charging_Adjusted_Penalty>
18.6607

> <i_epik_Tot_Q>
-1

> <i_epik_Tot_abs_Q>
1

> <r_epik_Metal_State_Penalty>
1.30742

> <b_epik_Metal_Only>
1

> <s_lp_Force_Field>
OPLS_2005

> <r_lp_Energy>
24.8818

> <b_lp_Chiralities_Consistent>
1

> <s_lp_Variant>
AV-unprocessed.smi:696-2

> <Gold.Version>
5.8.1

> <Gold.Id.Protein>
6NUR|6NUR_protein|mol2

> <Gold.PLP.Fitness>
48.6198

> <Gold.PLP.PLP>
-39.1961

> <Gold.PLP.part.hbond>
-3.9803

> <Gold.PLP.part.metal>
0.0000

> <Gold.PLP.part.buried>
-5.3910

> <Gold.PLP.part.nonpolar>
-31.6021

> <Gold.PLP.part.repulsive>
0.3662

> <Gold.PLP.ligand.clash>
0.0000

> <Gold.PLP.ligand.torsion>
0.9554

> <Gold.PLP.Chemscore.Hbond>
3.7609

> <Gold.PLP.Chemscore.CHOScore>
0.0000

> <Gold.PLP.Chemscore.Metal>
0.0000

> <Gold.Chemscore.Hbonds>
donor molecule, donor type, donor heavy atom, donor atom, acceptor molecule, acceptor atom, score
      P1  H  7989  7998       L1     7  0.81
      P1  H  7997  8008       L1     8  0.05
      P1  H 10752 10763       L1    10  0.08

> <Gold.PLP.Chemscore.Internal.Correction>
0.0518

> <Gold.Rescore>
     Score         DG    S(hbond)    S(metal)    S(lipo)     H(rot)  DE(clash)    DE(int)     intcor
     15.69     -18.20       2.46        0.00      87.73       2.25       0.02       2.49       ----

> <Gold.Chemscore.Fitness>
15.6884

> <Gold.Chemscore.DG>
-18.2016

> <Gold.Chemscore.ZeroCoef>
-5.4800

> <Gold.Chemscore.Hbond>
2.4602

> <Gold.Chemscore.Metal>
0.0000

> <Gold.Chemscore.Lipo>
87.7332

> <Gold.Chemscore.Internal_Hbond>
0.0000

> <Gold.Chemscore.DEClash>
0.0215

> <Gold.Chemscore.DEInternal>
2.4918

> <Gold.Chemscore.Rot>
2.2501

> <Gold.Chemscore.Internal.Correction>
   9.000000E+99

> <Gold.Chemscore.Hbonds>
donor molecule, donor type, donor heavy atom, donor atom, acceptor molecule, acceptor atom, score
      P1  H  7989  7998       L1     7  0.23
      P1  H 10752 10763       L1    10  0.04

> <Gold.Chemscore.Hbond.Weighted>
-8.2171

> <Gold.Chemscore.Metal.Weighted>
-0.0000

> <Gold.Chemscore.Lipo.Weighted>
-10.2648

> <Gold.Chemscore.Internal_Hbond.Weighted>
0.0000

> <Gold.Chemscore.DEClash.Weighted>
0.0215

> <Gold.Chemscore.DEInternal.Weighted>
2.4918

> <Gold.Chemscore.Rot.Weighted>
5.7603

> <Gold.Chemscore.Internal.Correction.Weighted>
   9.000000E+99

> <Gold.Protein.RotatedTorsions>
[ 6907 6896 6895 6894 ] final  147.28 input  -60.11 | X-H torsion
[ 7974 7965 7964 7962 ] final   65.89 input  175.53 | X-H torsion
[ 8008 7997 7996 7995 ] final  -21.77 input   59.86 | X-H torsion
[ 10167 10162 10161 10158 ] final -113.88 input  -65.29 | X-H torsion
[ 10718 10713 10712 10709 ] final -142.54 input   66.30 | X-H torsion
[ 10763 10752 10751 10750 ] final   97.23 input  -60.55 | X-H torsion
[ 11005 11000 10999 10996 ] final  -47.51 input  -57.11 | X-H torsion

> <Gold.Protein.ActiveResidues>
 VAL166  LYS551  ARG553  GLY616  TRP617  ASP618  TYR619  PRO620  LYS621  CYS622 
 ASP623  PHE694  ASN695  SER759  ASP760  ASP761  ALA762  ILE779  LEU786  VAL792 
 PHE793  MET794  SER795  GLU796  ALA797  LYS798  CYS799  TRP800  GLU811  SER814 

> <Gold.Protein.RotatedAtoms>
  152.1569  133.4557  159.4841 H   0  0  0  0  0  0  0  0  0  0  0  0  # atno 6907 bound_to 6896
  150.6902  134.2120  159.4372 H   0  0  0  0  0  0  0  0  0  0  0  0  # atno 6908 bound_to 6896
  152.0020  134.9923  160.0616 H   0  0  0  0  0  0  0  0  0  0  0  0  # atno 6909 bound_to 6896
  145.8331  139.3151  143.0975 H   0  0  0  0  0  0  0  0  0  0  0  0  # atno 7974 bound_to 7965
  154.4685  140.2026  156.0055 H   0  0  0  0  0  0  0  0  0  0  0  0  # atno 8008 bound_to 7997
  156.0970  140.3249  155.7861 H   0  0  0  0  0  0  0  0  0  0  0  0  # atno 8009 bound_to 7997
  155.4862  140.0542  157.2951 H   0  0  0  0  0  0  0  0  0  0  0  0  # atno 8010 bound_to 7997
  140.1071  143.4561  152.1776 H   0  0  0  0  0  0  0  0  0  0  0  0  # atno 10167 bound_to 10162
  156.3472  130.7668  151.1815 H   0  0  0  0  0  0  0  0  0  0  0  0  # atno 10718 bound_to 10713
  153.2744  135.4190  155.1019 H   0  0  0  0  0  0  0  0  0  0  0  0  # atno 10763 bound_to 10752
  154.8467  135.3480  154.6199 H   0  0  0  0  0  0  0  0  0  0  0  0  # atno 10764 bound_to 10752
  153.6619  135.7048  153.5232 H   0  0  0  0  0  0  0  0  0  0  0  0  # atno 10765 bound_to 10752
  141.0645  133.6698  156.3307 H   0  0  0  0  0  0  0  0  0  0  0  0  # atno 11005 bound_to 11000
  145.9548  140.8881  143.0240 LP  0  0  0  0  0  0  0  0  0  0  0  0  # atno 17320 bound_to 7965
  144.6738  140.1730  143.7412 LP  0  0  0  0  0  0  0  0  0  0  0  0  # atno 17321 bound_to 7965
  139.5639  144.7423  151.4076 LP  0  0  0  0  0  0  0  0  0  0  0  0  # atno 17342 bound_to 10162
  140.6946  143.7779  150.7307 LP  0  0  0  0  0  0  0  0  0  0  0  0  # atno 17343 bound_to 10162
  157.7456  131.0438  150.4761 LP  0  0  0  0  0  0  0  0  0  0  0  0  # atno 17370 bound_to 10713
  156.4950  130.4104  149.6385 LP  0  0  0  0  0  0  0  0  0  0  0  0  # atno 17371 bound_to 10713
  140.5802  134.5753  157.5478 LP  0  0  0  0  0  0  0  0  0  0  0  0  # atno 17394 bound_to 11000
  139.9463  134.7696  156.0554 LP  0  0  0  0  0  0  0  0  0  0  0  0  # atno 17395 bound_to 11000

$$$$
