AV-unprocessed.smi:156|AV-procd|sdf|1287|dock5
  -GOLD-   2262018563D 1   1.00000     0.00000
 Structure written by MMmdl.
 51 53  0  0  0  0  0  0  0  0  1 V2000
  150.5438  137.5112  154.6726 C   0  0  0  0  0  0  0  0  0  0  0  0
  150.3983  136.5344  155.8607 C   0  0  2  0  0  0  0  0  0  0  0  0
  151.0435  137.0075  157.2009 C   0  0  2  0  0  0  0  0  0  0  0  0
  150.1855  138.1005  157.8690 C   0  0  0  0  0  0  0  0  0  0  0  0
  152.7801  137.6296  156.9498 S   0  0  0  0  0  0  0  0  0  0  0  0
  153.3395  138.0523  158.6532 C   0  0  0  0  0  0  0  0  0  0  0  0
  153.6149  136.5131  156.4806 O   0  0  0  0  0  0  0  0  0  0  0  0
  152.7243  138.8731  156.1661 O   0  0  0  0  0  0  0  0  0  0  0  0
  150.7832  135.1632  155.4869 N   0  0  0  0  0  0  0  0  0  0  0  0
  151.7694  134.4769  156.3153 C   0  0  0  0  0  0  0  0  0  0  0  0
  149.9379  134.3299  154.8224 C   0  0  0  0  0  0  0  0  0  0  0  0
  150.3585  133.0993  154.4285 N   0  0  0  0  0  0  0  0  0  0  0  0
  149.5366  132.2801  153.7672 C   0  0  0  0  0  0  0  0  0  0  0  0
  148.2722  132.4882  153.3981 N   0  0  0  0  0  0  0  0  0  0  0  0
  147.8406  133.7222  153.7851 C   0  0  0  0  0  0  0  0  0  0  0  0
  148.6006  134.6954  154.4947 C   0  0  0  0  0  0  0  0  0  0  0  0
  147.8209  135.8217  154.7278 N   0  0  0  0  0  0  0  0  0  0  0  0
  146.6706  135.5339  154.1835 C   0  0  0  0  0  0  0  0  0  0  0  0
  146.5973  134.2978  153.5818 N   0  0  0  0  0  0  0  0  0  0  0  0
  145.4428  133.7204  152.9074 C   0  0  0  0  0  0  0  0  0  0  0  0
  145.2453  134.2054  151.4548 C   0  0  0  0  0  0  0  0  0  0  0  0
  145.1042  135.7363  151.4094 C   0  0  0  0  0  0  0  0  0  0  0  0
  144.9625  136.1960  150.0810 O   0  0  0  0  0  0  0  0  0  0  0  0
  146.2246  133.6055  150.4366 C   0  0  0  0  0  0  0  0  0  0  0  0
  145.2140  132.7497  149.8640 O   0  0  0  0  0  0  0  0  0  0  0  0
  144.2023  133.4312  150.6343 C   0  0  0  0  0  0  0  0  0  0  0  0
  149.9697  138.4227  154.8337 H   0  0  0  0  0  0  0  0  0  0  0  0
  150.1669  137.0734  153.7483 H   0  0  0  0  0  0  0  0  0  0  0  0
  151.5807  137.7991  154.5013 H   0  0  0  0  0  0  0  0  0  0  0  0
  149.3267  136.4799  156.0578 H   0  0  0  0  0  0  0  0  0  0  0  0
  151.1332  136.1710  157.8919 H   0  0  0  0  0  0  0  0  0  0  0  0
  149.1555  137.7742  158.0114 H   0  0  0  0  0  0  0  0  0  0  0  0
  150.1627  139.0085  157.2661 H   0  0  0  0  0  0  0  0  0  0  0  0
  150.5598  138.3608  158.8577 H   0  0  0  0  0  0  0  0  0  0  0  0
  154.4060  138.2758  158.6331 H   0  0  0  0  0  0  0  0  0  0  0  0
  153.1626  137.2073  159.3185 H   0  0  0  0  0  0  0  0  0  0  0  0
  152.8053  138.9292  159.0168 H   0  0  0  0  0  0  0  0  0  0  0  0
  151.3536  133.5698  156.7561 H   0  0  0  0  0  0  0  0  0  0  0  0
  152.1126  135.1139  157.1309 H   0  0  0  0  0  0  0  0  0  0  0  0
  152.6413  134.2045  155.7211 H   0  0  0  0  0  0  0  0  0  0  0  0
  149.9525  131.3216  153.4937 H   0  0  0  0  0  0  0  0  0  0  0  0
  145.8387  136.2218  154.2133 H   0  0  0  0  0  0  0  0  0  0  0  0
  145.5338  132.6343  152.9399 H   0  0  0  0  0  0  0  0  0  0  0  0
  144.5619  133.9534  153.5069 H   0  0  0  0  0  0  0  0  0  0  0  0
  144.2233  136.0587  151.9655 H   0  0  0  0  0  0  0  0  0  0  0  0
  145.9534  136.2362  151.8751 H   0  0  0  0  0  0  0  0  0  0  0  0
  144.5455  137.0440  150.0985 H   0  0  0  0  0  0  0  0  0  0  0  0
  146.6052  134.3249  149.7099 H   0  0  0  0  0  0  0  0  0  0  0  0
  147.0419  133.0416  150.8875 H   0  0  0  0  0  0  0  0  0  0  0  0
  143.5938  132.7368  151.2119 H   0  0  0  0  0  0  0  0  0  0  0  0
  143.5732  134.0632  150.0057 H   0  0  0  0  0  0  0  0  0  0  0  0
  1  2  1  0  0  0  0
  1 27  1  0  0  0  0
  1 28  1  0  0  0  0
  1 29  1  0  0  0  0
  2  3  1  0  0  0  0
  2  9  1  0  0  0  0
  2 30  1  0  0  0  0
  3  4  1  0  0  0  0
  3  5  1  0  0  0  0
  3 31  1  0  0  0  0
  4 32  1  0  0  0  0
  4 33  1  0  0  0  0
  4 34  1  0  0  0  0
  5  6  1  0  0  0  0
  5  7  2  0  0  0  0
  5  8  2  0  0  0  0
  6 35  1  0  0  0  0
  6 36  1  0  0  0  0
  6 37  1  0  0  0  0
  9 10  1  0  0  0  0
  9 11  1  0  0  0  0
 10 38  1  0  0  0  0
 10 39  1  0  0  0  0
 10 40  1  0  0  0  0
 11 16  1  0  0  0  0
 11 12  2  0  0  0  0
 12 13  1  0  0  0  0
 13 14  2  0  0  0  0
 13 41  1  0  0  0  0
 14 15  1  0  0  0  0
 15 19  1  0  0  0  0
 15 16  2  0  0  0  0
 16 17  1  0  0  0  0
 17 18  2  0  0  0  0
 18 19  1  0  0  0  0
 18 42  1  0  0  0  0
 19 20  1  0  0  0  0
 20 21  1  0  0  0  0
 20 43  1  0  0  0  0
 20 44  1  0  0  0  0
 21 26  1  0  0  0  0
 21 22  1  0  0  0  0
 21 24  1  0  0  0  0
 22 23  1  0  0  0  0
 22 45  1  0  0  0  0
 22 46  1  0  0  0  0
 23 47  1  0  0  0  0
 24 25  1  0  0  0  0
 24 48  1  0  0  0  0
 24 49  1  0  0  0  0
 25 26  1  0  0  0  0
 26 50  1  0  0  0  0
 26 51  1  0  0  0  0
M  END
> <s_m_source_file>
AV-unprocessed.smi

> <i_m_source_file_index>
156

> <i_lp_mmshare_version>
43012

> <i_f3d_flags>
0

> <s_epik_input>
W0NIM11TKD1PKSg9TylbQ0BASF0oW0NIM10pW0NAQEhdKFtDSDNdKU4oW0NIM10pYyhuW2NIXW4xKWMoYzEyKW5bY0hdbjJbQ0gyXUMzKFtDSDJdW09IXSlbQ0gyXU9bQ0gyXTM=

> <s_epik_cmdline>
J2VwaWtfcHl0aG9uJywgJy1waCcsICc3LjAnLCAnLXRuJywgJzgnLCAnLW1hJywgJzIwMCcsICctbWV0YWxfYmluZGluZycsICctaW1hZScsICc8aW5maWxlLm1hZT4nLCAnLW9tYWUnLCAnPG91dGZpbGUubWFlPic=

> <r_lp_tautomer_probability>
1

> <r_epik_Ionization_Penalty>
0.00107697

> <r_epik_Ionization_Penalty_Charging>
0

> <r_epik_Ionization_Penalty_Neutral>
0.00107697

> <r_epik_State_Penalty>
0.000614712

> <r_epik_Charging_Adjusted_Penalty>
0.000614712

> <i_epik_Tot_Q>
0

> <i_epik_Tot_abs_Q>
0

> <r_epik_Metal_State_Penalty>
-0

> <b_epik_Metal_Only>
0

> <s_lp_Force_Field>
OPLS_2005

> <r_lp_Energy>
28.4574

> <b_lp_Chiralities_Consistent>
1

> <s_lp_Variant>
AV-unprocessed.smi:156-1

> <Gold.Version>
5.8.1

> <Gold.Id.Protein>
6NUR|6NUR_protein|mol2

> <Gold.PLP.Fitness>
41.1187

> <Gold.PLP.PLP>
-33.4331

> <Gold.PLP.part.hbond>
-4.0000

> <Gold.PLP.part.metal>
0.0000

> <Gold.PLP.part.buried>
-4.7645

> <Gold.PLP.part.nonpolar>
-24.8561

> <Gold.PLP.part.repulsive>
0.8368

> <Gold.PLP.ligand.clash>
0.0000

> <Gold.PLP.ligand.torsion>
1.4384

> <Gold.PLP.Chemscore.Hbond>
2.9760

> <Gold.PLP.Chemscore.CHOScore>
0.0000

> <Gold.PLP.Chemscore.Metal>
0.0000

> <Gold.Chemscore.Hbonds>
donor molecule, donor type, donor heavy atom, donor atom, acceptor molecule, acceptor atom, score
      L1  H    23    47       P1 10171  1.00
      P1  H  7997  8010       L1     8  0.98
      P1  H 10752 10764       L1     7  0.86

> <Gold.PLP.Chemscore.Internal.Correction>
1.6343

> <Gold.Rescore>
     Score         DG    S(hbond)    S(metal)    S(lipo)     H(rot)  DE(clash)    DE(int)     intcor
      9.43     -13.78       2.98        0.00      56.26       3.21       0.10       4.25       ----

> <Gold.Chemscore.Fitness>
9.4333

> <Gold.Chemscore.DG>
-13.7779

> <Gold.Chemscore.ZeroCoef>
-5.4800

> <Gold.Chemscore.Hbond>
2.9753

> <Gold.Chemscore.Metal>
0.0000

> <Gold.Chemscore.Lipo>
56.2561

> <Gold.Chemscore.Internal_Hbond>
0.0000

> <Gold.Chemscore.DEClash>
0.0986

> <Gold.Chemscore.DEInternal>
4.2460

> <Gold.Chemscore.Rot>
3.2115

> <Gold.Chemscore.Internal.Correction>
   9.000000E+99

> <Gold.Chemscore.Hbonds>
donor molecule, donor type, donor heavy atom, donor atom, acceptor molecule, acceptor atom, score
      L1  H    23    47       P1 10171  1.00
      P1  H  7997  8010       L1     8  0.86
      P1  H 10752 10764       L1     7  0.83

> <Gold.Chemscore.Hbond.Weighted>
-9.9375

> <Gold.Chemscore.Metal.Weighted>
-0.0000

> <Gold.Chemscore.Lipo.Weighted>
-6.5820

> <Gold.Chemscore.Internal_Hbond.Weighted>
0.0000

> <Gold.Chemscore.DEClash.Weighted>
0.0986

> <Gold.Chemscore.DEInternal.Weighted>
4.2460

> <Gold.Chemscore.Rot.Weighted>
8.2215

> <Gold.Chemscore.Internal.Correction.Weighted>
   9.000000E+99

> <Gold.Protein.RotatedTorsions>
[ 6907 6896 6895 6894 ] final  144.54 input  -60.11 | X-H torsion
[ 7974 7965 7964 7962 ] final  -58.69 input  175.53 | X-H torsion
[ 8008 7997 7996 7995 ] final   79.96 input   59.86 | X-H torsion
[ 10167 10162 10161 10158 ] final  -72.90 input  -65.29 | X-H torsion
[ 10718 10713 10712 10709 ] final  -31.87 input   66.30 | X-H torsion
[ 10763 10752 10751 10750 ] final    2.91 input  -60.55 | X-H torsion
[ 11005 11000 10999 10996 ] final -124.43 input  -57.11 | X-H torsion

> <Gold.Protein.ActiveResidues>
 VAL166  LYS551  ARG553  GLY616  TRP617  ASP618  TYR619  PRO620  LYS621  CYS622 
 ASP623  PHE694  ASN695  SER759  ASP760  ASP761  ALA762  ILE779  LEU786  VAL792 
 PHE793  MET794  SER795  GLU796  ALA797  LYS798  CYS799  TRP800  GLU811  SER814 

> <Gold.Protein.RotatedAtoms>
  152.1923  133.4782  159.5014 H   0  0  0  0  0  0  0  0  0  0  0  0  # atno 6907 bound_to 6896
  150.6953  134.1696  159.4216 H   0  0  0  0  0  0  0  0  0  0  0  0  # atno 6908 bound_to 6896
  151.9611  135.0123  160.0598 H   0  0  0  0  0  0  0  0  0  0  0  0  # atno 6909 bound_to 6896
  145.8363  140.8447  143.0057 H   0  0  0  0  0  0  0  0  0  0  0  0  # atno 7974 bound_to 7965
  155.8769  140.3446  155.5860 H   0  0  0  0  0  0  0  0  0  0  0  0  # atno 8008 bound_to 7997
  155.7764  140.0852  157.2101 H   0  0  0  0  0  0  0  0  0  0  0  0  # atno 8009 bound_to 7997
  154.4021  140.1509  156.2988 H   0  0  0  0  0  0  0  0  0  0  0  0  # atno 8010 bound_to 7997
  140.5154  143.2339  151.7521 H   0  0  0  0  0  0  0  0  0  0  0  0  # atno 10167 bound_to 10162
  156.3819  130.4357  149.7462 H   0  0  0  0  0  0  0  0  0  0  0  0  # atno 10718 bound_to 10713
  153.2898  135.6947  153.7304 H   0  0  0  0  0  0  0  0  0  0  0  0  # atno 10763 bound_to 10752
  153.6259  135.3419  155.3027 H   0  0  0  0  0  0  0  0  0  0  0  0  # atno 10764 bound_to 10752
  154.8520  135.4397  154.1977 H   0  0  0  0  0  0  0  0  0  0  0  0  # atno 10765 bound_to 10752
  140.9841  134.0631  157.3731 H   0  0  0  0  0  0  0  0  0  0  0  0  # atno 11005 bound_to 11000
  144.6736  140.0746  143.7471 LP  0  0  0  0  0  0  0  0  0  0  0  0  # atno 17320 bound_to 7965
  145.9515  139.2737  143.1209 LP  0  0  0  0  0  0  0  0  0  0  0  0  # atno 17321 bound_to 7965
  139.4908  144.4331  151.9850 LP  0  0  0  0  0  0  0  0  0  0  0  0  # atno 17342 bound_to 10162
  140.3425  144.3187  150.5964 LP  0  0  0  0  0  0  0  0  0  0  0  0  # atno 17343 bound_to 10162
  156.4550  130.7924  151.2945 LP  0  0  0  0  0  0  0  0  0  0  0  0  # atno 17370 bound_to 10713
  157.7493  131.0083  150.3225 LP  0  0  0  0  0  0  0  0  0  0  0  0  # atno 17371 bound_to 10713
  139.8963  135.0145  156.7044 LP  0  0  0  0  0  0  0  0  0  0  0  0  # atno 17394 bound_to 11000
  140.7141  133.9198  155.8103 LP  0  0  0  0  0  0  0  0  0  0  0  0  # atno 17395 bound_to 11000

$$$$
