#       Name:                AV-unprocessed.smi:2563
#       Creating user name   scv26
#       Creation time:       Fri Mar 27 14:10:00 2020


#       File generated by GOLD software.
#

@<TRIPOS>MOLECULE
AV-unprocessed.smi:2563
    39    40     1
SMALL
NO_CHARGES


@<TRIPOS>ATOM
      1 ****        -3.5514   1.0677  -0.4261 C.3            1 S1                 0.0000
      2 ****        -2.5406   0.1670   0.2963 C.3            1 S1                 0.0000
      3 ****        -1.1684   0.6610   0.1710 N.pl3          1 S1                 0.0000
      4 ****        -0.3905   0.2657  -1.0027 C.3            1 S1                 0.0000
      5 ****         0.2887  -1.1044  -0.8268 C.3            1 S1                 0.0000
      6 ****         0.8903  -1.6082  -2.1547 C.3            1 S1                 0.0000
      7 ****         1.5850  -2.8790  -1.9540 N.3            1 S1                 0.0000
      8 ****         2.5986  -2.7709  -0.9067 C.3            1 S1                 0.0000
      9 ****         1.9699  -2.2292   0.3881 C.3            1 S1                 0.0000
     10 ****         1.3464  -0.9784   0.1204 O.3            1 S1                 0.0000
     11 ****        -0.6464   1.5716   1.1230 C.ar           1 S1                 0.0000
     12 ****         0.7172   1.9570   1.1282 C.ar           1 S1                 0.0000
     13 ****         1.1477   2.8656   2.1098 C.ar           1 S1                 0.0000
     14 ****         0.1891   3.3326   3.0240 C.ar           1 S1                 0.0000
     15 ****        -1.1013   2.9390   2.9840 N.ar           1 S1                 0.0000
     16 ****        -1.5060   2.0736   2.0486 N.ar           1 S1                 0.0000
     17 ****        -4.5623   0.6744  -0.3192 H              1 S1                 0.0000
     18 ****        -3.3332   1.1350  -1.4921 H              1 S1                 0.0000
     19 ****        -3.5454   2.0788  -0.0184 H              1 S1                 0.0000
     20 ****        -2.8177   0.0471   1.3439 H              1 S1                 0.0000
     21 ****        -2.5914  -0.8344  -0.1317 H              1 S1                 0.0000
     22 ****        -1.0838   0.2005  -1.8418 H              1 S1                 0.0000
     23 ****         0.3288   1.0296  -1.2949 H              1 S1                 0.0000
     24 ****        -0.4450  -1.8275  -0.4652 H              1 S1                 0.0000
     25 ****         0.1040  -1.7301  -2.9000 H              1 S1                 0.0000
     26 ****         1.5844  -0.8658  -2.5506 H              1 S1                 0.0000
     27 ****         2.0230  -3.1686  -2.8227 H              1 S1                 0.0000
     28 ****         3.0553  -3.7438  -0.7244 H              1 S1                 0.0000
     29 ****         3.3984  -2.1041  -1.2315 H              1 S1                 0.0000
     30 ****         1.2454  -2.9343   0.7988 H              1 S1                 0.0000
     31 ****         2.7389  -2.0849   1.1471 H              1 S1                 0.0000
     32 ****         1.4355   1.5763   0.4194 H              1 S1                 0.0000
     33 ****         2.1761   3.1911   2.1609 H              1 S1                 0.0000
     34 ****         0.4601   4.0316   3.8012 H              1 S1                 0.0000
     35 ****         0.9116  -3.5606  -1.6676 LP             1 S1                 0.0000
     36 ****         0.9745  -0.6133   0.9738 LP             1 S1                 0.0000
     37 ****         2.0315  -0.3466  -0.2420 LP             1 S1                 0.0000
     38 ****        -1.7539   3.2942   3.6532 LP             1 S1                 0.0000
     39 ****        -2.4644   1.7887   2.0294 LP             1 S1                 0.0000
@<TRIPOS>BOND
    1    1    2 1     
    2    1   17 1     
    3    1   18 1     
    4    1   19 1     
    5    2    3 1     
    6    2   20 1     
    7    2   21 1     
    8    3    4 1     
    9    3   11 1     
   10    4    5 1     
   11    4   22 1     
   12    4   23 1     
   13    5   10 1     
   14    5    6 1     
   15    5   24 1     
   16    6    7 1     
   17    6   25 1     
   18    6   26 1     
   19    7    8 1     
   20    7   27 1     
   21    8    9 1     
   22    8   28 1     
   23    8   29 1     
   24    9   10 1     
   25    9   30 1     
   26    9   31 1     
   27   11   16 ar    
   28   11   12 ar    
   29   12   13 ar    
   30   12   32 1     
   31   13   14 ar    
   32   13   33 1     
   33   14   15 ar    
   34   14   34 1     
   35   15   16 ar    
   36    7   35 1     
   37   10   36 1     
   38   10   37 1     
   39   15   38 1     
   40   16   39 1     
@<TRIPOS>SUBSTRUCTURE
      1 S1             1
@<TRIPOS>SET
LONE_PAIRS      STATIC     ATOMS    <user>   **** ""
5 35 36 37 38 39
DONOR_HYDROGENS      STATIC     ATOMS    <user>   **** ""
1 27
ATOM$BLUE        STATIC     ATOMS    COLORGROUP SYSTEM
5 35 36 37 38 39
ATOM$RED        STATIC     ATOMS    COLORGROUP SYSTEM
1 27
