#       Name:                AV-unprocessed.smi:228
#       Creating user name   scv26
#       Creation time:       Thu Mar 26 20:25:09 2020


#       File generated by GOLD software.
#

@<TRIPOS>MOLECULE
AV-unprocessed.smi:228
    71    74     1
SMALL
NO_CHARGES


@<TRIPOS>ATOM
      1 ****        -3.4144  -2.4768   1.3654 C.3            1 S1                 0.0000
      2 ****        -2.7937  -1.2532   1.8604 N.pl3          1 S1                 0.0000
      3 ****        -3.4604  -0.5552   2.9623 C.3            1 S1                 0.0000
      4 ****        -3.1409   0.9557   3.0614 C.3            1 S1                 0.0000
      5 ****        -3.8726   1.4530   4.1615 O.3            1 S1                 0.0000
      6 ****        -3.5574   1.7764   1.8194 C.3            1 S1                 0.0000
      7 ****        -2.6128   1.6443   0.6791 N.4            1 S1                 1.0000
      8 ****        -3.2441   1.9986  -0.6144 C.3            1 S1                 0.0000
      9 ****        -2.2488   1.8240  -1.7736 C.3            1 S1                 0.0000
     10 ****        -1.0950   2.6189  -1.5343 O.3            1 S1                 0.0000
     11 ****        -0.4181   2.2247  -0.3486 C.3            1 S1                 0.0000
     12 ****        -1.3469   2.3993   0.8656 C.3            1 S1                 0.0000
     13 ****        -1.4387  -1.2469   1.7718 C.ar           1 S1                 0.0000
     14 ****        -0.6820  -1.0375   2.8809 N.ar           1 S1                 0.0000
     15 ****         0.6510  -1.0073   2.7929 C.ar           1 S1                 0.0000
     16 ****         1.4182  -1.1517   1.7111 N.ar           1 S1                 0.0000
     17 ****         0.6658  -1.3677   0.5949 C.ar           1 S1                 0.0000
     18 ****        -0.7543  -1.4421   0.5395 C.ar           1 S1                 0.0000
     19 ****        -1.1651  -1.6743  -0.7674 N.2            1 S1                 0.0000
     20 ****        -0.0515  -1.7448  -1.4441 C.2            1 S1                 0.0000
     21 ****         1.0939  -1.5308  -0.7110 N.pl3          1 S1                 0.0000
     22 ****         2.4434  -1.5621  -1.1933 C.3            1 S1                 0.0000
     23 ****         3.4488  -0.4859  -0.7741 C.3            1 S1                 0.0000
     24 ****         4.0879  -0.5158  -2.1798 C.3            1 S1                 0.0000
     25 ****         4.3451   0.8621  -2.8097 C.3            1 S1                 0.0000
     26 ****         5.2999   1.5978  -2.0721 O.3            1 S1                 0.0000
     27 ****         5.3840  -1.3408  -2.3460 C.3            1 S1                 0.0000
     28 ****         5.2683  -2.6668  -1.8713 O.3            1 S1                 0.0000
     29 ****         2.7788  -1.1941  -2.6427 C.3            1 S1                 0.0000
     30 ****        -3.6416  -2.3821   0.3035 H              1 S1                 0.0000
     31 ****        -4.3486  -2.6868   1.8870 H              1 S1                 0.0000
     32 ****        -2.7611  -3.3401   1.5016 H              1 S1                 0.0000
     33 ****        -4.5379  -0.6783   2.8451 H              1 S1                 0.0000
     34 ****        -3.2011  -1.0532   3.8979 H              1 S1                 0.0000
     35 ****        -2.0939   1.1228   3.3043 H              1 S1                 0.0000
     36 ****        -3.6014   0.9893   4.9395 H              1 S1                 0.0000
     37 ****        -4.5563   1.4609   1.5134 H              1 S1                 0.0000
     38 ****        -3.6411   2.8351   2.0717 H              1 S1                 0.0000
     39 ****        -4.1165   1.3666  -0.7844 H              1 S1                 0.0000
     40 ****        -3.5963   3.0308  -0.5783 H              1 S1                 0.0000
     41 ****        -1.9680   0.7774  -1.8957 H              1 S1                 0.0000
     42 ****        -2.7064   2.1406  -2.7108 H              1 S1                 0.0000
     43 ****        -0.0775   1.1939  -0.4391 H              1 S1                 0.0000
     44 ****         0.4734   2.8404  -0.2295 H              1 S1                 0.0000
     45 ****        -1.5705   3.4578   1.0069 H              1 S1                 0.0000
     46 ****        -0.8261   2.0608   1.7604 H              1 S1                 0.0000
     47 ****         1.1780  -0.8366   3.7203 H              1 S1                 0.0000
     48 ****        -0.0387  -1.9394  -2.5068 H              1 S1                 0.0000
     49 ****         2.8209  -2.5560  -0.9503 H              1 S1                 0.0000
     50 ****         2.9655   0.4667  -0.5493 H              1 S1                 0.0000
     51 ****         4.1135  -0.7847   0.0371 H              1 S1                 0.0000
     52 ****         4.6897   0.7668  -3.8399 H              1 S1                 0.0000
     53 ****         3.4285   1.4519  -2.8447 H              1 S1                 0.0000
     54 ****         5.4259   2.4345  -2.4929 H              1 S1                 0.0000
     55 ****         5.6785  -1.3906  -3.3947 H              1 S1                 0.0000
     56 ****         6.2133  -0.8767  -1.8115 H              1 S1                 0.0000
     57 ****         6.1000  -3.1007  -1.9863 H              1 S1                 0.0000
     58 ****         2.9140  -2.0512  -3.3033 H              1 S1                 0.0000
     59 ****         2.0647  -0.4872  -3.0683 H              1 S1                 0.0000
     60 ****        -2.3704   0.6655   0.6153 H              1 S1                 0.0000
     61 ****        -4.8503   1.3100   4.0079 LP             1 S1                 0.0000
     62 ****        -3.6920   2.4304   4.2719 LP             1 S1                 0.0000
     63 ****        -1.3737   3.5751  -1.4451 LP             1 S1                 0.0000
     64 ****        -0.4707   2.5247  -2.3098 LP             1 S1                 0.0000
     65 ****        -1.1251  -0.9053   3.7676 LP             1 S1                 0.0000
     66 ****         2.4172  -1.1072   1.7180 LP             1 S1                 0.0000
     67 ****        -2.0998  -1.7663  -1.1107 LP             1 S1                 0.0000
     68 ****         6.1659   1.0983  -2.0493 LP             1 S1                 0.0000
     69 ****         4.9703   1.7365  -1.1382 LP             1 S1                 0.0000
     70 ****         4.5617  -3.1497  -2.3886 LP             1 S1                 0.0000
     71 ****         5.0239  -2.6577  -0.9017 LP             1 S1                 0.0000
@<TRIPOS>BOND
    1    1    2 1     
    2    1   30 1     
    3    1   31 1     
    4    1   32 1     
    5    2    3 1     
    6    2   13 1     
    7    3    4 1     
    8    3   33 1     
    9    3   34 1     
   10    4    5 1     
   11    4    6 1     
   12    4   35 1     
   13    5   36 1     
   14    6    7 1     
   15    6   37 1     
   16    6   38 1     
   17    7   12 1     
   18    7    8 1     
   19    7   60 1     
   20    8    9 1     
   21    8   39 1     
   22    8   40 1     
   23    9   10 1     
   24    9   41 1     
   25    9   42 1     
   26   10   11 1     
   27   11   12 1     
   28   11   43 1     
   29   11   44 1     
   30   12   45 1     
   31   12   46 1     
   32   13   18 ar    
   33   13   14 ar    
   34   14   15 ar    
   35   15   16 ar    
   36   15   47 1     
   37   16   17 ar    
   38   17   21 1     
   39   17   18 ar    
   40   18   19 1     
   41   19   20 2     
   42   20   21 1     
   43   20   48 1     
   44   21   22 1     
   45   22   29 1     
   46   22   23 1     
   47   22   49 1     
   48   23   24 1     
   49   23   50 1     
   50   23   51 1     
   51   24   25 1     
   52   24   27 1     
   53   24   29 1     
   54   25   26 1     
   55   25   52 1     
   56   25   53 1     
   57   26   54 1     
   58   27   28 1     
   59   27   55 1     
   60   27   56 1     
   61   28   57 1     
   62   29   58 1     
   63   29   59 1     
   64    5   61 1     
   65    5   62 1     
   66   10   63 1     
   67   10   64 1     
   68   14   65 1     
   69   16   66 1     
   70   19   67 1     
   71   26   68 1     
   72   26   69 1     
   73   28   70 1     
   74   28   71 1     
@<TRIPOS>SUBSTRUCTURE
      1 S1             1
@<TRIPOS>SET
LONE_PAIRS      STATIC     ATOMS    <user>   **** ""
11 61 62 63 64 65 66 67 68 69 70 71
DONOR_HYDROGENS      STATIC     ATOMS    <user>   **** ""
4 36 60 54 57
ATOM$BLUE        STATIC     ATOMS    COLORGROUP SYSTEM
11 61 62 63 64 65 66 67 68 69 70 71
ATOM$RED        STATIC     ATOMS    COLORGROUP SYSTEM
4 36 60 54 57
