#       Name:                AV-unprocessed.smi:1617
#       Creating user name   scv26
#       Creation time:       Fri Mar 27 07:14:42 2020


#       File generated by GOLD software.
#

@<TRIPOS>MOLECULE
AV-unprocessed.smi:1617
    55    57     1
SMALL
NO_CHARGES


@<TRIPOS>ATOM
      1 ****        -1.1343   1.4358  -0.1837 O.2            1 S1                 0.0000
      2 ****        -1.4253   0.2641   0.0555 C.2            1 S1                 0.0000
      3 ****        -0.5463  -0.7418   0.2038 N.am           1 S1                 0.0000
      4 ****         0.8693  -0.7067   0.0826 C.ar           1 S1                 0.0000
      5 ****         1.5869   0.2865  -0.6220 C.ar           1 S1                 0.0000
      6 ****         2.9911   0.2006  -0.6852 C.ar           1 S1                 0.0000
      7 ****         3.6524  -0.8798  -0.0475 C.ar           1 S1                 0.0000
      8 ****         5.0588  -1.0280  -0.0794 N.3            1 S1                 0.0000
      9 ****         5.8459  -0.0860  -0.8717 C.3            1 S1                 0.0000
     10 ****         7.2858  -0.5963  -1.0518 C.3            1 S1                 0.0000
     11 ****         7.8622  -0.8730   0.2190 O.3            1 S1                 0.0000
     12 ****         7.1505  -1.8967   0.9047 C.3            1 S1                 0.0000
     13 ****         5.7049  -1.4411   1.1670 C.3            1 S1                 0.0000
     14 ****         2.9550  -1.8350   0.6136 N.ar           1 S1                 0.0000
     15 ****         1.6099  -1.7500   0.6705 C.ar           1 S1                 0.0000
     16 ****        -2.6854  -0.1660   0.2199 N.am           1 S1                 0.0000
     17 ****        -3.8871   0.6647   0.1092 C.3            1 S1                 0.0000
     18 ****        -5.0064  -0.0205   0.9264 C.3            1 S1                 0.0000
     19 ****        -6.1305   0.9353   1.3626 C.3            1 S1                 0.0000
     20 ****        -6.9553   1.5354   0.2137 C.3            1 S1                 0.0000
     21 ****        -6.1333   2.4140  -0.7449 C.3            1 S1                 0.0000
     22 ****        -5.3407   1.6188  -1.6736 N.am           1 S1                 0.0000
     23 ****        -4.3356   0.7852  -1.3663 C.2            1 S1                 0.0000
     24 ****        -3.7854   0.1241  -2.2471 O.2            1 S1                 0.0000
     25 ****        -0.9338  -1.6322   0.4799 H              1 S1                 0.0000
     26 ****         1.0935   1.1032  -1.1251 H              1 S1                 0.0000
     27 ****         3.5267   0.9708  -1.2182 H              1 S1                 0.0000
     28 ****         5.4006   0.0474  -1.8579 H              1 S1                 0.0000
     29 ****         5.8504   0.8853  -0.3753 H              1 S1                 0.0000
     30 ****         7.3057  -1.4915  -1.6756 H              1 S1                 0.0000
     31 ****         7.8889   0.1567  -1.5591 H              1 S1                 0.0000
     32 ****         7.1672  -2.8198   0.3228 H              1 S1                 0.0000
     33 ****         7.6534  -2.1075   1.8485 H              1 S1                 0.0000
     34 ****         5.6980  -0.5997   1.8610 H              1 S1                 0.0000
     35 ****         5.1678  -2.2573   1.6498 H              1 S1                 0.0000
     36 ****         1.1101  -2.5412   1.2101 H              1 S1                 0.0000
     37 ****        -2.8304  -1.1460   0.4126 H              1 S1                 0.0000
     38 ****        -3.6743   1.6539   0.5188 H              1 S1                 0.0000
     39 ****        -5.4231  -0.8708   0.3834 H              1 S1                 0.0000
     40 ****        -4.5756  -0.4405   1.8367 H              1 S1                 0.0000
     41 ****        -6.8061   0.3952   2.0267 H              1 S1                 0.0000
     42 ****        -5.7070   1.7408   1.9638 H              1 S1                 0.0000
     43 ****        -7.4611   0.7439  -0.3412 H              1 S1                 0.0000
     44 ****        -7.7465   2.1467   0.6490 H              1 S1                 0.0000
     45 ****        -6.8114   3.0234  -1.3427 H              1 S1                 0.0000
     46 ****        -5.4978   3.1109  -0.1967 H              1 S1                 0.0000
     47 ****        -5.6005   1.6825  -2.6474 H              1 S1                 0.0000
     48 ****        -0.1757   1.7027  -0.2833 LP             1 S1                 0.0000
     49 ****        -1.8565   2.1211  -0.2785 LP             1 S1                 0.0000
     50 ****         5.0832  -1.8429  -0.6584 LP             1 S1                 0.0000
     51 ****         7.8450  -0.0397   0.7716 LP             1 S1                 0.0000
     52 ****         8.8090  -1.1672   0.0889 LP             1 S1                 0.0000
     53 ****         3.4323  -2.5949   1.0547 LP             1 S1                 0.0000
     54 ****        -3.0397  -0.4993  -2.0122 LP             1 S1                 0.0000
     55 ****        -4.0842   0.2106  -3.1975 LP             1 S1                 0.0000
@<TRIPOS>BOND
    1    1    2 2     
    2    2    3 am    
    3    2   16 am    
    4    3    4 1     
    5    3   25 1     
    6    4   15 ar    
    7    4    5 ar    
    8    5    6 ar    
    9    5   26 1     
   10    6    7 ar    
   11    6   27 1     
   12    7    8 1     
   13    7   14 ar    
   14    8   13 1     
   15    8    9 1     
   16    9   10 1     
   17    9   28 1     
   18    9   29 1     
   19   10   11 1     
   20   10   30 1     
   21   10   31 1     
   22   11   12 1     
   23   12   13 1     
   24   12   32 1     
   25   12   33 1     
   26   13   34 1     
   27   13   35 1     
   28   14   15 ar    
   29   15   36 1     
   30   16   17 1     
   31   16   37 1     
   32   17   23 1     
   33   17   18 1     
   34   17   38 1     
   35   18   19 1     
   36   18   39 1     
   37   18   40 1     
   38   19   20 1     
   39   19   41 1     
   40   19   42 1     
   41   20   21 1     
   42   20   43 1     
   43   20   44 1     
   44   21   22 1     
   45   21   45 1     
   46   21   46 1     
   47   22   23 am    
   48   22   47 1     
   49   23   24 2     
   50    1   48 1     
   51    1   49 1     
   52    8   50 1     
   53   11   51 1     
   54   11   52 1     
   55   14   53 1     
   56   24   54 1     
   57   24   55 1     
@<TRIPOS>SUBSTRUCTURE
      1 S1             1
@<TRIPOS>SET
LONE_PAIRS      STATIC     ATOMS    <user>   **** ""
8 48 49 50 51 52 53 54 55
DONOR_HYDROGENS      STATIC     ATOMS    <user>   **** ""
3 25 37 47
ATOM$BLUE        STATIC     ATOMS    COLORGROUP SYSTEM
8 48 49 50 51 52 53 54 55
ATOM$RED        STATIC     ATOMS    COLORGROUP SYSTEM
3 25 37 47
