AV-unprocessed.smi:480|AV-procd|sdf|2678|dock5
  -GOLD-   2262023103D 1   1.00000     0.00000
 Structure written by MMmdl.
 47 49  0  0  0  0  0  0  0  0  2 V2000
  148.3464  140.9354  154.6021 C   0  0  0  0  0  0  0  0  0  0  0  0
  149.8447  140.6098  154.6741 C   0  0  0  0  0  0  0  0  0  0  0  0
  150.4690  141.0378  155.9672 C   0  0  0  0  0  0  0  0  0  0  0  0
  150.4084  142.2873  156.5115 N   0  3  0  0  0  0  0  0  0  0  0  0
  151.1174  142.3186  157.7121 C   0  0  0  0  0  0  0  0  0  0  0  0
  151.3244  143.3508  158.6219 C   0  0  0  0  0  0  0  0  0  0  0  0
  152.1065  143.0470  159.7555 C   0  0  0  0  0  0  0  0  0  0  0  0
  152.6501  141.7604  159.9493 C   0  0  0  0  0  0  0  0  0  0  0  0
  152.4339  140.7226  159.0187 C   0  0  0  0  0  0  0  0  0  0  0  0
  151.6564  141.0307  157.9029 C   0  0  0  0  0  0  0  0  0  0  0  0
  151.2331  140.2744  156.8047 N   0  0  0  0  0  0  0  0  0  0  0  0
  151.6299  138.8590  156.7233 C   0  0  0  0  0  0  0  0  0  0  0  0
  151.4118  138.0776  158.0397 C   0  0  2  0  0  0  0  0  0  0  0  0
  152.6715  137.6406  158.5036 O   0  0  0  0  0  0  0  0  0  0  0  0
  150.4797  136.8582  157.9140 C   0  0  0  0  0  0  0  0  0  0  0  0
  149.9540  136.5474  159.1985 O   0  0  0  0  0  0  0  0  0  0  0  0
  149.4249  135.2935  159.4034 C   0  0  0  0  0  0  0  0  0  0  0  0
  148.9098  135.0198  160.6868 C   0  0  0  0  0  0  0  0  0  0  0  0
  148.3343  133.7690  160.9794 C   0  0  0  0  0  0  0  0  0  0  0  0
  148.2747  132.7703  159.9879 C   0  0  0  0  0  0  0  0  0  0  0  0
  147.6577  131.4234  160.3037 C   0  0  0  0  0  0  0  0  0  0  0  0
  146.2664  131.5478  160.7649 C   0  0  0  0  0  0  0  0  0  0  0  0
  145.1720  131.6449  161.1272 N   0  0  0  0  0  0  0  0  0  0  0  0
  148.7965  133.0299  158.7051 C   0  0  0  0  0  0  0  0  0  0  0  0
  149.3700  134.2824  158.4124 C   0  0  0  0  0  0  0  0  0  0  0  0
  147.9226  140.5907  153.6589 H   0  0  0  0  0  0  0  0  0  0  0  0
  148.1654  142.0084  154.6706 H   0  0  0  0  0  0  0  0  0  0  0  0
  147.7969  140.4486  155.4080 H   0  0  0  0  0  0  0  0  0  0  0  0
  149.9807  139.5371  154.5417 H   0  0  0  0  0  0  0  0  0  0  0  0
  150.3721  141.0975  153.8542 H   0  0  0  0  0  0  0  0  0  0  0  0
  150.9099  144.3373  158.4748 H   0  0  0  0  0  0  0  0  0  0  0  0
  152.2943  143.8164  160.4904 H   0  0  0  0  0  0  0  0  0  0  0  0
  153.2449  141.5645  160.8297 H   0  0  0  0  0  0  0  0  0  0  0  0
  152.8540  139.7402  159.1758 H   0  0  0  0  0  0  0  0  0  0  0  0
  151.0553  138.4034  155.9165 H   0  0  0  0  0  0  0  0  0  0  0  0
  152.6744  138.8117  156.4117 H   0  0  0  0  0  0  0  0  0  0  0  0
  151.0102  138.7463  158.8014 H   0  0  0  0  0  0  0  0  0  0  0  0
  152.5378  137.0635  159.2400 H   0  0  0  0  0  0  0  0  0  0  0  0
  149.6920  137.0734  157.1906 H   0  0  0  0  0  0  0  0  0  0  0  0
  151.0364  135.9916  157.5538 H   0  0  0  0  0  0  0  0  0  0  0  0
  148.9487  135.7809  161.4524 H   0  0  0  0  0  0  0  0  0  0  0  0
  147.9405  133.5763  161.9666 H   0  0  0  0  0  0  0  0  0  0  0  0
  147.6714  130.7922  159.4146 H   0  0  0  0  0  0  0  0  0  0  0  0
  148.2332  130.9138  161.0772 H   0  0  0  0  0  0  0  0  0  0  0  0
  148.7607  132.2672  157.9408 H   0  0  0  0  0  0  0  0  0  0  0  0
  149.7660  134.4435  157.4211 H   0  0  0  0  0  0  0  0  0  0  0  0
  149.9092  143.0601  156.0903 H   0  0  0  0  0  0  0  0  0  0  0  0
  1  2  1  0  0  0  0
  1 26  1  0  0  0  0
  1 27  1  0  0  0  0
  1 28  1  0  0  0  0
  2  3  1  0  0  0  0
  2 29  1  0  0  0  0
  2 30  1  0  0  0  0
  3 11  1  0  0  0  0
  3  4  2  0  0  0  0
  4  5  1  0  0  0  0
  4 47  1  0  0  0  0
  5 10  2  0  0  0  0
  5  6  1  0  0  0  0
  6  7  2  0  0  0  0
  6 31  1  0  0  0  0
  7  8  1  0  0  0  0
  7 32  1  0  0  0  0
  8  9  2  0  0  0  0
  8 33  1  0  0  0  0
  9 10  1  0  0  0  0
  9 34  1  0  0  0  0
 10 11  1  0  0  0  0
 11 12  1  0  0  0  0
 12 13  1  0  0  0  0
 12 35  1  0  0  0  0
 12 36  1  0  0  0  0
 13 14  1  0  0  0  0
 13 15  1  0  0  0  0
 13 37  1  0  0  0  0
 14 38  1  0  0  0  0
 15 16  1  0  0  0  0
 15 39  1  0  0  0  0
 15 40  1  0  0  0  0
 16 17  1  0  0  0  0
 17 25  1  0  0  0  0
 17 18  2  0  0  0  0
 18 19  1  0  0  0  0
 18 41  1  0  0  0  0
 19 20  2  0  0  0  0
 19 42  1  0  0  0  0
 20 21  1  0  0  0  0
 20 24  1  0  0  0  0
 21 22  1  0  0  0  0
 21 43  1  0  0  0  0
 21 44  1  0  0  0  0
 22 23  3  0  0  0  0
 24 25  2  0  0  0  0
 24 45  1  0  0  0  0
 25 46  1  0  0  0  0
M  CHG  1   4   1
M  END
> <s_m_source_file>
AV-unprocessed.smi

> <i_m_source_file_index>
480

> <i_lp_mmshare_version>
43012

> <i_f3d_flags>
0

> <s_epik_input>
W2NIXTFbY0hdW2NIXVtjSF1jKGMxMiluKGMobjIpW0NIMl1bQ0gzXSlbQ0gyXVtDQEhdKFtPSF0pW0NIMl1PYzNbY0hdW2NIXWMoW0NIMl1DI04pW2NIXVtjSF0z

> <s_epik_cmdline>
J2VwaWtfcHl0aG9uJywgJy1waCcsICc3LjAnLCAnLXRuJywgJzgnLCAnLW1hJywgJzIwMCcsICctbWV0YWxfYmluZGluZycsICctaW1hZScsICc8aW5maWxlLm1hZT4nLCAnLW9tYWUnLCAnPG91dGZpbGUubWFlPic=

> <r_lp_tautomer_probability>
1

> <r_epik_Ionization_Penalty>
1.03158

> <r_epik_Ionization_Penalty_Charging>
1.03158

> <r_epik_Ionization_Penalty_Neutral>
2.3994e-06

> <r_epik_State_Penalty>
1.08278

> <r_epik_Charging_Adjusted_Penalty>
2.11436

> <i_epik_Tot_Q>
1

> <i_epik_Tot_abs_Q>
1

> <r_epik_Metal_State_Penalty>
5.07177

> <b_epik_Metal_Only>
0

> <s_lp_Force_Field>
OPLS_2005

> <r_lp_Energy>
18.4444

> <b_lp_Chiralities_Consistent>
1

> <s_lp_Variant>
AV-unprocessed.smi:480-3

> <Gold.Version>
5.8.1

> <Gold.Id.Protein>
6NUR|6NUR_protein|mol2

> <Gold.PLP.Fitness>
57.7404

> <Gold.PLP.PLP>
-53.6380

> <Gold.PLP.part.hbond>
-2.5271

> <Gold.PLP.part.metal>
0.0000

> <Gold.PLP.part.buried>
-4.7034

> <Gold.PLP.part.nonpolar>
-46.2856

> <Gold.PLP.part.repulsive>
0.1686

> <Gold.PLP.ligand.clash>
0.0034

> <Gold.PLP.ligand.torsion>
1.2447

> <Gold.PLP.Chemscore.Hbond>
2.1440

> <Gold.PLP.Chemscore.CHOScore>
0.0000

> <Gold.PLP.Chemscore.Metal>
0.0000

> <Gold.Chemscore.Hbonds>
donor molecule, donor type, donor heavy atom, donor atom, acceptor molecule, acceptor atom, score
      L1  H     4    47       P1  8028  2.00

> <Gold.PLP.Chemscore.Internal.Correction>
0.1632

> <Gold.Rescore>
     Score         DG    S(hbond)    S(metal)    S(lipo)     H(rot)  DE(clash)    DE(int)     intcor
     16.39     -17.51       1.01        0.00     132.45       2.67       0.01       1.11       ----

> <Gold.Chemscore.Fitness>
16.3854

> <Gold.Chemscore.DG>
-17.5051

> <Gold.Chemscore.ZeroCoef>
-5.4800

> <Gold.Chemscore.Hbond>
1.0080

> <Gold.Chemscore.Metal>
0.0000

> <Gold.Chemscore.Lipo>
132.4459

> <Gold.Chemscore.Internal_Hbond>
0.0000

> <Gold.Chemscore.DEClash>
0.0141

> <Gold.Chemscore.DEInternal>
1.1056

> <Gold.Chemscore.Rot>
2.6710

> <Gold.Chemscore.Internal.Correction>
   9.000000E+99

> <Gold.Chemscore.Hbonds>
donor molecule, donor type, donor heavy atom, donor atom, acceptor molecule, acceptor atom, score
      L1  H     4    47       P1  8028  0.97

> <Gold.Chemscore.Hbond.Weighted>
-3.3667

> <Gold.Chemscore.Metal.Weighted>
-0.0000

> <Gold.Chemscore.Lipo.Weighted>
-15.4962

> <Gold.Chemscore.Internal_Hbond.Weighted>
0.0000

> <Gold.Chemscore.DEClash.Weighted>
0.0141

> <Gold.Chemscore.DEInternal.Weighted>
1.1056

> <Gold.Chemscore.Rot.Weighted>
6.8377

> <Gold.Chemscore.Internal.Correction.Weighted>
   9.000000E+99

> <Gold.Protein.RotatedTorsions>
[ 6907 6896 6895 6894 ] final  -91.18 input  -60.11 | X-H torsion
[ 7974 7965 7964 7962 ] final  156.76 input  175.53 | X-H torsion
[ 8008 7997 7996 7995 ] final  -96.34 input   59.86 | X-H torsion
[ 10167 10162 10161 10158 ] final -134.89 input  -65.29 | X-H torsion
[ 10718 10713 10712 10709 ] final -175.78 input   66.30 | X-H torsion
[ 10763 10752 10751 10750 ] final  155.66 input  -60.55 | X-H torsion
[ 11005 11000 10999 10996 ] final  -19.84 input  -57.11 | X-H torsion

> <Gold.Protein.ActiveResidues>
 VAL166  LYS551  ARG553  GLY616  TRP617  ASP618  TYR619  PRO620  LYS621  CYS622 
 ASP623  PHE694  ASN695  SER759  ASP760  ASP761  ALA762  ILE779  LEU786  VAL792 
 PHE793  MET794  SER795  GLU796  ALA797  LYS798  CYS799  TRP800  GLU811  SER814 

> <Gold.Protein.RotatedAtoms>
  150.6889  134.2317  159.4436 H   0  0  0  0  0  0  0  0  0  0  0  0  # atno 6907 bound_to 6896
  152.0267  134.9789  160.0581 H   0  0  0  0  0  0  0  0  0  0  0  0  # atno 6908 bound_to 6896
  152.1344  133.4392  159.4773 H   0  0  0  0  0  0  0  0  0  0  0  0  # atno 6909 bound_to 6896
  144.7944  139.7248  143.6208 H   0  0  0  0  0  0  0  0  0  0  0  0  # atno 7974 bound_to 7965
  154.7732  140.0472  157.1068 H   0  0  0  0  0  0  0  0  0  0  0  0  # atno 8008 bound_to 7997
  154.9794  140.3099  155.4933 H   0  0  0  0  0  0  0  0  0  0  0  0  # atno 8009 bound_to 7997
  156.2924  140.2238  156.4892 H   0  0  0  0  0  0  0  0  0  0  0  0  # atno 8010 bound_to 7997
  139.8835  143.6810  152.2623 H   0  0  0  0  0  0  0  0  0  0  0  0  # atno 10167 bound_to 10162
  156.8049  130.9565  151.3117 H   0  0  0  0  0  0  0  0  0  0  0  0  # atno 10718 bound_to 10713
  154.1720  135.2804  155.3078 H   0  0  0  0  0  0  0  0  0  0  0  0  # atno 10763 bound_to 10752
  154.6068  135.5512  153.7435 H   0  0  0  0  0  0  0  0  0  0  0  0  # atno 10764 bound_to 10752
  153.0162  135.6405  154.1860 H   0  0  0  0  0  0  0  0  0  0  0  0  # atno 10765 bound_to 10752
  140.8406  133.7929  155.9856 H   0  0  0  0  0  0  0  0  0  0  0  0  # atno 11005 bound_to 11000
  146.2207  139.5630  142.9620 LP  0  0  0  0  0  0  0  0  0  0  0  0  # atno 17320 bound_to 7965
  145.5712  141.0394  143.2173 LP  0  0  0  0  0  0  0  0  0  0  0  0  # atno 17321 bound_to 7965
  139.7175  144.7609  151.1010 LP  0  0  0  0  0  0  0  0  0  0  0  0  # atno 17342 bound_to 10162
  140.7740  143.5251  150.9490 LP  0  0  0  0  0  0  0  0  0  0  0  0  # atno 17343 bound_to 10162
  157.6535  130.8904  149.9681 LP  0  0  0  0  0  0  0  0  0  0  0  0  # atno 17370 bound_to 10713
  156.1079  130.3651  150.0101 LP  0  0  0  0  0  0  0  0  0  0  0  0  # atno 17371 bound_to 10713
  140.8900  134.2507  157.5099 LP  0  0  0  0  0  0  0  0  0  0  0  0  # atno 17394 bound_to 11000
  139.8703  134.9656  156.4536 LP  0  0  0  0  0  0  0  0  0  0  0  0  # atno 17395 bound_to 11000

$$$$
