AV-unprocessed.smi:1205|AV-procd|sdf|5042|dock9
  -GOLD-   22720 4 63D 1   1.00000     0.00000
 Structure written by MMmdl.
 49 50  0  0  0  0  0  0  0  0  2 V2000
  145.6200  129.6829  151.8967 C   0  0  0  0  0  0  0  0  0  0  0  0
  146.3062  130.9593  152.2845 C   0  0  0  0  0  0  0  0  0  0  0  0
  145.8938  132.2961  152.0119 C   0  0  0  0  0  0  0  0  0  0  0  0
  146.8857  133.0406  152.5895 C   0  0  0  0  0  0  0  0  0  0  0  0
  147.0239  134.3922  152.6353 N   0  0  0  0  0  0  0  0  0  0  0  0
  146.1589  135.3096  153.1014 C   0  0  0  0  0  0  0  0  0  0  0  0
  145.0520  135.0708  153.5847 O   0  0  0  0  0  0  0  0  0  0  0  0
  146.6573  136.5485  152.9847 N   0  0  0  0  0  0  0  0  0  0  0  0
  145.9706  137.7666  153.4025 C   0  0  0  0  0  0  0  0  0  0  0  0
  146.7760  139.0480  153.0657 C   0  0  1  0  0  0  0  0  0  0  0  0
  146.8205  139.3424  151.5542 C   0  0  0  0  0  0  0  0  0  0  0  0
  146.3130  140.2478  153.8218 N   0  3  2  0  0  0  0  0  0  0  0  0
  147.1132  141.4694  153.5444 C   0  0  0  0  0  0  0  0  0  0  0  0
  146.4236  142.7152  154.1233 C   0  0  0  0  0  0  0  0  0  0  0  0
  146.1557  142.5512  155.6269 C   0  0  0  0  0  0  0  0  0  0  0  0
  145.3892  141.2481  155.9240 C   0  0  1  0  0  0  0  0  0  0  0  0
  143.9056  141.3220  155.5225 C   0  0  0  0  0  0  0  0  0  0  0  0
  146.1066  140.0428  155.2828 C   0  0  0  0  0  0  0  0  0  0  0  0
  147.8092  132.1896  153.1550 N   0  0  0  0  0  0  0  0  0  0  0  0
  149.0325  132.4992  153.8696 C   0  0  0  0  0  0  0  0  0  0  0  0
  147.4459  130.9029  152.9646 N   0  0  0  0  0  0  0  0  0  0  0  0
  144.6864  129.8813  151.3699 H   0  0  0  0  0  0  0  0  0  0  0  0
  145.3837  129.0811  152.7745 H   0  0  0  0  0  0  0  0  0  0  0  0
  146.2502  129.0829  151.2397 H   0  0  0  0  0  0  0  0  0  0  0  0
  145.0168  132.6288  151.4775 H   0  0  0  0  0  0  0  0  0  0  0  0
  147.9012  134.7453  152.2825 H   0  0  0  0  0  0  0  0  0  0  0  0
  147.5742  136.6579  152.5759 H   0  0  0  0  0  0  0  0  0  0  0  0
  145.0062  137.7764  152.8949 H   0  0  0  0  0  0  0  0  0  0  0  0
  145.7568  137.7077  154.4706 H   0  0  0  0  0  0  0  0  0  0  0  0
  147.8128  138.8807  153.3606 H   0  0  0  0  0  0  0  0  0  0  0  0
  147.3355  138.5487  151.0124 H   0  0  0  0  0  0  0  0  0  0  0  0
  147.3573  140.2693  151.3507 H   0  0  0  0  0  0  0  0  0  0  0  0
  145.8227  139.4329  151.1255 H   0  0  0  0  0  0  0  0  0  0  0  0
  148.1127  141.3652  153.9683 H   0  0  0  0  0  0  0  0  0  0  0  0
  147.2370  141.6004  152.4688 H   0  0  0  0  0  0  0  0  0  0  0  0
  147.0440  143.5955  153.9524 H   0  0  0  0  0  0  0  0  0  0  0  0
  145.4868  142.8960  153.5954 H   0  0  0  0  0  0  0  0  0  0  0  0
  147.1091  142.5335  156.1564 H   0  0  0  0  0  0  0  0  0  0  0  0
  145.6105  143.4141  156.0112 H   0  0  0  0  0  0  0  0  0  0  0  0
  145.4069  141.1017  157.0048 H   0  0  0  0  0  0  0  0  0  0  0  0
  143.7794  141.4479  154.4473 H   0  0  0  0  0  0  0  0  0  0  0  0
  143.4077  142.1578  156.0150 H   0  0  0  0  0  0  0  0  0  0  0  0
  143.3781  140.4123  155.8106 H   0  0  0  0  0  0  0  0  0  0  0  0
  145.5291  139.1375  155.4677 H   0  0  0  0  0  0  0  0  0  0  0  0
  147.0720  139.9027  155.7707 H   0  0  0  0  0  0  0  0  0  0  0  0
  148.8362  133.2623  154.6232 H   0  0  0  0  0  0  0  0  0  0  0  0
  149.7796  132.8727  153.1689 H   0  0  0  0  0  0  0  0  0  0  0  0
  149.4233  131.6092  154.3648 H   0  0  0  0  0  0  0  0  0  0  0  0
  145.3978  140.4489  153.4450 H   0  0  0  0  0  0  0  0  0  0  0  0
  1  2  1  0  0  0  0
  1 22  1  0  0  0  0
  1 23  1  0  0  0  0
  1 24  1  0  0  0  0
  2 21  2  0  0  0  0
  2  3  1  0  0  0  0
  3  4  2  0  0  0  0
  3 25  1  0  0  0  0
  4  5  1  0  0  0  0
  4 19  1  0  0  0  0
  5  6  1  0  0  0  0
  5 26  1  0  0  0  0
  6  7  2  0  0  0  0
  6  8  1  0  0  0  0
  8  9  1  0  0  0  0
  8 27  1  0  0  0  0
  9 10  1  0  0  0  0
  9 28  1  0  0  0  0
  9 29  1  0  0  0  0
 10 11  1  0  0  0  0
 10 12  1  0  0  0  0
 10 30  1  0  0  0  0
 11 31  1  0  0  0  0
 11 32  1  0  0  0  0
 11 33  1  0  0  0  0
 12 18  1  0  0  0  0
 12 13  1  0  0  0  0
 12 49  1  0  0  0  0
 13 14  1  0  0  0  0
 13 34  1  0  0  0  0
 13 35  1  0  0  0  0
 14 15  1  0  0  0  0
 14 36  1  0  0  0  0
 14 37  1  0  0  0  0
 15 16  1  0  0  0  0
 15 38  1  0  0  0  0
 15 39  1  0  0  0  0
 16 17  1  0  0  0  0
 16 18  1  0  0  0  0
 16 40  1  0  0  0  0
 17 41  1  0  0  0  0
 17 42  1  0  0  0  0
 17 43  1  0  0  0  0
 18 44  1  0  0  0  0
 18 45  1  0  0  0  0
 19 20  1  0  0  0  0
 19 21  1  0  0  0  0
 20 46  1  0  0  0  0
 20 47  1  0  0  0  0
 20 48  1  0  0  0  0
M  CHG  1  12   1
M  END
> <s_m_source_file>
AV-unprocessed.smi

> <i_m_source_file_index>
1205

> <i_lp_mmshare_version>
43012

> <i_f3d_flags>
0

> <s_epik_input>
W0NIM11jMVtjSF1jKG4objEpW0NIM10pW05IXUMoPU8pW05IXVtDSDJdW0NASF0oW0NIM10pTjJbQ0gyXVtDSDJdW0NIMl1bQ0BASF0oW0NIM10pW0NIMl0y

> <s_epik_cmdline>
J2VwaWtfcHl0aG9uJywgJy1waCcsICc3LjAnLCAnLXRuJywgJzgnLCAnLW1hJywgJzIwMCcsICctbWV0YWxfYmluZGluZycsICctaW1hZScsICc8aW5maWxlLm1hZT4nLCAnLW9tYWUnLCAnPG91dGZpbGUubWFlPic=

> <r_lp_tautomer_probability>
1

> <r_epik_Ionization_Penalty>
0.0020309

> <r_epik_Ionization_Penalty_Charging>
0.00195276

> <r_epik_Ionization_Penalty_Neutral>
7.81448e-05

> <r_epik_State_Penalty>
0.00133177

> <r_epik_Charging_Adjusted_Penalty>
0.00328452

> <i_epik_Tot_Q>
1

> <i_epik_Tot_abs_Q>
1

> <r_epik_Metal_State_Penalty>
-0

> <b_epik_Metal_Only>
0

> <s_lp_Force_Field>
OPLS_2005

> <r_lp_Energy>
24.2005

> <b_lp_Chiralities_Consistent>
1

> <s_lp_Variant>
AV-unprocessed.smi:1205-4

> <Gold.Version>
5.8.1

> <Gold.Id.Protein>
6NUR|6NUR_protein|mol2

> <Gold.PLP.Fitness>
45.5647

> <Gold.PLP.PLP>
-34.8302

> <Gold.PLP.part.hbond>
-3.0000

> <Gold.PLP.part.metal>
0.0000

> <Gold.PLP.part.buried>
-2.0744

> <Gold.PLP.part.nonpolar>
-29.5610

> <Gold.PLP.part.repulsive>
0.4983

> <Gold.PLP.ligand.clash>
0.0000

> <Gold.PLP.ligand.torsion>
0.6720

> <Gold.PLP.Chemscore.Hbond>
3.9920

> <Gold.PLP.Chemscore.CHOScore>
0.0000

> <Gold.PLP.Chemscore.Metal>
0.0000

> <Gold.Chemscore.Hbonds>
donor molecule, donor type, donor heavy atom, donor atom, acceptor molecule, acceptor atom, score
      L1  H     5    26       P1  7948  0.99
      L1  H     8    27       P1  7948  1.00
      L1  H    12    49       P1 10175  2.00

> <Gold.PLP.Chemscore.Internal.Correction>
0.1025

> <Gold.Rescore>
     Score         DG    S(hbond)    S(metal)    S(lipo)     H(rot)  DE(clash)    DE(int)     intcor
     18.66     -19.62       2.82        0.00      72.31       1.47       0.35       0.61       ----

> <Gold.Chemscore.Fitness>
18.6582

> <Gold.Chemscore.DG>
-19.6153

> <Gold.Chemscore.ZeroCoef>
-5.4800

> <Gold.Chemscore.Hbond>
2.8226

> <Gold.Chemscore.Metal>
0.0000

> <Gold.Chemscore.Lipo>
72.3118

> <Gold.Chemscore.Internal_Hbond>
0.0000

> <Gold.Chemscore.DEClash>
0.3480

> <Gold.Chemscore.DEInternal>
0.6091

> <Gold.Chemscore.Rot>
1.4658

> <Gold.Chemscore.Internal.Correction>
   9.000000E+99

> <Gold.Chemscore.Hbonds>
donor molecule, donor type, donor heavy atom, donor atom, acceptor molecule, acceptor atom, score
      L1  H     5    26       P1  7948  0.56
      L1  H     8    27       P1  7948  0.98
      L1  H    12    49       P1 10175  0.97

> <Gold.Chemscore.Hbond.Weighted>
-9.4274

> <Gold.Chemscore.Metal.Weighted>
-0.0000

> <Gold.Chemscore.Lipo.Weighted>
-8.4605

> <Gold.Chemscore.Internal_Hbond.Weighted>
0.0000

> <Gold.Chemscore.DEClash.Weighted>
0.3480

> <Gold.Chemscore.DEInternal.Weighted>
0.6091

> <Gold.Chemscore.Rot.Weighted>
3.7526

> <Gold.Chemscore.Internal.Correction.Weighted>
   9.000000E+99

> <Gold.Protein.RotatedTorsions>
[ 6907 6896 6895 6894 ] final  -35.71 input  -60.11 | X-H torsion
[ 7974 7965 7964 7962 ] final   15.85 input  175.53 | X-H torsion
[ 8008 7997 7996 7995 ] final   61.15 input   59.86 | X-H torsion
[ 10167 10162 10161 10158 ] final -124.45 input  -65.29 | X-H torsion
[ 10718 10713 10712 10709 ] final -153.84 input   66.30 | X-H torsion
[ 10763 10752 10751 10750 ] final -113.45 input  -60.55 | X-H torsion
[ 11005 11000 10999 10996 ] final   83.18 input  -57.11 | X-H torsion

> <Gold.Protein.ActiveResidues>
 VAL166  LYS551  ARG553  GLY616  TRP617  ASP618  TYR619  PRO620  LYS621  CYS622 
 ASP623  PHE694  ASN695  SER759  ASP760  ASP761  ALA762  ILE779  LEU786  VAL792 
 PHE793  MET794  SER795  GLU796  ALA797  LYS798  CYS799  TRP800  GLU811  SER814 

> <Gold.Protein.RotatedAtoms>
  151.0364  134.9576  159.8138 H   0  0  0  0  0  0  0  0  0  0  0  0  # atno 6907 bound_to 6896
  152.5356  134.2714  159.8983 H   0  0  0  0  0  0  0  0  0  0  0  0  # atno 6908 bound_to 6896
  151.2725  133.4206  159.2656 H   0  0  0  0  0  0  0  0  0  0  0  0  # atno 6909 bound_to 6896
  146.2267  139.8834  142.8567 H   0  0  0  0  0  0  0  0  0  0  0  0  # atno 7974 bound_to 7965
  155.5937  140.3493  155.4574 H   0  0  0  0  0  0  0  0  0  0  0  0  # atno 8008 bound_to 7997
  156.0282  140.1268  157.0311 H   0  0  0  0  0  0  0  0  0  0  0  0  # atno 8009 bound_to 7997
  154.4341  140.1049  156.6047 H   0  0  0  0  0  0  0  0  0  0  0  0  # atno 8010 bound_to 7997
  139.9926  143.5625  152.2336 H   0  0  0  0  0  0  0  0  0  0  0  0  # atno 10167 bound_to 10162
  156.4912  130.8348  151.2571 H   0  0  0  0  0  0  0  0  0  0  0  0  # atno 10718 bound_to 10713
  154.8396  135.4454  154.1351 H   0  0  0  0  0  0  0  0  0  0  0  0  # atno 10763 bound_to 10752
  153.2551  135.6930  153.7644 H   0  0  0  0  0  0  0  0  0  0  0  0  # atno 10764 bound_to 10752
  153.6942  135.3382  155.3185 H   0  0  0  0  0  0  0  0  0  0  0  0  # atno 10765 bound_to 10752
  139.9039  134.8126  156.2274 H   0  0  0  0  0  0  0  0  0  0  0  0  # atno 11005 bound_to 11000
  145.2490  141.0037  143.3892 LP  0  0  0  0  0  0  0  0  0  0  0  0  # atno 17320 bound_to 7965
  144.9390  139.4210  143.6458 LP  0  0  0  0  0  0  0  0  0  0  0  0  # atno 17321 bound_to 7965
  139.6329  144.7646  151.2499 LP  0  0  0  0  0  0  0  0  0  0  0  0  # atno 17342 bound_to 10162
  140.7449  143.6448  150.8301 LP  0  0  0  0  0  0  0  0  0  0  0  0  # atno 17343 bound_to 10162
  157.7473  131.0013  150.2957 LP  0  0  0  0  0  0  0  0  0  0  0  0  # atno 17370 bound_to 10713
  156.3425  130.3817  149.7397 LP  0  0  0  0  0  0  0  0  0  0  0  0  # atno 17371 bound_to 10713
  141.0367  133.6959  156.1525 LP  0  0  0  0  0  0  0  0  0  0  0  0  # atno 17394 bound_to 11000
  140.7016  134.4557  157.5586 LP  0  0  0  0  0  0  0  0  0  0  0  0  # atno 17395 bound_to 11000

$$$$
