AV-unprocessed.smi:1386|AV-procd|sdf|5639|dock3
  -GOLD-   22720 5253D 1   1.00000     0.00000
 Structure written by MMmdl.
 35 36  0  0  0  0  0  0  0  0  1 V2000
  149.9825  141.7168  155.4688 C   0  0  0  0  0  0  0  0  0  0  0  0
  150.9681  140.9847  156.3890 C   0  0  1  0  0  0  0  0  0  0  0  0
  151.9958  140.1655  155.5815 C   0  0  0  0  0  0  0  0  0  0  0  0
  151.5271  138.8248  155.2788 N   0  0  0  0  0  0  0  0  0  0  0  0
  150.5588  138.4613  154.3520 C   0  0  0  0  0  0  0  0  0  0  0  0
  150.4397  137.0918  154.4247 C   0  0  0  0  0  0  0  0  0  0  0  0
  151.3273  136.5935  155.3754 N   0  0  0  0  0  0  0  0  0  0  0  0
  151.9403  137.6769  155.8334 C   0  0  0  0  0  0  0  0  0  0  0  0
  151.6506  141.9611  157.2377 N   0  0  0  0  0  0  0  0  0  0  0  0
  151.0582  142.9121  157.9819 C   0  0  0  0  0  0  0  0  0  0  0  0
  149.8443  143.1181  157.9435 O   0  0  0  0  0  0  0  0  0  0  0  0
  151.9044  143.6235  158.7687 N   0  0  0  0  0  0  0  0  0  0  0  0
  153.2021  143.1538  159.2811 C   0  0  0  0  0  0  0  0  0  0  0  0
  152.9998  142.5551  160.6833 C   0  0  0  0  0  0  0  0  0  0  0  0
  152.3941  143.8147  161.8494 S   0  0  0  0  0  0  0  0  0  0  0  0
  151.0155  144.4983  160.8765 C   0  0  0  0  0  0  0  0  0  0  0  0
  151.4684  144.8488  159.4485 C   0  0  0  0  0  0  0  0  0  0  0  0
  149.4391  141.0128  154.8381 H   0  0  0  0  0  0  0  0  0  0  0  0
  150.4967  142.4217  154.8144 H   0  0  0  0  0  0  0  0  0  0  0  0
  149.2461  142.2750  156.0478 H   0  0  0  0  0  0  0  0  0  0  0  0
  150.3847  140.2947  157.0007 H   0  0  0  0  0  0  0  0  0  0  0  0
  152.2175  140.6650  154.6376 H   0  0  0  0  0  0  0  0  0  0  0  0
  152.9384  140.0935  156.1265 H   0  0  0  0  0  0  0  0  0  0  0  0
  150.0416  139.1876  153.7424 H   0  0  0  0  0  0  0  0  0  0  0  0
  149.7899  136.4319  153.8692 H   0  0  0  0  0  0  0  0  0  0  0  0
  152.7013  137.6349  156.5988 H   0  0  0  0  0  0  0  0  0  0  0  0
  152.6532  141.8700  157.3123 H   0  0  0  0  0  0  0  0  0  0  0  0
  153.6800  142.4235  158.6278 H   0  0  0  0  0  0  0  0  0  0  0  0
  153.9059  143.9859  159.3306 H   0  0  0  0  0  0  0  0  0  0  0  0
  152.2857  141.7325  160.6473 H   0  0  0  0  0  0  0  0  0  0  0  0
  153.9370  142.1488  161.0633 H   0  0  0  0  0  0  0  0  0  0  0  0
  150.2028  143.7711  160.8512 H   0  0  0  0  0  0  0  0  0  0  0  0
  150.6347  145.3850  161.3836 H   0  0  0  0  0  0  0  0  0  0  0  0
  152.2820  145.5748  159.4779 H   0  0  0  0  0  0  0  0  0  0  0  0
  150.6591  145.3448  158.9103 H   0  0  0  0  0  0  0  0  0  0  0  0
  1  2  1  0  0  0  0
  1 18  1  0  0  0  0
  1 19  1  0  0  0  0
  1 20  1  0  0  0  0
  2  3  1  0  0  0  0
  2  9  1  0  0  0  0
  2 21  1  0  0  0  0
  3  4  1  0  0  0  0
  3 22  1  0  0  0  0
  3 23  1  0  0  0  0
  4  8  1  0  0  0  0
  4  5  1  0  0  0  0
  5  6  2  0  0  0  0
  5 24  1  0  0  0  0
  6  7  1  0  0  0  0
  6 25  1  0  0  0  0
  7  8  2  0  0  0  0
  8 26  1  0  0  0  0
  9 10  1  0  0  0  0
  9 27  1  0  0  0  0
 10 11  2  0  0  0  0
 10 12  1  0  0  0  0
 12 17  1  0  0  0  0
 12 13  1  0  0  0  0
 13 14  1  0  0  0  0
 13 28  1  0  0  0  0
 13 29  1  0  0  0  0
 14 15  1  0  0  0  0
 14 30  1  0  0  0  0
 14 31  1  0  0  0  0
 15 16  1  0  0  0  0
 16 17  1  0  0  0  0
 16 32  1  0  0  0  0
 16 33  1  0  0  0  0
 17 34  1  0  0  0  0
 17 35  1  0  0  0  0
M  END
> <s_m_source_file>
AV-unprocessed.smi

> <i_m_source_file_index>
1386

> <i_lp_mmshare_version>
43012

> <i_f3d_flags>
0

> <s_epik_input>
W2NIXTFuW2NIXVtjSF1uMVtDSDJdW0NAQEhdKFtDSDNdKVtOSF1DKD1PKU4yW0NIMl1bQ0gyXVNbQ0gyXVtDSDJdMg==

> <s_epik_cmdline>
J2VwaWtfcHl0aG9uJywgJy1waCcsICc3LjAnLCAnLXRuJywgJzgnLCAnLW1hJywgJzIwMCcsICctbWV0YWxfYmluZGluZycsICctaW1hZScsICc8aW5maWxlLm1hZT4nLCAnLW9tYWUnLCAnPG91dGZpbGUubWFlPic=

> <r_lp_tautomer_probability>
1

> <r_epik_Ionization_Penalty>
0.622677

> <r_epik_Ionization_Penalty_Charging>
0.62263

> <r_epik_Ionization_Penalty_Neutral>
4.67019e-05

> <r_epik_State_Penalty>
0.63879

> <r_epik_Charging_Adjusted_Penalty>
1.26142

> <i_epik_Tot_Q>
0

> <i_epik_Tot_abs_Q>
0

> <r_epik_Metal_State_Penalty>
0.307117

> <b_epik_Metal_Only>
0

> <s_lp_Force_Field>
OPLS_2005

> <r_lp_Energy>
24.3831

> <b_lp_Chiralities_Consistent>
1

> <s_lp_Variant>
AV-unprocessed.smi:1386-4

> <Gold.Version>
5.8.1

> <Gold.Id.Protein>
6NUR|6NUR_protein|mol2

> <Gold.PLP.Fitness>
43.4434

> <Gold.PLP.PLP>
-37.5470

> <Gold.PLP.part.hbond>
-1.0000

> <Gold.PLP.part.metal>
0.0000

> <Gold.PLP.part.buried>
1.7813

> <Gold.PLP.part.nonpolar>
-38.1631

> <Gold.PLP.part.repulsive>
0.9328

> <Gold.PLP.ligand.clash>
0.0000

> <Gold.PLP.ligand.torsion>
0.7293

> <Gold.PLP.Chemscore.Hbond>
1.0000

> <Gold.PLP.Chemscore.CHOScore>
1.4284

> <Gold.PLP.Chemscore.Metal>
0.0000

> <Gold.Chemscore.Hbonds>
donor molecule, donor type, donor heavy atom, donor atom, acceptor molecule, acceptor atom, score
      P1  H 10752 10764       L1     7  0.81
      L1  C     5    24       P1  7957  0.46
      L1  C     6    25       P1  7948  1.00

> <Gold.PLP.Chemscore.Internal.Correction>
0.0698

> <Gold.Rescore>
     Score         DG    S(hbond)    S(metal)    S(lipo)     H(rot)  DE(clash)    DE(int)     intcor
     11.26     -14.62       0.59        0.00      96.12       1.59       1.25       2.11       ----

> <Gold.Chemscore.Fitness>
11.2592

> <Gold.Chemscore.DG>
-14.6156

> <Gold.Chemscore.ZeroCoef>
-5.4800

> <Gold.Chemscore.Hbond>
0.5869

> <Gold.Chemscore.Metal>
0.0000

> <Gold.Chemscore.Lipo>
96.1191

> <Gold.Chemscore.Internal_Hbond>
0.0000

> <Gold.Chemscore.DEClash>
1.2477

> <Gold.Chemscore.DEInternal>
2.1086

> <Gold.Chemscore.Rot>
1.5901

> <Gold.Chemscore.Internal.Correction>
   9.000000E+99

> <Gold.Chemscore.Hbonds>
donor molecule, donor type, donor heavy atom, donor atom, acceptor molecule, acceptor atom, score
      P1  H 10752 10764       L1     7  0.15

> <Gold.Chemscore.Hbond.Weighted>
-1.9602

> <Gold.Chemscore.Metal.Weighted>
-0.0000

> <Gold.Chemscore.Lipo.Weighted>
-11.2459

> <Gold.Chemscore.Internal_Hbond.Weighted>
0.0000

> <Gold.Chemscore.DEClash.Weighted>
1.2477

> <Gold.Chemscore.DEInternal.Weighted>
2.1086

> <Gold.Chemscore.Rot.Weighted>
4.0706

> <Gold.Chemscore.Internal.Correction.Weighted>
   9.000000E+99

> <Gold.Protein.RotatedTorsions>
[ 6907 6896 6895 6894 ] final   95.83 input  -60.11 | X-H torsion
[ 7974 7965 7964 7962 ] final  -77.62 input  175.53 | X-H torsion
[ 8008 7997 7996 7995 ] final  151.55 input   59.86 | X-H torsion
[ 10167 10162 10161 10158 ] final -117.02 input  -65.29 | X-H torsion
[ 10718 10713 10712 10709 ] final  108.47 input   66.30 | X-H torsion
[ 10763 10752 10751 10750 ] final  -71.84 input  -60.55 | X-H torsion
[ 11005 11000 10999 10996 ] final  -43.97 input  -57.11 | X-H torsion

> <Gold.Protein.ActiveResidues>
 VAL166  LYS551  ARG553  GLY616  TRP617  ASP618  TYR619  PRO620  LYS621  CYS622 
 ASP623  PHE694  ASN695  SER759  ASP760  ASP761  ALA762  ILE779  LEU786  VAL792 
 PHE793  MET794  SER795  GLU796  ALA797  LYS798  CYS799  TRP800  GLU811  SER814 

> <Gold.Protein.RotatedAtoms>
  152.5440  134.0980  159.8304 H   0  0  0  0  0  0  0  0  0  0  0  0  # atno 6907 bound_to 6896
  151.1061  133.5200  159.2615 H   0  0  0  0  0  0  0  0  0  0  0  0  # atno 6908 bound_to 6896
  151.1937  135.0422  159.8897 H   0  0  0  0  0  0  0  0  0  0  0  0  # atno 6909 bound_to 6896
  145.5973  140.9416  143.1260 H   0  0  0  0  0  0  0  0  0  0  0  0  # atno 7974 bound_to 7965
  156.2669  140.2045  156.6193 H   0  0  0  0  0  0  0  0  0  0  0  0  # atno 8008 bound_to 7997
  154.6769  140.0544  157.0250 H   0  0  0  0  0  0  0  0  0  0  0  0  # atno 8009 bound_to 7997
  155.1055  140.3210  155.4538 H   0  0  0  0  0  0  0  0  0  0  0  0  # atno 8010 bound_to 7997
  140.0728  143.4861  152.1970 H   0  0  0  0  0  0  0  0  0  0  0  0  # atno 10167 bound_to 10162
  157.6585  131.0894  150.6310 H   0  0  0  0  0  0  0  0  0  0  0  0  # atno 10718 bound_to 10713
  154.4373  135.5949  153.6107 H   0  0  0  0  0  0  0  0  0  0  0  0  # atno 10763 bound_to 10752
  152.9803  135.5989  154.3765 H   0  0  0  0  0  0  0  0  0  0  0  0  # atno 10764 bound_to 10752
  154.3611  135.2841  155.2298 H   0  0  0  0  0  0  0  0  0  0  0  0  # atno 10765 bound_to 10752
  141.0419  133.6776  156.2807 H   0  0  0  0  0  0  0  0  0  0  0  0  # atno 11005 bound_to 11000
  144.7325  139.7683  143.7342 LP  0  0  0  0  0  0  0  0  0  0  0  0  # atno 17320 bound_to 7965
  146.1602  139.4714  142.9993 LP  0  0  0  0  0  0  0  0  0  0  0  0  # atno 17321 bound_to 7965
  139.5825  144.7517  151.3602 LP  0  0  0  0  0  0  0  0  0  0  0  0  # atno 17342 bound_to 10162
  140.7117  143.7374  150.7579 LP  0  0  0  0  0  0  0  0  0  0  0  0  # atno 17343 bound_to 10162
  156.6614  130.4513  149.5686 LP  0  0  0  0  0  0  0  0  0  0  0  0  # atno 17370 bound_to 10713
  156.2064  130.6652  151.1223 LP  0  0  0  0  0  0  0  0  0  0  0  0  # atno 17371 bound_to 10713
  140.6218  134.5354  157.5548 LP  0  0  0  0  0  0  0  0  0  0  0  0  # atno 17394 bound_to 11000
  139.9282  134.8014  156.1006 LP  0  0  0  0  0  0  0  0  0  0  0  0  # atno 17395 bound_to 11000

$$$$
