AV-unprocessed.smi:1820|AV-procd|sdf|7385|dock5
  -GOLD-   22720 9 53D 1   1.00000     0.00000
 Structure written by MMmdl.
 35 36  0  0  0  0  0  0  0  0  2 V2000
  145.3198  138.0970  153.9748 O   0  0  0  0  0  0  0  0  0  0  0  0
  146.3145  137.7121  153.3606 C   0  0  0  0  0  0  0  0  0  0  0  0
  146.3761  136.5440  152.7069 N   0  0  0  0  0  0  0  0  0  0  0  0
  145.2781  135.5883  152.5876 C   0  0  0  0  0  0  0  0  0  0  0  0
  145.1345  135.0058  151.1576 C   0  0  0  0  0  0  0  0  0  0  0  0
  145.0229  136.0821  150.2468 O   0  0  0  0  0  0  0  0  0  0  0  0
  146.2532  134.0367  150.7427 C   0  0  0  0  0  0  0  0  0  0  0  0
  145.8530  132.6907  151.3550 C   0  0  0  0  0  0  0  0  0  0  0  0
  144.3217  132.7225  151.4824 C   0  0  0  0  0  0  0  0  0  0  0  0
  143.8814  134.1260  151.0419 C   0  0  0  0  0  0  0  0  0  0  0  0
  147.4756  138.3827  153.2660 N   0  0  0  0  0  0  0  0  0  0  0  0
  147.8109  139.6561  153.8016 C   0  0  0  0  0  0  0  0  0  0  0  0
  146.7981  140.6409  153.8251 C   0  0  0  0  0  0  0  0  0  0  0  0
  147.0788  141.9157  154.3572 C   0  0  0  0  0  0  0  0  0  0  0  0
  148.3070  142.1832  154.8500 N   0  3  0  0  0  0  0  0  0  0  0  0
  149.3020  141.2706  154.8646 C   0  0  0  0  0  0  0  0  0  0  0  0
  149.0809  139.9787  154.3451 C   0  0  0  0  0  0  0  0  0  0  0  0
  147.2353  136.3058  152.2335 H   0  0  0  0  0  0  0  0  0  0  0  0
  145.4980  134.7844  153.2904 H   0  0  0  0  0  0  0  0  0  0  0  0
  144.3357  136.0229  152.9263 H   0  0  0  0  0  0  0  0  0  0  0  0
  145.2372  135.7680  149.3819 H   0  0  0  0  0  0  0  0  0  0  0  0
  146.2626  133.9334  149.6564 H   0  0  0  0  0  0  0  0  0  0  0  0
  147.2538  134.3533  151.0365 H   0  0  0  0  0  0  0  0  0  0  0  0
  146.1996  131.8528  150.7493 H   0  0  0  0  0  0  0  0  0  0  0  0
  146.3008  132.5857  152.3440 H   0  0  0  0  0  0  0  0  0  0  0  0
  143.8488  131.9536  150.8705 H   0  0  0  0  0  0  0  0  0  0  0  0
  144.0311  132.5385  152.5174 H   0  0  0  0  0  0  0  0  0  0  0  0
  143.0388  134.5037  151.6226 H   0  0  0  0  0  0  0  0  0  0  0  0
  143.5557  134.0749  150.0013 H   0  0  0  0  0  0  0  0  0  0  0  0
  148.2268  137.8987  152.7965 H   0  0  0  0  0  0  0  0  0  0  0  0
  145.8141  140.4266  153.4334 H   0  0  0  0  0  0  0  0  0  0  0  0
  146.3619  142.7224  154.4051 H   0  0  0  0  0  0  0  0  0  0  0  0
  150.2383  141.5966  155.2933 H   0  0  0  0  0  0  0  0  0  0  0  0
  149.8855  139.2606  154.3852 H   0  0  0  0  0  0  0  0  0  0  0  0
  148.4897  143.1117  155.2317 H   0  0  0  0  0  0  0  0  0  0  0  0
  1  2  2  0  0  0  0
  2  3  1  0  0  0  0
  2 11  1  0  0  0  0
  3  4  1  0  0  0  0
  3 18  1  0  0  0  0
  4  5  1  0  0  0  0
  4 19  1  0  0  0  0
  4 20  1  0  0  0  0
  5 10  1  0  0  0  0
  5  6  1  0  0  0  0
  5  7  1  0  0  0  0
  6 21  1  0  0  0  0
  7  8  1  0  0  0  0
  7 22  1  0  0  0  0
  7 23  1  0  0  0  0
  8  9  1  0  0  0  0
  8 24  1  0  0  0  0
  8 25  1  0  0  0  0
  9 10  1  0  0  0  0
  9 26  1  0  0  0  0
  9 27  1  0  0  0  0
 10 28  1  0  0  0  0
 10 29  1  0  0  0  0
 11 12  1  0  0  0  0
 11 30  1  0  0  0  0
 12 17  1  0  0  0  0
 12 13  2  0  0  0  0
 13 14  1  0  0  0  0
 13 31  1  0  0  0  0
 14 15  2  0  0  0  0
 14 32  1  0  0  0  0
 15 16  1  0  0  0  0
 15 35  1  0  0  0  0
 16 17  2  0  0  0  0
 16 33  1  0  0  0  0
 17 34  1  0  0  0  0
M  CHG  1  15   1
M  END
> <s_m_source_file>
AV-unprocessed.smi

> <i_m_source_file_index>
1820

> <i_lp_mmshare_version>
43012

> <i_f3d_flags>
0

> <s_epik_input>
W2NIXTFbY0hdbltjSF1bY0hdYzFbTkhdQyg9TylbTkhdW0NIMl1DMihbT0hdKVtDSDJdW0NIMl1bQ0gyXVtDSDJdMg==

> <s_epik_cmdline>
J2VwaWtfcHl0aG9uJywgJy1waCcsICc3LjAnLCAnLXRuJywgJzgnLCAnLW1hJywgJzIwMCcsICctbWV0YWxfYmluZGluZycsICctaW1hZScsICc8aW5maWxlLm1hZT4nLCAnLW9tYWUnLCAnPG91dGZpbGUubWFlPic=

> <r_epik_Ionization_Penalty>
0.972463

> <r_epik_Ionization_Penalty_Charging>
0.972441

> <r_epik_Ionization_Penalty_Neutral>
2.25054e-05

> <r_epik_State_Penalty>
1.01855

> <r_epik_Charging_Adjusted_Penalty>
1.99099

> <i_epik_Tot_Q>
1

> <i_epik_Tot_abs_Q>
1

> <r_epik_Metal_State_Penalty>
1.12508

> <b_epik_Metal_Only>
0

> <s_lp_Force_Field>
OPLS_2005

> <r_lp_Energy>
34.043

> <b_lp_Chiralities_Consistent>
1

> <s_lp_Variant>
AV-unprocessed.smi:1820-2

> <Gold.Version>
5.8.1

> <Gold.Id.Protein>
6NUR|6NUR_protein|mol2

> <Gold.PLP.Fitness>
45.9535

> <Gold.PLP.PLP>
-31.8018

> <Gold.PLP.part.hbond>
-5.0000

> <Gold.PLP.part.metal>
0.0000

> <Gold.PLP.part.buried>
-5.3735

> <Gold.PLP.part.nonpolar>
-23.1023

> <Gold.PLP.part.repulsive>
0.7267

> <Gold.PLP.ligand.clash>
0.0000

> <Gold.PLP.ligand.torsion>
0.4291

> <Gold.PLP.Chemscore.Hbond>
5.0000

> <Gold.PLP.Chemscore.CHOScore>
0.0000

> <Gold.PLP.Chemscore.Metal>
0.0000

> <Gold.Chemscore.Hbonds>
donor molecule, donor type, donor heavy atom, donor atom, acceptor molecule, acceptor atom, score
      L1  H     3    18       P1  7948  1.00
      L1  H     6    21       P1  7921  0.65
      L1  H    11    30       P1  7948  1.00
      L1  H    15    35       P1  8028  2.00

> <Gold.PLP.Chemscore.Internal.Correction>
0.0100

> <Gold.Rescore>
     Score         DG    S(hbond)    S(metal)    S(lipo)     H(rot)  DE(clash)    DE(int)     intcor
     20.49     -22.16       3.94        0.00      69.12       1.79       0.01       1.66       ----

> <Gold.Chemscore.Fitness>
20.4870

> <Gold.Chemscore.DG>
-22.1556

> <Gold.Chemscore.ZeroCoef>
-5.4800

> <Gold.Chemscore.Hbond>
3.9403

> <Gold.Chemscore.Metal>
0.0000

> <Gold.Chemscore.Lipo>
69.1173

> <Gold.Chemscore.Internal_Hbond>
0.0000

> <Gold.Chemscore.DEClash>
0.0110

> <Gold.Chemscore.DEInternal>
1.6576

> <Gold.Chemscore.Rot>
1.7858

> <Gold.Chemscore.Internal.Correction>
   9.000000E+99

> <Gold.Chemscore.Hbonds>
donor molecule, donor type, donor heavy atom, donor atom, acceptor molecule, acceptor atom, score
      L1  H     3    18       P1  7948  1.00
      L1  H     6    21       P1  7921  0.65
      L1  H    11    30       P1  7948  0.89
      L1  H    15    35       P1  8028  1.00

> <Gold.Chemscore.Hbond.Weighted>
-13.1606

> <Gold.Chemscore.Metal.Weighted>
-0.0000

> <Gold.Chemscore.Lipo.Weighted>
-8.0867

> <Gold.Chemscore.Internal_Hbond.Weighted>
0.0000

> <Gold.Chemscore.DEClash.Weighted>
0.0110

> <Gold.Chemscore.DEInternal.Weighted>
1.6576

> <Gold.Chemscore.Rot.Weighted>
4.5717

> <Gold.Chemscore.Internal.Correction.Weighted>
   9.000000E+99

> <Gold.Protein.RotatedTorsions>
[ 6907 6896 6895 6894 ] final   43.48 input  -60.11 | X-H torsion
[ 7974 7965 7964 7962 ] final   25.91 input  175.53 | X-H torsion
[ 8008 7997 7996 7995 ] final   23.76 input   59.86 | X-H torsion
[ 10167 10162 10161 10158 ] final   26.13 input  -65.29 | X-H torsion
[ 10718 10713 10712 10709 ] final  -60.29 input   66.30 | X-H torsion
[ 10763 10752 10751 10750 ] final  -97.05 input  -60.55 | X-H torsion
[ 11005 11000 10999 10996 ] final  138.17 input  -57.11 | X-H torsion

> <Gold.Protein.ActiveResidues>
 VAL166  LYS551  ARG553  GLY616  TRP617  ASP618  TYR619  PRO620  LYS621  CYS622 
 ASP623  PHE694  ASN695  SER759  ASP760  ASP761  ALA762  ILE779  LEU786  VAL792 
 PHE793  MET794  SER795  GLU796  ALA797  LYS798  CYS799  TRP800  GLU811  SER814 

> <Gold.Protein.RotatedAtoms>
  152.2208  134.8415  160.0485 H   0  0  0  0  0  0  0  0  0  0  0  0  # atno 6907 bound_to 6896
  151.9199  133.3578  159.3901 H   0  0  0  0  0  0  0  0  0  0  0  0  # atno 6908 bound_to 6896
  150.6999  134.4571  159.5407 H   0  0  0  0  0  0  0  0  0  0  0  0  # atno 6909 bound_to 6896
  146.1865  139.7401  142.8863 H   0  0  0  0  0  0  0  0  0  0  0  0  # atno 7974 bound_to 7965
  154.9859  140.3108  155.4926 H   0  0  0  0  0  0  0  0  0  0  0  0  # atno 8008 bound_to 7997
  156.2947  140.2258  156.4901 H   0  0  0  0  0  0  0  0  0  0  0  0  # atno 8009 bound_to 7997
  154.7747  140.0450  157.1067 H   0  0  0  0  0  0  0  0  0  0  0  0  # atno 8010 bound_to 7997
  140.5049  144.0256  150.6348 H   0  0  0  0  0  0  0  0  0  0  0  0  # atno 10167 bound_to 10162
  156.1001  130.4187  150.0833 H   0  0  0  0  0  0  0  0  0  0  0  0  # atno 10718 bound_to 10713
  154.7293  135.5061  153.8938 H   0  0  0  0  0  0  0  0  0  0  0  0  # atno 10763 bound_to 10752
  153.0935  135.6666  153.9817 H   0  0  0  0  0  0  0  0  0  0  0  0  # atno 10764 bound_to 10752
  153.9622  135.3047  155.3412 H   0  0  0  0  0  0  0  0  0  0  0  0  # atno 10765 bound_to 10752
  140.0165  134.9416  157.0386 H   0  0  0  0  0  0  0  0  0  0  0  0  # atno 11005 bound_to 11000
  145.3924  141.0374  143.3116 LP  0  0  0  0  0  0  0  0  0  0  0  0  # atno 17320 bound_to 7965
  144.8406  139.5478  143.6902 LP  0  0  0  0  0  0  0  0  0  0  0  0  # atno 17321 bound_to 7965
  140.3562  143.2934  152.0434 LP  0  0  0  0  0  0  0  0  0  0  0  0  # atno 17342 bound_to 10162
  139.4881  144.6337  151.7018 LP  0  0  0  0  0  0  0  0  0  0  0  0  # atno 17343 bound_to 10162
  156.8823  130.9560  151.3598 LP  0  0  0  0  0  0  0  0  0  0  0  0  # atno 17370 bound_to 10713
  157.6169  130.8625  149.9044 LP  0  0  0  0  0  0  0  0  0  0  0  0  # atno 17371 bound_to 10713
  140.4462  134.1630  155.7177 LP  0  0  0  0  0  0  0  0  0  0  0  0  # atno 17394 bound_to 11000
  141.1746  133.8540  157.1462 LP  0  0  0  0  0  0  0  0  0  0  0  0  # atno 17395 bound_to 11000

$$$$
