AV-unprocessed.smi:3148|AV-procd|sdf|11992|dock5
  -GOLD-   2272017393D 1   1.00000     0.00000
 Structure written by MMmdl.
 34 36  0  0  0  0  0  0  0  0  1 V2000
  146.9133  140.4915  153.8523 C   0  0  0  0  0  0  0  0  0  0  0  0
  148.0034  139.5765  153.8493 O   0  0  0  0  0  0  0  0  0  0  0  0
  149.1472  139.9267  154.5362 C   0  0  0  0  0  0  0  0  0  0  0  0
  150.3208  139.1648  154.3640 C   0  0  0  0  0  0  0  0  0  0  0  0
  151.4524  139.5815  155.0958 C   0  0  0  0  0  0  0  0  0  0  0  0
  152.7748  138.8520  154.9922 C   0  0  0  0  0  0  0  0  0  0  0  0
  151.4145  140.6533  155.9179 N   0  0  0  0  0  0  0  0  0  0  0  0
  150.2542  141.3066  156.0083 C   0  0  0  0  0  0  0  0  0  0  0  0
  150.2525  142.4023  156.8513 N   0  0  0  0  0  0  0  0  0  0  0  0
  150.6887  142.3678  158.2426 C   0  0  1  0  0  0  0  0  0  0  0  0
  152.1409  141.9146  158.4079 C   0  0  0  0  0  0  0  0  0  0  0  0
  152.7345  143.0602  159.2402 C   0  0  1  0  0  0  0  0  0  0  0  0
  152.9562  144.3178  158.3899 C   0  0  0  0  0  0  0  0  0  0  0  0
  151.5247  144.8080  158.1817 C   0  0  0  0  0  0  0  0  0  0  0  0
  150.7107  143.7438  158.9375 C   0  0  2  0  0  0  0  0  0  0  0  0
  151.6050  143.4581  159.9997 O   0  0  0  0  0  0  0  0  0  0  0  0
  149.1225  141.0004  155.3641 N   0  0  0  0  0  0  0  0  0  0  0  0
  146.0935  140.0775  153.2654 H   0  0  0  0  0  0  0  0  0  0  0  0
  147.1925  141.4462  153.4041 H   0  0  0  0  0  0  0  0  0  0  0  0
  146.5413  140.6663  154.8630 H   0  0  0  0  0  0  0  0  0  0  0  0
  150.3477  138.3099  153.7046 H   0  0  0  0  0  0  0  0  0  0  0  0
  152.6688  137.9242  154.4293 H   0  0  0  0  0  0  0  0  0  0  0  0
  153.1549  138.6066  155.9843 H   0  0  0  0  0  0  0  0  0  0  0  0
  153.5110  139.4766  154.4861 H   0  0  0  0  0  0  0  0  0  0  0  0
  149.7519  143.2198  156.5347 H   0  0  0  0  0  0  0  0  0  0  0  0
  150.0434  141.6886  158.8019 H   0  0  0  0  0  0  0  0  0  0  0  0
  152.1815  140.9728  158.9559 H   0  0  0  0  0  0  0  0  0  0  0  0
  152.6712  141.7794  157.4641 H   0  0  0  0  0  0  0  0  0  0  0  0
  153.6001  142.7718  159.8369 H   0  0  0  0  0  0  0  0  0  0  0  0
  153.5385  145.0601  158.9371 H   0  0  0  0  0  0  0  0  0  0  0  0
  153.4712  144.1015  157.4533 H   0  0  0  0  0  0  0  0  0  0  0  0
  151.3904  145.7882  158.6400 H   0  0  0  0  0  0  0  0  0  0  0  0
  151.2509  144.8904  157.1296 H   0  0  0  0  0  0  0  0  0  0  0  0
  149.7299  144.0901  159.2647 H   0  0  0  0  0  0  0  0  0  0  0  0
  1  2  1  0  0  0  0
  1 18  1  0  0  0  0
  1 19  1  0  0  0  0
  1 20  1  0  0  0  0
  2  3  1  0  0  0  0
  3 17  1  0  0  0  0
  3  4  2  0  0  0  0
  4  5  1  0  0  0  0
  4 21  1  0  0  0  0
  5  6  1  0  0  0  0
  5  7  2  0  0  0  0
  6 22  1  0  0  0  0
  6 23  1  0  0  0  0
  6 24  1  0  0  0  0
  7  8  1  0  0  0  0
  8  9  1  0  0  0  0
  8 17  2  0  0  0  0
  9 10  1  0  0  0  0
  9 25  1  0  0  0  0
 10 15  1  0  0  0  0
 10 11  1  0  0  0  0
 10 26  1  0  0  0  0
 11 12  1  0  0  0  0
 11 27  1  0  0  0  0
 11 28  1  0  0  0  0
 12 16  1  0  0  0  0
 12 13  1  0  0  0  0
 12 29  1  0  0  0  0
 13 14  1  0  0  0  0
 13 30  1  0  0  0  0
 13 31  1  0  0  0  0
 14 15  1  0  0  0  0
 14 32  1  0  0  0  0
 14 33  1  0  0  0  0
 15 16  1  0  0  0  0
 15 34  1  0  0  0  0
M  END
> <s_m_source_file>
AV-unprocessed.smi

> <i_m_source_file_index>
3148

> <i_lp_mmshare_version>
43012

> <i_f3d_flags>
0

> <s_epik_input>
W0NIM11PYzFbY0hdYyhbQ0gzXSluYyhuMSlbTkhdW0NASF0oW0NIMl1bQ0BASF0yMylbQ0BASF0oTzMpW0NIMl1bQ0gyXTI=

> <s_epik_cmdline>
J2VwaWtfcHl0aG9uJywgJy1waCcsICc3LjAnLCAnLXRuJywgJzgnLCAnLW1hJywgJzIwMCcsICctbWV0YWxfYmluZGluZycsICctaW1hZScsICc8aW5maWxlLm1hZT4nLCAnLW9tYWUnLCAnPG91dGZpbGUubWFlPic=

> <r_lp_tautomer_probability>
1

> <r_epik_Ionization_Penalty>
0.101645

> <r_epik_Ionization_Penalty_Charging>
0

> <r_epik_Ionization_Penalty_Neutral>
0.101645

> <r_epik_State_Penalty>
0.0916212

> <r_epik_Charging_Adjusted_Penalty>
0.0916212

> <i_epik_Tot_Q>
0

> <i_epik_Tot_abs_Q>
0

> <r_epik_Metal_State_Penalty>
0.0781

> <b_epik_Metal_Only>
0

> <s_lp_Force_Field>
OPLS_2005

> <r_lp_Energy>
31.5885

> <b_lp_Chiralities_Consistent>
1

> <s_lp_Variant>
AV-unprocessed.smi:3148-2

> <Gold.Version>
5.8.1

> <Gold.Id.Protein>
6NUR|6NUR_protein|mol2

> <Gold.PLP.Fitness>
39.4290

> <Gold.PLP.PLP>
-37.6273

> <Gold.PLP.part.hbond>
-1.2981

> <Gold.PLP.part.metal>
0.0000

> <Gold.PLP.part.buried>
-5.6233

> <Gold.PLP.part.nonpolar>
-32.7412

> <Gold.PLP.part.repulsive>
2.0792

> <Gold.PLP.ligand.clash>
0.0000

> <Gold.PLP.ligand.torsion>
0.6041

> <Gold.PLP.Chemscore.Hbond>
1.0000

> <Gold.PLP.Chemscore.CHOScore>
0.0000

> <Gold.PLP.Chemscore.Metal>
0.0000

> <Gold.Chemscore.Hbonds>
donor molecule, donor type, donor heavy atom, donor atom, acceptor molecule, acceptor atom, score
      L1  H     9    25       P1  8028  1.00

> <Gold.PLP.Chemscore.Internal.Correction>
0.0100

> <Gold.Rescore>
     Score         DG    S(hbond)    S(metal)    S(lipo)     H(rot)  DE(clash)    DE(int)     intcor
     15.20     -16.96       1.00        0.00      96.34       1.22       0.03       1.73       ----

> <Gold.Chemscore.Fitness>
15.2005

> <Gold.Chemscore.DG>
-16.9560

> <Gold.Chemscore.ZeroCoef>
-5.4800

> <Gold.Chemscore.Hbond>
0.9988

> <Gold.Chemscore.Metal>
0.0000

> <Gold.Chemscore.Lipo>
96.3374

> <Gold.Chemscore.Internal_Hbond>
0.0000

> <Gold.Chemscore.DEClash>
0.0251

> <Gold.Chemscore.DEInternal>
1.7304

> <Gold.Chemscore.Rot>
1.2232

> <Gold.Chemscore.Internal.Correction>
   9.000000E+99

> <Gold.Chemscore.Hbonds>
donor molecule, donor type, donor heavy atom, donor atom, acceptor molecule, acceptor atom, score
      L1  H     9    25       P1  8028  0.99

> <Gold.Chemscore.Hbond.Weighted>
-3.3359

> <Gold.Chemscore.Metal.Weighted>
-0.0000

> <Gold.Chemscore.Lipo.Weighted>
-11.2715

> <Gold.Chemscore.Internal_Hbond.Weighted>
0.0000

> <Gold.Chemscore.DEClash.Weighted>
0.0251

> <Gold.Chemscore.DEInternal.Weighted>
1.7304

> <Gold.Chemscore.Rot.Weighted>
3.1314

> <Gold.Chemscore.Internal.Correction.Weighted>
   9.000000E+99

> <Gold.Protein.RotatedTorsions>
[ 6907 6896 6895 6894 ] final   53.95 input  -60.11 | X-H torsion
[ 7974 7965 7964 7962 ] final  107.68 input  175.53 | X-H torsion
[ 8008 7997 7996 7995 ] final   95.22 input   59.86 | X-H torsion
[ 10167 10162 10161 10158 ] final   54.24 input  -65.29 | X-H torsion
[ 10718 10713 10712 10709 ] final  -12.00 input   66.30 | X-H torsion
[ 10763 10752 10751 10750 ] final   75.19 input  -60.55 | X-H torsion
[ 11005 11000 10999 10996 ] final  -35.41 input  -57.11 | X-H torsion

> <Gold.Protein.ActiveResidues>
 VAL166  LYS551  ARG553  GLY616  TRP617  ASP618  TYR619  PRO620  LYS621  CYS622 
 ASP623  PHE694  ASN695  SER759  ASP760  ASP761  ALA762  ILE779  LEU786  VAL792 
 PHE793  MET794  SER795  GLU796  ALA797  LYS798  CYS799  TRP800  GLU811  SER814 

> <Gold.Protein.RotatedAtoms>
  152.3389  134.7160  160.0268 H   0  0  0  0  0  0  0  0  0  0  0  0  # atno 6907 bound_to 6896
  151.7552  133.3324  159.3410 H   0  0  0  0  0  0  0  0  0  0  0  0  # atno 6908 bound_to 6896
  150.7468  134.6088  159.6120 H   0  0  0  0  0  0  0  0  0  0  0  0  # atno 6909 bound_to 6896
  145.2905  139.2602  143.3867 H   0  0  0  0  0  0  0  0  0  0  0  0  # atno 7974 bound_to 7965
  156.0665  140.3289  155.7524 H   0  0  0  0  0  0  0  0  0  0  0  0  # atno 8008 bound_to 7997
  155.5372  140.0598  157.2894 H   0  0  0  0  0  0  0  0  0  0  0  0  # atno 8009 bound_to 7997
  154.4508  140.1917  156.0543 H   0  0  0  0  0  0  0  0  0  0  0  0  # atno 8010 bound_to 7997
  140.2323  144.3674  150.6410 H   0  0  0  0  0  0  0  0  0  0  0  0  # atno 10167 bound_to 10162
  156.6509  130.4954  149.6062 H   0  0  0  0  0  0  0  0  0  0  0  0  # atno 10718 bound_to 10713
  153.0638  135.4998  154.8153 H   0  0  0  0  0  0  0  0  0  0  0  0  # atno 10763 bound_to 10752
  154.6923  135.2986  154.9465 H   0  0  0  0  0  0  0  0  0  0  0  0  # atno 10764 bound_to 10752
  154.0215  135.6741  153.4826 H   0  0  0  0  0  0  0  0  0  0  0  0  # atno 10765 bound_to 10752
  140.9794  133.7065  156.1658 H   0  0  0  0  0  0  0  0  0  0  0  0  # atno 11005 bound_to 11000
  146.3186  140.3395  142.8647 LP  0  0  0  0  0  0  0  0  0  0  0  0  # atno 17320 bound_to 7965
  144.9177  140.7831  143.5768 LP  0  0  0  0  0  0  0  0  0  0  0  0  # atno 17321 bound_to 7965
  140.6176  143.2173  151.6760 LP  0  0  0  0  0  0  0  0  0  0  0  0  # atno 17342 bound_to 10162
  139.5106  144.3538  152.0627 LP  0  0  0  0  0  0  0  0  0  0  0  0  # atno 17343 bound_to 10162
  156.2085  130.6664  151.1244 LP  0  0  0  0  0  0  0  0  0  0  0  0  # atno 17370 bound_to 10713
  157.7141  131.0719  150.6393 LP  0  0  0  0  0  0  0  0  0  0  0  0  # atno 17371 bound_to 10713
  140.7209  134.4359  157.5575 LP  0  0  0  0  0  0  0  0  0  0  0  0  # atno 17394 bound_to 11000
  139.8944  134.8708  156.2179 LP  0  0  0  0  0  0  0  0  0  0  0  0  # atno 17395 bound_to 11000

$$$$
