AV-unprocessed.smi:1798|AV-procd|sdf|7260|dock1
  -GOLD-   22720 8513D 1   1.00000     0.00000
 Structure written by MMmdl.
 40 41  0  0  0  0  0  0  0  0  3 V2000
  151.8394  143.4308  162.7657 C   0  0  0  0  0  0  0  0  0  0  0  0
  152.4966  143.7208  161.4087 C   0  0  2  0  0  0  0  0  0  0  0  0
  151.5790  144.5691  160.5075 C   0  0  0  0  0  0  0  0  0  0  0  0
  152.2312  144.8594  159.1437 C   0  0  0  0  0  0  0  0  0  0  0  0
  152.6669  143.5721  158.4176 C   0  0  2  0  0  0  0  0  0  0  0  0
  151.4943  142.8298  157.9577 N   0  0  0  0  0  0  0  0  0  0  0  0
  151.4778  141.5342  157.6107 C   0  0  0  0  0  0  0  0  0  0  0  0
  152.4745  140.8114  157.6521 O   0  0  0  0  0  0  0  0  0  0  0  0
  150.1165  140.9774  157.1700 C   0  0  0  0  0  0  0  0  0  0  0  0
  150.1201  139.5187  156.9669 N   0  0  0  0  0  0  0  0  0  0  0  0
  149.6361  138.7241  158.0248 C   0  0  0  0  0  0  0  0  0  0  0  0
  149.5981  137.3792  157.9509 C   0  0  0  0  0  0  0  0  0  0  0  0
  149.1011  136.5789  159.0486 N   0  3  0  0  0  0  0  0  0  0  0  0
  148.6940  137.1494  160.0553 O   0  0  0  0  0  0  0  0  0  0  0  0
  149.1018  135.3560  158.9422 O   0  5  0  0  0  0  0  0  0  0  0  0
  150.0759  136.7575  156.7311 C   0  0  0  0  0  0  0  0  0  0  0  0
  150.5441  137.5118  155.7173 C   0  0  0  0  0  0  0  0  0  0  0  0
  150.5880  138.9752  155.8018 C   0  0  0  0  0  0  0  0  0  0  0  0
  151.0194  139.6695  154.8812 O   0  0  0  0  0  0  0  0  0  0  0  0
  153.5619  142.7060  159.3294 C   0  0  0  0  0  0  0  0  0  0  0  0
  152.9034  142.4200  160.6905 C   0  0  0  0  0  0  0  0  0  0  0  0
  150.9222  142.8529  162.6473 H   0  0  0  0  0  0  0  0  0  0  0  0
  151.5861  144.3558  163.2845 H   0  0  0  0  0  0  0  0  0  0  0  0
  152.5087  142.8634  163.4127 H   0  0  0  0  0  0  0  0  0  0  0  0
  153.4037  144.2961  161.6000 H   0  0  0  0  0  0  0  0  0  0  0  0
  150.6292  144.0543  160.3583 H   0  0  0  0  0  0  0  0  0  0  0  0
  151.3404  145.5112  161.0025 H   0  0  0  0  0  0  0  0  0  0  0  0
  151.5483  145.4342  158.5168 H   0  0  0  0  0  0  0  0  0  0  0  0
  153.1049  145.4938  159.2977 H   0  0  0  0  0  0  0  0  0  0  0  0
  153.2452  143.8654  157.5395 H   0  0  0  0  0  0  0  0  0  0  0  0
  150.6277  143.3449  157.8995 H   0  0  0  0  0  0  0  0  0  0  0  0
  149.3761  141.2566  157.9208 H   0  0  0  0  0  0  0  0  0  0  0  0
  149.7993  141.4838  156.2562 H   0  0  0  0  0  0  0  0  0  0  0  0
  149.3102  139.2819  158.8910 H   0  0  0  0  0  0  0  0  0  0  0  0
  150.0631  135.6830  156.6218 H   0  0  0  0  0  0  0  0  0  0  0  0
  150.8964  137.0280  154.8181 H   0  0  0  0  0  0  0  0  0  0  0  0
  153.8197  141.7685  158.8353 H   0  0  0  0  0  0  0  0  0  0  0  0
  154.5064  143.2257  159.4961 H   0  0  0  0  0  0  0  0  0  0  0  0
  153.5938  141.8511  161.3142 H   0  0  0  0  0  0  0  0  0  0  0  0
  152.0272  141.7861  160.5476 H   0  0  0  0  0  0  0  0  0  0  0  0
  1  2  1  0  0  0  0
  1 22  1  0  0  0  0
  1 23  1  0  0  0  0
  1 24  1  0  0  0  0
  2 21  1  0  0  0  0
  2  3  1  0  0  0  0
  2 25  1  0  0  0  0
  3  4  1  0  0  0  0
  3 26  1  0  0  0  0
  3 27  1  0  0  0  0
  4  5  1  0  0  0  0
  4 28  1  0  0  0  0
  4 29  1  0  0  0  0
  5  6  1  0  0  0  0
  5 20  1  0  0  0  0
  5 30  1  0  0  0  0
  6  7  1  0  0  0  0
  6 31  1  0  0  0  0
  7  8  2  0  0  0  0
  7  9  1  0  0  0  0
  9 10  1  0  0  0  0
  9 32  1  0  0  0  0
  9 33  1  0  0  0  0
 10 18  1  0  0  0  0
 10 11  1  0  0  0  0
 11 12  2  0  0  0  0
 11 34  1  0  0  0  0
 12 13  1  0  0  0  0
 12 16  1  0  0  0  0
 13 14  2  0  0  0  0
 13 15  1  0  0  0  0
 16 17  2  0  0  0  0
 16 35  1  0  0  0  0
 17 18  1  0  0  0  0
 17 36  1  0  0  0  0
 18 19  2  0  0  0  0
 20 21  1  0  0  0  0
 20 37  1  0  0  0  0
 20 38  1  0  0  0  0
 21 39  1  0  0  0  0
 21 40  1  0  0  0  0
M  CHG  1  13   1
M  CHG  1  15  -1
M  END
> <s_m_source_file>
AV-unprocessed.smi

> <i_m_source_file_index>
1798

> <i_lp_mmshare_version>
43012

> <i_f3d_flags>
0

> <s_epik_input>
W0NIM11bQ0BASF0xW0NIMl1bQ0gyXVtDQEhdKFtDSDJdW0NIMl0xKVtOSF1DKD1PKVtDSDJdbjJbY0hdYyhbTitdKD1PKVtPLV0pW2NIXVtjSF1jMj1P

> <s_epik_cmdline>
J2VwaWtfcHl0aG9uJywgJy1waCcsICc3LjAnLCAnLXRuJywgJzgnLCAnLW1hJywgJzIwMCcsICctbWV0YWxfYmluZGluZycsICctaW1hZScsICc8aW5maWxlLm1hZT4nLCAnLW9tYWUnLCAnPG91dGZpbGUubWFlPic=

> <r_lp_tautomer_probability>
1

> <r_epik_Ionization_Penalty>
1.91292e-08

> <r_epik_Ionization_Penalty_Charging>
8.23013e-11

> <r_epik_Ionization_Penalty_Neutral>
1.90469e-08

> <r_epik_State_Penalty>
-0

> <r_epik_Charging_Adjusted_Penalty>
8.23013e-11

> <i_epik_Tot_Q>
0

> <i_epik_Tot_abs_Q>
2

> <r_epik_Metal_State_Penalty>
-0

> <b_epik_Metal_Only>
0

> <s_lp_Force_Field>
OPLS_2005

> <r_lp_Energy>
19.5482

> <b_lp_Chiralities_Consistent>
1

> <s_lp_Variant>
AV-unprocessed.smi:1798-2

> <Gold.Version>
5.8.1

> <Gold.Id.Protein>
6NUR|6NUR_protein|mol2

> <Gold.PLP.Fitness>
43.0779

> <Gold.PLP.PLP>
-35.6331

> <Gold.PLP.part.hbond>
-4.4131

> <Gold.PLP.part.metal>
0.0000

> <Gold.PLP.part.buried>
0.9557

> <Gold.PLP.part.nonpolar>
-31.4180

> <Gold.PLP.part.repulsive>
0.0807

> <Gold.PLP.ligand.clash>
0.0000

> <Gold.PLP.ligand.torsion>
0.6384

> <Gold.PLP.Chemscore.Hbond>
2.8849

> <Gold.PLP.Chemscore.CHOScore>
0.0000

> <Gold.PLP.Chemscore.Metal>
0.0000

> <Gold.Chemscore.Hbonds>
donor molecule, donor type, donor heavy atom, donor atom, acceptor molecule, acceptor atom, score
      P1  H  6896  6909       L1    15  1.00
      P1  H  6931  6943       L1    14  0.37
      P1  H  7989  7998       L1    19  1.00
      P1  H  7997  8008       L1     8  0.33

> <Gold.PLP.Chemscore.Internal.Correction>
0.0669

> <Gold.Rescore>
     Score         DG    S(hbond)    S(metal)    S(lipo)     H(rot)  DE(clash)    DE(int)     intcor
     19.73     -24.22       3.17        0.00     103.70       1.55       2.34       2.14       ----

> <Gold.Chemscore.Fitness>
19.7329

> <Gold.Chemscore.DG>
-24.2169

> <Gold.Chemscore.ZeroCoef>
-5.4800

> <Gold.Chemscore.Hbond>
3.1655

> <Gold.Chemscore.Metal>
0.0000

> <Gold.Chemscore.Lipo>
103.7025

> <Gold.Chemscore.Internal_Hbond>
0.0000

> <Gold.Chemscore.DEClash>
2.3420

> <Gold.Chemscore.DEInternal>
2.1420

> <Gold.Chemscore.Rot>
1.5505

> <Gold.Chemscore.Internal.Correction>
   9.000000E+99

> <Gold.Chemscore.Hbonds>
donor molecule, donor type, donor heavy atom, donor atom, acceptor molecule, acceptor atom, score
      P1  H  6896  6909       L1    15  0.78
      P1  H  6931  6943       L1    14  0.37
      P1  H  7989  7998       L1    19  0.99
      P1  H  7997  8008       L1     8  0.33

> <Gold.Chemscore.Hbond.Weighted>
-10.5728

> <Gold.Chemscore.Metal.Weighted>
-0.0000

> <Gold.Chemscore.Lipo.Weighted>
-12.1332

> <Gold.Chemscore.Internal_Hbond.Weighted>
0.0000

> <Gold.Chemscore.DEClash.Weighted>
2.3420

> <Gold.Chemscore.DEInternal.Weighted>
2.1420

> <Gold.Chemscore.Rot.Weighted>
3.9692

> <Gold.Chemscore.Internal.Correction.Weighted>
   9.000000E+99

> <Gold.Protein.RotatedTorsions>
[ 6907 6896 6895 6894 ] final   53.68 input  -60.11 | X-H torsion
[ 7974 7965 7964 7962 ] final  154.90 input  175.53 | X-H torsion
[ 8008 7997 7996 7995 ] final  -67.61 input   59.86 | X-H torsion
[ 10167 10162 10161 10158 ] final   46.78 input  -65.29 | X-H torsion
[ 10718 10713 10712 10709 ] final  -83.01 input   66.30 | X-H torsion
[ 10763 10752 10751 10750 ] final -132.80 input  -60.55 | X-H torsion
[ 11005 11000 10999 10996 ] final -138.30 input  -57.11 | X-H torsion

> <Gold.Protein.ActiveResidues>
 VAL166  LYS551  ARG553  GLY616  TRP617  ASP618  TYR619  PRO620  LYS621  CYS622 
 ASP623  PHE694  ASN695  SER759  ASP760  ASP761  ALA762  ILE779  LEU786  VAL792 
 PHE793  MET794  SER795  GLU796  ALA797  LYS798  CYS799  TRP800  GLU811  SER814 

> <Gold.Protein.RotatedAtoms>
  152.3362  134.7195  160.0276 H   0  0  0  0  0  0  0  0  0  0  0  0  # atno 6907 bound_to 6896
  151.7596  133.3327  159.3422 H   0  0  0  0  0  0  0  0  0  0  0  0  # atno 6908 bound_to 6896
  150.7452  134.6050  159.6101 H   0  0  0  0  0  0  0  0  0  0  0  0  # atno 6909 bound_to 6896
  144.8059  139.6995  143.6162 H   0  0  0  0  0  0  0  0  0  0  0  0  # atno 7974 bound_to 7965
  154.4811  140.0889  156.7380 H   0  0  0  0  0  0  0  0  0  0  0  0  # atno 8008 bound_to 7997
  155.4468  140.3456  155.4278 H   0  0  0  0  0  0  0  0  0  0  0  0  # atno 8009 bound_to 7997
  156.1193  140.1469  156.9216 H   0  0  0  0  0  0  0  0  0  0  0  0  # atno 8010 bound_to 7997
  140.3104  144.2827  150.6201 H   0  0  0  0  0  0  0  0  0  0  0  0  # atno 10167 bound_to 10162
  156.0024  130.4652  150.4191 H   0  0  0  0  0  0  0  0  0  0  0  0  # atno 10718 bound_to 10713
  154.8739  135.3786  154.4468 H   0  0  0  0  0  0  0  0  0  0  0  0  # atno 10763 bound_to 10752
  153.5148  135.7029  153.5767 H   0  0  0  0  0  0  0  0  0  0  0  0  # atno 10764 bound_to 10752
  153.4041  135.3941  155.1973 H   0  0  0  0  0  0  0  0  0  0  0  0  # atno 10765 bound_to 10752
  140.8628  134.2147  157.4697 H   0  0  0  0  0  0  0  0  0  0  0  0  # atno 11005 bound_to 11000
  146.2350  139.5888  142.9530 LP  0  0  0  0  0  0  0  0  0  0  0  0  # atno 17320 bound_to 7965
  145.5439  141.0418  143.2315 LP  0  0  0  0  0  0  0  0  0  0  0  0  # atno 17321 bound_to 7965
  140.5573  143.2197  151.7826 LP  0  0  0  0  0  0  0  0  0  0  0  0  # atno 17342 bound_to 10162
  139.4895  144.4397  151.9779 LP  0  0  0  0  0  0  0  0  0  0  0  0  # atno 17343 bound_to 10162
  157.2249  131.0491  151.2526 LP  0  0  0  0  0  0  0  0  0  0  0  0  # atno 17370 bound_to 10713
  157.3766  130.7209  149.6601 LP  0  0  0  0  0  0  0  0  0  0  0  0  # atno 17371 bound_to 10713
  139.8708  134.9738  156.4822 LP  0  0  0  0  0  0  0  0  0  0  0  0  # atno 17394 bound_to 11000
  140.8663  133.8022  155.9317 LP  0  0  0  0  0  0  0  0  0  0  0  0  # atno 17395 bound_to 11000

$$$$
