AV-unprocessed.smi:1506|AV-procd|sdf|6078|dock10
  -GOLD-   22720 6203D 1   1.00000     0.00000
 Structure written by MMmdl.
 40 42  0  0  0  0  0  0  0  0  2 V2000
  152.7080  143.2254  161.9303 C   0  0  0  0  0  0  0  0  0  0  0  0
  152.1759  143.4840  160.5358 C   0  0  0  0  0  0  0  0  0  0  0  0
  151.9339  144.8014  160.0994 C   0  0  0  0  0  0  0  0  0  0  0  0
  151.4390  145.0316  158.8026 C   0  0  0  0  0  0  0  0  0  0  0  0
  151.1828  143.9490  157.9392 C   0  0  0  0  0  0  0  0  0  0  0  0
  151.4192  142.6183  158.3678 C   0  0  0  0  0  0  0  0  0  0  0  0
  151.1936  141.5017  157.5913 O   0  0  0  0  0  0  0  0  0  0  0  0
  151.9728  140.3393  157.8415 C   0  0  0  0  0  0  0  0  0  0  0  0
  152.1590  139.5677  156.5267 C   0  0  2  0  0  0  0  0  0  0  0  0
  153.5338  139.2740  156.3741 O   0  0  0  0  0  0  0  0  0  0  0  0
  151.6436  140.3584  155.3070 C   0  0  0  0  0  0  0  0  0  0  0  0
  150.5817  139.6544  154.5735 N   0  0  0  0  0  0  0  0  0  0  0  0
  150.6165  138.4513  153.9389 C   0  0  0  0  0  0  0  0  0  0  0  0
  149.3801  138.2269  153.4134 N   0  3  0  0  0  0  0  0  0  0  0  0
  148.5430  139.3035  153.7141 C   0  0  0  0  0  0  0  0  0  0  0  0
  147.2074  139.5344  153.3990 C   0  0  0  0  0  0  0  0  0  0  0  0
  146.6489  140.7455  153.8579 C   0  0  0  0  0  0  0  0  0  0  0  0
  147.4115  141.6717  154.5988 C   0  0  0  0  0  0  0  0  0  0  0  0
  148.7641  141.4261  154.9143 C   0  0  0  0  0  0  0  0  0  0  0  0
  149.3091  140.2261  154.4581 C   0  0  0  0  0  0  0  0  0  0  0  0
  151.9169  142.4022  159.6696 C   0  0  0  0  0  0  0  0  0  0  0  0
  153.0919  144.1400  162.3834 H   0  0  0  0  0  0  0  0  0  0  0  0
  153.5184  142.4966  161.9010 H   0  0  0  0  0  0  0  0  0  0  0  0
  151.9158  142.8337  162.5687 H   0  0  0  0  0  0  0  0  0  0  0  0
  152.1262  145.6382  160.7550 H   0  0  0  0  0  0  0  0  0  0  0  0
  151.2548  146.0419  158.4683 H   0  0  0  0  0  0  0  0  0  0  0  0
  150.8044  144.1676  156.9523 H   0  0  0  0  0  0  0  0  0  0  0  0
  152.9466  140.6052  158.2566 H   0  0  0  0  0  0  0  0  0  0  0  0
  151.4551  139.7104  158.5682 H   0  0  0  0  0  0  0  0  0  0  0  0
  151.6288  138.6166  156.5928 H   0  0  0  0  0  0  0  0  0  0  0  0
  153.6753  138.3704  156.6125 H   0  0  0  0  0  0  0  0  0  0  0  0
  151.2264  141.3119  155.6331 H   0  0  0  0  0  0  0  0  0  0  0  0
  152.4548  140.6020  154.6206 H   0  0  0  0  0  0  0  0  0  0  0  0
  151.4700  137.7926  153.8674 H   0  0  0  0  0  0  0  0  0  0  0  0
  146.6212  138.8274  152.8305 H   0  0  0  0  0  0  0  0  0  0  0  0
  145.6157  140.9696  153.6357 H   0  0  0  0  0  0  0  0  0  0  0  0
  146.9504  142.5905  154.9310 H   0  0  0  0  0  0  0  0  0  0  0  0
  149.3401  142.1457  155.4769 H   0  0  0  0  0  0  0  0  0  0  0  0
  152.1014  141.3923  160.0064 H   0  0  0  0  0  0  0  0  0  0  0  0
  149.1288  137.3986  152.8890 H   0  0  0  0  0  0  0  0  0  0  0  0
  1  2  1  0  0  0  0
  1 22  1  0  0  0  0
  1 23  1  0  0  0  0
  1 24  1  0  0  0  0
  2 21  1  0  0  0  0
  2  3  2  0  0  0  0
  3  4  1  0  0  0  0
  3 25  1  0  0  0  0
  4  5  2  0  0  0  0
  4 26  1  0  0  0  0
  5  6  1  0  0  0  0
  5 27  1  0  0  0  0
  6  7  1  0  0  0  0
  6 21  2  0  0  0  0
  7  8  1  0  0  0  0
  8  9  1  0  0  0  0
  8 28  1  0  0  0  0
  8 29  1  0  0  0  0
  9 10  1  0  0  0  0
  9 11  1  0  0  0  0
  9 30  1  0  0  0  0
 10 31  1  0  0  0  0
 11 12  1  0  0  0  0
 11 32  1  0  0  0  0
 11 33  1  0  0  0  0
 12 20  1  0  0  0  0
 12 13  1  0  0  0  0
 13 14  2  0  0  0  0
 13 34  1  0  0  0  0
 14 15  1  0  0  0  0
 14 40  1  0  0  0  0
 15 20  2  0  0  0  0
 15 16  1  0  0  0  0
 16 17  2  0  0  0  0
 16 35  1  0  0  0  0
 17 18  1  0  0  0  0
 17 36  1  0  0  0  0
 18 19  2  0  0  0  0
 18 37  1  0  0  0  0
 19 20  1  0  0  0  0
 19 38  1  0  0  0  0
 21 39  1  0  0  0  0
M  CHG  1  14   1
M  END
> <s_m_source_file>
AV-unprocessed.smi

> <i_m_source_file_index>
1506

> <i_lp_mmshare_version>
43012

> <i_f3d_flags>
0

> <s_epik_input>
W0NIM11jMVtjSF1bY0hdW2NIXWMoW2NIXTEpT1tDSDJdW0NASF0oW09IXSlbQ0gyXW4oW2NIXW4yKWMoYzIzKVtjSF1bY0hdW2NIXVtjSF0z

> <s_epik_cmdline>
J2VwaWtfcHl0aG9uJywgJy1waCcsICc3LjAnLCAnLXRuJywgJzgnLCAnLW1hJywgJzIwMCcsICctbWV0YWxfYmluZGluZycsICctaW1hZScsICc8aW5maWxlLm1hZT4nLCAnLW9tYWUnLCAnPG91dGZpbGUubWFlPic=

> <r_lp_tautomer_probability>
1

> <r_epik_Ionization_Penalty>
1.37864

> <r_epik_Ionization_Penalty_Charging>
1.37864

> <r_epik_Ionization_Penalty_Neutral>
2.3993e-06

> <r_epik_State_Penalty>
1.45896

> <r_epik_Charging_Adjusted_Penalty>
2.8376

> <i_epik_Tot_Q>
1

> <i_epik_Tot_abs_Q>
1

> <r_epik_Metal_State_Penalty>
5.49899

> <b_epik_Metal_Only>
0

> <s_lp_Force_Field>
OPLS_2005

> <r_lp_Energy>
20.022

> <b_lp_Chiralities_Consistent>
1

> <s_lp_Variant>
AV-unprocessed.smi:1506-3

> <Gold.Version>
5.8.1

> <Gold.Id.Protein>
6NUR|6NUR_protein|mol2

> <Gold.PLP.Fitness>
57.6400

> <Gold.PLP.PLP>
-52.6593

> <Gold.PLP.part.hbond>
-2.9990

> <Gold.PLP.part.metal>
0.0000

> <Gold.PLP.part.buried>
0.5792

> <Gold.PLP.part.nonpolar>
-50.5509

> <Gold.PLP.part.repulsive>
0.0815

> <Gold.PLP.ligand.clash>
0.0000

> <Gold.PLP.ligand.torsion>
2.0212

> <Gold.PLP.Chemscore.Hbond>
3.0000

> <Gold.PLP.Chemscore.CHOScore>
0.0000

> <Gold.PLP.Chemscore.Metal>
0.0000

> <Gold.Chemscore.Hbonds>
donor molecule, donor type, donor heavy atom, donor atom, acceptor molecule, acceptor atom, score
      L1  H    14    40       P1  7948  2.00
      P1  H  7997  8010       L1    10  0.05

> <Gold.PLP.Chemscore.Internal.Correction>
0.0232

> <Gold.Rescore>
     Score         DG    S(hbond)    S(metal)    S(lipo)     H(rot)  DE(clash)    DE(int)     intcor
     19.47     -21.70       1.82        0.00     136.41       2.27       0.11       2.12       ----

> <Gold.Chemscore.Fitness>
19.4726

> <Gold.Chemscore.DG>
-21.7001

> <Gold.Chemscore.ZeroCoef>
-5.4800

> <Gold.Chemscore.Hbond>
1.8196

> <Gold.Chemscore.Metal>
0.0000

> <Gold.Chemscore.Lipo>
136.4071

> <Gold.Chemscore.Internal_Hbond>
0.0000

> <Gold.Chemscore.DEClash>
0.1093

> <Gold.Chemscore.DEInternal>
2.1182

> <Gold.Chemscore.Rot>
2.2723

> <Gold.Chemscore.Internal.Correction>
   9.000000E+99

> <Gold.Chemscore.Hbonds>
donor molecule, donor type, donor heavy atom, donor atom, acceptor molecule, acceptor atom, score
      L1  H    14    40       P1  7948  0.93
      P1  H  7997  8010       L1    10  0.10

> <Gold.Chemscore.Hbond.Weighted>
-6.0775

> <Gold.Chemscore.Metal.Weighted>
-0.0000

> <Gold.Chemscore.Lipo.Weighted>
-15.9596

> <Gold.Chemscore.Internal_Hbond.Weighted>
0.0000

> <Gold.Chemscore.DEClash.Weighted>
0.1093

> <Gold.Chemscore.DEInternal.Weighted>
2.1182

> <Gold.Chemscore.Rot.Weighted>
5.8170

> <Gold.Chemscore.Internal.Correction.Weighted>
   9.000000E+99

> <Gold.Protein.RotatedTorsions>
[ 6907 6896 6895 6894 ] final -121.21 input  -60.11 | X-H torsion
[ 7974 7965 7964 7962 ] final  -39.95 input  175.53 | X-H torsion
[ 8008 7997 7996 7995 ] final   73.36 input   59.86 | X-H torsion
[ 10167 10162 10161 10158 ] final  160.31 input  -65.29 | X-H torsion
[ 10718 10713 10712 10709 ] final  -23.82 input   66.30 | X-H torsion
[ 10763 10752 10751 10750 ] final   64.65 input  -60.55 | X-H torsion
[ 11005 11000 10999 10996 ] final   44.39 input  -57.11 | X-H torsion

> <Gold.Protein.ActiveResidues>
 VAL166  LYS551  ARG553  GLY616  TRP617  ASP618  TYR619  PRO620  LYS621  CYS622 
 ASP623  PHE694  ASN695  SER759  ASP760  ASP761  ALA762  ILE779  LEU786  VAL792 
 PHE793  MET794  SER795  GLU796  ALA797  LYS798  CYS799  TRP800  GLU811  SER814 

> <Gold.Protein.RotatedAtoms>
  150.8463  133.7856  159.3041 H   0  0  0  0  0  0  0  0  0  0  0  0  # atno 6907 bound_to 6896
  151.5542  135.1065  159.9966 H   0  0  0  0  0  0  0  0  0  0  0  0  # atno 6908 bound_to 6896
  152.4516  133.7598  159.6796 H   0  0  0  0  0  0  0  0  0  0  0  0  # atno 6909 bound_to 6896
  146.0350  140.6683  142.9114 H   0  0  0  0  0  0  0  0  0  0  0  0  # atno 7974 bound_to 7965
  155.7824  140.3481  155.5305 H   0  0  0  0  0  0  0  0  0  0  0  0  # atno 8008 bound_to 7997
  155.8715  140.0987  157.1568 H   0  0  0  0  0  0  0  0  0  0  0  0  # atno 8009 bound_to 7997
  154.4018  140.1339  156.4071 H   0  0  0  0  0  0  0  0  0  0  0  0  # atno 8010 bound_to 7997
  139.4839  144.4646  151.8658 H   0  0  0  0  0  0  0  0  0  0  0  0  # atno 10167 bound_to 10162
  156.4859  130.4555  149.6784 H   0  0  0  0  0  0  0  0  0  0  0  0  # atno 10718 bound_to 10713
  153.0064  135.5385  154.6543 H   0  0  0  0  0  0  0  0  0  0  0  0  # atno 10763 bound_to 10752
  154.5767  135.2846  155.0776 H   0  0  0  0  0  0  0  0  0  0  0  0  # atno 10764 bound_to 10752
  154.1920  135.6498  153.5115 H   0  0  0  0  0  0  0  0  0  0  0  0  # atno 10765 bound_to 10752
  140.1556  134.4406  155.8352 H   0  0  0  0  0  0  0  0  0  0  0  0  # atno 11005 bound_to 11000
  144.7047  140.3804  143.7127 LP  0  0  0  0  0  0  0  0  0  0  0  0  # atno 17320 bound_to 7965
  145.6979  139.1654  143.2609 LP  0  0  0  0  0  0  0  0  0  0  0  0  # atno 17321 bound_to 7965
  140.4111  144.2368  150.5889 LP  0  0  0  0  0  0  0  0  0  0  0  0  # atno 17342 bound_to 10162
  140.4965  143.2331  151.8741 LP  0  0  0  0  0  0  0  0  0  0  0  0  # atno 17343 bound_to 10162
  156.3475  130.7414  151.2369 LP  0  0  0  0  0  0  0  0  0  0  0  0  # atno 17370 bound_to 10713
  157.7479  131.0386  150.4512 LP  0  0  0  0  0  0  0  0  0  0  0  0  # atno 17371 bound_to 10713
  141.2204  133.6891  156.7500 LP  0  0  0  0  0  0  0  0  0  0  0  0  # atno 17394 bound_to 11000
  140.2552  134.8510  157.3706 LP  0  0  0  0  0  0  0  0  0  0  0  0  # atno 17395 bound_to 11000

$$$$
