AV-unprocessed.smi:473|AV-procd|sdf|2661|dock2
  -GOLD-   2262023 73D 1   1.00000     0.00000
 Structure written by MMmdl.
 42 44  0  0  0  0  0  0  0  0  1 V2000
  153.4796  142.4794  161.4169 C   0  0  0  0  0  0  0  0  0  0  0  0
  152.7476  142.2479  160.1068 C   0  0  0  0  0  0  0  0  0  0  0  0
  153.0575  141.1020  159.3399 C   0  0  0  0  0  0  0  0  0  0  0  0
  152.3975  140.8485  158.1174 C   0  0  0  0  0  0  0  0  0  0  0  0
  152.5392  139.8052  157.2183 N   0  0  0  0  0  0  0  0  0  0  0  0
  151.6510  140.1343  156.2846 C   0  0  0  0  0  0  0  0  0  0  0  0
  150.9500  141.2690  156.4727 N   0  0  0  0  0  0  0  0  0  0  0  0
  149.9350  141.8315  155.5999 C   0  0  0  0  0  0  0  0  0  0  0  0
  149.2099  140.7551  154.7690 C   0  0  2  0  0  0  0  0  0  0  0  0
  149.7618  140.7320  153.4667 O   0  0  0  0  0  0  0  0  0  0  0  0
  147.7026  141.0338  154.6605 C   0  0  0  0  0  0  0  0  0  0  0  0
  147.5097  142.3812  154.2503 O   0  0  0  0  0  0  0  0  0  0  0  0
  146.3448  142.5865  153.4606 C   0  0  0  0  0  0  0  0  0  0  0  0
  145.4217  143.5171  154.1860 C   0  0  0  0  0  0  0  0  0  0  0  0
  144.7441  144.6427  153.8069 C   0  0  0  0  0  0  0  0  0  0  0  0
  144.0130  145.0762  154.9473 C   0  0  0  0  0  0  0  0  0  0  0  0
  144.2916  144.1775  155.9371 C   0  0  0  0  0  0  0  0  0  0  0  0
  145.1452  143.2176  155.4885 O   0  0  0  0  0  0  0  0  0  0  0  0
  151.4124  141.7812  157.6795 C   0  0  0  0  0  0  0  0  0  0  0  0
  151.0960  142.9254  158.4328 C   0  0  0  0  0  0  0  0  0  0  0  0
  151.7638  143.1627  159.6524 C   0  0  0  0  0  0  0  0  0  0  0  0
  151.4124  144.3990  160.4610 C   0  0  0  0  0  0  0  0  0  0  0  0
  154.1988  141.6848  161.6170 H   0  0  0  0  0  0  0  0  0  0  0  0
  152.7748  142.5096  162.2480 H   0  0  0  0  0  0  0  0  0  0  0  0
  154.0238  143.4236  161.3888 H   0  0  0  0  0  0  0  0  0  0  0  0
  153.8061  140.4045  159.6857 H   0  0  0  0  0  0  0  0  0  0  0  0
  151.4991  139.5135  155.4136 H   0  0  0  0  0  0  0  0  0  0  0  0
  149.2204  142.3722  156.2217 H   0  0  0  0  0  0  0  0  0  0  0  0
  150.4022  142.5702  154.9468 H   0  0  0  0  0  0  0  0  0  0  0  0
  149.3662  139.7818  155.2362 H   0  0  0  0  0  0  0  0  0  0  0  0
  149.2149  140.1914  152.9180 H   0  0  0  0  0  0  0  0  0  0  0  0
  147.2672  140.3696  153.9127 H   0  0  0  0  0  0  0  0  0  0  0  0
  147.1931  140.8301  155.6039 H   0  0  0  0  0  0  0  0  0  0  0  0
  146.5963  142.9673  152.4697 H   0  0  0  0  0  0  0  0  0  0  0  0
  145.8502  141.6256  153.3193 H   0  0  0  0  0  0  0  0  0  0  0  0
  144.7731  145.0990  152.8286 H   0  0  0  0  0  0  0  0  0  0  0  0
  143.3632  145.9347  155.0318 H   0  0  0  0  0  0  0  0  0  0  0  0
  143.9815  144.0740  156.9666 H   0  0  0  0  0  0  0  0  0  0  0  0
  150.3434  143.6124  158.0748 H   0  0  0  0  0  0  0  0  0  0  0  0
  150.6556  145.0015  159.9578 H   0  0  0  0  0  0  0  0  0  0  0  0
  152.2936  145.0237  160.6079 H   0  0  0  0  0  0  0  0  0  0  0  0
  151.0202  144.1167  161.4382 H   0  0  0  0  0  0  0  0  0  0  0  0
  1  2  1  0  0  0  0
  1 23  1  0  0  0  0
  1 24  1  0  0  0  0
  1 25  1  0  0  0  0
  2 21  1  0  0  0  0
  2  3  2  0  0  0  0
  3  4  1  0  0  0  0
  3 26  1  0  0  0  0
  4 19  2  0  0  0  0
  4  5  1  0  0  0  0
  5  6  2  0  0  0  0
  6  7  1  0  0  0  0
  6 27  1  0  0  0  0
  7  8  1  0  0  0  0
  7 19  1  0  0  0  0
  8  9  1  0  0  0  0
  8 28  1  0  0  0  0
  8 29  1  0  0  0  0
  9 10  1  0  0  0  0
  9 11  1  0  0  0  0
  9 30  1  0  0  0  0
 10 31  1  0  0  0  0
 11 12  1  0  0  0  0
 11 32  1  0  0  0  0
 11 33  1  0  0  0  0
 12 13  1  0  0  0  0
 13 14  1  0  0  0  0
 13 34  1  0  0  0  0
 13 35  1  0  0  0  0
 14 18  1  0  0  0  0
 14 15  2  0  0  0  0
 15 16  1  0  0  0  0
 15 36  1  0  0  0  0
 16 17  2  0  0  0  0
 16 37  1  0  0  0  0
 17 18  1  0  0  0  0
 17 38  1  0  0  0  0
 19 20  1  0  0  0  0
 20 21  2  0  0  0  0
 20 39  1  0  0  0  0
 21 22  1  0  0  0  0
 22 40  1  0  0  0  0
 22 41  1  0  0  0  0
 22 42  1  0  0  0  0
M  END
> <s_m_source_file>
AV-unprocessed.smi

> <i_m_source_file_index>
473

> <i_lp_mmshare_version>
43012

> <i_f3d_flags>
0

> <s_epik_input>
W0NIM11jKFtjSF0xKWMoW0NIM10pW2NIXWMoYzEyKW4oW2NIXW4yKVtDSDJdW0NASF0oW09IXSlbQ0gyXU9bQ0gyXWMzW2NIXVtjSF1bY0hdbzM=

> <s_epik_cmdline>
J2VwaWtfcHl0aG9uJywgJy1waCcsICc3LjAnLCAnLXRuJywgJzgnLCAnLW1hJywgJzIwMCcsICctbWV0YWxfYmluZGluZycsICctaW1hZScsICc8aW5maWxlLm1hZT4nLCAnLW9tYWUnLCAnPG91dGZpbGUubWFlPic=

> <r_epik_Ionization_Penalty>
0.112477

> <r_epik_Ionization_Penalty_Charging>
0

> <r_epik_Ionization_Penalty_Neutral>
0.112477

> <r_epik_State_Penalty>
0.102177

> <r_epik_Charging_Adjusted_Penalty>
0.102177

> <i_epik_Tot_Q>
0

> <i_epik_Tot_abs_Q>
0

> <r_epik_Metal_State_Penalty>
0.000111506

> <b_epik_Metal_Only>
0

> <s_lp_Force_Field>
OPLS_2005

> <r_lp_Energy>
9.85232

> <b_lp_Chiralities_Consistent>
1

> <s_lp_Variant>
AV-unprocessed.smi:473-1

> <Gold.Version>
5.8.1

> <Gold.Id.Protein>
6NUR|6NUR_protein|mol2

> <Gold.PLP.Fitness>
53.1171

> <Gold.PLP.PLP>
-48.1601

> <Gold.PLP.part.hbond>
-3.4288

> <Gold.PLP.part.metal>
0.0000

> <Gold.PLP.part.buried>
-6.9708

> <Gold.PLP.part.nonpolar>
-38.3480

> <Gold.PLP.part.repulsive>
0.9542

> <Gold.PLP.ligand.clash>
0.0000

> <Gold.PLP.ligand.torsion>
1.6622

> <Gold.PLP.Chemscore.Hbond>
2.7180

> <Gold.PLP.Chemscore.CHOScore>
0.0000

> <Gold.PLP.Chemscore.Metal>
0.0000

> <Gold.Chemscore.Hbonds>
donor molecule, donor type, donor heavy atom, donor atom, acceptor molecule, acceptor atom, score
      L1  H    10    31       P1  7957  0.38
      P1  H  7989  7998       L1    10  0.37
      P1  H  7997  8010       L1     5  1.00
      P1  H  8011  8017       L1    10  0.95

> <Gold.PLP.Chemscore.Internal.Correction>
0.1275

> <Gold.Rescore>
     Score         DG    S(hbond)    S(metal)    S(lipo)     H(rot)  DE(clash)    DE(int)     intcor
     17.90     -20.23       1.79        0.00     127.64       2.41       0.61       1.73       ----

> <Gold.Chemscore.Fitness>
17.8965

> <Gold.Chemscore.DG>
-20.2335

> <Gold.Chemscore.ZeroCoef>
-5.4800

> <Gold.Chemscore.Hbond>
1.7920

> <Gold.Chemscore.Metal>
0.0000

> <Gold.Chemscore.Lipo>
127.6371

> <Gold.Chemscore.Internal_Hbond>
0.0000

> <Gold.Chemscore.DEClash>
0.6088

> <Gold.Chemscore.DEInternal>
1.7282

> <Gold.Chemscore.Rot>
2.4083

> <Gold.Chemscore.Internal.Correction>
   9.000000E+99

> <Gold.Chemscore.Hbonds>
donor molecule, donor type, donor heavy atom, donor atom, acceptor molecule, acceptor atom, score
      L1  H    10    31       P1  7957  0.38
      P1  H  7989  7998       L1    10  0.31
      P1  H  7997  8010       L1     5  0.23
      P1  H  8011  8017       L1    10  0.20

> <Gold.Chemscore.Hbond.Weighted>
-5.9852

> <Gold.Chemscore.Metal.Weighted>
-0.0000

> <Gold.Chemscore.Lipo.Weighted>
-14.9335

> <Gold.Chemscore.Internal_Hbond.Weighted>
0.0000

> <Gold.Chemscore.DEClash.Weighted>
0.6088

> <Gold.Chemscore.DEInternal.Weighted>
1.7282

> <Gold.Chemscore.Rot.Weighted>
6.1653

> <Gold.Chemscore.Internal.Correction.Weighted>
   9.000000E+99

> <Gold.Protein.RotatedTorsions>
[ 6907 6896 6895 6894 ] final -143.46 input  -60.11 | X-H torsion
[ 7974 7965 7964 7962 ] final  -17.82 input  175.53 | X-H torsion
[ 8008 7997 7996 7995 ] final   75.02 input   59.86 | X-H torsion
[ 10167 10162 10161 10158 ] final -169.54 input  -65.29 | X-H torsion
[ 10718 10713 10712 10709 ] final  -47.45 input   66.30 | X-H torsion
[ 10763 10752 10751 10750 ] final   94.58 input  -60.55 | X-H torsion
[ 11005 11000 10999 10996 ] final  179.92 input  -57.11 | X-H torsion

> <Gold.Protein.ActiveResidues>
 VAL166  LYS551  ARG553  GLY616  TRP617  ASP618  TYR619  PRO620  LYS621  CYS622 
 ASP623  PHE694  ASN695  SER759  ASP760  ASP761  ALA762  ILE779  LEU786  VAL792 
 PHE793  MET794  SER795  GLU796  ALA797  LYS798  CYS799  TRP800  GLU811  SER814 

> <Gold.Protein.RotatedAtoms>
  151.1007  133.5245  159.2609 H   0  0  0  0  0  0  0  0  0  0  0  0  # atno 6907 bound_to 6896
  151.2077  135.0468  159.8908 H   0  0  0  0  0  0  0  0  0  0  0  0  # atno 6908 bound_to 6896
  152.5442  134.0827  159.8296 H   0  0  0  0  0  0  0  0  0  0  0  0  # atno 6909 bound_to 6896
  146.1922  140.3834  142.8454 H   0  0  0  0  0  0  0  0  0  0  0  0  # atno 7974 bound_to 7965
  155.8068  140.3474  155.5434 H   0  0  0  0  0  0  0  0  0  0  0  0  # atno 8008 bound_to 7997
  155.8481  140.0952  157.1712 H   0  0  0  0  0  0  0  0  0  0  0  0  # atno 8009 bound_to 7997
  154.4007  140.1381  156.3798 H   0  0  0  0  0  0  0  0  0  0  0  0  # atno 8010 bound_to 7997
  139.5916  144.1201  152.1641 H   0  0  0  0  0  0  0  0  0  0  0  0  # atno 10167 bound_to 10162
  156.2083  130.4159  149.9148 H   0  0  0  0  0  0  0  0  0  0  0  0  # atno 10718 bound_to 10713
  153.2433  135.4284  155.0720 H   0  0  0  0  0  0  0  0  0  0  0  0  # atno 10763 bound_to 10752
  154.8350  135.3408  154.6618 H   0  0  0  0  0  0  0  0  0  0  0  0  # atno 10764 bound_to 10752
  153.7041  135.7026  153.5111 H   0  0  0  0  0  0  0  0  0  0  0  0  # atno 10765 bound_to 10752
  140.4115  134.6687  157.4616 H   0  0  0  0  0  0  0  0  0  0  0  0  # atno 11005 bound_to 11000
  144.8509  140.7000  143.6168 LP  0  0  0  0  0  0  0  0  0  0  0  0  # atno 17320 bound_to 7965
  145.3756  139.1648  143.4308 LP  0  0  0  0  0  0  0  0  0  0  0  0  # atno 17321 bound_to 7965
  140.0776  144.5727  150.7145 LP  0  0  0  0  0  0  0  0  0  0  0  0  # atno 17342 bound_to 10162
  140.7178  143.2560  151.4378 LP  0  0  0  0  0  0  0  0  0  0  0  0  # atno 17343 bound_to 10162
  156.6835  130.8867  151.3579 LP  0  0  0  0  0  0  0  0  0  0  0  0  # atno 17370 bound_to 10713
  157.7024  130.9348  150.0827 LP  0  0  0  0  0  0  0  0  0  0  0  0  # atno 17371 bound_to 10713
  140.0264  134.6471  155.9167 LP  0  0  0  0  0  0  0  0  0  0  0  0  # atno 17394 bound_to 11000
  141.1819  133.6548  156.5055 LP  0  0  0  0  0  0  0  0  0  0  0  0  # atno 17395 bound_to 11000

$$$$
