#       Name:                AV-unprocessed.smi:301
#       Creating user name   scv26
#       Creation time:       Thu Mar 26 22:16:23 2020


#       File generated by GOLD software.
#

@<TRIPOS>MOLECULE
AV-unprocessed.smi:301
    37    38     1
SMALL
NO_CHARGES


@<TRIPOS>ATOM
      1 ****        -3.8253   3.8297   2.9278 C.3            1 S1                 0.0000
      2 ****        -3.3521   2.8593   1.9005 C.2            1 S1                 0.0000
      3 ****        -2.9291   1.6263   2.1899 N.2            1 S1                 0.0000
      4 ****        -2.5275   0.9127   1.0555 C.2            1 S1                 0.0000
      5 ****        -2.0184  -0.4942   1.1958 C.3            1 S1                 0.0000
      6 ****        -0.4879  -0.5451   1.1183 C.2            1 S1                 0.0000
      7 ****         0.1980   0.3541   1.6068 O.2            1 S1                 0.0000
      8 ****         0.0383  -1.6144   0.5014 N.am           1 S1                 0.0000
      9 ****         1.4640  -1.8513   0.3062 C.3            1 S1                 0.0000
     10 ****         2.0009  -1.0841  -0.9132 C.3            1 S1                 0.0000
     11 ****         3.5064  -1.2398  -1.1221 C.3            1 S1                 0.0000
     12 ****         3.6358  -0.9844  -2.6059 C.3            1 S1                 0.0000
     13 ****         2.3871  -1.6736  -3.1466 C.3            1 S1                 0.0000
     14 ****         1.4084  -1.5744  -2.1151 O.3            1 S1                 0.0000
     15 ****        -2.6651   1.6287  -0.1085 C.2            1 S1                 0.0000
     16 ****        -3.2898   3.2290   0.1818 S.3            1 S1                 0.0000
     17 ****        -4.0944   3.3115   3.8488 H              1 S1                 0.0000
     18 ****        -4.7010   4.3658   2.5615 H              1 S1                 0.0000
     19 ****        -3.0382   4.5508   3.1482 H              1 S1                 0.0000
     20 ****        -2.3294  -0.9264   2.1476 H              1 S1                 0.0000
     21 ****        -2.4475  -1.1256   0.4162 H              1 S1                 0.0000
     22 ****        -0.5937  -2.3074   0.1272 H              1 S1                 0.0000
     23 ****         2.0144  -1.5666   1.2044 H              1 S1                 0.0000
     24 ****         1.6207  -2.9222   0.1744 H              1 S1                 0.0000
     25 ****         1.7662  -0.0213  -0.8322 H              1 S1                 0.0000
     26 ****         4.0937  -0.5498  -0.5156 H              1 S1                 0.0000
     27 ****         3.8262  -2.2568  -0.8903 H              1 S1                 0.0000
     28 ****         3.5920   0.0870  -2.8066 H              1 S1                 0.0000
     29 ****         4.5595  -1.3766  -3.0321 H              1 S1                 0.0000
     30 ****         2.0346  -1.2266  -4.0764 H              1 S1                 0.0000
     31 ****         2.5857  -2.7298  -3.3327 H              1 S1                 0.0000
     32 ****        -2.4311   1.3143  -1.1149 H              1 S1                 0.0000
     33 ****        -2.9023   1.2533   3.1173 LP             1 S1                 0.0000
     34 ****        -0.2426   1.1288   2.0604 LP             1 S1                 0.0000
     35 ****         1.1953   0.3094   1.5497 LP             1 S1                 0.0000
     36 ****         0.6856  -0.9474  -2.4058 LP             1 S1                 0.0000
     37 ****         1.0166  -2.4785  -1.9444 LP             1 S1                 0.0000
@<TRIPOS>BOND
    1    1    2 1     
    2    1   17 1     
    3    1   18 1     
    4    1   19 1     
    5    2   16 1     
    6    2    3 2     
    7    3    4 1     
    8    4    5 1     
    9    4   15 2     
   10    5    6 1     
   11    5   20 1     
   12    5   21 1     
   13    6    7 2     
   14    6    8 am    
   15    8    9 1     
   16    8   22 1     
   17    9   10 1     
   18    9   23 1     
   19    9   24 1     
   20   10   14 1     
   21   10   11 1     
   22   10   25 1     
   23   11   12 1     
   24   11   26 1     
   25   11   27 1     
   26   12   13 1     
   27   12   28 1     
   28   12   29 1     
   29   13   14 1     
   30   13   30 1     
   31   13   31 1     
   32   15   16 1     
   33   15   32 1     
   34    3   33 1     
   35    7   34 1     
   36    7   35 1     
   37   14   36 1     
   38   14   37 1     
@<TRIPOS>SUBSTRUCTURE
      1 S1             1
@<TRIPOS>SET
LONE_PAIRS      STATIC     ATOMS    <user>   **** ""
5 33 34 35 36 37
DONOR_HYDROGENS      STATIC     ATOMS    <user>   **** ""
1 22
ATOM$BLUE        STATIC     ATOMS    COLORGROUP SYSTEM
5 33 34 35 36 37
ATOM$RED        STATIC     ATOMS    COLORGROUP SYSTEM
1 22
