#       Name:                AV-unprocessed.smi:2559
#       Creating user name   scv26
#       Creation time:       Fri Mar 27 14:08:06 2020


#       File generated by GOLD software.
#

@<TRIPOS>MOLECULE
AV-unprocessed.smi:2559
    53    55     1
SMALL
NO_CHARGES


@<TRIPOS>ATOM
      1 ****        -2.5652   3.5680  -1.9335 C.3            1 S1                 0.0000
      2 ****        -2.2786   2.1642  -2.2356 N.am           1 S1                 0.0000
      3 ****        -2.6181   1.6395  -3.4560 C.2            1 S1                 0.0000
      4 ****        -3.1726   2.3064  -4.3293 O.2            1 S1                 0.0000
      5 ****        -2.3141   0.3269  -3.6892 N.am           1 S1                 0.0000
      6 ****        -1.7000  -0.5395  -2.8477 C.2            1 S1                 0.0000
      7 ****        -1.4465  -1.7031  -3.1502 O.2            1 S1                 0.0000
      8 ****        -1.3576   0.0597  -1.5486 C.2            1 S1                 0.0000
      9 ****        -1.6259   1.3590  -1.2592 C.2            1 S1                 0.0000
     10 ****        -1.1670   1.6886   0.0061 N.2            1 S1                 0.0000
     11 ****        -0.6486   0.5406   0.4498 C.2            1 S1                 0.0000
     12 ****        -0.0564   0.4092   1.7070 N.pl3          1 S1                 0.0000
     13 ****         0.8621   1.3955   2.2742 C.3            1 S1                 0.0000
     14 ****         2.1376   0.7291   2.8208 C.3            1 S1                 0.0000
     15 ****         1.7910  -0.3297   3.8770 C.3            1 S1                 0.0000
     16 ****         0.7424  -1.3035   3.3221 C.3            1 S1                 0.0000
     17 ****        -0.4608  -0.5302   2.7541 C.3            1 S1                 0.0000
     18 ****        -0.7042  -0.4886  -0.4403 N.pl3          1 S1                 0.0000
     19 ****        -0.1608  -1.8394  -0.2965 C.3            1 S1                 0.0000
     20 ****         1.3678  -1.8925  -0.4971 C.3            1 S1                 0.0000
     21 ****         1.7740  -3.2290  -0.2803 O.3            1 S1                 0.0000
     22 ****         1.8278  -1.4521  -1.9006 C.3            1 S1                 0.0000
     23 ****         3.2270  -1.2636  -1.9210 O.3            1 S1                 0.0000
     24 ****        -2.5704  -0.0359  -4.5957 H              1 S1                 0.0000
     25 ****        -3.5948   3.8234  -2.1887 H              1 S1                 0.0000
     26 ****        -1.9006   4.2191  -2.5029 H              1 S1                 0.0000
     27 ****        -2.4331   3.8011  -0.8769 H              1 S1                 0.0000
     28 ****         1.1333   2.1240   1.5092 H              1 S1                 0.0000
     29 ****         0.3541   1.9497   3.0645 H              1 S1                 0.0000
     30 ****         2.6876   0.2649   2.0013 H              1 S1                 0.0000
     31 ****         2.7985   1.4821   3.2503 H              1 S1                 0.0000
     32 ****         2.6868  -0.8693   4.1852 H              1 S1                 0.0000
     33 ****         1.3971   0.1605   4.7682 H              1 S1                 0.0000
     34 ****         1.1892  -1.9229   2.5441 H              1 S1                 0.0000
     35 ****         0.4130  -1.9836   4.1078 H              1 S1                 0.0000
     36 ****        -0.9454   0.0302   3.5546 H              1 S1                 0.0000
     37 ****        -1.2199  -1.2159   2.3801 H              1 S1                 0.0000
     38 ****        -0.4212  -2.2275   0.6845 H              1 S1                 0.0000
     39 ****        -0.6569  -2.5133  -0.9910 H              1 S1                 0.0000
     40 ****         1.8453  -1.2641   0.2549 H              1 S1                 0.0000
     41 ****         1.3882  -3.7730  -0.9496 H              1 S1                 0.0000
     42 ****         1.5348  -2.1765  -2.6614 H              1 S1                 0.0000
     43 ****         1.3782  -0.4987  -2.1758 H              1 S1                 0.0000
     44 ****         3.4814  -0.9903  -2.7891 H              1 S1                 0.0000
     45 ****        -3.3914   3.2676  -4.1610 LP             1 S1                 0.0000
     46 ****        -3.4042   1.8871  -5.2071 LP             1 S1                 0.0000
     47 ****        -1.6954  -2.0502  -4.0544 LP             1 S1                 0.0000
     48 ****        -0.9912  -2.3029  -2.4922 LP             1 S1                 0.0000
     49 ****        -1.2128   2.5715   0.4734 LP             1 S1                 0.0000
     50 ****         1.4651  -3.5332   0.6208 LP             1 S1                 0.0000
     51 ****         2.7709  -3.2904  -0.3292 LP             1 S1                 0.0000
     52 ****         3.6860  -2.1214  -1.6897 LP             1 S1                 0.0000
     53 ****         3.4820  -0.5598  -1.2579 LP             1 S1                 0.0000
@<TRIPOS>BOND
    1    1    2 1     
    2    1   25 1     
    3    1   26 1     
    4    1   27 1     
    5    2    9 1     
    6    2    3 1     
    7    3    4 2     
    8    3    5 1     
    9    5   24 1     
   10    5    6 1     
   11    6    7 2     
   12    6    8 1     
   13    8   18 1     
   14    8    9 2     
   15    9   10 1     
   16   10   11 2     
   17   11   12 1     
   18   11   18 1     
   19   12   17 1     
   20   12   13 1     
   21   13   14 1     
   22   13   28 1     
   23   13   29 1     
   24   14   15 1     
   25   14   30 1     
   26   14   31 1     
   27   15   16 1     
   28   15   32 1     
   29   15   33 1     
   30   16   17 1     
   31   16   34 1     
   32   16   35 1     
   33   17   36 1     
   34   17   37 1     
   35   18   19 1     
   36   19   20 1     
   37   19   38 1     
   38   19   39 1     
   39   20   21 1     
   40   20   22 1     
   41   20   40 1     
   42   21   41 1     
   43   22   23 1     
   44   22   42 1     
   45   22   43 1     
   46   23   44 1     
   47    4   45 1     
   48    4   46 1     
   49    7   47 1     
   50    7   48 1     
   51   10   49 1     
   52   21   50 1     
   53   21   51 1     
   54   23   52 1     
   55   23   53 1     
@<TRIPOS>SUBSTRUCTURE
      1 S1             1
@<TRIPOS>SET
LONE_PAIRS      STATIC     ATOMS    <user>   **** ""
9 45 46 47 48 49 50 51 52 53
DONOR_HYDROGENS      STATIC     ATOMS    <user>   **** ""
3 24 41 44
ATOM$BLUE        STATIC     ATOMS    COLORGROUP SYSTEM
9 45 46 47 48 49 50 51 52 53
ATOM$RED        STATIC     ATOMS    COLORGROUP SYSTEM
3 24 41 44
