AV-unprocessed.smi:2364|AV-procd|sdf|9417|dock1
  -GOLD-   2272013 53D 1   1.00000     0.00000
 Structure written by MMmdl.
 46 47  0  0  0  0  0  0  0  0  1 V2000
  151.4645  141.1808  157.1480 C   0  0  0  0  0  0  0  0  0  0  0  0
  151.5196  140.2059  155.9589 C   0  0  0  0  0  0  0  0  0  0  0  0
  150.1419  139.7566  155.3878 C   0  0  1  0  0  0  0  0  0  0  0  0
  149.4422  140.9486  154.6937 C   0  0  0  0  0  0  0  0  0  0  0  0
  150.3066  138.6021  154.3667 C   0  0  0  0  0  0  0  0  0  0  0  0
  149.1702  138.4365  153.5422 O   0  0  0  0  0  0  0  0  0  0  0  0
  149.2713  139.2321  156.4506 N   0  0  0  0  0  0  0  0  0  0  0  0
  149.5110  138.2345  157.3197 C   0  0  0  0  0  0  0  0  0  0  0  0
  150.5562  137.5849  157.3532 O   0  0  0  0  0  0  0  0  0  0  0  0
  148.4623  138.0515  158.1415 N   0  0  0  0  0  0  0  0  0  0  0  0
  148.2909  137.0513  159.1340 C   0  0  0  0  0  0  0  0  0  0  0  0
  148.4410  135.7402  158.7926 N   0  0  0  0  0  0  0  0  0  0  0  0
  148.2264  135.1886  159.9798 C   0  0  0  0  0  0  0  0  0  0  0  0
  147.9380  136.0624  160.9531 N   0  0  0  0  0  0  0  0  0  0  0  0
  147.7397  135.8554  162.3913 C   0  0  0  0  0  0  0  0  0  0  0  0
  147.5609  134.3602  162.7439 C   0  0  0  0  0  0  0  0  0  0  0  0
  146.2341  133.7966  162.2020 C   0  0  0  0  0  0  0  0  0  0  0  0
  145.0356  134.6013  162.7321 C   0  0  0  0  0  0  0  0  0  0  0  0
  145.1878  136.1027  162.4369 C   0  0  0  0  0  0  0  0  0  0  0  0
  146.5322  136.6396  162.9646 C   0  0  0  0  0  0  0  0  0  0  0  0
  148.0236  137.3056  160.4158 N   0  0  0  0  0  0  0  0  0  0  0  0
  152.4720  141.4475  157.4673 H   0  0  0  0  0  0  0  0  0  0  0  0
  150.9591  140.7411  158.0073 H   0  0  0  0  0  0  0  0  0  0  0  0
  150.9507  142.1068  156.8900 H   0  0  0  0  0  0  0  0  0  0  0  0
  152.1127  140.6675  155.1693 H   0  0  0  0  0  0  0  0  0  0  0  0
  152.0952  139.3289  156.2569 H   0  0  0  0  0  0  0  0  0  0  0  0
  150.0289  141.3207  153.8533 H   0  0  0  0  0  0  0  0  0  0  0  0
  149.2964  141.7904  155.3705 H   0  0  0  0  0  0  0  0  0  0  0  0
  148.4624  140.6649  154.3080 H   0  0  0  0  0  0  0  0  0  0  0  0
  151.1718  138.7685  153.7245 H   0  0  0  0  0  0  0  0  0  0  0  0
  150.4884  137.6594  154.8846 H   0  0  0  0  0  0  0  0  0  0  0  0
  149.3475  137.7466  152.9212 H   0  0  0  0  0  0  0  0  0  0  0  0
  148.3738  139.6870  156.5295 H   0  0  0  0  0  0  0  0  0  0  0  0
  147.6872  138.6885  158.0319 H   0  0  0  0  0  0  0  0  0  0  0  0
  148.2890  134.1224  160.1379 H   0  0  0  0  0  0  0  0  0  0  0  0
  148.6451  136.2172  162.8802 H   0  0  0  0  0  0  0  0  0  0  0  0
  148.3995  133.7688  162.3763 H   0  0  0  0  0  0  0  0  0  0  0  0
  147.5779  134.2450  163.8283 H   0  0  0  0  0  0  0  0  0  0  0  0
  146.2366  133.8162  161.1115 H   0  0  0  0  0  0  0  0  0  0  0  0
  146.1319  132.7500  162.4897 H   0  0  0  0  0  0  0  0  0  0  0  0
  144.1110  134.2270  162.2918 H   0  0  0  0  0  0  0  0  0  0  0  0
  144.9471  134.4515  163.8088 H   0  0  0  0  0  0  0  0  0  0  0  0
  145.1108  136.2742  161.3628 H   0  0  0  0  0  0  0  0  0  0  0  0
  144.3649  136.6539  162.8928 H   0  0  0  0  0  0  0  0  0  0  0  0
  146.5412  136.5586  164.0522 H   0  0  0  0  0  0  0  0  0  0  0  0
  146.6209  137.7062  162.7539 H   0  0  0  0  0  0  0  0  0  0  0  0
  1  2  1  0  0  0  0
  1 22  1  0  0  0  0
  1 23  1  0  0  0  0
  1 24  1  0  0  0  0
  2  3  1  0  0  0  0
  2 25  1  0  0  0  0
  2 26  1  0  0  0  0
  3  4  1  0  0  0  0
  3  5  1  0  0  0  0
  3  7  1  0  0  0  0
  4 27  1  0  0  0  0
  4 28  1  0  0  0  0
  4 29  1  0  0  0  0
  5  6  1  0  0  0  0
  5 30  1  0  0  0  0
  5 31  1  0  0  0  0
  6 32  1  0  0  0  0
  7  8  1  0  0  0  0
  7 33  1  0  0  0  0
  8  9  2  0  0  0  0
  8 10  1  0  0  0  0
 10 11  1  0  0  0  0
 10 34  1  0  0  0  0
 11 21  2  0  0  0  0
 11 12  1  0  0  0  0
 12 13  2  0  0  0  0
 13 14  1  0  0  0  0
 13 35  1  0  0  0  0
 14 15  1  0  0  0  0
 14 21  1  0  0  0  0
 15 20  1  0  0  0  0
 15 16  1  0  0  0  0
 15 36  1  0  0  0  0
 16 17  1  0  0  0  0
 16 37  1  0  0  0  0
 16 38  1  0  0  0  0
 17 18  1  0  0  0  0
 17 39  1  0  0  0  0
 17 40  1  0  0  0  0
 18 19  1  0  0  0  0
 18 41  1  0  0  0  0
 18 42  1  0  0  0  0
 19 20  1  0  0  0  0
 19 43  1  0  0  0  0
 19 44  1  0  0  0  0
 20 45  1  0  0  0  0
 20 46  1  0  0  0  0
M  END
> <s_m_source_file>
AV-unprocessed.smi

> <i_m_source_file_index>
2364

> <i_lp_mmshare_version>
43012

> <i_f3d_flags>
0

> <s_epik_input>
W0NIM11bQ0gyXVtDQEBdKFtDSDNdKShbQ0gyXVtPSF0pW05IXUMoPU8pW05IXWMxbltjSF1uKG4xKVtDSF0yW0NIMl1bQ0gyXVtDSDJdW0NIMl1bQ0gyXTI=

> <s_epik_cmdline>
J2VwaWtfcHl0aG9uJywgJy1waCcsICc3LjAnLCAnLXRuJywgJzgnLCAnLW1hJywgJzIwMCcsICctbWV0YWxfYmluZGluZycsICctaW1hZScsICc8aW5maWxlLm1hZT4nLCAnLW9tYWUnLCAnPG91dGZpbGUubWFlPic=

> <r_lp_tautomer_probability>
1

> <r_epik_Ionization_Penalty>
9.31261e-05

> <r_epik_Ionization_Penalty_Charging>
0

> <r_epik_Ionization_Penalty_Neutral>
9.31261e-05

> <r_epik_State_Penalty>
-0

> <r_epik_Charging_Adjusted_Penalty>
0

> <i_epik_Tot_Q>
0

> <i_epik_Tot_abs_Q>
0

> <r_epik_Metal_State_Penalty>
-0

> <b_epik_Metal_Only>
0

> <s_lp_Force_Field>
OPLS_2005

> <r_lp_Energy>
23.546

> <b_lp_Chiralities_Consistent>
1

> <s_lp_Variant>
AV-unprocessed.smi:2364-1

> <Gold.Version>
5.8.1

> <Gold.Id.Protein>
6NUR|6NUR_protein|mol2

> <Gold.PLP.Fitness>
45.0767

> <Gold.PLP.PLP>
-39.7769

> <Gold.PLP.part.hbond>
-4.0000

> <Gold.PLP.part.metal>
0.0000

> <Gold.PLP.part.buried>
-5.1140

> <Gold.PLP.part.nonpolar>
-31.5876

> <Gold.PLP.part.repulsive>
0.1208

> <Gold.PLP.ligand.clash>
0.0000

> <Gold.PLP.ligand.torsion>
1.0413

> <Gold.PLP.Chemscore.Hbond>
2.4080

> <Gold.PLP.Chemscore.CHOScore>
0.0000

> <Gold.PLP.Chemscore.Metal>
0.0000

> <Gold.Chemscore.Hbonds>
donor molecule, donor type, donor heavy atom, donor atom, acceptor molecule, acceptor atom, score
      L1  H     6    32       P1  7948  1.00
      P1  H  6931  6943       L1    21  0.69
      P1  H  6934  6947       L1    21  0.72

> <Gold.PLP.Chemscore.Internal.Correction>
0.1584

> <Gold.Rescore>
     Score         DG    S(hbond)    S(metal)    S(lipo)     H(rot)  DE(clash)    DE(int)     intcor
     14.91     -16.20       2.03        0.00      84.88       2.34       0.60       0.68       ----

> <Gold.Chemscore.Fitness>
14.9133

> <Gold.Chemscore.DG>
-16.2009

> <Gold.Chemscore.ZeroCoef>
-5.4800

> <Gold.Chemscore.Hbond>
2.0264

> <Gold.Chemscore.Metal>
0.0000

> <Gold.Chemscore.Lipo>
84.8832

> <Gold.Chemscore.Internal_Hbond>
0.0000

> <Gold.Chemscore.DEClash>
0.6048

> <Gold.Chemscore.DEInternal>
0.6828

> <Gold.Chemscore.Rot>
2.3354

> <Gold.Chemscore.Internal.Correction>
   9.000000E+99

> <Gold.Chemscore.Hbonds>
donor molecule, donor type, donor heavy atom, donor atom, acceptor molecule, acceptor atom, score
      L1  H     6    32       P1  7948  0.94
      P1  H  6931  6943       L1    21  0.16
      P1  H  6934  6947       L1    21  0.69

> <Gold.Chemscore.Hbond.Weighted>
-6.7683

> <Gold.Chemscore.Metal.Weighted>
-0.0000

> <Gold.Chemscore.Lipo.Weighted>
-9.9313

> <Gold.Chemscore.Internal_Hbond.Weighted>
0.0000

> <Gold.Chemscore.DEClash.Weighted>
0.6048

> <Gold.Chemscore.DEInternal.Weighted>
0.6828

> <Gold.Chemscore.Rot.Weighted>
5.9787

> <Gold.Chemscore.Internal.Correction.Weighted>
   9.000000E+99

> <Gold.Protein.RotatedTorsions>
[ 6907 6896 6895 6894 ] final   17.76 input  -60.11 | X-H torsion
[ 7974 7965 7964 7962 ] final -152.47 input  175.53 | X-H torsion
[ 8008 7997 7996 7995 ] final    2.47 input   59.86 | X-H torsion
[ 10167 10162 10161 10158 ] final   76.45 input  -65.29 | X-H torsion
[ 10718 10713 10712 10709 ] final   29.92 input   66.30 | X-H torsion
[ 10763 10752 10751 10750 ] final -148.89 input  -60.55 | X-H torsion
[ 11005 11000 10999 10996 ] final -153.78 input  -57.11 | X-H torsion

> <Gold.Protein.ActiveResidues>
 VAL166  LYS551  ARG553  GLY616  TRP617  ASP618  TYR619  PRO620  LYS621  CYS622 
 ASP623  PHE694  ASN695  SER759  ASP760  ASP761  ALA762  ILE779  LEU786  VAL792 
 PHE793  MET794  SER795  GLU796  ALA797  LYS798  CYS799  TRP800  GLU811  SER814 

> <Gold.Protein.RotatedAtoms>
  151.8547  135.0545  160.0462 H   0  0  0  0  0  0  0  0  0  0  0  0  # atno 6907 bound_to 6896
  152.2709  133.5377  159.5447 H   0  0  0  0  0  0  0  0  0  0  0  0  # atno 6908 bound_to 6896
  150.7151  134.0615  159.3875 H   0  0  0  0  0  0  0  0  0  0  0  0  # atno 6909 bound_to 6896
  144.7792  140.4658  143.5851 H   0  0  0  0  0  0  0  0  0  0  0  0  # atno 7974 bound_to 7965
  154.6920  140.2655  155.6803 H   0  0  0  0  0  0  0  0  0  0  0  0  # atno 8008 bound_to 7997
  156.2735  140.2789  156.1425 H   0  0  0  0  0  0  0  0  0  0  0  0  # atno 8009 bound_to 7997
  155.0883  140.0373  157.2651 H   0  0  0  0  0  0  0  0  0  0  0  0  # atno 8010 bound_to 7997
  139.9921  144.5749  150.7809 H   0  0  0  0  0  0  0  0  0  0  0  0  # atno 10167 bound_to 10162
  157.2529  130.7123  149.6414 H   0  0  0  0  0  0  0  0  0  0  0  0  # atno 10718 bound_to 10713
  154.8208  135.3323  154.7044 H   0  0  0  0  0  0  0  0  0  0  0  0  # atno 10763 bound_to 10752
  153.7677  135.6928  153.4917 H   0  0  0  0  0  0  0  0  0  0  0  0  # atno 10764 bound_to 10752
  153.2066  135.4497  155.0279 H   0  0  0  0  0  0  0  0  0  0  0  0  # atno 10765 bound_to 10752
  140.7044  134.3901  157.5205 H   0  0  0  0  0  0  0  0  0  0  0  0  # atno 11005 bound_to 11000
  145.6097  139.1512  143.3082 LP  0  0  0  0  0  0  0  0  0  0  0  0  # atno 17320 bound_to 7965
  146.1991  140.6214  142.9110 LP  0  0  0  0  0  0  0  0  0  0  0  0  # atno 17321 bound_to 7965
  140.7451  143.2870  151.3436 LP  0  0  0  0  0  0  0  0  0  0  0  0  # atno 17342 bound_to 10162
  139.6332  144.0680  152.2494 LP  0  0  0  0  0  0  0  0  0  0  0  0  # atno 17343 bound_to 10162
  155.9666  130.4422  150.5371 LP  0  0  0  0  0  0  0  0  0  0  0  0  # atno 17370 bound_to 10713
  157.3259  131.0690  151.1897 LP  0  0  0  0  0  0  0  0  0  0  0  0  # atno 17371 bound_to 10713
  139.8888  134.8847  156.2455 LP  0  0  0  0  0  0  0  0  0  0  0  0  # atno 17394 bound_to 11000
  141.0136  133.7081  156.1152 LP  0  0  0  0  0  0  0  0  0  0  0  0  # atno 17395 bound_to 11000

$$$$
