AV-unprocessed.smi:2607|AV-procd|sdf|10203|dock5
  -GOLD-   2272014213D 1   1.00000     0.00000
 Structure written by MMmdl.
 21 22  0  0  0  0  0  0  0  0  2 V2000
  153.3419  139.2359  154.6264 C   0  0  0  0  0  0  0  0  0  0  0  0
  152.3872  138.9806  155.8109 C   0  0  2  0  0  0  0  0  0  0  0  0
  151.1177  139.8473  155.6884 C   0  0  0  0  0  0  0  0  0  0  0  0
  150.5876  140.5930  156.7743 C   0  0  0  0  0  0  0  0  0  0  0  0
  149.4797  141.3582  156.6511 N   0  0  0  0  0  0  0  0  0  0  0  0
  148.8941  141.3852  155.4350 C   0  0  0  0  0  0  0  0  0  0  0  0
  149.4134  140.6550  154.3471 C   0  0  0  0  0  0  0  0  0  0  0  0
  150.5204  139.8916  154.4697 N   0  0  0  0  0  0  0  0  0  0  0  0
  153.1169  139.1884  157.0571 N   0  5  0  0  0  0  0  0  0  0  0  0
  153.1094  138.0417  157.7756 C   0  0  0  0  0  0  0  0  0  0  0  0
  153.6007  137.8449  158.8847 O   0  0  0  0  0  0  0  0  0  0  0  0
  152.4748  137.0746  157.1090 N   0  0  0  0  0  0  0  0  0  0  0  0
  152.0341  137.4981  155.9286 C   0  0  0  0  0  0  0  0  0  0  0  0
  151.4628  136.8232  155.0720 O   0  0  0  0  0  0  0  0  0  0  0  0
  152.8616  139.0217  153.6711 H   0  0  0  0  0  0  0  0  0  0  0  0
  154.2369  138.6143  154.6856 H   0  0  0  0  0  0  0  0  0  0  0  0
  153.6659  140.2769  154.6021 H   0  0  0  0  0  0  0  0  0  0  0  0
  151.0437  140.5901  157.7528 H   0  0  0  0  0  0  0  0  0  0  0  0
  148.0087  141.9939  155.3280 H   0  0  0  0  0  0  0  0  0  0  0  0
  148.9404  140.6841  153.3768 H   0  0  0  0  0  0  0  0  0  0  0  0
  152.3660  136.1313  157.4500 H   0  0  0  0  0  0  0  0  0  0  0  0
  1  2  1  0  0  0  0
  1 15  1  0  0  0  0
  1 16  1  0  0  0  0
  1 17  1  0  0  0  0
  2 13  1  0  0  0  0
  2  3  1  0  0  0  0
  2  9  1  0  0  0  0
  3  8  1  0  0  0  0
  3  4  2  0  0  0  0
  4  5  1  0  0  0  0
  4 18  1  0  0  0  0
  5  6  2  0  0  0  0
  6  7  1  0  0  0  0
  6 19  1  0  0  0  0
  7  8  2  0  0  0  0
  7 20  1  0  0  0  0
  9 10  1  0  0  0  0
 10 11  2  0  0  0  0
 10 12  1  0  0  0  0
 12 13  1  0  0  0  0
 12 21  1  0  0  0  0
 13 14  2  0  0  0  0
M  CHG  1   9  -1
M  END
> <s_m_source_file>
AV-unprocessed.smi

> <i_m_source_file_index>
2607

> <i_lp_mmshare_version>
43012

> <i_f3d_flags>
0

> <s_epik_input>
Tz1DMVtOSF1DKD1PKVtOSF1bQ0BAXTEoW0NIM10pYzJbY0hdbltjSF1bY0hdbjI=

> <s_epik_cmdline>
J2VwaWtfcHl0aG9uJywgJy1waCcsICc3LjAnLCAnLXRuJywgJzgnLCAnLW1hJywgJzIwMCcsICctbWV0YWxfYmluZGluZycsICctaW1hZScsICc8aW5maWxlLm1hZT4nLCAnLW9tYWUnLCAnPG91dGZpbGUubWFlPic=

> <r_lp_tautomer_probability>
1

> <r_epik_Ionization_Penalty>
4.70687

> <r_epik_Ionization_Penalty_Charging>
4.70687

> <r_epik_Ionization_Penalty_Neutral>
2.29475e-06

> <r_epik_State_Penalty>
4.73416

> <r_epik_Charging_Adjusted_Penalty>
9.44103

> <i_epik_Tot_Q>
-1

> <i_epik_Tot_abs_Q>
1

> <r_epik_Metal_State_Penalty>
1.2389

> <b_epik_Metal_Only>
1

> <s_lp_Force_Field>
OPLS_2005

> <r_lp_Energy>
21.97

> <b_lp_Chiralities_Consistent>
1

> <s_lp_Variant>
AV-unprocessed.smi:2607-6

> <Gold.Version>
5.8.1

> <Gold.Id.Protein>
6NUR|6NUR_protein|mol2

> <Gold.PLP.Fitness>
31.4255

> <Gold.PLP.PLP>
-17.6794

> <Gold.PLP.part.hbond>
-3.0000

> <Gold.PLP.part.metal>
0.0000

> <Gold.PLP.part.buried>
0.7415

> <Gold.PLP.part.nonpolar>
-15.9738

> <Gold.PLP.part.repulsive>
0.4247

> <Gold.PLP.ligand.clash>
0.0000

> <Gold.PLP.ligand.torsion>
0.5266

> <Gold.PLP.Chemscore.Hbond>
3.8413

> <Gold.PLP.Chemscore.CHOScore>
1.0738

> <Gold.PLP.Chemscore.Metal>
0.0000

> <Gold.Chemscore.Hbonds>
donor molecule, donor type, donor heavy atom, donor atom, acceptor molecule, acceptor atom, score
      P1  H  7989  7998       L1     8  0.95
      P1  H  7997  8009       L1     9  2.00
      P1  H 10752 10763       L1    14  1.00
      L1  C     6    19       P1  8028  0.09
      L1  C     7    20       P1  7957  1.00

> <Gold.PLP.Chemscore.Internal.Correction>
0.0541

> <Gold.Rescore>
     Score         DG    S(hbond)    S(metal)    S(lipo)     H(rot)  DE(clash)    DE(int)     intcor
     12.66     -13.09       1.55        0.00      42.62       1.00       0.39       0.04       ----

> <Gold.Chemscore.Fitness>
12.6595

> <Gold.Chemscore.DG>
-13.0946

> <Gold.Chemscore.ZeroCoef>
-5.4800

> <Gold.Chemscore.Hbond>
1.5532

> <Gold.Chemscore.Metal>
0.0000

> <Gold.Chemscore.Lipo>
42.6225

> <Gold.Chemscore.Internal_Hbond>
0.0000

> <Gold.Chemscore.DEClash>
0.3944

> <Gold.Chemscore.DEInternal>
0.0407

> <Gold.Chemscore.Rot>
1.0000

> <Gold.Chemscore.Internal.Correction>
   9.000000E+99

> <Gold.Chemscore.Hbonds>
donor molecule, donor type, donor heavy atom, donor atom, acceptor molecule, acceptor atom, score
      P1  H  7989  7998       L1     8  0.10
      P1  H  7997  8009       L1     9  0.85
      P1  H 10752 10763       L1    14  0.34

> <Gold.Chemscore.Hbond.Weighted>
-5.1878

> <Gold.Chemscore.Metal.Weighted>
-0.0000

> <Gold.Chemscore.Lipo.Weighted>
-4.9868

> <Gold.Chemscore.Internal_Hbond.Weighted>
0.0000

> <Gold.Chemscore.DEClash.Weighted>
0.3944

> <Gold.Chemscore.DEInternal.Weighted>
0.0407

> <Gold.Chemscore.Rot.Weighted>
2.5600

> <Gold.Chemscore.Internal.Correction.Weighted>
   9.000000E+99

> <Gold.Protein.RotatedTorsions>
[ 6907 6896 6895 6894 ] final   56.16 input  -60.11 | X-H torsion
[ 7974 7965 7964 7962 ] final  -18.80 input  175.53 | X-H torsion
[ 8008 7997 7996 7995 ] final  162.81 input   59.86 | X-H torsion
[ 10167 10162 10161 10158 ] final -134.78 input  -65.29 | X-H torsion
[ 10718 10713 10712 10709 ] final -152.09 input   66.30 | X-H torsion
[ 10763 10752 10751 10750 ] final   51.58 input  -60.55 | X-H torsion
[ 11005 11000 10999 10996 ] final  155.18 input  -57.11 | X-H torsion

> <Gold.Protein.ActiveResidues>
 VAL166  LYS551  ARG553  GLY616  TRP617  ASP618  TYR619  PRO620  LYS621  CYS622 
 ASP623  PHE694  ASN695  SER759  ASP760  ASP761  ALA762  ILE779  LEU786  VAL792 
 PHE793  MET794  SER795  GLU796  ALA797  LYS798  CYS799  TRP800  GLU811  SER814 

> <Gold.Protein.RotatedAtoms>
  152.3609  134.6873  160.0207 H   0  0  0  0  0  0  0  0  0  0  0  0  # atno 6907 bound_to 6896
  151.7197  133.3309  159.3320 H   0  0  0  0  0  0  0  0  0  0  0  0  # atno 6908 bound_to 6896
  150.7604  134.6393  159.6273 H   0  0  0  0  0  0  0  0  0  0  0  0  # atno 6909 bound_to 6896
  146.1874  140.3972  142.8471 H   0  0  0  0  0  0  0  0  0  0  0  0  # atno 7974 bound_to 7965
  156.2004  140.1740  156.7911 H   0  0  0  0  0  0  0  0  0  0  0  0  # atno 8008 bound_to 7997
  154.5584  140.0704  156.8811 H   0  0  0  0  0  0  0  0  0  0  0  0  # atno 8009 bound_to 7997
  155.2895  140.3354  155.4256 H   0  0  0  0  0  0  0  0  0  0  0  0  # atno 8010 bound_to 7997
  139.8846  143.6797  152.2622 H   0  0  0  0  0  0  0  0  0  0  0  0  # atno 10167 bound_to 10162
  156.4679  130.8244  151.2474 H   0  0  0  0  0  0  0  0  0  0  0  0  # atno 10718 bound_to 10713
  152.9786  135.5841  154.4438 H   0  0  0  0  0  0  0  0  0  0  0  0  # atno 10763 bound_to 10752
  154.4036  135.2769  155.2083 H   0  0  0  0  0  0  0  0  0  0  0  0  # atno 10764 bound_to 10752
  154.3903  135.6127  153.5894 H   0  0  0  0  0  0  0  0  0  0  0  0  # atno 10765 bound_to 10752
  140.1558  134.8644  157.2512 H   0  0  0  0  0  0  0  0  0  0  0  0  # atno 11005 bound_to 11000
  144.8422  140.6874  143.6222 LP  0  0  0  0  0  0  0  0  0  0  0  0  # atno 17320 bound_to 7965
  145.3898  139.1619  143.4235 LP  0  0  0  0  0  0  0  0  0  0  0  0  # atno 17321 bound_to 7965
  139.7165  144.7611  151.1026 LP  0  0  0  0  0  0  0  0  0  0  0  0  # atno 17342 bound_to 10162
  140.7738  143.5263  150.9476 LP  0  0  0  0  0  0  0  0  0  0  0  0  # atno 17343 bound_to 10162
  157.7493  131.0086  150.3234 LP  0  0  0  0  0  0  0  0  0  0  0  0  # atno 17370 bound_to 10713
  156.3649  130.3853  149.7222 LP  0  0  0  0  0  0  0  0  0  0  0  0  # atno 17371 bound_to 10713
  140.2549  134.3639  155.7428 LP  0  0  0  0  0  0  0  0  0  0  0  0  # atno 17394 bound_to 11000
  141.2204  133.7337  156.8992 LP  0  0  0  0  0  0  0  0  0  0  0  0  # atno 17395 bound_to 11000

$$$$
