AV-unprocessed.smi:3116|AV-procd|sdf|11876|dock6
  -GOLD-   2272017263D 1   1.00000     0.00000
 Structure written by MMmdl.
 33 33  0  0  0  0  0  0  0  0  1 V2000
  147.6928  141.6414  156.0548 C   0  0  0  0  0  0  0  0  0  0  0  0
  149.1263  141.0998  155.9397 C   0  0  2  0  0  0  0  0  0  0  0  0
  150.0739  142.0886  156.4851 N   0  0  0  0  0  0  0  0  0  0  0  0
  150.7268  141.7151  157.7396 C   0  0  1  0  0  0  0  0  0  0  0  0
  151.4168  140.3519  157.5299 C   0  0  0  0  0  0  0  0  0  0  0  0
  151.7120  142.8469  158.1352 C   0  0  1  0  0  0  0  0  0  0  0  0
  151.0205  144.2163  158.2714 C   0  0  0  0  0  0  0  0  0  0  0  0
  152.4253  142.5365  159.3680 N   0  0  0  0  0  0  0  0  0  0  0  0
  152.4185  143.2246  160.5653 C   0  0  0  0  0  0  0  0  0  0  0  0
  153.2397  142.5551  161.4262 C   0  0  0  0  0  0  0  0  0  0  0  0
  153.7122  141.4566  160.6555 C   0  0  0  0  0  0  0  0  0  0  0  0
  153.2251  141.4490  159.4256 N   0  0  0  0  0  0  0  0  0  0  0  0
  149.4358  140.6939  154.4891 C   0  0  0  0  0  0  0  0  0  0  0  0
  148.5349  141.0181  153.5583 N   0  0  0  0  0  0  0  0  0  0  0  0
  150.4655  140.0798  154.2159 O   0  0  0  0  0  0  0  0  0  0  0  0
  146.9654  140.9239  155.6731 H   0  0  0  0  0  0  0  0  0  0  0  0
  147.5670  142.5715  155.4987 H   0  0  0  0  0  0  0  0  0  0  0  0
  147.4353  141.8423  157.0952 H   0  0  0  0  0  0  0  0  0  0  0  0
  149.1844  140.2058  156.5636 H   0  0  0  0  0  0  0  0  0  0  0  0
  150.7615  142.3740  155.8021 H   0  0  0  0  0  0  0  0  0  0  0  0
  149.9941  141.6137  158.5416 H   0  0  0  0  0  0  0  0  0  0  0  0
  151.8594  139.9787  158.4534 H   0  0  0  0  0  0  0  0  0  0  0  0
  152.2120  140.4211  156.7869 H   0  0  0  0  0  0  0  0  0  0  0  0
  150.7136  139.5917  157.1904 H   0  0  0  0  0  0  0  0  0  0  0  0
  152.4595  142.9349  157.3437 H   0  0  0  0  0  0  0  0  0  0  0  0
  150.5679  144.5312  157.3311 H   0  0  0  0  0  0  0  0  0  0  0  0
  151.7359  144.9871  158.5598 H   0  0  0  0  0  0  0  0  0  0  0  0
  150.2338  144.1934  159.0258 H   0  0  0  0  0  0  0  0  0  0  0  0
  151.8343  144.1225  160.7031 H   0  0  0  0  0  0  0  0  0  0  0  0
  153.4686  142.8111  162.4499 H   0  0  0  0  0  0  0  0  0  0  0  0
  154.3906  140.6698  160.9506 H   0  0  0  0  0  0  0  0  0  0  0  0
  148.6956  140.7699  152.5930 H   0  0  0  0  0  0  0  0  0  0  0  0
  147.6941  141.5096  153.8247 H   0  0  0  0  0  0  0  0  0  0  0  0
  1  2  1  0  0  0  0
  1 16  1  0  0  0  0
  1 17  1  0  0  0  0
  1 18  1  0  0  0  0
  2  3  1  0  0  0  0
  2 13  1  0  0  0  0
  2 19  1  0  0  0  0
  3  4  1  0  0  0  0
  3 20  1  0  0  0  0
  4  5  1  0  0  0  0
  4  6  1  0  0  0  0
  4 21  1  0  0  0  0
  5 22  1  0  0  0  0
  5 23  1  0  0  0  0
  5 24  1  0  0  0  0
  6  7  1  0  0  0  0
  6  8  1  0  0  0  0
  6 25  1  0  0  0  0
  7 26  1  0  0  0  0
  7 27  1  0  0  0  0
  7 28  1  0  0  0  0
  8 12  1  0  0  0  0
  8  9  1  0  0  0  0
  9 10  2  0  0  0  0
  9 29  1  0  0  0  0
 10 11  1  0  0  0  0
 10 30  1  0  0  0  0
 11 12  2  0  0  0  0
 11 31  1  0  0  0  0
 13 14  1  0  0  0  0
 13 15  2  0  0  0  0
 14 32  1  0  0  0  0
 14 33  1  0  0  0  0
M  END
> <s_m_source_file>
AV-unprocessed.smi

> <i_m_source_file_index>
3116

> <i_lp_mmshare_version>
43012

> <i_f3d_flags>
0

> <s_epik_input>
W05IMl1DKD1PKVtDQEhdKFtDSDNdKVtOSF1bQ0BIXShbQ0gzXSlbQ0BIXShbQ0gzXSluMVtjSF1bY0hdW2NIXW4x

> <s_epik_cmdline>
J2VwaWtfcHl0aG9uJywgJy1waCcsICc3LjAnLCAnLXRuJywgJzgnLCAnLW1hJywgJzIwMCcsICctbWV0YWxfYmluZGluZycsICctaW1hZScsICc8aW5maWxlLm1hZT4nLCAnLW9tYWUnLCAnPG91dGZpbGUubWFlPic=

> <r_lp_tautomer_probability>
1

> <r_epik_Ionization_Penalty>
0.865977

> <r_epik_Ionization_Penalty_Charging>
0

> <r_epik_Ionization_Penalty_Neutral>
0.865977

> <r_epik_State_Penalty>
0.901888

> <r_epik_Charging_Adjusted_Penalty>
0.901888

> <i_epik_Tot_Q>
0

> <i_epik_Tot_abs_Q>
0

> <r_epik_Metal_State_Penalty>
0.901181

> <b_epik_Metal_Only>
0

> <s_lp_Force_Field>
OPLS_2005

> <r_lp_Energy>
9.22902

> <b_lp_Chiralities_Consistent>
1

> <s_lp_Variant>
AV-unprocessed.smi:3116-15

> <Gold.Version>
5.8.1

> <Gold.Id.Protein>
6NUR|6NUR_protein|mol2

> <Gold.PLP.Fitness>
36.5476

> <Gold.PLP.PLP>
-33.7480

> <Gold.PLP.part.hbond>
-2.9898

> <Gold.PLP.part.metal>
0.0000

> <Gold.PLP.part.buried>
-5.4571

> <Gold.PLP.part.nonpolar>
-26.3617

> <Gold.PLP.part.repulsive>
0.5577

> <Gold.PLP.ligand.clash>
1.5348

> <Gold.PLP.ligand.torsion>
0.8819

> <Gold.PLP.Chemscore.Hbond>
2.0000

> <Gold.PLP.Chemscore.CHOScore>
0.0000

> <Gold.PLP.Chemscore.Metal>
0.0000

> <Gold.Chemscore.Hbonds>
donor molecule, donor type, donor heavy atom, donor atom, acceptor molecule, acceptor atom, score
      L1  H    14    32       P1  7957  1.00
      P1  H  7989  7998       L1    15  1.00

> <Gold.PLP.Chemscore.Internal.Correction>
0.0982

> <Gold.Rescore>
     Score         DG    S(hbond)    S(metal)    S(lipo)     H(rot)  DE(clash)    DE(int)     intcor
     12.49     -14.71       1.97        0.00      74.73       2.38       0.02       2.19       ----

> <Gold.Chemscore.Fitness>
12.4938

> <Gold.Chemscore.DG>
-14.7098

> <Gold.Chemscore.ZeroCoef>
-5.4800

> <Gold.Chemscore.Hbond>
1.9724

> <Gold.Chemscore.Metal>
0.0000

> <Gold.Chemscore.Lipo>
74.7332

> <Gold.Chemscore.Internal_Hbond>
0.0000

> <Gold.Chemscore.DEClash>
0.0215

> <Gold.Chemscore.DEInternal>
2.1945

> <Gold.Chemscore.Rot>
2.3836

> <Gold.Chemscore.Internal.Correction>
   9.000000E+99

> <Gold.Chemscore.Hbonds>
donor molecule, donor type, donor heavy atom, donor atom, acceptor molecule, acceptor atom, score
      L1  H    14    32       P1  7957  0.99
      P1  H  7989  7998       L1    15  0.92

> <Gold.Chemscore.Hbond.Weighted>
-6.5880

> <Gold.Chemscore.Metal.Weighted>
-0.0000

> <Gold.Chemscore.Lipo.Weighted>
-8.7438

> <Gold.Chemscore.Internal_Hbond.Weighted>
0.0000

> <Gold.Chemscore.DEClash.Weighted>
0.0215

> <Gold.Chemscore.DEInternal.Weighted>
2.1945

> <Gold.Chemscore.Rot.Weighted>
6.1020

> <Gold.Chemscore.Internal.Correction.Weighted>
   9.000000E+99

> <Gold.Protein.RotatedTorsions>
[ 6907 6896 6895 6894 ] final   46.79 input  -60.11 | X-H torsion
[ 7974 7965 7964 7962 ] final  -83.11 input  175.53 | X-H torsion
[ 8008 7997 7996 7995 ] final  165.37 input   59.86 | X-H torsion
[ 10167 10162 10161 10158 ] final  -51.41 input  -65.29 | X-H torsion
[ 10718 10713 10712 10709 ] final  -12.98 input   66.30 | X-H torsion
[ 10763 10752 10751 10750 ] final  -12.62 input  -60.55 | X-H torsion
[ 11005 11000 10999 10996 ] final   28.02 input  -57.11 | X-H torsion

> <Gold.Protein.ActiveResidues>
 VAL166  LYS551  ARG553  GLY616  TRP617  ASP618  TYR619  PRO620  LYS621  CYS622 
 ASP623  PHE694  ASN695  SER759  ASP760  ASP761  ALA762  ILE779  LEU786  VAL792 
 PHE793  MET794  SER795  GLU796  ALA797  LYS798  CYS799  TRP800  GLU811  SER814 

> <Gold.Protein.RotatedAtoms>
  152.2605  134.8039  160.0431 H   0  0  0  0  0  0  0  0  0  0  0  0  # atno 6907 bound_to 6896
  151.8687  133.3466  159.3736 H   0  0  0  0  0  0  0  0  0  0  0  0  # atno 6908 bound_to 6896
  150.7115  134.5061  159.5629 H   0  0  0  0  0  0  0  0  0  0  0  0  # atno 6909 bound_to 6896
  145.5243  140.9528  143.1638 H   0  0  0  0  0  0  0  0  0  0  0  0  # atno 7974 bound_to 7965
  156.1806  140.1672  156.8282 H   0  0  0  0  0  0  0  0  0  0  0  0  # atno 8008 bound_to 7997
  154.5355  140.0747  156.8453 H   0  0  0  0  0  0  0  0  0  0  0  0  # atno 8009 bound_to 7997
  155.3319  140.3379  155.4242 H   0  0  0  0  0  0  0  0  0  0  0  0  # atno 8010 bound_to 7997
  140.6590  143.2621  151.4499 H   0  0  0  0  0  0  0  0  0  0  0  0  # atno 10167 bound_to 10162
  156.6368  130.4917  149.6109 H   0  0  0  0  0  0  0  0  0  0  0  0  # atno 10718 bound_to 10713
  153.5011  135.7017  153.5831 H   0  0  0  0  0  0  0  0  0  0  0  0  # atno 10763 bound_to 10752
  153.3962  135.3883  155.1957 H   0  0  0  0  0  0  0  0  0  0  0  0  # atno 10764 bound_to 10752
  154.8710  135.3870  154.4482 H   0  0  0  0  0  0  0  0  0  0  0  0  # atno 10765 bound_to 10752
  140.3201  134.2553  155.7718 H   0  0  0  0  0  0  0  0  0  0  0  0  # atno 11005 bound_to 11000
  144.7659  139.6846  143.7215 LP  0  0  0  0  0  0  0  0  0  0  0  0  # atno 17320 bound_to 7965
  146.2086  139.5426  142.9696 LP  0  0  0  0  0  0  0  0  0  0  0  0  # atno 17321 bound_to 7965
  139.5819  144.1691  152.1979 LP  0  0  0  0  0  0  0  0  0  0  0  0  # atno 17342 bound_to 10162
  140.1019  144.5532  150.6983 LP  0  0  0  0  0  0  0  0  0  0  0  0  # atno 17343 bound_to 10162
  156.2191  130.6726  151.1349 LP  0  0  0  0  0  0  0  0  0  0  0  0  # atno 17370 bound_to 10713
  157.7183  131.0697  150.6238 LP  0  0  0  0  0  0  0  0  0  0  0  0  # atno 17371 bound_to 10713
  141.2088  133.7766  157.0033 LP  0  0  0  0  0  0  0  0  0  0  0  0  # atno 17394 bound_to 11000
  140.0949  134.9570  157.1834 LP  0  0  0  0  0  0  0  0  0  0  0  0  # atno 17395 bound_to 11000

$$$$
