AV-unprocessed.smi:45|AV-procd|sdf|414|dock1
  -GOLD-   2262016283D 1   1.00000     0.00000
 Structure written by MMmdl.
 59 62  0  0  0  0  0  0  0  0  2 V2000
  146.8286  132.8025  150.4276 C   0  0  0  0  0  0  0  0  0  0  0  0
  146.5841  133.6022  151.5751 O   0  0  0  0  0  0  0  0  0  0  0  0
  147.4545  133.4988  152.6407 C   0  0  0  0  0  0  0  0  0  0  0  0
  148.6996  132.8225  152.5798 C   0  0  0  0  0  0  0  0  0  0  0  0
  149.5363  132.7598  153.7106 C   0  0  0  0  0  0  0  0  0  0  0  0
  149.1456  133.3704  154.9187 C   0  0  0  0  0  0  0  0  0  0  0  0
  150.0475  133.3050  156.1349 C   0  0  0  0  0  0  0  0  0  0  0  0
  150.5170  134.6120  156.5691 N   0  0  0  0  0  0  0  0  0  0  0  0
  149.9863  135.2379  157.7097 C   0  0  0  0  0  0  0  0  0  0  0  0
  149.1447  134.5170  158.4894 N   0  0  0  0  0  0  0  0  0  0  0  0
  148.6490  135.1007  159.5817 C   0  0  0  0  0  0  0  0  0  0  0  0
  147.7724  134.3346  160.3342 N   0  0  0  0  0  0  0  0  0  0  0  0
  147.6290  132.9114  160.0361 C   0  0  0  0  0  0  0  0  0  0  0  0
  147.4483  132.1858  161.3756 C   0  0  0  0  0  0  0  0  0  0  0  0
  147.0096  133.2881  162.3327 C   0  0  0  0  0  0  0  0  0  0  0  0
  147.7724  134.4953  161.7843 C   0  0  2  0  0  0  0  0  0  0  0  0
  147.2840  135.8763  162.2700 C   0  0  0  0  0  0  0  0  0  0  0  0
  146.2482  136.3841  161.4539 O   0  0  0  0  0  0  0  0  0  0  0  0
  148.8962  136.3473  159.9919 N   0  0  0  0  0  0  0  0  0  0  0  0
  149.7341  137.0831  159.2308 C   0  0  0  0  0  0  0  0  0  0  0  0
  150.3291  136.5757  158.0504 C   0  0  0  0  0  0  0  0  0  0  0  0
  151.2301  137.4389  157.2033 C   0  0  0  0  0  0  0  0  0  0  0  0
  151.9100  136.8964  156.3249 O   0  0  0  0  0  0  0  0  0  0  0  0
  151.1701  138.7478  157.5728 N   0  5  0  0  0  0  0  0  0  0  0  0
  151.8475  139.3045  158.7436 C   0  0  0  0  0  0  0  0  0  0  0  0
  151.6033  140.8017  158.8692 C   0  0  0  0  0  0  0  0  0  0  0  0
  152.2510  141.4395  159.8524 N   0  0  0  0  0  0  0  0  0  0  0  0
  152.0597  142.7726  159.9490 C   0  0  0  0  0  0  0  0  0  0  0  0
  151.2154  143.4672  159.0599 C   0  0  0  0  0  0  0  0  0  0  0  0
  150.5821  142.6920  158.0679 C   0  0  0  0  0  0  0  0  0  0  0  0
  150.7763  141.3588  157.9754 N   0  0  0  0  0  0  0  0  0  0  0  0
  147.9106  134.0440  154.9872 C   0  0  0  0  0  0  0  0  0  0  0  0
  147.0713  134.1062  153.8577 C   0  0  0  0  0  0  0  0  0  0  0  0
  145.5620  134.9382  153.9769 Cl  0  0  0  0  0  0  0  0  0  0  0  0
  148.8124  134.3956  162.1002 H   0  0  0  0  0  0  0  0  0  0  0  0
  146.0639  133.0067  149.6783 H   0  0  0  0  0  0  0  0  0  0  0  0
  146.7818  131.7387  150.6645 H   0  0  0  0  0  0  0  0  0  0  0  0
  147.7970  133.0319  149.9811 H   0  0  0  0  0  0  0  0  0  0  0  0
  149.0377  132.3411  151.6748 H   0  0  0  0  0  0  0  0  0  0  0  0
  150.4814  132.2402  153.6487 H   0  0  0  0  0  0  0  0  0  0  0  0
  149.4965  132.8313  156.9482 H   0  0  0  0  0  0  0  0  0  0  0  0
  150.9072  132.6697  155.9180 H   0  0  0  0  0  0  0  0  0  0  0  0
  151.2502  135.0710  156.0469 H   0  0  0  0  0  0  0  0  0  0  0  0
  146.7383  132.7874  159.4199 H   0  0  0  0  0  0  0  0  0  0  0  0
  148.4719  132.5050  159.4761 H   0  0  0  0  0  0  0  0  0  0  0  0
  146.7363  131.3622  161.3190 H   0  0  0  0  0  0  0  0  0  0  0  0
  148.4062  131.7790  161.7024 H   0  0  0  0  0  0  0  0  0  0  0  0
  145.9313  133.4329  162.2550 H   0  0  0  0  0  0  0  0  0  0  0  0
  147.2508  133.0695  163.3732 H   0  0  0  0  0  0  0  0  0  0  0  0
  146.8980  135.7900  163.2859 H   0  0  0  0  0  0  0  0  0  0  0  0
  148.1021  136.5956  162.3094 H   0  0  0  0  0  0  0  0  0  0  0  0
  146.3730  136.0592  160.5755 H   0  0  0  0  0  0  0  0  0  0  0  0
  149.9158  138.0938  159.5666 H   0  0  0  0  0  0  0  0  0  0  0  0
  151.5108  138.8192  159.6611 H   0  0  0  0  0  0  0  0  0  0  0  0
  152.9267  139.1416  158.7187 H   0  0  0  0  0  0  0  0  0  0  0  0
  152.5838  143.2886  160.7397 H   0  0  0  0  0  0  0  0  0  0  0  0
  151.0621  144.5333  159.1346 H   0  0  0  0  0  0  0  0  0  0  0  0
  149.9179  143.1432  157.3460 H   0  0  0  0  0  0  0  0  0  0  0  0
  147.6014  134.5141  155.9094 H   0  0  0  0  0  0  0  0  0  0  0  0
  1  2  1  0  0  0  0
  1 36  1  0  0  0  0
  1 37  1  0  0  0  0
  1 38  1  0  0  0  0
  2  3  1  0  0  0  0
  3 33  1  0  0  0  0
  3  4  2  0  0  0  0
  4  5  1  0  0  0  0
  4 39  1  0  0  0  0
  5  6  2  0  0  0  0
  5 40  1  0  0  0  0
  6  7  1  0  0  0  0
  6 32  1  0  0  0  0
  7  8  1  0  0  0  0
  7 41  1  0  0  0  0
  7 42  1  0  0  0  0
  8  9  1  0  0  0  0
  8 43  1  0  0  0  0
  9 21  1  0  0  0  0
  9 10  2  0  0  0  0
 10 11  1  0  0  0  0
 11 12  1  0  0  0  0
 11 19  2  0  0  0  0
 12 16  1  0  0  0  0
 12 13  1  0  0  0  0
 13 14  1  0  0  0  0
 13 44  1  0  0  0  0
 13 45  1  0  0  0  0
 14 15  1  0  0  0  0
 14 46  1  0  0  0  0
 14 47  1  0  0  0  0
 15 16  1  0  0  0  0
 15 48  1  0  0  0  0
 15 49  1  0  0  0  0
 16 35  1  0  0  0  0
 16 17  1  0  0  0  0
 17 18  1  0  0  0  0
 17 50  1  0  0  0  0
 17 51  1  0  0  0  0
 18 52  1  0  0  0  0
 19 20  1  0  0  0  0
 20 21  2  0  0  0  0
 20 53  1  0  0  0  0
 21 22  1  0  0  0  0
 22 23  2  0  0  0  0
 22 24  1  0  0  0  0
 24 25  1  0  0  0  0
 25 26  1  0  0  0  0
 25 54  1  0  0  0  0
 25 55  1  0  0  0  0
 26 31  1  0  0  0  0
 26 27  2  0  0  0  0
 27 28  1  0  0  0  0
 28 29  2  0  0  0  0
 28 56  1  0  0  0  0
 29 30  1  0  0  0  0
 29 57  1  0  0  0  0
 30 31  2  0  0  0  0
 30 58  1  0  0  0  0
 32 33  2  0  0  0  0
 32 59  1  0  0  0  0
 33 34  1  0  0  0  0
M  CHG  1  24  -1
M  END
> <s_m_source_file>
AV-unprocessed.smi

> <i_m_source_file_index>
45

> <i_lp_mmshare_version>
43012

> <i_f3d_flags>
0

> <s_epik_input>
W0NIM11PYzFbY0hdW2NIXWMoW2NIXWMxQ2wpW0NIMl1bTkhdYzJuYyhOM1tDSDJdW0NIMl1bQ0gyXVtDQEhdM1tDSDJdW09IXSluW2NIXWMyQyg9TylbTkhdW0NIMl1jNG5bY0hdW2NIXVtjSF1uNA==

> <s_epik_cmdline>
J2VwaWtfcHl0aG9uJywgJy1waCcsICc3LjAnLCAnLXRuJywgJzgnLCAnLW1hJywgJzIwMCcsICctbWV0YWxfYmluZGluZycsICctaW1hZScsICc8aW5maWxlLm1hZT4nLCAnLW9tYWUnLCAnPG91dGZpbGUubWFlPic=

> <r_lp_tautomer_probability>
1

> <r_epik_Ionization_Penalty>
7.35269

> <r_epik_Ionization_Penalty_Charging>
6.82087

> <r_epik_Ionization_Penalty_Neutral>
0.53182

> <r_epik_State_Penalty>
6.85781

> <r_epik_Charging_Adjusted_Penalty>
13.6787

> <i_epik_Tot_Q>
-1

> <i_epik_Tot_abs_Q>
1

> <r_epik_Metal_State_Penalty>
2.8146

> <b_epik_Metal_Only>
1

> <s_epik_Chemistry_Notes>
This compound contains an electron-poor aromatic ring that is susceptible to covalent hydrolysis at low pH, typically resulting in measured values for nitrogen ring protonation that are around two units higher than predicted values.

> <s_lp_Force_Field>
OPLS_2005

> <r_lp_Energy>
50.4559

> <b_lp_Chiralities_Consistent>
1

> <s_lp_Variant>
AV-unprocessed.smi:45-8

> <Gold.Version>
5.8.1

> <Gold.Id.Protein>
6NUR|6NUR_protein|mol2

> <Gold.PLP.Fitness>
57.5957

> <Gold.PLP.PLP>
-51.0965

> <Gold.PLP.part.hbond>
-3.4996

> <Gold.PLP.part.metal>
0.0000

> <Gold.PLP.part.buried>
-4.6765

> <Gold.PLP.part.nonpolar>
-43.2592

> <Gold.PLP.part.repulsive>
0.3223

> <Gold.PLP.ligand.clash>
0.0000

> <Gold.PLP.ligand.torsion>
1.7823

> <Gold.PLP.Chemscore.Hbond>
2.0360

> <Gold.PLP.Chemscore.CHOScore>
1.0000

> <Gold.PLP.Chemscore.Metal>
0.0000

> <Gold.Chemscore.Hbonds>
donor molecule, donor type, donor heavy atom, donor atom, acceptor molecule, acceptor atom, score
      P1  H  6896  6909       L1    10  0.14
      P1  H 10752 10764       L1    23  0.34
      L1  C    30    58       P1  8028  1.00

> <Gold.PLP.Chemscore.Internal.Correction>
0.9558

> <Gold.Rescore>
     Score         DG    S(hbond)    S(metal)    S(lipo)     H(rot)  DE(clash)    DE(int)     intcor
     10.86     -17.88       1.81        0.00     122.18       3.11       0.20       6.82       ----

> <Gold.Chemscore.Fitness>
10.8591

> <Gold.Chemscore.DG>
-17.8753

> <Gold.Chemscore.ZeroCoef>
-5.4800

> <Gold.Chemscore.Hbond>
1.8131

> <Gold.Chemscore.Metal>
0.0000

> <Gold.Chemscore.Lipo>
122.1809

> <Gold.Chemscore.Internal_Hbond>
0.0000

> <Gold.Chemscore.DEClash>
0.1999

> <Gold.Chemscore.DEInternal>
6.8163

> <Gold.Chemscore.Rot>
3.1077

> <Gold.Chemscore.Internal.Correction>
   9.000000E+99

> <Gold.Chemscore.Hbonds>
donor molecule, donor type, donor heavy atom, donor atom, acceptor molecule, acceptor atom, score
      P1  H 10752 10764       L1    23  0.34

> <Gold.Chemscore.Hbond.Weighted>
-6.0558

> <Gold.Chemscore.Metal.Weighted>
-0.0000

> <Gold.Chemscore.Lipo.Weighted>
-14.2952

> <Gold.Chemscore.Internal_Hbond.Weighted>
0.0000

> <Gold.Chemscore.DEClash.Weighted>
0.1999

> <Gold.Chemscore.DEInternal.Weighted>
6.8163

> <Gold.Chemscore.Rot.Weighted>
7.9557

> <Gold.Chemscore.Internal.Correction.Weighted>
   9.000000E+99

> <Gold.Protein.RotatedTorsions>
[ 6907 6896 6895 6894 ] final   10.91 input  -60.11 | X-H torsion
[ 7974 7965 7964 7962 ] final  106.32 input  175.53 | X-H torsion
[ 8008 7997 7996 7995 ] final -105.18 input   59.86 | X-H torsion
[ 10167 10162 10161 10158 ] final   64.84 input  -65.29 | X-H torsion
[ 10718 10713 10712 10709 ] final -172.69 input   66.30 | X-H torsion
[ 10763 10752 10751 10750 ] final  -45.30 input  -60.55 | X-H torsion
[ 11005 11000 10999 10996 ] final  -36.06 input  -57.11 | X-H torsion

> <Gold.Protein.ActiveResidues>
 VAL166  LYS551  ARG553  GLY616  TRP617  ASP618  TYR619  PRO620  LYS621  CYS622 
 ASP623  PHE694  ASN695  SER759  ASP760  ASP761  ALA762  ILE779  LEU786  VAL792 
 PHE793  MET794  SER795  GLU796  ALA797  LYS798  CYS799  TRP800  GLU811  SER814 

> <Gold.Protein.RotatedAtoms>
  151.7458  135.0844  160.0322 H   0  0  0  0  0  0  0  0  0  0  0  0  # atno 6907 bound_to 6896
  152.3449  133.6106  159.5911 H   0  0  0  0  0  0  0  0  0  0  0  0  # atno 6908 bound_to 6896
  150.7502  133.9581  159.3548 H   0  0  0  0  0  0  0  0  0  0  0  0  # atno 6909 bound_to 6896
  145.3081  139.2548  143.3777 H   0  0  0  0  0  0  0  0  0  0  0  0  # atno 7974 bound_to 7965
  154.8960  140.0414  157.1866 H   0  0  0  0  0  0  0  0  0  0  0  0  # atno 8008 bound_to 7997
  154.8492  140.2926  155.5588 H   0  0  0  0  0  0  0  0  0  0  0  0  # atno 8009 bound_to 7997
  156.2995  140.2468  156.3448 H   0  0  0  0  0  0  0  0  0  0  0  0  # atno 8010 bound_to 7997
  140.1178  144.4759  150.6939 H   0  0  0  0  0  0  0  0  0  0  0  0  # atno 10167 bound_to 10162
  156.7594  130.9407  151.3117 H   0  0  0  0  0  0  0  0  0  0  0  0  # atno 10718 bound_to 10713
  154.0263  135.6662  153.4777 H   0  0  0  0  0  0  0  0  0  0  0  0  # atno 10763 bound_to 10752
  153.0559  135.5056  154.7975 H   0  0  0  0  0  0  0  0  0  0  0  0  # atno 10764 bound_to 10752
  154.6906  135.3060  154.9450 H   0  0  0  0  0  0  0  0  0  0  0  0  # atno 10765 bound_to 10752
  140.9845  133.7038  156.1742 H   0  0  0  0  0  0  0  0  0  0  0  0  # atno 11005 bound_to 11000
  146.3128  140.3611  142.8665 LP  0  0  0  0  0  0  0  0  0  0  0  0  # atno 17320 bound_to 7965
  144.9038  140.7675  143.5850 LP  0  0  0  0  0  0  0  0  0  0  0  0  # atno 17321 bound_to 7965
  140.6889  143.2365  151.5184 LP  0  0  0  0  0  0  0  0  0  0  0  0  # atno 17342 bound_to 10162
  139.5585  144.2216  152.1652 LP  0  0  0  0  0  0  0  0  0  0  0  0  # atno 17343 bound_to 10162
  157.6741  130.9078  150.0110 LP  0  0  0  0  0  0  0  0  0  0  0  0  # atno 17370 bound_to 10713
  156.1349  130.3643  149.9673 LP  0  0  0  0  0  0  0  0  0  0  0  0  # atno 17371 bound_to 10713
  140.7135  134.4436  157.5580 LP  0  0  0  0  0  0  0  0  0  0  0  0  # atno 17394 bound_to 11000
  139.8965  134.8659  156.2086 LP  0  0  0  0  0  0  0  0  0  0  0  0  # atno 17395 bound_to 11000

$$$$
