AV-unprocessed.smi:3156|AV-procd|sdf|12034|dock7
  -GOLD-   2272017453D 1   1.00000     0.00000
 Structure written by MMmdl.
 41 42  0  0  0  0  0  0  0  0  2 V2000
  149.1987  143.3423  158.8436 C   0  0  0  0  0  0  0  0  0  0  0  0
  150.0378  142.4060  157.9541 C   0  0  1  0  0  0  0  0  0  0  0  0
  149.4518  142.3380  156.5950 N   0  3  0  0  0  0  0  0  0  0  0  0
  150.2528  141.6157  155.5841 C   0  0  0  0  0  0  0  0  0  0  0  0
  149.3512  140.9245  154.5491 C   0  0  2  0  0  0  0  0  0  0  0  0
  148.0717  141.7270  154.2282 C   0  0  0  0  0  0  0  0  0  0  0  0
  147.1903  140.9575  153.2387 C   0  0  0  0  0  0  0  0  0  0  0  0
  146.9401  139.5405  153.7660 C   0  0  0  0  0  0  0  0  0  0  0  0
  148.2725  138.8482  154.0963 C   0  0  0  0  0  0  0  0  0  0  0  0
  149.0110  139.6270  155.0335 O   0  0  0  0  0  0  0  0  0  0  0  0
  151.5255  142.8445  157.8607 C   0  0  1  0  0  0  0  0  0  0  0  0
  151.7005  144.3658  157.6989 C   0  0  0  0  0  0  0  0  0  0  0  0
  152.2992  142.3852  159.0105 N   0  0  0  0  0  0  0  0  0  0  0  0
  152.8716  143.1452  160.0101 C   0  0  0  0  0  0  0  0  0  0  0  0
  153.4912  142.2873  160.8729 C   0  0  0  0  0  0  0  0  0  0  0  0
  153.2270  141.0031  160.3211 C   0  0  0  0  0  0  0  0  0  0  0  0
  152.5112  141.0642  159.2104 N   0  0  0  0  0  0  0  0  0  0  0  0
  149.5613  143.3533  159.8709 H   0  0  0  0  0  0  0  0  0  0  0  0
  148.1564  143.0268  158.8863 H   0  0  0  0  0  0  0  0  0  0  0  0
  149.2192  144.3672  158.4717 H   0  0  0  0  0  0  0  0  0  0  0  0
  150.0087  141.4048  158.3873 H   0  0  0  0  0  0  0  0  0  0  0  0
  148.5259  141.9372  156.6434 H   0  0  0  0  0  0  0  0  0  0  0  0
  150.9150  142.3148  155.0720 H   0  0  0  0  0  0  0  0  0  0  0  0
  150.8860  140.8785  156.0780 H   0  0  0  0  0  0  0  0  0  0  0  0
  149.9302  140.8065  153.6314 H   0  0  0  0  0  0  0  0  0  0  0  0
  147.5030  141.9139  155.1399 H   0  0  0  0  0  0  0  0  0  0  0  0
  148.3298  142.7037  153.8173 H   0  0  0  0  0  0  0  0  0  0  0  0
  146.2454  141.4796  153.0844 H   0  0  0  0  0  0  0  0  0  0  0  0
  147.6840  140.9068  152.2674 H   0  0  0  0  0  0  0  0  0  0  0  0
  146.3210  139.5865  154.6627 H   0  0  0  0  0  0  0  0  0  0  0  0
  146.3836  138.9577  153.0314 H   0  0  0  0  0  0  0  0  0  0  0  0
  148.0860  137.8642  154.5268 H   0  0  0  0  0  0  0  0  0  0  0  0
  148.8635  138.6923  153.1924 H   0  0  0  0  0  0  0  0  0  0  0  0
  151.9616  142.3683  156.9810 H   0  0  0  0  0  0  0  0  0  0  0  0
  151.2748  144.7258  156.7628 H   0  0  0  0  0  0  0  0  0  0  0  0
  152.7565  144.6378  157.6917 H   0  0  0  0  0  0  0  0  0  0  0  0
  151.2249  144.9111  158.5148 H   0  0  0  0  0  0  0  0  0  0  0  0
  152.7948  144.2227  160.0231 H   0  0  0  0  0  0  0  0  0  0  0  0
  154.0435  142.5383  161.7664 H   0  0  0  0  0  0  0  0  0  0  0  0
  153.5308  140.0354  160.6926 H   0  0  0  0  0  0  0  0  0  0  0  0
  149.3688  143.2904  156.2685 H   0  0  0  0  0  0  0  0  0  0  0  0
  1  2  1  0  0  0  0
  1 18  1  0  0  0  0
  1 19  1  0  0  0  0
  1 20  1  0  0  0  0
  2  3  1  0  0  0  0
  2 11  1  0  0  0  0
  2 21  1  0  0  0  0
  3  4  1  0  0  0  0
  3 22  1  0  0  0  0
  3 41  1  0  0  0  0
  4  5  1  0  0  0  0
  4 23  1  0  0  0  0
  4 24  1  0  0  0  0
  5 10  1  0  0  0  0
  5  6  1  0  0  0  0
  5 25  1  0  0  0  0
  6  7  1  0  0  0  0
  6 26  1  0  0  0  0
  6 27  1  0  0  0  0
  7  8  1  0  0  0  0
  7 28  1  0  0  0  0
  7 29  1  0  0  0  0
  8  9  1  0  0  0  0
  8 30  1  0  0  0  0
  8 31  1  0  0  0  0
  9 10  1  0  0  0  0
  9 32  1  0  0  0  0
  9 33  1  0  0  0  0
 11 12  1  0  0  0  0
 11 13  1  0  0  0  0
 11 34  1  0  0  0  0
 12 35  1  0  0  0  0
 12 36  1  0  0  0  0
 12 37  1  0  0  0  0
 13 17  1  0  0  0  0
 13 14  1  0  0  0  0
 14 15  2  0  0  0  0
 14 38  1  0  0  0  0
 15 16  1  0  0  0  0
 15 39  1  0  0  0  0
 16 17  2  0  0  0  0
 16 40  1  0  0  0  0
M  CHG  1   3   1
M  END
> <s_m_source_file>
AV-unprocessed.smi

> <i_m_source_file_index>
3156

> <i_lp_mmshare_version>
43012

> <i_f3d_flags>
0

> <s_epik_input>
bjFbY0hdW2NIXVtjSF1uMVtDQEBIXShbQ0gzXSlbQ0BIXShbQ0gzXSlbTkhdW0NIMl1bQ0BASF0yW0NIMl1bQ0gyXVtDSDJdW0NIMl1PMg==

> <s_epik_cmdline>
J2VwaWtfcHl0aG9uJywgJy1waCcsICc3LjAnLCAnLXRuJywgJzgnLCAnLW1hJywgJzIwMCcsICctbWV0YWxfYmluZGluZycsICctaW1hZScsICc8aW5maWxlLm1hZT4nLCAnLW9tYWUnLCAnPG91dGZpbGUubWFlPic=

> <r_lp_tautomer_probability>
1

> <r_epik_Ionization_Penalty>
0.00658015

> <r_epik_Ionization_Penalty_Charging>
0.00656881

> <r_epik_Ionization_Penalty_Neutral>
1.13431e-05

> <r_epik_State_Penalty>
0.0048654

> <r_epik_Charging_Adjusted_Penalty>
0.0114342

> <i_epik_Tot_Q>
1

> <i_epik_Tot_abs_Q>
1

> <r_epik_Metal_State_Penalty>
-0

> <b_epik_Metal_Only>
0

> <s_lp_Force_Field>
OPLS_2005

> <r_lp_Energy>
18.8572

> <b_lp_Chiralities_Consistent>
1

> <s_lp_Variant>
AV-unprocessed.smi:3156-6

> <Gold.Version>
5.8.1

> <Gold.Id.Protein>
6NUR|6NUR_protein|mol2

> <Gold.PLP.Fitness>
42.3840

> <Gold.PLP.PLP>
-38.6647

> <Gold.PLP.part.hbond>
-1.0000

> <Gold.PLP.part.metal>
0.0000

> <Gold.PLP.part.buried>
-3.4184

> <Gold.PLP.part.nonpolar>
-34.1311

> <Gold.PLP.part.repulsive>
0.1073

> <Gold.PLP.ligand.clash>
0.0000

> <Gold.PLP.ligand.torsion>
1.1852

> <Gold.PLP.Chemscore.Hbond>
2.0000

> <Gold.PLP.Chemscore.CHOScore>
0.0000

> <Gold.PLP.Chemscore.Metal>
0.0000

> <Gold.Chemscore.Hbonds>
donor molecule, donor type, donor heavy atom, donor atom, acceptor molecule, acceptor atom, score
      L1  H     3    41       P1  8028  2.00

> <Gold.PLP.Chemscore.Internal.Correction>
0.0896

> <Gold.Rescore>
     Score         DG    S(hbond)    S(metal)    S(lipo)     H(rot)  DE(clash)    DE(int)     intcor
     16.38     -17.42       0.98        0.00     108.95       1.59       0.09       0.95       ----

> <Gold.Chemscore.Fitness>
16.3798

> <Gold.Chemscore.DG>
-17.4236

> <Gold.Chemscore.ZeroCoef>
-5.4800

> <Gold.Chemscore.Hbond>
0.9809

> <Gold.Chemscore.Metal>
0.0000

> <Gold.Chemscore.Lipo>
108.9543

> <Gold.Chemscore.Internal_Hbond>
0.0000

> <Gold.Chemscore.DEClash>
0.0897

> <Gold.Chemscore.DEInternal>
0.9541

> <Gold.Chemscore.Rot>
1.5938

> <Gold.Chemscore.Internal.Correction>
   9.000000E+99

> <Gold.Chemscore.Hbonds>
donor molecule, donor type, donor heavy atom, donor atom, acceptor molecule, acceptor atom, score
      L1  H     3    41       P1  8028  0.99

> <Gold.Chemscore.Hbond.Weighted>
-3.2762

> <Gold.Chemscore.Metal.Weighted>
-0.0000

> <Gold.Chemscore.Lipo.Weighted>
-12.7477

> <Gold.Chemscore.Internal_Hbond.Weighted>
0.0000

> <Gold.Chemscore.DEClash.Weighted>
0.0897

> <Gold.Chemscore.DEInternal.Weighted>
0.9541

> <Gold.Chemscore.Rot.Weighted>
4.0802

> <Gold.Chemscore.Internal.Correction.Weighted>
   9.000000E+99

> <Gold.Protein.RotatedTorsions>
[ 6907 6896 6895 6894 ] final  131.26 input  -60.11 | X-H torsion
[ 7974 7965 7964 7962 ] final -177.95 input  175.53 | X-H torsion
[ 8008 7997 7996 7995 ] final  167.51 input   59.86 | X-H torsion
[ 10167 10162 10161 10158 ] final -131.06 input  -65.29 | X-H torsion
[ 10718 10713 10712 10709 ] final -153.02 input   66.30 | X-H torsion
[ 10763 10752 10751 10750 ] final -156.52 input  -60.55 | X-H torsion
[ 11005 11000 10999 10996 ] final -118.65 input  -57.11 | X-H torsion

> <Gold.Protein.ActiveResidues>
 VAL166  LYS551  ARG553  GLY616  TRP617  ASP618  TYR619  PRO620  LYS621  CYS622 
 ASP623  PHE694  ASN695  SER759  ASP760  ASP761  ALA762  ILE779  LEU786  VAL792 
 PHE793  MET794  SER795  GLU796  ALA797  LYS798  CYS799  TRP800  GLU811  SER814 

> <Gold.Protein.RotatedAtoms>
  152.3444  133.6104  159.5899 H   0  0  0  0  0  0  0  0  0  0  0  0  # atno 6907 bound_to 6896
  150.7498  133.9672  159.3543 H   0  0  0  0  0  0  0  0  0  0  0  0  # atno 6908 bound_to 6896
  151.7532  135.0828  160.0385 H   0  0  0  0  0  0  0  0  0  0  0  0  # atno 6909 bound_to 6896
  144.7129  140.0942  143.6420 H   0  0  0  0  0  0  0  0  0  0  0  0  # atno 7974 bound_to 7965
  156.1627  140.1615  156.8584 H   0  0  0  0  0  0  0  0  0  0  0  0  # atno 8008 bound_to 7997
  154.5177  140.0785  156.8148 H   0  0  0  0  0  0  0  0  0  0  0  0  # atno 8009 bound_to 7997
  155.3674  140.3398  155.4244 H   0  0  0  0  0  0  0  0  0  0  0  0  # atno 8010 bound_to 7997
  139.9228  143.6362  152.2549 H   0  0  0  0  0  0  0  0  0  0  0  0  # atno 10167 bound_to 10162
  156.4802  130.8299  151.2526 H   0  0  0  0  0  0  0  0  0  0  0  0  # atno 10718 bound_to 10713
  154.7706  135.3144  154.8197 H   0  0  0  0  0  0  0  0  0  0  0  0  # atno 10763 bound_to 10752
  153.8933  135.6823  153.4763 H   0  0  0  0  0  0  0  0  0  0  0  0  # atno 10764 bound_to 10752
  153.1319  135.4776  154.9297 H   0  0  0  0  0  0  0  0  0  0  0  0  # atno 10765 bound_to 10752
  141.0271  134.0038  157.3199 H   0  0  0  0  0  0  0  0  0  0  0  0  # atno 11005 bound_to 11000
  145.9594  139.2790  143.1165 LP  0  0  0  0  0  0  0  0  0  0  0  0  # atno 17320 bound_to 7965
  145.9237  140.9097  143.0392 LP  0  0  0  0  0  0  0  0  0  0  0  0  # atno 17321 bound_to 7965
  139.6847  144.7652  151.1545 LP  0  0  0  0  0  0  0  0  0  0  0  0  # atno 17342 bound_to 10162
  140.7658  143.5674  150.9033 LP  0  0  0  0  0  0  0  0  0  0  0  0  # atno 17343 bound_to 10162
  157.7484  131.0047  150.3087 LP  0  0  0  0  0  0  0  0  0  0  0  0  # atno 17370 bound_to 10713
  156.3529  130.3834  149.7314 LP  0  0  0  0  0  0  0  0  0  0  0  0  # atno 17371 bound_to 10713
  139.9183  135.0199  156.7966 LP  0  0  0  0  0  0  0  0  0  0  0  0  # atno 17394 bound_to 11000
  140.6473  133.9764  155.7737 LP  0  0  0  0  0  0  0  0  0  0  0  0  # atno 17395 bound_to 11000

$$$$
