AV-unprocessed.smi:444|AV-procd|sdf|2587|dock8
  -GOLD-   2262022583D 1   1.00000     0.00000
 Structure written by MMmdl.
 45 46  0  0  0  0  0  0  0  0  1 V2000
  151.3448  144.7282  159.4500 C   0  0  0  0  0  0  0  0  0  0  0  0
  152.0496  143.3984  159.6225 C   0  0  0  0  0  0  0  0  0  0  0  0
  152.7159  143.0985  160.8261 C   0  0  0  0  0  0  0  0  0  0  0  0
  153.3660  141.8609  160.9793 C   0  0  0  0  0  0  0  0  0  0  0  0
  153.3539  140.9162  159.9320 C   0  0  0  0  0  0  0  0  0  0  0  0
  154.0604  139.5860  160.1146 C   0  0  0  0  0  0  0  0  0  0  0  0
  152.6879  141.2038  158.7180 C   0  0  0  0  0  0  0  0  0  0  0  0
  152.7140  140.2362  157.7344 O   0  0  0  0  0  0  0  0  0  0  0  0
  151.8696  140.3946  156.6018 C   0  0  0  0  0  0  0  0  0  0  0  0
  152.1605  139.2605  155.6035 C   0  0  2  0  0  0  0  0  0  0  0  0
  151.1510  139.3161  154.6143 O   0  0  0  0  0  0  0  0  0  0  0  0
  152.0995  137.8706  156.2759 C   0  0  0  0  0  0  0  0  0  0  0  0
  153.3548  137.5374  156.9611 N   0  0  0  0  0  0  0  0  0  0  0  0
  154.4821  137.6954  156.1780 N   0  0  0  0  0  0  0  0  0  0  0  0
  155.6627  137.4387  156.6372 C   0  0  0  0  0  0  0  0  0  0  0  0
  156.8157  137.6458  155.6923 C   0  0  0  0  0  0  0  0  0  0  0  0
  155.8181  136.9741  158.0118 C   0  0  0  0  0  0  0  0  0  0  0  0
  157.2322  136.6921  158.5006 C   0  0  0  0  0  0  0  0  0  0  0  0
  154.7030  136.8148  158.7678 C   0  0  0  0  0  0  0  0  0  0  0  0
  154.7564  136.3591  160.1196 C   0  0  0  0  0  0  0  0  0  0  0  0
  154.7845  136.0026  161.2206 N   0  0  0  0  0  0  0  0  0  0  0  0
  153.3619  137.0974  158.2515 C   0  0  0  0  0  0  0  0  0  0  0  0
  152.3303  136.9514  158.9085 O   0  0  0  0  0  0  0  0  0  0  0  0
  152.0349  142.4550  158.5753 C   0  0  0  0  0  0  0  0  0  0  0  0
  151.6697  145.4486  160.2015 H   0  0  0  0  0  0  0  0  0  0  0  0
  150.2666  144.5975  159.5439 H   0  0  0  0  0  0  0  0  0  0  0  0
  151.5563  145.1482  158.4662 H   0  0  0  0  0  0  0  0  0  0  0  0
  152.7312  143.8146  161.6348 H   0  0  0  0  0  0  0  0  0  0  0  0
  153.8747  141.6398  161.9063 H   0  0  0  0  0  0  0  0  0  0  0  0
  154.8235  139.4535  159.3469 H   0  0  0  0  0  0  0  0  0  0  0  0
  153.3467  138.7654  160.0359 H   0  0  0  0  0  0  0  0  0  0  0  0
  154.5459  139.5207  161.0891 H   0  0  0  0  0  0  0  0  0  0  0  0
  150.8352  140.3254  156.9420 H   0  0  0  0  0  0  0  0  0  0  0  0
  152.0016  141.3706  156.1306 H   0  0  0  0  0  0  0  0  0  0  0  0
  153.1403  139.4174  155.1499 H   0  0  0  0  0  0  0  0  0  0  0  0
  150.6437  138.5197  154.6562 H   0  0  0  0  0  0  0  0  0  0  0  0
  151.3082  137.8664  157.0278 H   0  0  0  0  0  0  0  0  0  0  0  0
  151.8018  137.0992  155.5627 H   0  0  0  0  0  0  0  0  0  0  0  0
  157.4073  136.7350  155.5961 H   0  0  0  0  0  0  0  0  0  0  0  0
  157.4711  138.4397  156.0512 H   0  0  0  0  0  0  0  0  0  0  0  0
  156.4777  137.9242  154.6927 H   0  0  0  0  0  0  0  0  0  0  0  0
  157.2583  136.4240  159.5565 H   0  0  0  0  0  0  0  0  0  0  0  0
  157.8666  137.5700  158.3730 H   0  0  0  0  0  0  0  0  0  0  0  0
  157.6707  135.8658  157.9400 H   0  0  0  0  0  0  0  0  0  0  0  0
  151.5128  142.7151  157.6672 H   0  0  0  0  0  0  0  0  0  0  0  0
  1  2  1  0  0  0  0
  1 25  1  0  0  0  0
  1 26  1  0  0  0  0
  1 27  1  0  0  0  0
  2 24  1  0  0  0  0
  2  3  2  0  0  0  0
  3  4  1  0  0  0  0
  3 28  1  0  0  0  0
  4  5  2  0  0  0  0
  4 29  1  0  0  0  0
  5  6  1  0  0  0  0
  5  7  1  0  0  0  0
  6 30  1  0  0  0  0
  6 31  1  0  0  0  0
  6 32  1  0  0  0  0
  7  8  1  0  0  0  0
  7 24  2  0  0  0  0
  8  9  1  0  0  0  0
  9 10  1  0  0  0  0
  9 33  1  0  0  0  0
  9 34  1  0  0  0  0
 10 11  1  0  0  0  0
 10 12  1  0  0  0  0
 10 35  1  0  0  0  0
 11 36  1  0  0  0  0
 12 13  1  0  0  0  0
 12 37  1  0  0  0  0
 12 38  1  0  0  0  0
 13 22  1  0  0  0  0
 13 14  1  0  0  0  0
 14 15  2  0  0  0  0
 15 16  1  0  0  0  0
 15 17  1  0  0  0  0
 16 39  1  0  0  0  0
 16 40  1  0  0  0  0
 16 41  1  0  0  0  0
 17 18  1  0  0  0  0
 17 19  2  0  0  0  0
 18 42  1  0  0  0  0
 18 43  1  0  0  0  0
 18 44  1  0  0  0  0
 19 20  1  0  0  0  0
 19 22  1  0  0  0  0
 20 21  3  0  0  0  0
 22 23  2  0  0  0  0
 24 45  1  0  0  0  0
M  END
> <s_m_source_file>
AV-unprocessed.smi

> <i_m_source_file_index>
444

> <i_lp_mmshare_version>
43012

> <i_f3d_flags>
0

> <s_epik_input>
W0NIM11jMVtjSF1bY0hdYyhbQ0gzXSljKFtjSF0xKU9bQ0gyXVtDQEhdKFtPSF0pW0NIMl1uMm5jKFtDSDNdKWMoW0NIM10pYyhDI04pYzI9Tw==

> <s_epik_cmdline>
J2VwaWtfcHl0aG9uJywgJy1waCcsICc3LjAnLCAnLXRuJywgJzgnLCAnLW1hJywgJzIwMCcsICctbWV0YWxfYmluZGluZycsICctaW1hZScsICc8aW5maWxlLm1hZT4nLCAnLW9tYWUnLCAnPG91dGZpbGUubWFlPic=

> <r_lp_tautomer_probability>
1

> <r_epik_Ionization_Penalty>
1.17331e-07

> <r_epik_Ionization_Penalty_Charging>
1.57223e-10

> <r_epik_Ionization_Penalty_Neutral>
1.17174e-07

> <r_epik_State_Penalty>
-0

> <r_epik_Charging_Adjusted_Penalty>
1.57223e-10

> <i_epik_Tot_Q>
0

> <i_epik_Tot_abs_Q>
0

> <r_epik_Metal_State_Penalty>
-0

> <b_epik_Metal_Only>
0

> <s_lp_Force_Field>
OPLS_2005

> <r_lp_Energy>
32.4723

> <b_lp_Chiralities_Consistent>
1

> <s_lp_Variant>
AV-unprocessed.smi:444-1

> <Gold.Version>
5.8.1

> <Gold.Id.Protein>
6NUR|6NUR_protein|mol2

> <Gold.PLP.Fitness>
47.5527

> <Gold.PLP.PLP>
-40.7111

> <Gold.PLP.part.hbond>
-4.7180

> <Gold.PLP.part.metal>
0.0000

> <Gold.PLP.part.buried>
-5.9989

> <Gold.PLP.part.nonpolar>
-30.4477

> <Gold.PLP.part.repulsive>
0.0000

> <Gold.PLP.ligand.clash>
0.0000

> <Gold.PLP.ligand.torsion>
0.4451

> <Gold.PLP.Chemscore.Hbond>
2.5730

> <Gold.PLP.Chemscore.CHOScore>
0.0000

> <Gold.PLP.Chemscore.Metal>
0.0000

> <Gold.Chemscore.Hbonds>
donor molecule, donor type, donor heavy atom, donor atom, acceptor molecule, acceptor atom, score
      P1  H  6896  6909       L1    23  0.51
      P1  H  7989  7998       L1    11  1.00
      P1  H  7997  8009       L1     8  0.98

> <Gold.PLP.Chemscore.Internal.Correction>
0.0129

> <Gold.Rescore>
     Score         DG    S(hbond)    S(metal)    S(lipo)     H(rot)  DE(clash)    DE(int)     intcor
     19.01     -19.79       1.86        0.00     119.40       2.29       0.02       0.77       ----

> <Gold.Chemscore.Fitness>
19.0098

> <Gold.Chemscore.DG>
-19.7940

> <Gold.Chemscore.ZeroCoef>
-5.4800

> <Gold.Chemscore.Hbond>
1.8586

> <Gold.Chemscore.Metal>
0.0000

> <Gold.Chemscore.Lipo>
119.3997

> <Gold.Chemscore.Internal_Hbond>
0.0000

> <Gold.Chemscore.DEClash>
0.0158

> <Gold.Chemscore.DEInternal>
0.7684

> <Gold.Chemscore.Rot>
2.2905

> <Gold.Chemscore.Internal.Correction>
   9.000000E+99

> <Gold.Chemscore.Hbonds>
donor molecule, donor type, donor heavy atom, donor atom, acceptor molecule, acceptor atom, score
      P1  H  6896  6909       L1    23  0.50
      P1  H  7989  7998       L1    11  0.49
      P1  H  7997  8009       L1     8  0.26

> <Gold.Chemscore.Hbond.Weighted>
-6.2078

> <Gold.Chemscore.Metal.Weighted>
-0.0000

> <Gold.Chemscore.Lipo.Weighted>
-13.9698

> <Gold.Chemscore.Internal_Hbond.Weighted>
0.0000

> <Gold.Chemscore.DEClash.Weighted>
0.0158

> <Gold.Chemscore.DEInternal.Weighted>
0.7684

> <Gold.Chemscore.Rot.Weighted>
5.8636

> <Gold.Chemscore.Internal.Correction.Weighted>
   9.000000E+99

> <Gold.Protein.RotatedTorsions>
[ 6907 6896 6895 6894 ] final  139.07 input  -60.11 | X-H torsion
[ 7974 7965 7964 7962 ] final   95.05 input  175.53 | X-H torsion
[ 8008 7997 7996 7995 ] final  164.06 input   59.86 | X-H torsion
[ 10167 10162 10161 10158 ] final  -39.13 input  -65.29 | X-H torsion
[ 10718 10713 10712 10709 ] final  -46.24 input   66.30 | X-H torsion
[ 10763 10752 10751 10750 ] final -120.93 input  -60.55 | X-H torsion
[ 11005 11000 10999 10996 ] final   15.13 input  -57.11 | X-H torsion

> <Gold.Protein.ActiveResidues>
 VAL166  LYS551  ARG553  GLY616  TRP617  ASP618  TYR619  PRO620  LYS621  CYS622 
 ASP623  PHE694  ASN695  SER759  ASP760  ASP761  ALA762  ILE779  LEU786  VAL792 
 PHE793  MET794  SER795  GLU796  ALA797  LYS798  CYS799  TRP800  GLU811  SER814 

> <Gold.Protein.RotatedAtoms>
  152.2592  133.5283  159.5371 H   0  0  0  0  0  0  0  0  0  0  0  0  # atno 6907 bound_to 6896
  150.7119  134.0853  159.3921 H   0  0  0  0  0  0  0  0  0  0  0  0  # atno 6908 bound_to 6896
  151.8771  135.0468  160.0536 H   0  0  0  0  0  0  0  0  0  0  0  0  # atno 6909 bound_to 6896
  145.4574  139.2289  143.3006 H   0  0  0  0  0  0  0  0  0  0  0  0  # atno 7974 bound_to 7965
  156.1909  140.1707  156.8094 H   0  0  0  0  0  0  0  0  0  0  0  0  # atno 8008 bound_to 7997
  154.5470  140.0725  156.8637 H   0  0  0  0  0  0  0  0  0  0  0  0  # atno 8009 bound_to 7997
  155.3102  140.3367  155.4246 H   0  0  0  0  0  0  0  0  0  0  0  0  # atno 8010 bound_to 7997
  140.7073  143.3233  151.2739 H   0  0  0  0  0  0  0  0  0  0  0  0  # atno 10167 bound_to 10162
  156.2203  130.4166  149.9001 H   0  0  0  0  0  0  0  0  0  0  0  0  # atno 10718 bound_to 10713
  154.8656  135.4185  154.2539 H   0  0  0  0  0  0  0  0  0  0  0  0  # atno 10763 bound_to 10752
  153.3480  135.6997  153.6818 H   0  0  0  0  0  0  0  0  0  0  0  0  # atno 10764 bound_to 10752
  153.5769  135.3580  155.2832 H   0  0  0  0  0  0  0  0  0  0  0  0  # atno 10765 bound_to 10752
  140.4617  134.1121  155.7717 H   0  0  0  0  0  0  0  0  0  0  0  0  # atno 11005 bound_to 11000
  146.2470  140.5340  142.8909 LP  0  0  0  0  0  0  0  0  0  0  0  0  # atno 17320 bound_to 7965
  144.8024  140.6237  143.6469 LP  0  0  0  0  0  0  0  0  0  0  0  0  # atno 17321 bound_to 7965
  139.6694  144.0047  152.2743 LP  0  0  0  0  0  0  0  0  0  0  0  0  # atno 17342 bound_to 10162
  139.9641  144.6538  150.8051 LP  0  0  0  0  0  0  0  0  0  0  0  0  # atno 17343 bound_to 10162
  156.6650  130.8797  151.3553 LP  0  0  0  0  0  0  0  0  0  0  0  0  # atno 17370 bound_to 10713
  157.7084  130.9411  150.1007 LP  0  0  0  0  0  0  0  0  0  0  0  0  # atno 17371 bound_to 10713
  141.1618  133.8778  157.1826 LP  0  0  0  0  0  0  0  0  0  0  0  0  # atno 17394 bound_to 11000
  139.9941  135.0053  157.0042 LP  0  0  0  0  0  0  0  0  0  0  0  0  # atno 17395 bound_to 11000

$$$$
