AV-unprocessed.smi:1641|AV-procd|sdf|6568|dock6
  -GOLD-   22720 7253D 1   1.00000     0.00000
 Structure written by MMmdl.
 41 42  0  0  0  0  0  0  0  0  3 V2000
  148.5210  140.7071  154.4851 C   0  0  0  0  0  0  0  0  0  0  0  0
  149.5579  139.6419  154.5936 C   0  0  0  0  0  0  0  0  0  0  0  0
  150.8673  139.8979  154.5398 N   0  0  0  0  0  0  0  0  0  0  0  0
  151.6308  138.7456  154.6610 N   0  0  0  0  0  0  0  0  0  0  0  0
  150.8899  137.6359  154.7926 C   0  0  0  0  0  0  0  0  0  0  0  0
  151.4340  136.4147  154.9228 N   0  5  0  0  0  0  0  0  0  0  0  0
  150.6668  135.3728  155.3136 C   0  0  0  0  0  0  0  0  0  0  0  0
  150.7489  134.7639  156.3829 O   0  0  0  0  0  0  0  0  0  0  0  0
  149.7513  135.0065  154.4054 N   0  0  0  0  0  0  0  0  0  0  0  0
  148.8040  133.9074  154.5482 C   0  0  0  0  0  0  0  0  0  0  0  0
  148.4503  133.2884  153.1821 C   0  0  0  0  0  0  0  0  0  0  0  0
  147.2835  133.9474  152.5456 N   0  3  1  0  0  0  0  0  0  0  0  0
  146.5992  133.0637  151.5736 C   0  0  0  0  0  0  0  0  0  0  0  0
  145.4634  133.8202  150.8619 C   0  0  1  0  0  0  0  0  0  0  0  0
  144.6721  132.9103  149.9158 C   0  0  0  0  0  0  0  0  0  0  0  0
  144.5556  134.3378  151.8310 O   0  0  0  0  0  0  0  0  0  0  0  0
  145.1434  135.2053  152.8005 C   0  0  2  0  0  0  0  0  0  0  0  0
  145.5354  136.5682  152.2019 C   0  0  0  0  0  0  0  0  0  0  0  0
  146.3052  134.4919  153.5195 C   0  0  0  0  0  0  0  0  0  0  0  0
  149.1542  137.9459  154.7982 S   0  0  0  0  0  0  0  0  0  0  0  0
  148.3025  140.9076  153.4361 H   0  0  0  0  0  0  0  0  0  0  0  0
  148.8710  141.6271  154.9543 H   0  0  0  0  0  0  0  0  0  0  0  0
  147.6027  140.3914  154.9805 H   0  0  0  0  0  0  0  0  0  0  0  0
  149.7154  135.5352  153.5459 H   0  0  0  0  0  0  0  0  0  0  0  0
  149.2211  133.1673  155.2314 H   0  0  0  0  0  0  0  0  0  0  0  0
  147.9038  134.2969  155.0239 H   0  0  0  0  0  0  0  0  0  0  0  0
  149.3189  133.3925  152.5303 H   0  0  0  0  0  0  0  0  0  0  0  0
  148.2588  132.2178  153.2698 H   0  0  0  0  0  0  0  0  0  0  0  0
  147.3162  132.7040  150.8345 H   0  0  0  0  0  0  0  0  0  0  0  0
  146.2070  132.1872  152.0927 H   0  0  0  0  0  0  0  0  0  0  0  0
  145.8801  134.6378  150.2734 H   0  0  0  0  0  0  0  0  0  0  0  0
  145.3167  132.4885  149.1442 H   0  0  0  0  0  0  0  0  0  0  0  0
  143.8773  133.4650  149.4168 H   0  0  0  0  0  0  0  0  0  0  0  0
  144.2112  132.0830  150.4562 H   0  0  0  0  0  0  0  0  0  0  0  0
  144.3663  135.3997  153.5403 H   0  0  0  0  0  0  0  0  0  0  0  0
  145.8537  137.2565  152.9854 H   0  0  0  0  0  0  0  0  0  0  0  0
  144.6894  137.0246  151.6875 H   0  0  0  0  0  0  0  0  0  0  0  0
  146.3568  136.4881  151.4904 H   0  0  0  0  0  0  0  0  0  0  0  0
  145.9124  133.6725  154.1237 H   0  0  0  0  0  0  0  0  0  0  0  0
  146.7849  135.1855  154.2092 H   0  0  0  0  0  0  0  0  0  0  0  0
  147.6460  134.7279  152.0171 H   0  0  0  0  0  0  0  0  0  0  0  0
  1  2  1  0  0  0  0
  1 21  1  0  0  0  0
  1 22  1  0  0  0  0
  1 23  1  0  0  0  0
  2 20  1  0  0  0  0
  2  3  2  0  0  0  0
  3  4  1  0  0  0  0
  4  5  2  0  0  0  0
  5  6  1  0  0  0  0
  5 20  1  0  0  0  0
  6  7  1  0  0  0  0
  7  8  2  0  0  0  0
  7  9  1  0  0  0  0
  9 10  1  0  0  0  0
  9 24  1  0  0  0  0
 10 11  1  0  0  0  0
 10 25  1  0  0  0  0
 10 26  1  0  0  0  0
 11 12  1  0  0  0  0
 11 27  1  0  0  0  0
 11 28  1  0  0  0  0
 12 19  1  0  0  0  0
 12 13  1  0  0  0  0
 12 41  1  0  0  0  0
 13 14  1  0  0  0  0
 13 29  1  0  0  0  0
 13 30  1  0  0  0  0
 14 15  1  0  0  0  0
 14 16  1  0  0  0  0
 14 31  1  0  0  0  0
 15 32  1  0  0  0  0
 15 33  1  0  0  0  0
 15 34  1  0  0  0  0
 16 17  1  0  0  0  0
 17 18  1  0  0  0  0
 17 19  1  0  0  0  0
 17 35  1  0  0  0  0
 18 36  1  0  0  0  0
 18 37  1  0  0  0  0
 18 38  1  0  0  0  0
 19 39  1  0  0  0  0
 19 40  1  0  0  0  0
M  CHG  1   6  -1
M  CHG  1  12   1
M  END
> <s_m_source_file>
AV-unprocessed.smi

> <i_m_source_file_index>
1641

> <i_lp_mmshare_version>
43012

> <i_f3d_flags>
0

> <s_epik_input>
W0NIM11jMW5uYyhzMSlbTkhdQyg9TylbTkhdW0NIMl1bQ0gyXU4yW0NIMl1bQ0BASF0oW0NIM10pT1tDQEBIXShbQ0gzXSlbQ0gyXTI=

> <s_epik_cmdline>
J2VwaWtfcHl0aG9uJywgJy1waCcsICc3LjAnLCAnLXRuJywgJzgnLCAnLW1hJywgJzIwMCcsICctbWV0YWxfYmluZGluZycsICctaW1hZScsICc8aW5maWxlLm1hZT4nLCAnLW9tYWUnLCAnPG91dGZpbGUubWFlPic=

> <r_lp_tautomer_probability>
1

> <r_epik_Ionization_Penalty>
3.5343

> <r_epik_Ionization_Penalty_Charging>
3.42778

> <r_epik_Ionization_Penalty_Neutral>
0.106519

> <r_epik_State_Penalty>
3.62118

> <r_epik_Charging_Adjusted_Penalty>
7.04896

> <i_epik_Tot_Q>
0

> <i_epik_Tot_abs_Q>
2

> <r_epik_Metal_State_Penalty>
1.13984

> <b_epik_Metal_Only>
1

> <s_lp_Force_Field>
OPLS_2005

> <r_lp_Energy>
9.90371

> <b_lp_Chiralities_Consistent>
1

> <s_lp_Variant>
AV-unprocessed.smi:1641-13

> <Gold.Version>
5.8.1

> <Gold.Id.Protein>
6NUR|6NUR_protein|mol2

> <Gold.PLP.Fitness>
46.9779

> <Gold.PLP.PLP>
-32.8510

> <Gold.PLP.part.hbond>
-4.0198

> <Gold.PLP.part.metal>
0.0000

> <Gold.PLP.part.buried>
-6.0555

> <Gold.PLP.part.nonpolar>
-23.8271

> <Gold.PLP.part.repulsive>
0.5334

> <Gold.PLP.ligand.clash>
0.0000

> <Gold.PLP.ligand.torsion>
1.3611

> <Gold.PLP.Chemscore.Hbond>
5.5928

> <Gold.PLP.Chemscore.CHOScore>
0.0000

> <Gold.PLP.Chemscore.Metal>
0.0000

> <Gold.Chemscore.Hbonds>
donor molecule, donor type, donor heavy atom, donor atom, acceptor molecule, acceptor atom, score
      L1  H     9    24       P1  7948  0.65
      L1  H    12    41       P1  7948  1.98
      P1  H  7989  7998       L1     3  1.00
      P1  H 10752 10763       L1     6  2.00

> <Gold.PLP.Chemscore.Internal.Correction>
0.0709

> <Gold.Rescore>
     Score         DG    S(hbond)    S(metal)    S(lipo)     H(rot)  DE(clash)    DE(int)     intcor
     16.25     -17.61       2.91        0.00      55.81       1.61       0.00       1.36       ----

> <Gold.Chemscore.Fitness>
16.2526

> <Gold.Chemscore.DG>
-17.6120

> <Gold.Chemscore.ZeroCoef>
-5.4800

> <Gold.Chemscore.Hbond>
2.9090

> <Gold.Chemscore.Metal>
0.0000

> <Gold.Chemscore.Lipo>
55.8102

> <Gold.Chemscore.Internal_Hbond>
0.0000

> <Gold.Chemscore.DEClash>
0.0008

> <Gold.Chemscore.DEInternal>
1.3585

> <Gold.Chemscore.Rot>
1.6070

> <Gold.Chemscore.Internal.Correction>
   9.000000E+99

> <Gold.Chemscore.Hbonds>
donor molecule, donor type, donor heavy atom, donor atom, acceptor molecule, acceptor atom, score
      L1  H     9    24       P1  7948  0.06
      L1  H    12    41       P1  7948  0.61
      P1  H  7989  7998       L1     3  0.60
      P1  H 10752 10763       L1     6  0.44

> <Gold.Chemscore.Hbond.Weighted>
-9.7161

> <Gold.Chemscore.Metal.Weighted>
-0.0000

> <Gold.Chemscore.Lipo.Weighted>
-6.5298

> <Gold.Chemscore.Internal_Hbond.Weighted>
0.0000

> <Gold.Chemscore.DEClash.Weighted>
0.0008

> <Gold.Chemscore.DEInternal.Weighted>
1.3585

> <Gold.Chemscore.Rot.Weighted>
4.1139

> <Gold.Chemscore.Internal.Correction.Weighted>
   9.000000E+99

> <Gold.Protein.RotatedTorsions>
[ 6907 6896 6895 6894 ] final    8.93 input  -60.11 | X-H torsion
[ 7974 7965 7964 7962 ] final -169.57 input  175.53 | X-H torsion
[ 8008 7997 7996 7995 ] final   84.57 input   59.86 | X-H torsion
[ 10167 10162 10161 10158 ] final  -71.85 input  -65.29 | X-H torsion
[ 10718 10713 10712 10709 ] final -141.23 input   66.30 | X-H torsion
[ 10763 10752 10751 10750 ] final   42.51 input  -60.55 | X-H torsion
[ 11005 11000 10999 10996 ] final   26.33 input  -57.11 | X-H torsion

> <Gold.Protein.ActiveResidues>
 VAL166  LYS551  ARG553  GLY616  TRP617  ASP618  TYR619  PRO620  LYS621  CYS622 
 ASP623  PHE694  ASN695  SER759  ASP760  ASP761  ALA762  ILE779  LEU786  VAL792 
 PHE793  MET794  SER795  GLU796  ALA797  LYS798  CYS799  TRP800  GLU811  SER814 

> <Gold.Protein.RotatedAtoms>
  151.7139  135.0907  160.0272 H   0  0  0  0  0  0  0  0  0  0  0  0  # atno 6907 bound_to 6896
  152.3644  133.6334  159.6048 H   0  0  0  0  0  0  0  0  0  0  0  0  # atno 6908 bound_to 6896
  150.7627  133.9288  159.3462 H   0  0  0  0  0  0  0  0  0  0  0  0  # atno 6909 bound_to 6896
  144.7183  140.2202  143.6317 H   0  0  0  0  0  0  0  0  0  0  0  0  # atno 7974 bound_to 7965
  155.9388  140.3409  155.6310 H   0  0  0  0  0  0  0  0  0  0  0  0  # atno 8008 bound_to 7997
  155.7065  140.0766  157.2407 H   0  0  0  0  0  0  0  0  0  0  0  0  # atno 8009 bound_to 7997
  154.4098  140.1630  156.2236 H   0  0  0  0  0  0  0  0  0  0  0  0  # atno 8010 bound_to 7997
  140.5239  143.2328  151.7381 H   0  0  0  0  0  0  0  0  0  0  0  0  # atno 10167 bound_to 10162
  156.3316  130.7589  151.1708 H   0  0  0  0  0  0  0  0  0  0  0  0  # atno 10718 bound_to 10713
  152.9881  135.6129  154.2961 H   0  0  0  0  0  0  0  0  0  0  0  0  # atno 10763 bound_to 10752
  154.2684  135.2780  155.2750 H   0  0  0  0  0  0  0  0  0  0  0  0  # atno 10764 bound_to 10752
  154.5144  135.5832  153.6687 H   0  0  0  0  0  0  0  0  0  0  0  0  # atno 10765 bound_to 10752
  140.3382  134.2362  155.7693 H   0  0  0  0  0  0  0  0  0  0  0  0  # atno 11005 bound_to 11000
  145.8509  139.2175  143.1773 LP  0  0  0  0  0  0  0  0  0  0  0  0  # atno 17320 bound_to 7965
  146.0262  140.8302  142.9899 LP  0  0  0  0  0  0  0  0  0  0  0  0  # atno 17321 bound_to 7965
  139.4932  144.4214  151.9974 LP  0  0  0  0  0  0  0  0  0  0  0  0  # atno 17342 bound_to 10162
  140.3312  144.3314  150.5987 LP  0  0  0  0  0  0  0  0  0  0  0  0  # atno 17343 bound_to 10162
  157.7431  131.0479  150.4971 LP  0  0  0  0  0  0  0  0  0  0  0  0  # atno 17370 bound_to 10713
  156.5138  130.4145  149.6287 LP  0  0  0  0  0  0  0  0  0  0  0  0  # atno 17371 bound_to 10713
  141.2045  133.7883  157.0281 LP  0  0  0  0  0  0  0  0  0  0  0  0  # atno 17394 bound_to 11000
  140.0803  134.9652  157.1613 LP  0  0  0  0  0  0  0  0  0  0  0  0  # atno 17395 bound_to 11000

$$$$
