#       Name:                AV-unprocessed.smi:281
#       Creating user name   scv26
#       Creation time:       Thu Mar 26 21:40:56 2020


#       File generated by GOLD software.
#

@<TRIPOS>MOLECULE
AV-unprocessed.smi:281
    67    71     1
SMALL
NO_CHARGES


@<TRIPOS>ATOM
      1 ****        -4.1709  -0.0979   3.7216 C.3            1 S1                 0.0000
      2 ****        -3.3937   0.1360   2.4227 C.3            1 S1                 0.0000
      3 ****        -1.8774   0.2099   2.6601 C.3            1 S1                 0.0000
      4 ****        -1.2064   0.5235   1.4052 N.3            1 S1                 0.0000
      5 ****         0.1305   0.3151   1.3103 C.ar           1 S1                 0.0000
      6 ****         0.8861   0.2180   2.4367 N.ar           1 S1                 0.0000
      7 ****         2.2048   0.0202   2.3492 C.ar           1 S1                 0.0000
      8 ****         2.9584  -0.1128   1.2560 N.ar           1 S1                 0.0000
      9 ****         2.2051  -0.0277   0.1223 C.ar           1 S1                 0.0000
     10 ****         0.7988   0.1855   0.0602 C.ar           1 S1                 0.0000
     11 ****         0.3825   0.2076  -1.2656 N.2            1 S1                 0.0000
     12 ****         1.4805   0.0310  -1.9478 C.2            1 S1                 0.0000
     13 ****         2.6216  -0.1304  -1.1941 N.pl3          1 S1                 0.0000
     14 ****         3.9720  -0.3449  -1.6932 C.3            1 S1                 0.0000
     15 ****         4.2461  -1.8010  -2.1413 C.3            1 S1                 0.0000
     16 ****         3.4137  -2.1040  -3.2463 O.3            1 S1                 0.0000
     17 ****         5.7059  -2.0227  -2.5432 C.3            1 S1                 0.0000
     18 ****         6.2635  -2.8767  -1.4110 C.3            1 S1                 0.0000
     19 ****         5.1571  -3.6891  -1.0631 O.3            1 S1                 0.0000
     20 ****         4.0154  -2.8450  -1.0299 C.3            1 S1                 0.0000
     21 ****        -1.6927   1.7550   0.7960 C.3            1 S1                 0.0000
     22 ****        -3.2285   1.7095   0.6043 C.3            1 S1                 0.0000
     23 ****        -3.7494   3.0693   0.1679 C.3            1 S1                 0.0000
     24 ****        -3.5079   3.0591  -1.3382 C.3            1 S1                 0.0000
     25 ****        -3.5817   1.6933  -1.7347 O.3            1 S1                 0.0000
     26 ****        -3.6608   0.8368  -0.5965 C.3            1 S1                 0.0000
     27 ****        -5.1161   0.3325  -0.5471 C.3            1 S1                 0.0000
     28 ****        -3.8533   1.3594   1.8443 O.3            1 S1                 0.0000
     29 ****        -3.8680  -1.0308   4.1974 H              1 S1                 0.0000
     30 ****        -5.2423  -0.1560   3.5284 H              1 S1                 0.0000
     31 ****        -4.0039   0.7114   4.4330 H              1 S1                 0.0000
     32 ****        -3.6009  -0.6924   1.7454 H              1 S1                 0.0000
     33 ****        -1.6442   0.9769   3.4002 H              1 S1                 0.0000
     34 ****        -1.5199  -0.7437   3.0517 H              1 S1                 0.0000
     35 ****         2.7318  -0.0404   3.2900 H              1 S1                 0.0000
     36 ****         1.4869   0.0067  -3.0278 H              1 S1                 0.0000
     37 ****         4.1419   0.3442  -2.5217 H              1 S1                 0.0000
     38 ****         4.6764  -0.0581  -0.9112 H              1 S1                 0.0000
     39 ****         3.5723  -3.0000  -3.5018 H              1 S1                 0.0000
     40 ****         5.7753  -2.5834  -3.4769 H              1 S1                 0.0000
     41 ****         6.2664  -1.0970  -2.6772 H              1 S1                 0.0000
     42 ****         7.1243  -3.4723  -1.7156 H              1 S1                 0.0000
     43 ****         6.5518  -2.2591  -0.5585 H              1 S1                 0.0000
     44 ****         3.9861  -2.3743  -0.0467 H              1 S1                 0.0000
     45 ****         3.0933  -3.4154  -1.1489 H              1 S1                 0.0000
     46 ****        -1.4275   2.5815   1.4570 H              1 S1                 0.0000
     47 ****        -1.2009   1.9534  -0.1553 H              1 S1                 0.0000
     48 ****        -4.8195   3.1447   0.3656 H              1 S1                 0.0000
     49 ****        -3.2651   3.9066   0.6713 H              1 S1                 0.0000
     50 ****        -4.2337   3.6681  -1.8775 H              1 S1                 0.0000
     51 ****        -2.5119   3.4366  -1.5714 H              1 S1                 0.0000
     52 ****        -2.9940  -0.0161  -0.7290 H              1 S1                 0.0000
     53 ****        -5.2865  -0.3498   0.2841 H              1 S1                 0.0000
     54 ****        -5.3643  -0.2067  -1.4613 H              1 S1                 0.0000
     55 ****        -5.8263   1.1535  -0.4506 H              1 S1                 0.0000
     56 ****        -1.5082  -0.2268   0.8171 LP             1 S1                 0.0000
     57 ****         0.4529   0.2950   3.3348 LP             1 S1                 0.0000
     58 ****         3.9480  -0.2563   1.2667 LP             1 S1                 0.0000
     59 ****        -0.5459   0.3307  -1.6162 LP             1 S1                 0.0000
     60 ****         3.6276  -1.4925  -4.0081 LP             1 S1                 0.0000
     61 ****         2.4543  -1.9912  -2.9875 LP             1 S1                 0.0000
     62 ****         5.3042  -4.1031  -0.1647 LP             1 S1                 0.0000
     63 ****         5.0319  -4.4092  -1.7455 LP             1 S1                 0.0000
     64 ****        -2.7651   1.4612  -2.2631 LP             1 S1                 0.0000
     65 ****        -4.3946   1.5604  -2.3017 LP             1 S1                 0.0000
     66 ****        -3.6817   2.0964   2.4981 LP             1 S1                 0.0000
     67 ****        -4.8371   1.2778   1.6848 LP             1 S1                 0.0000
@<TRIPOS>BOND
    1    1    2 1     
    2    1   29 1     
    3    1   30 1     
    4    1   31 1     
    5    2   28 1     
    6    2    3 1     
    7    2   32 1     
    8    3    4 1     
    9    3   33 1     
   10    3   34 1     
   11    4    5 1     
   12    4   21 1     
   13    5   10 ar    
   14    5    6 ar    
   15    6    7 ar    
   16    7    8 ar    
   17    7   35 1     
   18    8    9 ar    
   19    9   13 1     
   20    9   10 ar    
   21   10   11 1     
   22   11   12 2     
   23   12   13 1     
   24   12   36 1     
   25   13   14 1     
   26   14   15 1     
   27   14   37 1     
   28   14   38 1     
   29   15   20 1     
   30   15   16 1     
   31   15   17 1     
   32   16   39 1     
   33   17   18 1     
   34   17   40 1     
   35   17   41 1     
   36   18   19 1     
   37   18   42 1     
   38   18   43 1     
   39   19   20 1     
   40   20   44 1     
   41   20   45 1     
   42   21   22 1     
   43   21   46 1     
   44   21   47 1     
   45   22   26 1     
   46   22   23 1     
   47   22   28 1     
   48   23   24 1     
   49   23   48 1     
   50   23   49 1     
   51   24   25 1     
   52   24   50 1     
   53   24   51 1     
   54   25   26 1     
   55   26   27 1     
   56   26   52 1     
   57   27   53 1     
   58   27   54 1     
   59   27   55 1     
   60    4   56 1     
   61    6   57 1     
   62    8   58 1     
   63   11   59 1     
   64   16   60 1     
   65   16   61 1     
   66   19   62 1     
   67   19   63 1     
   68   25   64 1     
   69   25   65 1     
   70   28   66 1     
   71   28   67 1     
@<TRIPOS>SUBSTRUCTURE
      1 S1             1
@<TRIPOS>SET
LONE_PAIRS      STATIC     ATOMS    <user>   **** ""
12 56 57 58 59 60 61 62 63 64 65 66 67
DONOR_HYDROGENS      STATIC     ATOMS    <user>   **** ""
1 39
ATOM$BLUE        STATIC     ATOMS    COLORGROUP SYSTEM
12 56 57 58 59 60 61 62 63 64 65 66 67
ATOM$RED        STATIC     ATOMS    COLORGROUP SYSTEM
1 39
