AV-unprocessed.smi:1779|AV-procd|sdf|7182|dock1
  -GOLD-   22720 8423D 1   1.00000     0.00000
 Structure written by MMmdl.
 47 48  0  0  0  0  0  0  0  0  2 V2000
  143.5400  132.4302  149.7161 C   0  0  0  0  0  0  0  0  0  0  0  0
  144.6216  133.1953  150.4201 C   0  0  0  0  0  0  0  0  0  0  0  0
  144.7879  134.6085  150.4992 C   0  0  0  0  0  0  0  0  0  0  0  0
  145.9233  134.7365  151.2518 C   0  0  0  0  0  0  0  0  0  0  0  0
  146.5630  135.8684  151.6500 N   0  0  0  0  0  0  0  0  0  0  0  0
  146.0321  137.0431  152.0321 C   0  0  0  0  0  0  0  0  0  0  0  0
  144.8293  137.2959  152.1000 O   0  0  0  0  0  0  0  0  0  0  0  0
  146.9891  137.9291  152.3402 N   0  0  0  0  0  0  0  0  0  0  0  0
  146.7410  139.2995  152.7735 C   0  0  0  0  0  0  0  0  0  0  0  0
  147.7455  139.7321  153.8558 C   0  0  1  0  0  0  0  0  0  0  0  0
  148.9925  139.1463  153.5389 O   0  0  0  0  0  0  0  0  0  0  0  0
  147.9098  141.2665  153.9305 C   0  0  0  0  0  0  0  0  0  0  0  0
  148.4572  141.7274  155.2326 N   0  3  0  0  0  0  0  0  0  0  0  0
  147.5602  141.3925  156.3698 C   0  0  0  0  0  0  0  0  0  0  0  0
  148.0751  142.0034  157.6842 C   0  0  0  0  0  0  0  0  0  0  0  0
  149.5125  141.5531  157.9745 C   0  0  0  0  0  0  0  0  0  0  0  0
  150.4138  141.8764  156.7758 C   0  0  0  0  0  0  0  0  0  0  0  0
  149.8499  141.2661  155.4818 C   0  0  0  0  0  0  0  0  0  0  0  0
  146.3817  133.4806  151.5826 N   0  0  0  0  0  0  0  0  0  0  0  0
  147.5420  133.0992  152.3640 C   0  0  0  0  0  0  0  0  0  0  0  0
  145.5718  132.5304  151.0676 N   0  0  0  0  0  0  0  0  0  0  0  0
  142.8243  133.1036  149.2438 H   0  0  0  0  0  0  0  0  0  0  0  0
  142.9898  131.7969  150.4124 H   0  0  0  0  0  0  0  0  0  0  0  0
  143.9555  131.7898  148.9377 H   0  0  0  0  0  0  0  0  0  0  0  0
  144.1668  135.3790  150.0676 H   0  0  0  0  0  0  0  0  0  0  0  0
  147.5706  135.8127  151.6517 H   0  0  0  0  0  0  0  0  0  0  0  0
  147.9527  137.6429  152.2483 H   0  0  0  0  0  0  0  0  0  0  0  0
  146.8299  139.9454  151.8985 H   0  0  0  0  0  0  0  0  0  0  0  0
  145.7207  139.4109  153.1459 H   0  0  0  0  0  0  0  0  0  0  0  0
  147.4201  139.3234  154.8120 H   0  0  0  0  0  0  0  0  0  0  0  0
  149.2428  139.4060  152.6656 H   0  0  0  0  0  0  0  0  0  0  0  0
  148.5699  141.5791  153.1196 H   0  0  0  0  0  0  0  0  0  0  0  0
  146.9582  141.7692  153.7516 H   0  0  0  0  0  0  0  0  0  0  0  0
  146.5563  141.7708  156.1721 H   0  0  0  0  0  0  0  0  0  0  0  0
  147.4784  140.3084  156.4632 H   0  0  0  0  0  0  0  0  0  0  0  0
  148.0375  143.0918  157.6221 H   0  0  0  0  0  0  0  0  0  0  0  0
  147.4218  141.7183  158.5095 H   0  0  0  0  0  0  0  0  0  0  0  0
  149.8881  142.0434  158.8732 H   0  0  0  0  0  0  0  0  0  0  0  0
  149.5308  140.4804  158.1718 H   0  0  0  0  0  0  0  0  0  0  0  0
  150.5017  142.9579  156.6634 H   0  0  0  0  0  0  0  0  0  0  0  0
  151.4217  141.5014  156.9568 H   0  0  0  0  0  0  0  0  0  0  0  0
  149.8674  140.1768  155.5444 H   0  0  0  0  0  0  0  0  0  0  0  0
  150.4982  141.5423  154.6515 H   0  0  0  0  0  0  0  0  0  0  0  0
  148.4302  133.5929  151.9686 H   0  0  0  0  0  0  0  0  0  0  0  0
  147.6929  132.0196  152.3257 H   0  0  0  0  0  0  0  0  0  0  0  0
  147.3980  133.4005  153.4019 H   0  0  0  0  0  0  0  0  0  0  0  0
  148.4825  142.7360  155.1886 H   0  0  0  0  0  0  0  0  0  0  0  0
  1  2  1  0  0  0  0
  1 22  1  0  0  0  0
  1 23  1  0  0  0  0
  1 24  1  0  0  0  0
  2 21  2  0  0  0  0
  2  3  1  0  0  0  0
  3  4  2  0  0  0  0
  3 25  1  0  0  0  0
  4  5  1  0  0  0  0
  4 19  1  0  0  0  0
  5  6  1  0  0  0  0
  5 26  1  0  0  0  0
  6  7  2  0  0  0  0
  6  8  1  0  0  0  0
  8  9  1  0  0  0  0
  8 27  1  0  0  0  0
  9 10  1  0  0  0  0
  9 28  1  0  0  0  0
  9 29  1  0  0  0  0
 10 11  1  0  0  0  0
 10 12  1  0  0  0  0
 10 30  1  0  0  0  0
 11 31  1  0  0  0  0
 12 13  1  0  0  0  0
 12 32  1  0  0  0  0
 12 33  1  0  0  0  0
 13 18  1  0  0  0  0
 13 14  1  0  0  0  0
 13 47  1  0  0  0  0
 14 15  1  0  0  0  0
 14 34  1  0  0  0  0
 14 35  1  0  0  0  0
 15 16  1  0  0  0  0
 15 36  1  0  0  0  0
 15 37  1  0  0  0  0
 16 17  1  0  0  0  0
 16 38  1  0  0  0  0
 16 39  1  0  0  0  0
 17 18  1  0  0  0  0
 17 40  1  0  0  0  0
 17 41  1  0  0  0  0
 18 42  1  0  0  0  0
 18 43  1  0  0  0  0
 19 20  1  0  0  0  0
 19 21  1  0  0  0  0
 20 44  1  0  0  0  0
 20 45  1  0  0  0  0
 20 46  1  0  0  0  0
M  CHG  1  13   1
M  END
> <s_m_source_file>
AV-unprocessed.smi

> <i_m_source_file_index>
1779

> <i_lp_mmshare_version>
43012

> <i_f3d_flags>
0

> <s_epik_input>
W0NIM11jMVtjSF1jKG4objEpW0NIM10pW05IXUMoPU8pW05IXVtDSDJdW0NASF0oW09IXSlbQ0gyXU4yW0NIMl1bQ0gyXVtDSDJdW0NIMl1bQ0gyXTI=

> <s_epik_cmdline>
J2VwaWtfcHl0aG9uJywgJy1waCcsICc3LjAnLCAnLXRuJywgJzgnLCAnLW1hJywgJzIwMCcsICctbWV0YWxfYmluZGluZycsICctaW1hZScsICc8aW5maWxlLm1hZT4nLCAnLW9tYWUnLCAnPG91dGZpbGUubWFlPic=

> <r_lp_tautomer_probability>
1

> <r_epik_Ionization_Penalty>
0.00528203

> <r_epik_Ionization_Penalty_Charging>
0.00519125

> <r_epik_Ionization_Penalty_Neutral>
9.07781e-05

> <r_epik_State_Penalty>
0.0037836

> <r_epik_Charging_Adjusted_Penalty>
0.00897485

> <i_epik_Tot_Q>
1

> <i_epik_Tot_abs_Q>
1

> <r_epik_Metal_State_Penalty>
-0

> <b_epik_Metal_Only>
0

> <s_lp_Force_Field>
OPLS_2005

> <r_lp_Energy>
21.4604

> <b_lp_Chiralities_Consistent>
1

> <s_lp_Variant>
AV-unprocessed.smi:1779-2

> <Gold.Version>
5.8.1

> <Gold.Id.Protein>
6NUR|6NUR_protein|mol2

> <Gold.PLP.Fitness>
49.6884

> <Gold.PLP.PLP>
-37.1267

> <Gold.PLP.part.hbond>
-3.7099

> <Gold.PLP.part.metal>
0.0000

> <Gold.PLP.part.buried>
-5.0514

> <Gold.PLP.part.nonpolar>
-30.5243

> <Gold.PLP.part.repulsive>
1.5882

> <Gold.PLP.ligand.clash>
0.0000

> <Gold.PLP.ligand.torsion>
0.9007

> <Gold.PLP.Chemscore.Hbond>
4.7575

> <Gold.PLP.Chemscore.CHOScore>
0.0000

> <Gold.PLP.Chemscore.Metal>
0.0000

> <Gold.Chemscore.Hbonds>
donor molecule, donor type, donor heavy atom, donor atom, acceptor molecule, acceptor atom, score
      L1  H     5    26       P1  7948  0.73
      L1  H     8    27       P1  7948  0.85
      L1  H    11    31       P1  7957  1.00
      L1  H    13    47       P1  8028  1.85

> <Gold.PLP.Chemscore.Internal.Correction>
0.0907

> <Gold.Rescore>
     Score         DG    S(hbond)    S(metal)    S(lipo)     H(rot)  DE(clash)    DE(int)     intcor
     19.93     -20.98       3.84        0.00      74.34       2.36       0.04       1.02       ----

> <Gold.Chemscore.Fitness>
19.9276

> <Gold.Chemscore.DG>
-20.9845

> <Gold.Chemscore.ZeroCoef>
-5.4800

> <Gold.Chemscore.Hbond>
3.8446

> <Gold.Chemscore.Metal>
0.0000

> <Gold.Chemscore.Lipo>
74.3364

> <Gold.Chemscore.Internal_Hbond>
0.0000

> <Gold.Chemscore.DEClash>
0.0414

> <Gold.Chemscore.DEInternal>
1.0155

> <Gold.Chemscore.Rot>
2.3569

> <Gold.Chemscore.Internal.Correction>
   9.000000E+99

> <Gold.Chemscore.Hbonds>
donor molecule, donor type, donor heavy atom, donor atom, acceptor molecule, acceptor atom, score
      L1  H     5    26       P1  7948  0.72
      L1  H     8    27       P1  7948  0.83
      L1  H    11    31       P1  7957  1.00
      L1  H    13    47       P1  8028  0.88

> <Gold.Chemscore.Hbond.Weighted>
-12.8408

> <Gold.Chemscore.Metal.Weighted>
-0.0000

> <Gold.Chemscore.Lipo.Weighted>
-8.6974

> <Gold.Chemscore.Internal_Hbond.Weighted>
0.0000

> <Gold.Chemscore.DEClash.Weighted>
0.0414

> <Gold.Chemscore.DEInternal.Weighted>
1.0155

> <Gold.Chemscore.Rot.Weighted>
6.0337

> <Gold.Chemscore.Internal.Correction.Weighted>
   9.000000E+99

> <Gold.Protein.RotatedTorsions>
[ 6907 6896 6895 6894 ] final  -27.56 input  -60.11 | X-H torsion
[ 7974 7965 7964 7962 ] final -152.47 input  175.53 | X-H torsion
[ 8008 7997 7996 7995 ] final   42.04 input   59.86 | X-H torsion
[ 10167 10162 10161 10158 ] final  104.76 input  -65.29 | X-H torsion
[ 10718 10713 10712 10709 ] final   -8.13 input   66.30 | X-H torsion
[ 10763 10752 10751 10750 ] final   84.30 input  -60.55 | X-H torsion
[ 11005 11000 10999 10996 ] final  -16.30 input  -57.11 | X-H torsion

> <Gold.Protein.ActiveResidues>
 VAL166  LYS551  ARG553  GLY616  TRP617  ASP618  TYR619  PRO620  LYS621  CYS622 
 ASP623  PHE694  ASN695  SER759  ASP760  ASP761  ALA762  ILE779  LEU786  VAL792 
 PHE793  MET794  SER795  GLU796  ALA797  LYS798  CYS799  TRP800  GLU811  SER814 

> <Gold.Protein.RotatedAtoms>
  151.1451  135.0199  159.8643 H   0  0  0  0  0  0  0  0  0  0  0  0  # atno 6907 bound_to 6896
  152.5453  134.1453  159.8506 H   0  0  0  0  0  0  0  0  0  0  0  0  # atno 6908 bound_to 6896
  151.1533  133.4847  159.2628 H   0  0  0  0  0  0  0  0  0  0  0  0  # atno 6909 bound_to 6896
  144.7792  140.4657  143.5851 H   0  0  0  0  0  0  0  0  0  0  0  0  # atno 7974 bound_to 7965
  155.2796  140.3371  155.4259 H   0  0  0  0  0  0  0  0  0  0  0  0  # atno 8008 bound_to 7997
  156.2096  140.1764  156.7766 H   0  0  0  0  0  0  0  0  0  0  0  0  # atno 8009 bound_to 7997
  154.5667  140.0677  156.8887 H   0  0  0  0  0  0  0  0  0  0  0  0  # atno 8010 bound_to 7997
  139.7150  144.7070  151.0965 H   0  0  0  0  0  0  0  0  0  0  0  0  # atno 10167 bound_to 10162
  156.7070  130.5110  149.5902 H   0  0  0  0  0  0  0  0  0  0  0  0  # atno 10718 bound_to 10713
  153.1369  135.4659  154.9436 H   0  0  0  0  0  0  0  0  0  0  0  0  # atno 10763 bound_to 10752
  154.7714  135.3160  154.8185 H   0  0  0  0  0  0  0  0  0  0  0  0  # atno 10764 bound_to 10752
  153.8715  135.6903  153.4828 H   0  0  0  0  0  0  0  0  0  0  0  0  # atno 10765 bound_to 10752
  140.8054  133.8182  155.9511 H   0  0  0  0  0  0  0  0  0  0  0  0  # atno 11005 bound_to 11000
  145.6098  139.1512  143.3082 LP  0  0  0  0  0  0  0  0  0  0  0  0  # atno 17320 bound_to 7965
  146.1990  140.6214  142.9111 LP  0  0  0  0  0  0  0  0  0  0  0  0  # atno 17321 bound_to 7965
  140.7742  143.5242  150.9500 LP  0  0  0  0  0  0  0  0  0  0  0  0  # atno 17342 bound_to 10162
  139.8927  143.6933  152.3143 LP  0  0  0  0  0  0  0  0  0  0  0  0  # atno 17343 bound_to 10162
  156.1688  130.6423  151.0811 LP  0  0  0  0  0  0  0  0  0  0  0  0  # atno 17370 bound_to 10713
  157.6951  131.0797  150.6994 LP  0  0  0  0  0  0  0  0  0  0  0  0  # atno 17371 bound_to 10713
  140.9252  134.2091  157.4900 LP  0  0  0  0  0  0  0  0  0  0  0  0  # atno 17394 bound_to 11000
  139.8718  134.9809  156.5096 LP  0  0  0  0  0  0  0  0  0  0  0  0  # atno 17395 bound_to 11000

$$$$
