AV-unprocessed.smi:2061|AV-procd|sdf|8365|dock3
  -GOLD-   2272011 33D 1   1.00000     0.00000
 Structure written by MMmdl.
 45 46  0  0  0  0  0  0  0  0  1 V2000
  144.8210  131.1460  150.9988 C   0  0  0  0  0  0  0  0  0  0  0  0
  144.9716  132.5963  151.3059 C   0  0  0  0  0  0  0  0  0  0  0  0
  146.0613  133.4083  151.4505 C   0  0  0  0  0  0  0  0  0  0  0  0
  145.4819  134.6729  151.7381 C   0  0  0  0  0  0  0  0  0  0  0  0
  146.2960  135.8125  151.9619 N   0  0  0  0  0  0  0  0  0  0  0  0
  145.8970  137.0490  152.3056 C   0  0  0  0  0  0  0  0  0  0  0  0
  144.7271  137.3954  152.4698 O   0  0  0  0  0  0  0  0  0  0  0  0
  146.9441  137.8760  152.4435 N   0  0  0  0  0  0  0  0  0  0  0  0
  146.8706  139.2896  152.8081 C   0  0  0  0  0  0  0  0  0  0  0  0
  146.8207  139.5195  154.3455 C   0  0  1  0  0  0  0  0  0  0  0  0
  146.0099  138.3722  155.0018 C   0  0  0  0  0  0  0  0  0  0  0  0
  148.1603  139.6930  154.9575 N   0  0  0  0  0  0  0  0  0  0  0  0
  148.7004  141.0417  154.7484 C   0  0  0  0  0  0  0  0  0  0  0  0
  150.1041  141.2505  155.3501 C   0  0  1  0  0  0  0  0  0  0  0  0
  150.0991  141.3720  156.8836 C   0  0  0  0  0  0  0  0  0  0  0  0
  150.9948  140.2335  154.8986 O   0  0  0  0  0  0  0  0  0  0  0  0
  150.5334  138.9035  155.1073 C   0  0  2  0  0  0  0  0  0  0  0  0
  151.5718  137.9452  154.5144 C   0  0  0  0  0  0  0  0  0  0  0  0
  149.1477  138.7307  154.4586 C   0  0  0  0  0  0  0  0  0  0  0  0
  144.1587  134.6359  151.7672 N   0  0  0  0  0  0  0  0  0  0  0  0
  143.8247  133.3049  151.4912 O   0  0  0  0  0  0  0  0  0  0  0  0
  145.7627  130.7226  150.6492 H   0  0  0  0  0  0  0  0  0  0  0  0
  144.0716  130.9896  150.2226 H   0  0  0  0  0  0  0  0  0  0  0  0
  144.5103  130.5941  151.8861 H   0  0  0  0  0  0  0  0  0  0  0  0
  147.1031  133.1378  151.3638 H   0  0  0  0  0  0  0  0  0  0  0  0
  147.2889  135.6697  151.8516 H   0  0  0  0  0  0  0  0  0  0  0  0
  147.8675  137.5001  152.2848 H   0  0  0  0  0  0  0  0  0  0  0  0
  147.6916  139.8608  152.3716 H   0  0  0  0  0  0  0  0  0  0  0  0
  145.9611  139.6441  152.3269 H   0  0  0  0  0  0  0  0  0  0  0  0
  146.2570  140.4395  154.5088 H   0  0  0  0  0  0  0  0  0  0  0  0
  145.0352  138.2315  154.5369 H   0  0  0  0  0  0  0  0  0  0  0  0
  145.7903  138.5613  156.0511 H   0  0  0  0  0  0  0  0  0  0  0  0
  146.5442  137.4240  154.9337 H   0  0  0  0  0  0  0  0  0  0  0  0
  148.7415  141.2499  153.6781 H   0  0  0  0  0  0  0  0  0  0  0  0
  148.0491  141.7952  155.1868 H   0  0  0  0  0  0  0  0  0  0  0  0
  150.4955  142.1910  154.9610 H   0  0  0  0  0  0  0  0  0  0  0  0
  149.5080  142.2311  157.2016 H   0  0  0  0  0  0  0  0  0  0  0  0
  151.1108  141.5085  157.2659 H   0  0  0  0  0  0  0  0  0  0  0  0
  149.6748  140.4910  157.3646 H   0  0  0  0  0  0  0  0  0  0  0  0
  150.4610  138.7066  156.1773 H   0  0  0  0  0  0  0  0  0  0  0  0
  151.2758  136.9060  154.6596 H   0  0  0  0  0  0  0  0  0  0  0  0
  152.5435  138.0826  154.9892 H   0  0  0  0  0  0  0  0  0  0  0  0
  151.6975  138.1123  153.4443 H   0  0  0  0  0  0  0  0  0  0  0  0
  148.8316  137.7112  154.6695 H   0  0  0  0  0  0  0  0  0  0  0  0
  149.2344  138.8194  153.3746 H   0  0  0  0  0  0  0  0  0  0  0  0
  1  2  1  0  0  0  0
  1 22  1  0  0  0  0
  1 23  1  0  0  0  0
  1 24  1  0  0  0  0
  2 21  1  0  0  0  0
  2  3  2  0  0  0  0
  3  4  1  0  0  0  0
  3 25  1  0  0  0  0
  4  5  1  0  0  0  0
  4 20  2  0  0  0  0
  5  6  1  0  0  0  0
  5 26  1  0  0  0  0
  6  7  2  0  0  0  0
  6  8  1  0  0  0  0
  8  9  1  0  0  0  0
  8 27  1  0  0  0  0
  9 10  1  0  0  0  0
  9 28  1  0  0  0  0
  9 29  1  0  0  0  0
 10 11  1  0  0  0  0
 10 12  1  0  0  0  0
 10 30  1  0  0  0  0
 11 31  1  0  0  0  0
 11 32  1  0  0  0  0
 11 33  1  0  0  0  0
 12 19  1  0  0  0  0
 12 13  1  0  0  0  0
 13 14  1  0  0  0  0
 13 34  1  0  0  0  0
 13 35  1  0  0  0  0
 14 15  1  0  0  0  0
 14 16  1  0  0  0  0
 14 36  1  0  0  0  0
 15 37  1  0  0  0  0
 15 38  1  0  0  0  0
 15 39  1  0  0  0  0
 16 17  1  0  0  0  0
 17 18  1  0  0  0  0
 17 19  1  0  0  0  0
 17 40  1  0  0  0  0
 18 41  1  0  0  0  0
 18 42  1  0  0  0  0
 18 43  1  0  0  0  0
 19 44  1  0  0  0  0
 19 45  1  0  0  0  0
 20 21  1  0  0  0  0
M  END
> <s_m_source_file>
AV-unprocessed.smi

> <i_m_source_file_index>
2061

> <i_lp_mmshare_version>
43012

> <i_f3d_flags>
0

> <s_epik_input>
W0NIM11jMVtjSF1jKG5vMSlbTkhdQyg9TylbTkhdW0NIMl1bQ0BIXShbQ0gzXSlOMltDSDJdW0NAQEhdKFtDSDNdKU9bQ0BASF0oW0NIM10pW0NIMl0y

> <s_epik_cmdline>
J2VwaWtfcHl0aG9uJywgJy1waCcsICc3LjAnLCAnLXRuJywgJzgnLCAnLW1hJywgJzIwMCcsICctbWV0YWxfYmluZGluZycsICctaW1hZScsICc8aW5maWxlLm1hZT4nLCAnLW9tYWUnLCAnPG91dGZpbGUubWFlPic=

> <r_epik_Ionization_Penalty>
0.214073

> <r_epik_Ionization_Penalty_Charging>
0

> <r_epik_Ionization_Penalty_Neutral>
0.214073

> <r_epik_State_Penalty>
0.204211

> <r_epik_Charging_Adjusted_Penalty>
0.204211

> <i_epik_Tot_Q>
0

> <i_epik_Tot_abs_Q>
0

> <r_epik_Metal_State_Penalty>
0.217067

> <b_epik_Metal_Only>
0

> <s_lp_Force_Field>
OPLS_2005

> <r_lp_Energy>
29.5026

> <b_lp_Chiralities_Consistent>
1

> <s_lp_Variant>
AV-unprocessed.smi:2061-6

> <Gold.Version>
5.8.1

> <Gold.Id.Protein>
6NUR|6NUR_protein|mol2

> <Gold.PLP.Fitness>
40.4342

> <Gold.PLP.PLP>
-33.1115

> <Gold.PLP.part.hbond>
-3.0000

> <Gold.PLP.part.metal>
0.0000

> <Gold.PLP.part.buried>
-6.9247

> <Gold.PLP.part.nonpolar>
-24.8699

> <Gold.PLP.part.repulsive>
0.8259

> <Gold.PLP.ligand.clash>
0.0000

> <Gold.PLP.ligand.torsion>
0.8771

> <Gold.PLP.Chemscore.Hbond>
3.0000

> <Gold.PLP.Chemscore.CHOScore>
0.0000

> <Gold.PLP.Chemscore.Metal>
0.0000

> <Gold.Chemscore.Hbonds>
donor molecule, donor type, donor heavy atom, donor atom, acceptor molecule, acceptor atom, score
      L1  H     5    26       P1  7948  1.00
      L1  H     8    27       P1  7948  1.00
      P1  H  7989  7998       L1    16  1.00

> <Gold.PLP.Chemscore.Internal.Correction>
0.0768

> <Gold.Rescore>
     Score         DG    S(hbond)    S(metal)    S(lipo)     H(rot)  DE(clash)    DE(int)     intcor
     16.69     -19.90       2.83        0.00      76.37       1.55       0.15       3.06       ----

> <Gold.Chemscore.Fitness>
16.6926

> <Gold.Chemscore.DG>
-19.9043

> <Gold.Chemscore.ZeroCoef>
-5.4800

> <Gold.Chemscore.Hbond>
2.8294

> <Gold.Chemscore.Metal>
0.0000

> <Gold.Chemscore.Lipo>
76.3713

> <Gold.Chemscore.Internal_Hbond>
0.0000

> <Gold.Chemscore.DEClash>
0.1548

> <Gold.Chemscore.DEInternal>
3.0569

> <Gold.Chemscore.Rot>
1.5474

> <Gold.Chemscore.Internal.Correction>
   9.000000E+99

> <Gold.Chemscore.Hbonds>
donor molecule, donor type, donor heavy atom, donor atom, acceptor molecule, acceptor atom, score
      L1  H     5    26       P1  7948  0.98
      L1  H     8    27       P1  7948  0.97
      P1  H  7989  7998       L1    16  0.39

> <Gold.Chemscore.Hbond.Weighted>
-9.4501

> <Gold.Chemscore.Metal.Weighted>
-0.0000

> <Gold.Chemscore.Lipo.Weighted>
-8.9354

> <Gold.Chemscore.Internal_Hbond.Weighted>
0.0000

> <Gold.Chemscore.DEClash.Weighted>
0.1548

> <Gold.Chemscore.DEInternal.Weighted>
3.0569

> <Gold.Chemscore.Rot.Weighted>
3.9612

> <Gold.Chemscore.Internal.Correction.Weighted>
   9.000000E+99

> <Gold.Protein.RotatedTorsions>
[ 6907 6896 6895 6894 ] final   88.24 input  -60.11 | X-H torsion
[ 7974 7965 7964 7962 ] final    1.93 input  175.53 | X-H torsion
[ 8008 7997 7996 7995 ] final  154.06 input   59.86 | X-H torsion
[ 10167 10162 10161 10158 ] final   15.94 input  -65.29 | X-H torsion
[ 10718 10713 10712 10709 ] final  127.77 input   66.30 | X-H torsion
[ 10763 10752 10751 10750 ] final   25.75 input  -60.55 | X-H torsion
[ 11005 11000 10999 10996 ] final -150.24 input  -57.11 | X-H torsion

> <Gold.Protein.ActiveResidues>
 VAL166  LYS551  ARG553  GLY616  TRP617  ASP618  TYR619  PRO620  LYS621  CYS622 
 ASP623  PHE694  ASN695  SER759  ASP760  ASP761  ALA762  ILE779  LEU786  VAL792 
 PHE793  MET794  SER795  GLU796  ALA797  LYS798  CYS799  TRP800  GLU811  SER814 

> <Gold.Protein.RotatedAtoms>
  152.5422  134.2153  159.8765 H   0  0  0  0  0  0  0  0  0  0  0  0  # atno 6907 bound_to 6896
  151.2133  133.4537  159.2606 H   0  0  0  0  0  0  0  0  0  0  0  0  # atno 6908 bound_to 6896
  151.0876  134.9909  159.8442 H   0  0  0  0  0  0  0  0  0  0  0  0  # atno 6909 bound_to 6896
  146.2442  140.0913  142.8352 H   0  0  0  0  0  0  0  0  0  0  0  0  # atno 7974 bound_to 7965
  156.2550  140.1977  156.6587 H   0  0  0  0  0  0  0  0  0  0  0  0  # atno 8008 bound_to 7997
  154.6481  140.0575  156.9949 H   0  0  0  0  0  0  0  0  0  0  0  0  # atno 8009 bound_to 7997
  155.1460  140.3247  155.4444 H   0  0  0  0  0  0  0  0  0  0  0  0  # atno 8010 bound_to 7997
  140.5832  143.8940  150.6808 H   0  0  0  0  0  0  0  0  0  0  0  0  # atno 10167 bound_to 10162
  157.5303  131.1098  150.9019 H   0  0  0  0  0  0  0  0  0  0  0  0  # atno 10718 bound_to 10713
  153.0670  135.6576  154.0332 H   0  0  0  0  0  0  0  0  0  0  0  0  # atno 10763 bound_to 10752
  153.9987  135.2939  155.3406 H   0  0  0  0  0  0  0  0  0  0  0  0  # atno 10764 bound_to 10752
  154.7031  135.5236  153.8625 H   0  0  0  0  0  0  0  0  0  0  0  0  # atno 10765 bound_to 10752
  140.7422  134.3501  157.5145 H   0  0  0  0  0  0  0  0  0  0  0  0  # atno 11005 bound_to 11000
  145.0648  140.9113  143.4917 LP  0  0  0  0  0  0  0  0  0  0  0  0  # atno 17320 bound_to 7965
  145.1036  139.2806  143.5674 LP  0  0  0  0  0  0  0  0  0  0  0  0  # atno 17321 bound_to 7965
  140.2444  143.3639  152.1459 LP  0  0  0  0  0  0  0  0  0  0  0  0  # atno 17342 bound_to 10162
  139.5182  144.7003  151.5513 LP  0  0  0  0  0  0  0  0  0  0  0  0  # atno 17343 bound_to 10162
  156.9602  130.5452  149.5285 LP  0  0  0  0  0  0  0  0  0  0  0  0  # atno 17370 bound_to 10713
  156.0418  130.5499  150.8787 LP  0  0  0  0  0  0  0  0  0  0  0  0  # atno 17371 bound_to 10713
  139.8804  134.9088  156.2977 LP  0  0  0  0  0  0  0  0  0  0  0  0  # atno 17394 bound_to 11000
  140.9826  133.7258  156.0694 LP  0  0  0  0  0  0  0  0  0  0  0  0  # atno 17395 bound_to 11000

$$$$
