#       Name:                AV-unprocessed.smi:2069
#       Creating user name   scv26
#       Creation time:       Fri Mar 27 11:12:56 2020


#       File generated by GOLD software.
#

@<TRIPOS>MOLECULE
AV-unprocessed.smi:2069
    45    46     1
SMALL
NO_CHARGES


@<TRIPOS>ATOM
      1 ****        -7.4098   3.1409   0.9195 C.3            1 S1                 0.0000
      2 ****        -5.9814   2.7161   0.8837 C.2            1 S1                 0.0000
      3 ****        -4.9685   3.5853   0.7810 N.2            1 S1                 0.0000
      4 ****        -3.7325   2.9540   0.7686 N.2            1 S1                 0.0000
      5 ****        -3.8502   1.6225   0.8643 C.2            1 S1                 0.0000
      6 ****        -2.7449   0.7309   0.8761 N.am           1 S1                 0.0000
      7 ****        -1.4352   1.0253   0.7966 C.2            1 S1                 0.0000
      8 ****        -0.9662   2.1590   0.6934 O.2            1 S1                 0.0000
      9 ****        -0.6869  -0.0873   0.8385 N.am           1 S1                 0.0000
     10 ****         0.7727  -0.1354   0.7790 C.3            1 S1                 0.0000
     11 ****         1.3061  -0.8679  -0.4849 C.3            1 S1                 0.0000
     12 ****         0.7408  -0.1721  -1.7492 C.3            1 S1                 0.0000
     13 ****         2.7835  -0.9850  -0.5097 N.3            1 S1                 0.0000
     14 ****         3.3204  -1.6729   0.6707 C.3            1 S1                 0.0000
     15 ****         4.8516  -1.8204   0.6324 C.3            1 S1                 0.0000
     16 ****         5.2383  -2.5062  -0.5500 O.3            1 S1                 0.0000
     17 ****         4.8078  -1.8285  -1.7220 C.3            1 S1                 0.0000
     18 ****         3.2762  -1.6838  -1.7029 C.3            1 S1                 0.0000
     19 ****        -5.4979   1.0271   0.9788 S.3            1 S1                 0.0000
     20 ****        -7.5128   4.1716   0.5785 H              1 S1                 0.0000
     21 ****        -7.7941   3.0685   1.9369 H              1 S1                 0.0000
     22 ****        -8.0075   2.4992   0.2720 H              1 S1                 0.0000
     23 ****        -2.9798  -0.2474   0.9549 H              1 S1                 0.0000
     24 ****        -1.1624  -0.9739   0.9202 H              1 S1                 0.0000
     25 ****         1.2106   0.8622   0.8430 H              1 S1                 0.0000
     26 ****         1.0639  -0.6556   1.6894 H              1 S1                 0.0000
     27 ****         0.8906  -1.8767  -0.4667 H              1 S1                 0.0000
     28 ****        -0.3416  -0.0571  -1.7123 H              1 S1                 0.0000
     29 ****         0.9297  -0.7430  -2.6570 H              1 S1                 0.0000
     30 ****         1.1718   0.8213  -1.8776 H              1 S1                 0.0000
     31 ****         3.0815  -1.1241   1.5793 H              1 S1                 0.0000
     32 ****         2.8634  -2.6592   0.7644 H              1 S1                 0.0000
     33 ****         5.3345  -0.8427   0.6702 H              1 S1                 0.0000
     34 ****         5.1994  -2.3826   1.4992 H              1 S1                 0.0000
     35 ****         5.2879  -0.8508  -1.7846 H              1 S1                 0.0000
     36 ****         5.1232  -2.3960  -2.5976 H              1 S1                 0.0000
     37 ****         2.8191  -2.6723  -1.7688 H              1 S1                 0.0000
     38 ****         2.9982  -1.1448  -2.6066 H              1 S1                 0.0000
     39 ****        -5.0886   4.5762   0.7202 LP             1 S1                 0.0000
     40 ****        -2.8588   3.4352   0.6968 LP             1 S1                 0.0000
     41 ****        -1.5755   2.9514   0.6628 LP             1 S1                 0.0000
     42 ****         0.0241   2.2875   0.6401 LP             1 S1                 0.0000
     43 ****         3.1064  -0.0386  -0.5185 LP             1 S1                 0.0000
     44 ****         4.8349  -3.4211  -0.5394 LP             1 S1                 0.0000
     45 ****         6.2353  -2.5816  -0.5683 LP             1 S1                 0.0000
@<TRIPOS>BOND
    1    1    2 1     
    2    1   20 1     
    3    1   21 1     
    4    1   22 1     
    5    2   19 1     
    6    2    3 2     
    7    3    4 1     
    8    4    5 2     
    9    5    6 1     
   10    5   19 1     
   11    6    7 am    
   12    6   23 1     
   13    7    8 2     
   14    7    9 am    
   15    9   10 1     
   16    9   24 1     
   17   10   11 1     
   18   10   25 1     
   19   10   26 1     
   20   11   12 1     
   21   11   13 1     
   22   11   27 1     
   23   12   28 1     
   24   12   29 1     
   25   12   30 1     
   26   13   18 1     
   27   13   14 1     
   28   14   15 1     
   29   14   31 1     
   30   14   32 1     
   31   15   16 1     
   32   15   33 1     
   33   15   34 1     
   34   16   17 1     
   35   17   18 1     
   36   17   35 1     
   37   17   36 1     
   38   18   37 1     
   39   18   38 1     
   40    3   39 1     
   41    4   40 1     
   42    8   41 1     
   43    8   42 1     
   44   13   43 1     
   45   16   44 1     
   46   16   45 1     
@<TRIPOS>SUBSTRUCTURE
      1 S1             1
@<TRIPOS>SET
LONE_PAIRS      STATIC     ATOMS    <user>   **** ""
7 39 40 41 42 43 44 45
DONOR_HYDROGENS      STATIC     ATOMS    <user>   **** ""
2 23 24
ATOM$BLUE        STATIC     ATOMS    COLORGROUP SYSTEM
7 39 40 41 42 43 44 45
ATOM$RED        STATIC     ATOMS    COLORGROUP SYSTEM
2 23 24
