AV-unprocessed.smi:2811|AV-procd|sdf|10830|dock3
  -GOLD-   2272015273D 1   1.00000     0.00000
 Structure written by MMmdl.
 38 40  0  0  0  0  0  0  0  0  1 V2000
  151.9539  145.8550  160.5493 C   0  0  0  0  0  0  0  0  0  0  0  0
  151.9976  144.5116  159.8518 C   0  0  0  0  0  0  0  0  0  0  0  0
  152.8187  143.4733  160.3320 C   0  0  0  0  0  0  0  0  0  0  0  0
  152.8115  142.2471  159.6391 C   0  0  0  0  0  0  0  0  0  0  0  0
  153.6611  141.0821  160.1009 C   0  0  0  0  0  0  0  0  0  0  0  0
  152.0583  142.0274  158.5408 N   0  0  0  0  0  0  0  0  0  0  0  0
  151.2667  143.0211  158.0634 C   0  0  0  0  0  0  0  0  0  0  0  0
  150.4161  142.8923  156.9264 N   0  0  0  0  0  0  0  0  0  0  0  0
  150.1441  141.8252  156.1456 C   0  0  0  0  0  0  0  0  0  0  0  0
  150.6532  140.7268  156.3624 O   0  0  0  0  0  0  0  0  0  0  0  0
  149.2847  142.0421  155.1380 N   0  0  0  0  0  0  0  0  0  0  0  0
  148.8921  141.0628  154.1311 C   0  0  1  0  0  0  0  0  0  0  0  0
  148.5442  139.7121  154.7633 C   0  0  0  0  0  0  0  0  0  0  0  0
  147.0904  139.5137  154.3143 C   0  0  1  0  0  0  0  0  0  0  0  0
  146.1280  140.4553  155.0527 C   0  0  0  0  0  0  0  0  0  0  0  0
  146.4318  141.7967  154.3876 C   0  0  0  0  0  0  0  0  0  0  0  0
  147.5679  141.4165  153.4223 C   0  0  2  0  0  0  0  0  0  0  0  0
  147.1319  140.1241  153.0359 O   0  0  0  0  0  0  0  0  0  0  0  0
  151.2100  144.2780  158.7065 C   0  0  0  0  0  0  0  0  0  0  0  0
  152.6800  145.9043  161.3614 H   0  0  0  0  0  0  0  0  0  0  0  0
  150.9621  146.0314  160.9661 H   0  0  0  0  0  0  0  0  0  0  0  0
  152.1781  146.6552  159.8434 H   0  0  0  0  0  0  0  0  0  0  0  0
  153.4343  143.6120  161.2089 H   0  0  0  0  0  0  0  0  0  0  0  0
  154.3022  141.3659  160.9360 H   0  0  0  0  0  0  0  0  0  0  0  0
  154.2968  140.7288  159.2883 H   0  0  0  0  0  0  0  0  0  0  0  0
  153.0259  140.2566  160.4236 H   0  0  0  0  0  0  0  0  0  0  0  0
  149.8775  143.7189  156.7124 H   0  0  0  0  0  0  0  0  0  0  0  0
  148.9139  142.9759  155.0335 H   0  0  0  0  0  0  0  0  0  0  0  0
  149.6900  140.9258  153.3990 H   0  0  0  0  0  0  0  0  0  0  0  0
  149.1834  138.9280  154.3556 H   0  0  0  0  0  0  0  0  0  0  0  0
  148.6435  139.6952  155.8497 H   0  0  0  0  0  0  0  0  0  0  0  0
  146.7698  138.4716  154.3052 H   0  0  0  0  0  0  0  0  0  0  0  0
  145.0901  140.1691  154.8801 H   0  0  0  0  0  0  0  0  0  0  0  0
  146.3056  140.4673  156.1287 H   0  0  0  0  0  0  0  0  0  0  0  0
  145.5624  142.1459  153.8296 H   0  0  0  0  0  0  0  0  0  0  0  0
  146.7042  142.5761  155.0995 H   0  0  0  0  0  0  0  0  0  0  0  0
  147.6872  142.1120  152.5910 H   0  0  0  0  0  0  0  0  0  0  0  0
  150.5702  145.0605  158.3245 H   0  0  0  0  0  0  0  0  0  0  0  0
  1  2  1  0  0  0  0
  1 20  1  0  0  0  0
  1 21  1  0  0  0  0
  1 22  1  0  0  0  0
  2 19  1  0  0  0  0
  2  3  2  0  0  0  0
  3  4  1  0  0  0  0
  3 23  1  0  0  0  0
  4  5  1  0  0  0  0
  4  6  2  0  0  0  0
  5 24  1  0  0  0  0
  5 25  1  0  0  0  0
  5 26  1  0  0  0  0
  6  7  1  0  0  0  0
  7  8  1  0  0  0  0
  7 19  2  0  0  0  0
  8  9  1  0  0  0  0
  8 27  1  0  0  0  0
  9 10  2  0  0  0  0
  9 11  1  0  0  0  0
 11 12  1  0  0  0  0
 11 28  1  0  0  0  0
 12 17  1  0  0  0  0
 12 13  1  0  0  0  0
 12 29  1  0  0  0  0
 13 14  1  0  0  0  0
 13 30  1  0  0  0  0
 13 31  1  0  0  0  0
 14 18  1  0  0  0  0
 14 15  1  0  0  0  0
 14 32  1  0  0  0  0
 15 16  1  0  0  0  0
 15 33  1  0  0  0  0
 15 34  1  0  0  0  0
 16 17  1  0  0  0  0
 16 35  1  0  0  0  0
 16 36  1  0  0  0  0
 17 18  1  0  0  0  0
 17 37  1  0  0  0  0
 19 38  1  0  0  0  0
M  END
> <s_m_source_file>
AV-unprocessed.smi

> <i_m_source_file_index>
2811

> <i_lp_mmshare_version>
43012

> <i_f3d_flags>
0

> <s_epik_input>
W0NIM11jMVtjSF1jKFtDSDNdKW5jKFtjSF0xKVtOSF1DKD1PKVtOSF1bQ0BIXShbQ0gyXVtDQEBIXTIzKVtDQEBIXShPMylbQ0gyXVtDSDJdMg==

> <s_epik_cmdline>
J2VwaWtfcHl0aG9uJywgJy1waCcsICc3LjAnLCAnLXRuJywgJzgnLCAnLW1hJywgJzIwMCcsICctbWV0YWxfYmluZGluZycsICctaW1hZScsICc8aW5maWxlLm1hZT4nLCAnLW9tYWUnLCAnPG91dGZpbGUubWFlPic=

> <r_lp_tautomer_probability>
1

> <r_epik_Ionization_Penalty>
0.000281548

> <r_epik_Ionization_Penalty_Charging>
0

> <r_epik_Ionization_Penalty_Neutral>
0.000281548

> <r_epik_State_Penalty>
-0

> <r_epik_Charging_Adjusted_Penalty>
0

> <i_epik_Tot_Q>
0

> <i_epik_Tot_abs_Q>
0

> <r_epik_Metal_State_Penalty>
-0

> <b_epik_Metal_Only>
0

> <s_lp_Force_Field>
OPLS_2005

> <r_lp_Energy>
38.9687

> <b_lp_Chiralities_Consistent>
1

> <s_lp_Variant>
AV-unprocessed.smi:2811-2

> <Gold.Version>
5.8.1

> <Gold.Id.Protein>
6NUR|6NUR_protein|mol2

> <Gold.PLP.Fitness>
45.2704

> <Gold.PLP.PLP>
-39.8713

> <Gold.PLP.part.hbond>
-2.0000

> <Gold.PLP.part.metal>
0.0000

> <Gold.PLP.part.buried>
-5.6115

> <Gold.PLP.part.nonpolar>
-33.1412

> <Gold.PLP.part.repulsive>
0.7255

> <Gold.PLP.ligand.clash>
0.0000

> <Gold.PLP.ligand.torsion>
0.2270

> <Gold.PLP.Chemscore.Hbond>
1.9440

> <Gold.PLP.Chemscore.CHOScore>
0.0000

> <Gold.PLP.Chemscore.Metal>
0.0000

> <Gold.Chemscore.Hbonds>
donor molecule, donor type, donor heavy atom, donor atom, acceptor molecule, acceptor atom, score
      L1  H     8    27       P1  8028  1.00
      L1  H    11    28       P1  8028  0.98

> <Gold.PLP.Chemscore.Internal.Correction>
0.0211

> <Gold.Rescore>
     Score         DG    S(hbond)    S(metal)    S(lipo)     H(rot)  DE(clash)    DE(int)     intcor
     17.58     -20.82       1.90        0.00      98.88       1.00       0.26       2.98       ----

> <Gold.Chemscore.Fitness>
17.5802

> <Gold.Chemscore.DG>
-20.8248

> <Gold.Chemscore.ZeroCoef>
-5.4800

> <Gold.Chemscore.Hbond>
1.8968

> <Gold.Chemscore.Metal>
0.0000

> <Gold.Chemscore.Lipo>
98.8830

> <Gold.Chemscore.Internal_Hbond>
0.0000

> <Gold.Chemscore.DEClash>
0.2622

> <Gold.Chemscore.DEInternal>
2.9823

> <Gold.Chemscore.Rot>
1.0000

> <Gold.Chemscore.Internal.Correction>
   9.000000E+99

> <Gold.Chemscore.Hbonds>
donor molecule, donor type, donor heavy atom, donor atom, acceptor molecule, acceptor atom, score
      L1  H     8    27       P1  8028  0.97
      L1  H    11    28       P1  8028  0.92

> <Gold.Chemscore.Hbond.Weighted>
-6.3355

> <Gold.Chemscore.Metal.Weighted>
-0.0000

> <Gold.Chemscore.Lipo.Weighted>
-11.5693

> <Gold.Chemscore.Internal_Hbond.Weighted>
0.0000

> <Gold.Chemscore.DEClash.Weighted>
0.2622

> <Gold.Chemscore.DEInternal.Weighted>
2.9823

> <Gold.Chemscore.Rot.Weighted>
2.5600

> <Gold.Chemscore.Internal.Correction.Weighted>
   9.000000E+99

> <Gold.Protein.RotatedTorsions>
[ 6907 6896 6895 6894 ] final -170.41 input  -60.11 | X-H torsion
[ 7974 7965 7964 7962 ] final -177.88 input  175.53 | X-H torsion
[ 8008 7997 7996 7995 ] final  -24.55 input   59.86 | X-H torsion
[ 10167 10162 10161 10158 ] final   70.89 input  -65.29 | X-H torsion
[ 10718 10713 10712 10709 ] final   93.95 input   66.30 | X-H torsion
[ 10763 10752 10751 10750 ] final  133.91 input  -60.55 | X-H torsion
[ 11005 11000 10999 10996 ] final  155.42 input  -57.11 | X-H torsion

> <Gold.Protein.ActiveResidues>
 VAL166  LYS551  ARG553  GLY616  TRP617  ASP618  TYR619  PRO620  LYS621  CYS622 
 ASP623  PHE694  ASN695  SER759  ASP760  ASP761  ALA762  ILE779  LEU786  VAL792 
 PHE793  MET794  SER795  GLU796  ALA797  LYS798  CYS799  TRP800  GLU811  SER814 

> <Gold.Protein.RotatedAtoms>
  151.5072  133.3492  159.2878 H   0  0  0  0  0  0  0  0  0  0  0  0  # atno 6907 bound_to 6896
  150.8735  134.8115  159.7183 H   0  0  0  0  0  0  0  0  0  0  0  0  # atno 6908 bound_to 6896
  152.4714  134.4960  159.9762 H   0  0  0  0  0  0  0  0  0  0  0  0  # atno 6909 bound_to 6896
  144.7129  140.0952  143.6419 H   0  0  0  0  0  0  0  0  0  0  0  0  # atno 7974 bound_to 7965
  154.4523  140.1950  156.0481 H   0  0  0  0  0  0  0  0  0  0  0  0  # atno 8008 bound_to 7997
  156.0674  140.3289  155.7507 H   0  0  0  0  0  0  0  0  0  0  0  0  # atno 8009 bound_to 7997
  155.5316  140.0578  157.2878 H   0  0  0  0  0  0  0  0  0  0  0  0  # atno 8010 bound_to 7997
  140.0520  144.5304  150.7356 H   0  0  0  0  0  0  0  0  0  0  0  0  # atno 10167 bound_to 10162
  157.6951  131.0496  150.4112 H   0  0  0  0  0  0  0  0  0  0  0  0  # atno 10718 bound_to 10713
  153.8148  135.3124  155.3404 H   0  0  0  0  0  0  0  0  0  0  0  0  # atno 10763 bound_to 10752
  154.8037  135.4711  154.0341 H   0  0  0  0  0  0  0  0  0  0  0  0  # atno 10764 bound_to 10752
  153.1730  135.6881  153.8670 H   0  0  0  0  0  0  0  0  0  0  0  0  # atno 10765 bound_to 10752
  140.1580  134.8629  157.2538 H   0  0  0  0  0  0  0  0  0  0  0  0  # atno 11005 bound_to 11000
  145.9586  139.2784  143.1169 LP  0  0  0  0  0  0  0  0  0  0  0  0  # atno 17320 bound_to 7965
  145.9246  140.9092  143.0388 LP  0  0  0  0  0  0  0  0  0  0  0  0  # atno 17321 bound_to 7965
  140.7212  143.2591  151.4272 LP  0  0  0  0  0  0  0  0  0  0  0  0  # atno 17342 bound_to 10162
  139.5947  144.1423  152.2130 LP  0  0  0  0  0  0  0  0  0  0  0  0  # atno 17343 bound_to 10162
  156.4496  130.4009  149.6644 LP  0  0  0  0  0  0  0  0  0  0  0  0  # atno 17370 bound_to 10713
  156.3799  130.7573  151.2565 LP  0  0  0  0  0  0  0  0  0  0  0  0  # atno 17371 bound_to 10713
  140.2524  134.3667  155.7437 LP  0  0  0  0  0  0  0  0  0  0  0  0  # atno 17394 bound_to 11000
  141.2206  133.7324  156.8956 LP  0  0  0  0  0  0  0  0  0  0  0  0  # atno 17395 bound_to 11000

$$$$
