AV-unprocessed.smi:1199|AV-procd|sdf|5016|dock2
  -GOLD-   22720 4 33D 1   1.00000     0.00000
 Structure written by MMmdl.
 41 42  0  0  0  0  0  0  0  0  3 V2000
  147.3713  138.5768  155.0537 C   0  0  0  0  0  0  0  0  0  0  0  0
  148.0313  137.1918  155.0818 C   0  0  2  0  0  0  0  0  0  0  0  0
  147.0105  136.0635  154.8045 C   0  0  0  0  0  0  0  0  0  0  0  0
  147.6112  134.8694  154.1536 N   0  3  0  0  0  0  0  0  0  0  0  0
  148.6322  134.2050  154.9970 C   0  0  0  0  0  0  0  0  0  0  0  0
  149.2715  133.0313  154.2354 C   0  0  0  0  0  0  0  0  0  0  0  0
  148.2629  132.1214  153.8120 O   0  0  0  0  0  0  0  0  0  0  0  0
  147.3228  132.7354  152.9387 C   0  0  0  0  0  0  0  0  0  0  0  0
  146.6137  133.8807  153.6795 C   0  0  0  0  0  0  0  0  0  0  0  0
  148.6813  136.9826  156.3747 N   0  0  0  0  0  0  0  0  0  0  0  0
  148.1025  137.1363  157.5759 C   0  0  0  0  0  0  0  0  0  0  0  0
  146.8981  137.3423  157.7292 O   0  0  0  0  0  0  0  0  0  0  0  0
  149.0377  137.0672  158.7873 C   0  0  0  0  0  0  0  0  0  0  0  0
  148.4150  136.3362  159.8985 N   0  0  0  0  0  0  0  0  0  0  0  0
  148.0856  137.1851  161.0426 N   0  5  0  0  0  0  0  0  0  0  0  0
  147.5089  136.6226  162.1379 C   0  0  0  0  0  0  0  0  0  0  0  0
  147.2225  137.2670  163.1438 O   0  0  0  0  0  0  0  0  0  0  0  0
  147.2149  135.2000  162.1033 C   0  0  0  0  0  0  0  0  0  0  0  0
  147.5076  134.4472  161.0248 C   0  0  0  0  0  0  0  0  0  0  0  0
  148.1377  135.0026  159.8337 C   0  0  0  0  0  0  0  0  0  0  0  0
  148.3992  134.3206  158.8431 O   0  0  0  0  0  0  0  0  0  0  0  0
  146.8935  138.7623  154.0913 H   0  0  0  0  0  0  0  0  0  0  0  0
  148.1075  139.3655  155.2122 H   0  0  0  0  0  0  0  0  0  0  0  0
  146.6090  138.6718  155.8278 H   0  0  0  0  0  0  0  0  0  0  0  0
  148.7777  137.1829  154.2864 H   0  0  0  0  0  0  0  0  0  0  0  0
  146.5853  135.7532  155.7603 H   0  0  0  0  0  0  0  0  0  0  0  0
  146.1770  136.4346  154.2062 H   0  0  0  0  0  0  0  0  0  0  0  0
  149.4059  134.9204  155.2777 H   0  0  0  0  0  0  0  0  0  0  0  0
  148.1710  133.8490  155.9195 H   0  0  0  0  0  0  0  0  0  0  0  0
  149.8358  133.3925  153.3764 H   0  0  0  0  0  0  0  0  0  0  0  0
  149.9762  132.5038  154.8781 H   0  0  0  0  0  0  0  0  0  0  0  0
  147.8210  133.1011  152.0392 H   0  0  0  0  0  0  0  0  0  0  0  0
  146.5966  131.9882  152.6193 H   0  0  0  0  0  0  0  0  0  0  0  0
  146.0519  133.4877  154.5280 H   0  0  0  0  0  0  0  0  0  0  0  0
  145.8927  134.3508  153.0127 H   0  0  0  0  0  0  0  0  0  0  0  0
  149.6734  136.7936  156.3582 H   0  0  0  0  0  0  0  0  0  0  0  0
  149.9766  136.6044  158.4796 H   0  0  0  0  0  0  0  0  0  0  0  0
  149.3039  138.0740  159.1155 H   0  0  0  0  0  0  0  0  0  0  0  0
  146.7497  134.7360  162.9608 H   0  0  0  0  0  0  0  0  0  0  0  0
  147.2702  133.3940  161.0431 H   0  0  0  0  0  0  0  0  0  0  0  0
  148.0997  135.2058  153.3346 H   0  0  0  0  0  0  0  0  0  0  0  0
  1  2  1  0  0  0  0
  1 22  1  0  0  0  0
  1 23  1  0  0  0  0
  1 24  1  0  0  0  0
  2  3  1  0  0  0  0
  2 10  1  0  0  0  0
  2 25  1  0  0  0  0
  3  4  1  0  0  0  0
  3 26  1  0  0  0  0
  3 27  1  0  0  0  0
  4  9  1  0  0  0  0
  4  5  1  0  0  0  0
  4 41  1  0  0  0  0
  5  6  1  0  0  0  0
  5 28  1  0  0  0  0
  5 29  1  0  0  0  0
  6  7  1  0  0  0  0
  6 30  1  0  0  0  0
  6 31  1  0  0  0  0
  7  8  1  0  0  0  0
  8  9  1  0  0  0  0
  8 32  1  0  0  0  0
  8 33  1  0  0  0  0
  9 34  1  0  0  0  0
  9 35  1  0  0  0  0
 10 11  1  0  0  0  0
 10 36  1  0  0  0  0
 11 12  2  0  0  0  0
 11 13  1  0  0  0  0
 13 37  1  0  0  0  0
 13 38  1  0  0  0  0
 13 14  1  0  0  0  0
 14 15  1  0  0  0  0
 14 20  1  0  0  0  0
 15 16  1  0  0  0  0
 16 17  2  0  0  0  0
 16 18  1  0  0  0  0
 18 39  1  0  0  0  0
 18 19  2  0  0  0  0
 19 40  1  0  0  0  0
 19 20  1  0  0  0  0
 20 21  2  0  0  0  0
M  CHG  1   4   1
M  CHG  1  15  -1
M  END
> <s_m_source_file>
AV-unprocessed.smi

> <i_m_source_file_index>
1199

> <i_lp_mmshare_version>
43012

> <i_f3d_flags>
0

> <s_epik_input>
W0NIMl0xW0NIMl1PW0NIMl1bQ0gyXU4xW0NIMl1bQ0BASF0oW0NIM10pW05IXUMoPU8pW0NIMl1uMltuSF1jKD1PKVtjSF1bY0hdYzI9Tw==

> <s_epik_cmdline>
J2VwaWtfcHl0aG9uJywgJy1waCcsICc3LjAnLCAnLXRuJywgJzgnLCAnLW1hJywgJzIwMCcsICctbWV0YWxfYmluZGluZycsICctaW1hZScsICc8aW5maWxlLm1hZT4nLCAnLW9tYWUnLCAnPG91dGZpbGUubWFlPic=

> <r_lp_tautomer_probability>
1

> <r_epik_Ionization_Penalty>
0.741876

> <r_epik_Ionization_Penalty_Charging>
0.741876

> <r_epik_Ionization_Penalty_Neutral>
9.12373e-08

> <r_epik_State_Penalty>
0.692284

> <r_epik_Charging_Adjusted_Penalty>
1.43416

> <i_epik_Tot_Q>
0

> <i_epik_Tot_abs_Q>
2

> <r_epik_Metal_State_Penalty>
0.692284

> <b_epik_Metal_Only>
0

> <s_lp_Force_Field>
OPLS_2005

> <r_lp_Energy>
28.0654

> <b_lp_Chiralities_Consistent>
1

> <s_lp_Variant>
AV-unprocessed.smi:1199-3

> <Gold.Version>
5.8.1

> <Gold.Id.Protein>
6NUR|6NUR_protein|mol2

> <Gold.PLP.Fitness>
42.5038

> <Gold.PLP.PLP>
-27.6280

> <Gold.PLP.part.hbond>
-4.0486

> <Gold.PLP.part.metal>
0.0000

> <Gold.PLP.part.buried>
-3.6560

> <Gold.PLP.part.nonpolar>
-20.4182

> <Gold.PLP.part.repulsive>
0.0926

> <Gold.PLP.ligand.clash>
0.0000

> <Gold.PLP.ligand.torsion>
0.7870

> <Gold.PLP.Chemscore.Hbond>
5.4560

> <Gold.PLP.Chemscore.CHOScore>
0.0000

> <Gold.PLP.Chemscore.Metal>
0.0000

> <Gold.Chemscore.Hbonds>
donor molecule, donor type, donor heavy atom, donor atom, acceptor molecule, acceptor atom, score
      L1  H     4    41       P1  7948  2.00
      P1  H  6931  6943       L1    15  1.56
      P1  H  6934  6947       L1    15  1.34

> <Gold.PLP.Chemscore.Internal.Correction>
0.0819

> <Gold.Rescore>
     Score         DG    S(hbond)    S(metal)    S(lipo)     H(rot)  DE(clash)    DE(int)     intcor
      9.15     -11.89       2.28        0.00      41.64       2.37       0.15       2.59       ----

> <Gold.Chemscore.Fitness>
9.1542

> <Gold.Chemscore.DG>
-11.8895

> <Gold.Chemscore.ZeroCoef>
-5.4800

> <Gold.Chemscore.Hbond>
2.2806

> <Gold.Chemscore.Metal>
0.0000

> <Gold.Chemscore.Lipo>
41.6375

> <Gold.Chemscore.Internal_Hbond>
0.0000

> <Gold.Chemscore.DEClash>
0.1461

> <Gold.Chemscore.DEInternal>
2.5892

> <Gold.Chemscore.Rot>
2.3747

> <Gold.Chemscore.Internal.Correction>
   9.000000E+99

> <Gold.Chemscore.Hbonds>
donor molecule, donor type, donor heavy atom, donor atom, acceptor molecule, acceptor atom, score
      L1  H     4    41       P1  7948  0.98
      P1  H  6931  6943       L1    15  0.11
      P1  H  6934  6947       L1    15  0.25

> <Gold.Chemscore.Hbond.Weighted>
-7.6171

> <Gold.Chemscore.Metal.Weighted>
-0.0000

> <Gold.Chemscore.Lipo.Weighted>
-4.8716

> <Gold.Chemscore.Internal_Hbond.Weighted>
0.0000

> <Gold.Chemscore.DEClash.Weighted>
0.1461

> <Gold.Chemscore.DEInternal.Weighted>
2.5892

> <Gold.Chemscore.Rot.Weighted>
6.0791

> <Gold.Chemscore.Internal.Correction.Weighted>
   9.000000E+99

> <Gold.Protein.RotatedTorsions>
[ 6907 6896 6895 6894 ] final -157.63 input  -60.11 | X-H torsion
[ 7974 7965 7964 7962 ] final  -74.57 input  175.53 | X-H torsion
[ 8008 7997 7996 7995 ] final  -79.09 input   59.86 | X-H torsion
[ 10167 10162 10161 10158 ] final   74.08 input  -65.29 | X-H torsion
[ 10718 10713 10712 10709 ] final   91.83 input   66.30 | X-H torsion
[ 10763 10752 10751 10750 ] final  117.97 input  -60.55 | X-H torsion
[ 11005 11000 10999 10996 ] final    5.05 input  -57.11 | X-H torsion

> <Gold.Protein.ActiveResidues>
 VAL166  LYS551  ARG553  GLY616  TRP617  ASP618  TYR619  PRO620  LYS621  CYS622 
 ASP623  PHE694  ASN695  SER759  ASP760  ASP761  ALA762  ILE779  LEU786  VAL792 
 PHE793  MET794  SER795  GLU796  ALA797  LYS798  CYS799  TRP800  GLU811  SER814 

> <Gold.Protein.RotatedAtoms>
  151.3058  133.4102  159.2642 H   0  0  0  0  0  0  0  0  0  0  0  0  # atno 6907 bound_to 6896
  151.0156  134.9431  159.8041 H   0  0  0  0  0  0  0  0  0  0  0  0  # atno 6908 bound_to 6896
  152.5311  134.3022  159.9135 H   0  0  0  0  0  0  0  0  0  0  0  0  # atno 6909 bound_to 6896
  145.6373  140.9321  143.1054 H   0  0  0  0  0  0  0  0  0  0  0  0  # atno 7974 bound_to 7965
  154.5752  140.0684  156.9023 H   0  0  0  0  0  0  0  0  0  0  0  0  # atno 8008 bound_to 7997
  155.2562  140.3355  155.4259 H   0  0  0  0  0  0  0  0  0  0  0  0  # atno 8009 bound_to 7997
  156.2148  140.1774  156.7598 H   0  0  0  0  0  0  0  0  0  0  0  0  # atno 8010 bound_to 7997
  140.0176  144.5566  150.7608 H   0  0  0  0  0  0  0  0  0  0  0  0  # atno 10167 bound_to 10162
  157.6960  131.0421  150.3789 H   0  0  0  0  0  0  0  0  0  0  0  0  # atno 10718 bound_to 10713
  153.5605  135.3521  155.2797 H   0  0  0  0  0  0  0  0  0  0  0  0  # atno 10763 bound_to 10752
  154.8695  135.4135  154.2836 H   0  0  0  0  0  0  0  0  0  0  0  0  # atno 10764 bound_to 10752
  153.3580  135.7058  153.6804 H   0  0  0  0  0  0  0  0  0  0  0  0  # atno 10765 bound_to 10752
  140.5751  134.0066  155.8024 H   0  0  0  0  0  0  0  0  0  0  0  0  # atno 11005 bound_to 11000
  144.7170  139.8160  143.7395 LP  0  0  0  0  0  0  0  0  0  0  0  0  # atno 17320 bound_to 7965
  146.1309  139.4344  143.0169 LP  0  0  0  0  0  0  0  0  0  0  0  0  # atno 17321 bound_to 7965
  140.7356  143.2743  151.3791 LP  0  0  0  0  0  0  0  0  0  0  0  0  # atno 17342 bound_to 10162
  139.6162  144.0998  152.2348 LP  0  0  0  0  0  0  0  0  0  0  0  0  # atno 17343 bound_to 10162
  156.4205  130.3952  149.6828 LP  0  0  0  0  0  0  0  0  0  0  0  0  # atno 17370 bound_to 10713
  156.4081  130.7708  151.2720 LP  0  0  0  0  0  0  0  0  0  0  0  0  # atno 17371 bound_to 10713
  141.1032  133.9736  157.3043 LP  0  0  0  0  0  0  0  0  0  0  0  0  # atno 17394 bound_to 11000
  139.9343  135.0198  156.8505 LP  0  0  0  0  0  0  0  0  0  0  0  0  # atno 17395 bound_to 11000

$$$$
