AV-unprocessed.smi:212|AV-procd|sdf|1626|dock5
  -GOLD-   2262019573D 1   1.00000     0.00000
 Structure written by MMmdl.
 65 68  0  0  0  0  0  0  0  0  2 V2000
  147.6421  130.7817  153.2769 C   0  0  0  0  0  0  0  0  0  0  0  0
  148.2242  132.2052  153.3113 C   0  0  1  0  0  0  0  0  0  0  0  0
  147.8778  133.0066  152.0381 C   0  0  0  0  0  0  0  0  0  0  0  0
  146.4470  133.4068  152.0144 N   0  3  2  0  0  0  0  0  0  0  0  0
  146.0409  134.0706  150.7480 C   0  0  0  0  0  0  0  0  0  0  0  0
  144.5052  134.1838  150.6129 C   0  0  0  0  0  0  0  0  0  0  0  0
  143.8386  132.8523  150.9973 C   0  0  0  0  0  0  0  0  0  0  0  0
  143.9265  135.3336  151.4586 C   0  0  0  0  0  0  0  0  0  0  0  0
  144.1832  134.4217  149.2566 O   0  0  0  0  0  0  0  0  0  0  0  0
  146.0537  134.1663  153.2280 C   0  0  0  0  0  0  0  0  0  0  0  0
  146.3948  133.3790  154.5064 C   0  0  0  0  0  0  0  0  0  0  0  0
  147.7911  132.9384  154.5039 N   0  0  0  0  0  0  0  0  0  0  0  0
  148.7282  133.7309  155.0884 C   0  0  0  0  0  0  0  0  0  0  0  0
  149.9786  133.2482  155.3180 N   0  0  0  0  0  0  0  0  0  0  0  0
  150.9038  134.0155  155.9022 C   0  0  0  0  0  0  0  0  0  0  0  0
  150.7945  135.2748  156.3288 N   0  0  0  0  0  0  0  0  0  0  0  0
  149.5453  135.7680  156.0949 C   0  0  0  0  0  0  0  0  0  0  0  0
  148.4634  135.0725  155.4851 C   0  0  0  0  0  0  0  0  0  0  0  0
  147.3523  135.9048  155.4047 N   0  0  0  0  0  0  0  0  0  0  0  0
  147.7531  137.0254  155.9410 C   0  0  0  0  0  0  0  0  0  0  0  0
  149.0545  137.0270  156.3897 N   0  0  0  0  0  0  0  0  0  0  0  0
  149.7603  138.1275  157.0213 C   0  0  0  0  0  0  0  0  0  0  0  0
  149.8526  139.3842  156.1159 C   0  0  2  0  0  0  0  0  0  0  0  0
  150.0224  139.0015  154.6265 C   0  0  0  0  0  0  0  0  0  0  0  0
  150.1189  140.1503  153.8106 O   0  0  0  0  0  0  0  0  0  0  0  0
  150.9407  140.3895  156.5900 C   0  0  1  0  0  0  0  0  0  0  0  0
  150.6301  141.8464  156.2336 C   0  0  0  0  0  0  0  0  0  0  0  0
  150.7388  142.5942  157.5615 C   0  0  0  0  0  0  0  0  0  0  0  0
  150.4801  141.5964  158.5346 O   0  0  0  0  0  0  0  0  0  0  0  0
  151.1676  140.4312  158.1095 C   0  0  0  0  0  0  0  0  0  0  0  0
  148.0216  130.2274  152.4184 H   0  0  0  0  0  0  0  0  0  0  0  0
  146.5540  130.7833  153.2104 H   0  0  0  0  0  0  0  0  0  0  0  0
  147.9204  130.2264  154.1730 H   0  0  0  0  0  0  0  0  0  0  0  0
  149.3081  132.0926  153.3226 H   0  0  0  0  0  0  0  0  0  0  0  0
  148.4954  133.9052  151.9902 H   0  0  0  0  0  0  0  0  0  0  0  0
  148.1134  132.4154  151.1521 H   0  0  0  0  0  0  0  0  0  0  0  0
  146.4999  135.0583  150.6761 H   0  0  0  0  0  0  0  0  0  0  0  0
  146.4280  133.5120  149.8941 H   0  0  0  0  0  0  0  0  0  0  0  0
  144.0397  132.5967  152.0382 H   0  0  0  0  0  0  0  0  0  0  0  0
  144.2043  132.0300  150.3810 H   0  0  0  0  0  0  0  0  0  0  0  0
  142.7556  132.8972  150.8749 H   0  0  0  0  0  0  0  0  0  0  0  0
  144.1630  135.2017  152.5151 H   0  0  0  0  0  0  0  0  0  0  0  0
  142.8404  135.3823  151.3695 H   0  0  0  0  0  0  0  0  0  0  0  0
  144.3193  136.3034  151.1516 H   0  0  0  0  0  0  0  0  0  0  0  0
  143.2489  134.3252  149.1466 H   0  0  0  0  0  0  0  0  0  0  0  0
  146.5645  135.1301  153.2300 H   0  0  0  0  0  0  0  0  0  0  0  0
  144.9840  134.3760  153.2035 H   0  0  0  0  0  0  0  0  0  0  0  0
  146.1726  133.9739  155.3934 H   0  0  0  0  0  0  0  0  0  0  0  0
  145.7564  132.4982  154.5757 H   0  0  0  0  0  0  0  0  0  0  0  0
  151.8697  133.5549  156.0492 H   0  0  0  0  0  0  0  0  0  0  0  0
  147.1049  137.8854  156.0288 H   0  0  0  0  0  0  0  0  0  0  0  0
  149.2457  138.3494  157.9557 H   0  0  0  0  0  0  0  0  0  0  0  0
  150.7553  137.7796  157.3000 H   0  0  0  0  0  0  0  0  0  0  0  0
  148.8959  139.9036  156.1933 H   0  0  0  0  0  0  0  0  0  0  0  0
  150.9042  138.3785  154.4785 H   0  0  0  0  0  0  0  0  0  0  0  0
  149.1669  138.4292  154.2693 H   0  0  0  0  0  0  0  0  0  0  0  0
  149.7026  139.9674  152.9822 H   0  0  0  0  0  0  0  0  0  0  0  0
  151.8869  140.1276  156.1156 H   0  0  0  0  0  0  0  0  0  0  0  0
  151.3251  142.2465  155.4946 H   0  0  0  0  0  0  0  0  0  0  0  0
  149.6282  141.9566  155.8192 H   0  0  0  0  0  0  0  0  0  0  0  0
  151.7469  142.9867  157.7037 H   0  0  0  0  0  0  0  0  0  0  0  0
  150.0341  143.4228  157.6369 H   0  0  0  0  0  0  0  0  0  0  0  0
  150.8176  139.5434  158.6358 H   0  0  0  0  0  0  0  0  0  0  0  0
  152.2297  140.5471  158.3325 H   0  0  0  0  0  0  0  0  0  0  0  0
  145.9223  132.5443  152.0468 H   0  0  0  0  0  0  0  0  0  0  0  0
  1  2  1  0  0  0  0
  1 31  1  0  0  0  0
  1 32  1  0  0  0  0
  1 33  1  0  0  0  0
  2 12  1  0  0  0  0
  2  3  1  0  0  0  0
  2 34  1  0  0  0  0
  3  4  1  0  0  0  0
  3 35  1  0  0  0  0
  3 36  1  0  0  0  0
  4  5  1  0  0  0  0
  4 10  1  0  0  0  0
  4 65  1  0  0  0  0
  5  6  1  0  0  0  0
  5 37  1  0  0  0  0
  5 38  1  0  0  0  0
  6  7  1  0  0  0  0
  6  8  1  0  0  0  0
  6  9  1  0  0  0  0
  7 39  1  0  0  0  0
  7 40  1  0  0  0  0
  7 41  1  0  0  0  0
  8 42  1  0  0  0  0
  8 43  1  0  0  0  0
  8 44  1  0  0  0  0
  9 45  1  0  0  0  0
 10 11  1  0  0  0  0
 10 46  1  0  0  0  0
 10 47  1  0  0  0  0
 11 12  1  0  0  0  0
 11 48  1  0  0  0  0
 11 49  1  0  0  0  0
 12 13  1  0  0  0  0
 13 18  1  0  0  0  0
 13 14  2  0  0  0  0
 14 15  1  0  0  0  0
 15 16  2  0  0  0  0
 15 50  1  0  0  0  0
 16 17  1  0  0  0  0
 17 21  1  0  0  0  0
 17 18  2  0  0  0  0
 18 19  1  0  0  0  0
 19 20  2  0  0  0  0
 20 21  1  0  0  0  0
 20 51  1  0  0  0  0
 21 22  1  0  0  0  0
 22 23  1  0  0  0  0
 22 52  1  0  0  0  0
 22 53  1  0  0  0  0
 23 24  1  0  0  0  0
 23 26  1  0  0  0  0
 23 54  1  0  0  0  0
 24 25  1  0  0  0  0
 24 55  1  0  0  0  0
 24 56  1  0  0  0  0
 25 57  1  0  0  0  0
 26 30  1  0  0  0  0
 26 27  1  0  0  0  0
 26 58  1  0  0  0  0
 27 28  1  0  0  0  0
 27 59  1  0  0  0  0
 27 60  1  0  0  0  0
 28 29  1  0  0  0  0
 28 61  1  0  0  0  0
 28 62  1  0  0  0  0
 29 30  1  0  0  0  0
 30 63  1  0  0  0  0
 30 64  1  0  0  0  0
M  CHG  1   4   1
M  END
> <s_m_source_file>
AV-unprocessed.smi

> <i_m_source_file_index>
212

> <i_lp_mmshare_version>
43012

> <i_f3d_flags>
0

> <s_epik_input>
W0NIM11bQ0BASF0xW0NIMl1OKFtDSDJdQyhbQ0gzXSkoW0NIM10pW09IXSlbQ0gyXVtDSDJdTjFjKG5bY0hdbjIpYyhjMjMpbltjSF1uM1tDSDJdW0NASF0oW0NIMl1bT0hdKVtDQEBIXTRbQ0gyXVtDSDJdT1tDSDJdNA==

> <s_epik_cmdline>
J2VwaWtfcHl0aG9uJywgJy1waCcsICc3LjAnLCAnLXRuJywgJzgnLCAnLW1hJywgJzIwMCcsICctbWV0YWxfYmluZGluZycsICctaW1hZScsICc8aW5maWxlLm1hZT4nLCAnLW9tYWUnLCAnPG91dGZpbGUubWFlPic=

> <r_lp_tautomer_probability>
1

> <r_epik_Ionization_Penalty>
0.00182193

> <r_epik_Ionization_Penalty_Charging>
0.00173996

> <r_epik_Ionization_Penalty_Neutral>
8.19718e-05

> <r_epik_State_Penalty>
-0

> <r_epik_Charging_Adjusted_Penalty>
0.00173996

> <i_epik_Tot_Q>
1

> <i_epik_Tot_abs_Q>
1

> <r_epik_Metal_State_Penalty>
-0

> <b_epik_Metal_Only>
0

> <s_lp_Force_Field>
OPLS_2005

> <r_lp_Energy>
61.088

> <b_lp_Chiralities_Consistent>
1

> <s_lp_Variant>
AV-unprocessed.smi:212-10

> <Gold.Version>
5.8.1

> <Gold.Id.Protein>
6NUR|6NUR_protein|mol2

> <Gold.PLP.Fitness>
46.9609

> <Gold.PLP.PLP>
-40.4518

> <Gold.PLP.part.hbond>
-3.9735

> <Gold.PLP.part.metal>
0.0000

> <Gold.PLP.part.buried>
-6.6022

> <Gold.PLP.part.nonpolar>
-30.4113

> <Gold.PLP.part.repulsive>
0.1330

> <Gold.PLP.ligand.clash>
0.0000

> <Gold.PLP.ligand.torsion>
1.4673

> <Gold.PLP.Chemscore.Hbond>
2.7840

> <Gold.PLP.Chemscore.CHOScore>
0.0000

> <Gold.PLP.Chemscore.Metal>
0.0000

> <Gold.Chemscore.Hbonds>
donor molecule, donor type, donor heavy atom, donor atom, acceptor molecule, acceptor atom, score
      L1  H     9    45       P1 10186  0.41
      L1  H    25    57       P1  7957  1.00
      P1  H  7989  7998       L1    25  0.82

> <Gold.PLP.Chemscore.Internal.Correction>
1.0919

> <Gold.Rescore>
     Score         DG    S(hbond)    S(metal)    S(lipo)     H(rot)  DE(clash)    DE(int)     intcor
     12.33     -15.66       2.62        0.00      86.69       3.40       0.07       3.27       ----

> <Gold.Chemscore.Fitness>
12.3269

> <Gold.Chemscore.DG>
-15.6603

> <Gold.Chemscore.ZeroCoef>
-5.4800

> <Gold.Chemscore.Hbond>
2.6161

> <Gold.Chemscore.Metal>
0.0000

> <Gold.Chemscore.Lipo>
86.6922

> <Gold.Chemscore.Internal_Hbond>
0.0000

> <Gold.Chemscore.DEClash>
0.0673

> <Gold.Chemscore.DEInternal>
3.2662

> <Gold.Chemscore.Rot>
3.3986

> <Gold.Chemscore.Internal.Correction>
   9.000000E+99

> <Gold.Chemscore.Hbonds>
donor molecule, donor type, donor heavy atom, donor atom, acceptor molecule, acceptor atom, score
      L1  H     9    45       P1 10186  0.39
      L1  H    25    57       P1  7957  0.96
      P1  H  7989  7998       L1    25  0.49

> <Gold.Chemscore.Hbond.Weighted>
-8.7378

> <Gold.Chemscore.Metal.Weighted>
-0.0000

> <Gold.Chemscore.Lipo.Weighted>
-10.1430

> <Gold.Chemscore.Internal_Hbond.Weighted>
0.0000

> <Gold.Chemscore.DEClash.Weighted>
0.0673

> <Gold.Chemscore.DEInternal.Weighted>
3.2662

> <Gold.Chemscore.Rot.Weighted>
8.7005

> <Gold.Chemscore.Internal.Correction.Weighted>
   9.000000E+99

> <Gold.Protein.RotatedTorsions>
[ 6907 6896 6895 6894 ] final   -6.24 input  -60.11 | X-H torsion
[ 7974 7965 7964 7962 ] final   49.39 input  175.53 | X-H torsion
[ 8008 7997 7996 7995 ] final  178.64 input   59.86 | X-H torsion
[ 10167 10162 10161 10158 ] final  147.42 input  -65.29 | X-H torsion
[ 10718 10713 10712 10709 ] final    5.06 input   66.30 | X-H torsion
[ 10763 10752 10751 10750 ] final  157.45 input  -60.55 | X-H torsion
[ 11005 11000 10999 10996 ] final  -49.99 input  -57.11 | X-H torsion

> <Gold.Protein.ActiveResidues>
 VAL166  LYS551  ARG553  GLY616  TRP617  ASP618  TYR619  PRO620  LYS621  CYS622 
 ASP623  PHE694  ASN695  SER759  ASP760  ASP761  ALA762  ILE779  LEU786  VAL792 
 PHE793  MET794  SER795  GLU796  ALA797  LYS798  CYS799  TRP800  GLU811  SER814 

> <Gold.Protein.RotatedAtoms>
  151.4688  135.1044  159.9745 H   0  0  0  0  0  0  0  0  0  0  0  0  # atno 6907 bound_to 6896
  152.4825  133.8285  159.7101 H   0  0  0  0  0  0  0  0  0  0  0  0  # atno 6908 bound_to 6896
  150.8907  133.7186  159.2932 H   0  0  0  0  0  0  0  0  0  0  0  0  # atno 6909 bound_to 6896
  146.0113  139.4546  142.9954 H   0  0  0  0  0  0  0  0  0  0  0  0  # atno 7974 bound_to 7965
  156.0524  140.1328  157.0035 H   0  0  0  0  0  0  0  0  0  0  0  0  # atno 8008 bound_to 7997
  154.4441  140.1008  156.6466 H   0  0  0  0  0  0  0  0  0  0  0  0  # atno 8009 bound_to 7997
  155.5503  140.3463  155.4469 H   0  0  0  0  0  0  0  0  0  0  0  0  # atno 8010 bound_to 7997
  139.4890  144.5757  151.6970 H   0  0  0  0  0  0  0  0  0  0  0  0  # atno 10167 bound_to 10162
  156.9018  130.5724  149.5648 H   0  0  0  0  0  0  0  0  0  0  0  0  # atno 10718 bound_to 10713
  154.2004  135.2790  155.2992 H   0  0  0  0  0  0  0  0  0  0  0  0  # atno 10763 bound_to 10752
  154.5858  135.5575  153.7233 H   0  0  0  0  0  0  0  0  0  0  0  0  # atno 10764 bound_to 10752
  153.0089  135.6356  154.2143 H   0  0  0  0  0  0  0  0  0  0  0  0  # atno 10765 bound_to 10752
  141.0790  133.6658  156.3665 H   0  0  0  0  0  0  0  0  0  0  0  0  # atno 11005 bound_to 11000
  145.7338  141.0033  143.1338 LP  0  0  0  0  0  0  0  0  0  0  0  0  # atno 17320 bound_to 7965
  144.6954  139.9016  143.7459 LP  0  0  0  0  0  0  0  0  0  0  0  0  # atno 17321 bound_to 7965
  140.5353  144.0666  150.6068 LP  0  0  0  0  0  0  0  0  0  0  0  0  # atno 17342 bound_to 10162
  140.3670  143.2876  152.0321 LP  0  0  0  0  0  0  0  0  0  0  0  0  # atno 17343 bound_to 10162
  156.0578  130.5636  150.9129 LP  0  0  0  0  0  0  0  0  0  0  0  0  # atno 17370 bound_to 10713
  157.6021  131.0940  150.8941 LP  0  0  0  0  0  0  0  0  0  0  0  0  # atno 17371 bound_to 10713
  140.5509  134.6028  157.5407 LP  0  0  0  0  0  0  0  0  0  0  0  0  # atno 17394 bound_to 11000
  139.9603  134.7463  156.0251 LP  0  0  0  0  0  0  0  0  0  0  0  0  # atno 17395 bound_to 11000

$$$$
