#       Name:                AV-unprocessed.smi:2260
#       Creating user name   scv26
#       Creation time:       Fri Mar 27 12:34:00 2020


#       File generated by GOLD software.
#

@<TRIPOS>MOLECULE
AV-unprocessed.smi:2260
    45    46     1
SMALL
NO_CHARGES


@<TRIPOS>ATOM
      1 ****        -3.3819   2.2318  -2.0871 C.3            1 S1                 0.0000
      2 ****        -3.9550   2.2067  -0.6804 C.2            1 S1                 0.0000
      3 ****        -5.2539   2.2704  -0.3680 C.2            1 S1                 0.0000
      4 ****        -5.5413   2.1765   1.3534 S.3            1 S1                 0.0000
      5 ****        -3.7715   2.0349   1.6508 C.2            1 S1                 0.0000
      6 ****        -3.2886   1.9161   2.7757 O.2            1 S1                 0.0000
      7 ****        -3.1064   2.0834   0.4271 N.am           1 S1                 0.0000
      8 ****        -1.6451   2.0110   0.3413 C.3            1 S1                 0.0000
      9 ****        -1.1615   0.5533   0.3045 C.3            1 S1                 0.0000
     10 ****         0.3120   0.4907   0.2168 N.4            1 S1                 1.0000
     11 ****         0.9009  -0.8689   0.2780 C.3            1 S1                 0.0000
     12 ****         0.6692  -1.6372  -1.0448 C.3            1 S1                 0.0000
     13 ****         1.2688  -3.0489  -0.9943 C.3            1 S1                 0.0000
     14 ****         2.7589  -3.0074  -0.6377 C.3            1 S1                 0.0000
     15 ****         2.9884  -2.2492   0.6804 C.3            1 S1                 0.0000
     16 ****         2.4090  -0.8105   0.6773 C.3            1 S1                 0.0000
     17 ****         3.2328   0.0870  -0.2779 C.3            1 S1                 0.0000
     18 ****         2.5489  -0.2477   2.1085 C.3            1 S1                 0.0000
     19 ****        -4.1416   1.9277  -2.8077 H              1 S1                 0.0000
     20 ****        -2.5381   1.5521  -2.2006 H              1 S1                 0.0000
     21 ****        -3.0574   3.2402  -2.3443 H              1 S1                 0.0000
     22 ****        -6.0762   2.3586  -1.0629 H              1 S1                 0.0000
     23 ****        -1.2833   2.5592  -0.5287 H              1 S1                 0.0000
     24 ****        -1.2052   2.5206   1.2005 H              1 S1                 0.0000
     25 ****        -1.4888   0.0310   1.2045 H              1 S1                 0.0000
     26 ****        -1.6065   0.0378  -0.5460 H              1 S1                 0.0000
     27 ****         0.6177   0.9402  -0.6344 H              1 S1                 0.0000
     28 ****         0.3787  -1.4119   1.0682 H              1 S1                 0.0000
     29 ****        -0.3964  -1.7265  -1.2537 H              1 S1                 0.0000
     30 ****         1.0949  -1.0870  -1.8843 H              1 S1                 0.0000
     31 ****         0.7343  -3.6457  -0.2539 H              1 S1                 0.0000
     32 ****         1.1283  -3.5485  -1.9534 H              1 S1                 0.0000
     33 ****         3.1435  -4.0239  -0.5488 H              1 S1                 0.0000
     34 ****         3.3223  -2.5425  -1.4470 H              1 S1                 0.0000
     35 ****         2.5299  -2.8228   1.4876 H              1 S1                 0.0000
     36 ****         4.0559  -2.2257   0.9031 H              1 S1                 0.0000
     37 ****         4.2890   0.0808  -0.0066 H              1 S1                 0.0000
     38 ****         2.9041   1.1259  -0.2419 H              1 S1                 0.0000
     39 ****         3.1678  -0.2355  -1.3162 H              1 S1                 0.0000
     40 ****         3.5896  -0.2537   2.4348 H              1 S1                 0.0000
     41 ****         1.9800  -0.8375   2.8282 H              1 S1                 0.0000
     42 ****         2.1968   0.7818   2.1786 H              1 S1                 0.0000
     43 ****         0.6789   1.0113   1.0009 H              1 S1                 0.0000
     44 ****        -3.8867   1.8947   3.5769 LP             1 S1                 0.0000
     45 ****        -2.2980   1.8410   2.8892 LP             1 S1                 0.0000
@<TRIPOS>BOND
    1    1    2 1     
    2    1   19 1     
    3    1   20 1     
    4    1   21 1     
    5    2    7 1     
    6    2    3 2     
    7    3    4 1     
    8    3   22 1     
    9    4    5 1     
   10    5    6 2     
   11    5    7 am    
   12    7    8 1     
   13    8    9 1     
   14    8   23 1     
   15    8   24 1     
   16    9   10 1     
   17    9   25 1     
   18    9   26 1     
   19   10   11 1     
   20   10   27 1     
   21   10   43 1     
   22   11   16 1     
   23   11   12 1     
   24   11   28 1     
   25   12   13 1     
   26   12   29 1     
   27   12   30 1     
   28   13   14 1     
   29   13   31 1     
   30   13   32 1     
   31   14   15 1     
   32   14   33 1     
   33   14   34 1     
   34   15   16 1     
   35   15   35 1     
   36   15   36 1     
   37   16   17 1     
   38   16   18 1     
   39   17   37 1     
   40   17   38 1     
   41   17   39 1     
   42   18   40 1     
   43   18   41 1     
   44   18   42 1     
   45    6   44 1     
   46    6   45 1     
@<TRIPOS>SUBSTRUCTURE
      1 S1             1
@<TRIPOS>SET
LONE_PAIRS      STATIC     ATOMS    <user>   **** ""
2 44 45
DONOR_HYDROGENS      STATIC     ATOMS    <user>   **** ""
2 27 43
ATOM$BLUE        STATIC     ATOMS    COLORGROUP SYSTEM
2 44 45
ATOM$RED        STATIC     ATOMS    COLORGROUP SYSTEM
2 27 43
