AV-unprocessed.smi:697|AV-procd|sdf|3390|dock8
  -GOLD-   22720 0373D 1   1.00000     0.00000
 Structure written by MMmdl.
 44 45  0  0  0  0  0  0  0  0  1 V2000
  152.1323  138.4098  158.6922 C   0  0  0  0  0  0  0  0  0  0  0  0
  152.1357  138.3572  157.2708 O   0  0  0  0  0  0  0  0  0  0  0  0
  150.8814  138.5439  156.6003 C   0  0  2  0  0  0  0  0  0  0  0  0
  150.2741  139.9037  156.9666 C   0  0  0  0  0  0  0  0  0  0  0  0
  150.0162  137.2741  156.7187 C   0  0  0  0  0  0  0  0  0  0  0  0
  150.8009  136.7190  155.5316 C   0  0  1  0  0  0  0  0  0  0  0  0
  149.9710  135.9458  154.6133 N   0  0  0  0  0  0  0  0  0  0  0  0
  149.7525  134.6283  154.7212 C   0  0  0  0  0  0  0  0  0  0  0  0
  150.2162  133.9397  155.6300 O   0  0  0  0  0  0  0  0  0  0  0  0
  148.9997  134.1793  153.7002 N   0  0  0  0  0  0  0  0  0  0  0  0
  148.5484  132.8741  153.4438 C   0  0  0  0  0  0  0  0  0  0  0  0
  149.1308  131.7454  153.9264 C   0  0  0  0  0  0  0  0  0  0  0  0
  148.6115  130.4211  153.6273 C   0  0  0  0  0  0  0  0  0  0  0  0
  149.2404  129.1674  154.2158 C   0  0  0  0  0  0  0  0  0  0  0  0
  148.4064  128.5558  155.0580 F   0  0  0  0  0  0  0  0  0  0  0  0
  149.5450  128.3131  153.2399 F   0  0  0  0  0  0  0  0  0  0  0  0
  150.3611  129.4597  154.8760 F   0  0  0  0  0  0  0  0  0  0  0  0
  147.5008  130.3695  152.8690 C   0  0  0  0  0  0  0  0  0  0  0  0
  146.8950  131.5251  152.3709 N   0  0  0  0  0  0  0  0  0  0  0  0
  147.3392  132.7795  152.6094 C   0  0  0  0  0  0  0  0  0  0  0  0
  146.7437  133.7491  152.1405 O   0  0  0  0  0  0  0  0  0  0  0  0
  151.0703  138.1809  155.0908 C   0  0  0  0  0  0  0  0  0  0  0  0
  150.0561  138.8079  154.1150 C   0  0  0  0  0  0  0  0  0  0  0  0
  152.4515  138.4529  154.4843 C   0  0  0  0  0  0  0  0  0  0  0  0
  146.0698  131.4017  151.8019 H   0  0  0  0  0  0  0  0  0  0  0  0
  153.1122  138.1064  159.0604 H   0  0  0  0  0  0  0  0  0  0  0  0
  151.3933  137.7407  159.1314 H   0  0  0  0  0  0  0  0  0  0  0  0
  151.9522  139.4207  159.0578 H   0  0  0  0  0  0  0  0  0  0  0  0
  149.3732  140.1138  156.3913 H   0  0  0  0  0  0  0  0  0  0  0  0
  150.9784  140.7145  156.7797 H   0  0  0  0  0  0  0  0  0  0  0  0
  149.9794  139.9494  158.0146 H   0  0  0  0  0  0  0  0  0  0  0  0
  150.1288  136.6999  157.6376 H   0  0  0  0  0  0  0  0  0  0  0  0
  148.9629  137.4580  156.4999 H   0  0  0  0  0  0  0  0  0  0  0  0
  151.7052  136.1991  155.8565 H   0  0  0  0  0  0  0  0  0  0  0  0
  149.5584  136.4412  153.8366 H   0  0  0  0  0  0  0  0  0  0  0  0
  148.7633  134.8532  152.9865 H   0  0  0  0  0  0  0  0  0  0  0  0
  149.9982  131.8005  154.5643 H   0  0  0  0  0  0  0  0  0  0  0  0
  146.9943  129.4564  152.5924 H   0  0  0  0  0  0  0  0  0  0  0  0
  150.1342  138.3728  153.1180 H   0  0  0  0  0  0  0  0  0  0  0  0
  150.2155  139.8816  154.0099 H   0  0  0  0  0  0  0  0  0  0  0  0
  149.0261  138.6671  154.4431 H   0  0  0  0  0  0  0  0  0  0  0  0
  152.5152  138.0943  153.4564 H   0  0  0  0  0  0  0  0  0  0  0  0
  153.2468  137.9531  155.0372 H   0  0  0  0  0  0  0  0  0  0  0  0
  152.6808  139.5187  154.4776 H   0  0  0  0  0  0  0  0  0  0  0  0
  1  2  1  0  0  0  0
  1 26  1  0  0  0  0
  1 27  1  0  0  0  0
  1 28  1  0  0  0  0
  2  3  1  0  0  0  0
  3 22  1  0  0  0  0
  3  4  1  0  0  0  0
  3  5  1  0  0  0  0
  4 29  1  0  0  0  0
  4 30  1  0  0  0  0
  4 31  1  0  0  0  0
  5  6  1  0  0  0  0
  5 32  1  0  0  0  0
  5 33  1  0  0  0  0
  6  7  1  0  0  0  0
  6 22  1  0  0  0  0
  6 34  1  0  0  0  0
  7  8  1  0  0  0  0
  7 35  1  0  0  0  0
  8  9  2  0  0  0  0
  8 10  1  0  0  0  0
 10 11  1  0  0  0  0
 10 36  1  0  0  0  0
 11 20  1  0  0  0  0
 11 12  2  0  0  0  0
 12 13  1  0  0  0  0
 12 37  1  0  0  0  0
 13 14  1  0  0  0  0
 13 18  2  0  0  0  0
 14 15  1  0  0  0  0
 14 16  1  0  0  0  0
 14 17  1  0  0  0  0
 18 19  1  0  0  0  0
 18 38  1  0  0  0  0
 19 25  1  0  0  0  0
 19 20  1  0  0  0  0
 20 21  2  0  0  0  0
 22 23  1  0  0  0  0
 22 24  1  0  0  0  0
 23 39  1  0  0  0  0
 23 40  1  0  0  0  0
 23 41  1  0  0  0  0
 24 42  1  0  0  0  0
 24 43  1  0  0  0  0
 24 44  1  0  0  0  0
M  END
> <s_m_source_file>
AV-unprocessed.smi

> <i_m_source_file_index>
697

> <i_lp_mmshare_version>
43012

> <i_f3d_flags>
0

> <s_epik_input>
W0NIM11PW0NAQF0xKFtDSDNdKVtDSDJdW0NASF0oQzEoW0NIM10pW0NIM10pW05IXUMoPU8pW05IXWMyW2NIXWMoQyhGKShGKUYpW2NIXVtuSF1jMj1P

> <s_epik_cmdline>
J2VwaWtfcHl0aG9uJywgJy1waCcsICc3LjAnLCAnLXRuJywgJzgnLCAnLW1hJywgJzIwMCcsICctbWV0YWxfYmluZGluZycsICctaW1hZScsICc8aW5maWxlLm1hZT4nLCAnLW9tYWUnLCAnPG91dGZpbGUubWFlPic=

> <r_lp_tautomer_probability>
1

> <r_epik_Ionization_Penalty>
0.0036482

> <r_epik_Ionization_Penalty_Charging>
0.00362828

> <r_epik_Ionization_Penalty_Neutral>
1.99208e-05

> <r_epik_State_Penalty>
-0

> <r_epik_Charging_Adjusted_Penalty>
0.00362828

> <i_epik_Tot_Q>
0

> <i_epik_Tot_abs_Q>
0

> <r_epik_Metal_State_Penalty>
0.369362

> <b_epik_Metal_Only>
0

> <s_lp_Force_Field>
OPLS_2005

> <r_lp_Energy>
34.8139

> <b_lp_Chiralities_Consistent>
1

> <s_lp_Variant>
AV-unprocessed.smi:697-2

> <Gold.Version>
5.8.1

> <Gold.Id.Protein>
6NUR|6NUR_protein|mol2

> <Gold.PLP.Fitness>
38.1733

> <Gold.PLP.PLP>
-33.1936

> <Gold.PLP.part.hbond>
-2.7721

> <Gold.PLP.part.metal>
0.0000

> <Gold.PLP.part.buried>
-2.6648

> <Gold.PLP.part.nonpolar>
-28.0233

> <Gold.PLP.part.repulsive>
0.2393

> <Gold.PLP.ligand.clash>
0.0000

> <Gold.PLP.ligand.torsion>
0.4986

> <Gold.PLP.Chemscore.Hbond>
1.8580

> <Gold.PLP.Chemscore.CHOScore>
0.0000

> <Gold.PLP.Chemscore.Metal>
0.0000

> <Gold.Chemscore.Hbonds>
donor molecule, donor type, donor heavy atom, donor atom, acceptor molecule, acceptor atom, score
      L1  H     7    35       P1  7948  0.81
      L1  H    10    36       P1  7948  0.95

> <Gold.PLP.Chemscore.Internal.Correction>
0.4029

> <Gold.Rescore>
     Score         DG    S(hbond)    S(metal)    S(lipo)     H(rot)  DE(clash)    DE(int)     intcor
     13.08     -14.74       1.26        0.00      71.90       1.31       0.09       1.57       ----

> <Gold.Chemscore.Fitness>
13.0848

> <Gold.Chemscore.DG>
-14.7431

> <Gold.Chemscore.ZeroCoef>
-5.4800

> <Gold.Chemscore.Hbond>
1.2561

> <Gold.Chemscore.Metal>
0.0000

> <Gold.Chemscore.Lipo>
71.8959

> <Gold.Chemscore.Internal_Hbond>
0.0000

> <Gold.Chemscore.DEClash>
0.0867

> <Gold.Chemscore.DEInternal>
1.5716

> <Gold.Chemscore.Rot>
1.3062

> <Gold.Chemscore.Internal.Correction>
   9.000000E+99

> <Gold.Chemscore.Hbonds>
donor molecule, donor type, donor heavy atom, donor atom, acceptor molecule, acceptor atom, score
      L1  H     7    35       P1  7948  0.54
      L1  H    10    36       P1  7948  0.21

> <Gold.Chemscore.Hbond.Weighted>
-4.1953

> <Gold.Chemscore.Metal.Weighted>
-0.0000

> <Gold.Chemscore.Lipo.Weighted>
-8.4118

> <Gold.Chemscore.Internal_Hbond.Weighted>
0.0000

> <Gold.Chemscore.DEClash.Weighted>
0.0867

> <Gold.Chemscore.DEInternal.Weighted>
1.5716

> <Gold.Chemscore.Rot.Weighted>
3.3440

> <Gold.Chemscore.Internal.Correction.Weighted>
   9.000000E+99

> <Gold.Protein.RotatedTorsions>
[ 6907 6896 6895 6894 ] final   12.95 input  -60.11 | X-H torsion
[ 7974 7965 7964 7962 ] final  -89.06 input  175.53 | X-H torsion
[ 8008 7997 7996 7995 ] final  -65.17 input   59.86 | X-H torsion
[ 10167 10162 10161 10158 ] final -153.95 input  -65.29 | X-H torsion
[ 10718 10713 10712 10709 ] final  122.75 input   66.30 | X-H torsion
[ 10763 10752 10751 10750 ] final   31.12 input  -60.55 | X-H torsion
[ 11005 11000 10999 10996 ] final  -65.00 input  -57.11 | X-H torsion

> <Gold.Protein.ActiveResidues>
 VAL166  LYS551  ARG553  GLY616  TRP617  ASP618  TYR619  PRO620  LYS621  CYS622 
 ASP623  PHE694  ASN695  SER759  ASP760  ASP761  ALA762  ILE779  LEU786  VAL792 
 PHE793  MET794  SER795  GLU796  ALA797  LYS798  CYS799  TRP800  GLU811  SER814 

> <Gold.Protein.RotatedAtoms>
  151.7785  135.0768  160.0370 H   0  0  0  0  0  0  0  0  0  0  0  0  # atno 6907 bound_to 6896
  152.3239  133.5879  159.5772 H   0  0  0  0  0  0  0  0  0  0  0  0  # atno 6908 bound_to 6896
  150.7385  133.9886  159.3641 H   0  0  0  0  0  0  0  0  0  0  0  0  # atno 6909 bound_to 6896
  145.4449  140.9560  143.2054 H   0  0  0  0  0  0  0  0  0  0  0  0  # atno 7974 bound_to 7965
  154.4655  140.0938  156.7009 H   0  0  0  0  0  0  0  0  0  0  0  0  # atno 8008 bound_to 7997
  155.4870  140.3469  155.4330 H   0  0  0  0  0  0  0  0  0  0  0  0  # atno 8009 bound_to 7997
  156.0949  140.1407  156.9533 H   0  0  0  0  0  0  0  0  0  0  0  0  # atno 8010 bound_to 7997
  139.7054  143.9195  152.2446 H   0  0  0  0  0  0  0  0  0  0  0  0  # atno 10167 bound_to 10162
  157.5719  131.1082  150.8352 H   0  0  0  0  0  0  0  0  0  0  0  0  # atno 10718 bound_to 10713
  153.0333  135.6447  154.1149 H   0  0  0  0  0  0  0  0  0  0  0  0  # atno 10763 bound_to 10752
  154.0868  135.2869  155.3281 H   0  0  0  0  0  0  0  0  0  0  0  0  # atno 10764 bound_to 10752
  154.6492  135.5432  153.7945 H   0  0  0  0  0  0  0  0  0  0  0  0  # atno 10765 bound_to 10752
  141.1441  133.6674  156.5918 H   0  0  0  0  0  0  0  0  0  0  0  0  # atno 11005 bound_to 11000
  144.8098  139.5983  143.7034 LP  0  0  0  0  0  0  0  0  0  0  0  0  # atno 17320 bound_to 7965
  146.2536  139.6253  142.9410 LP  0  0  0  0  0  0  0  0  0  0  0  0  # atno 17321 bound_to 7965
  139.9049  144.6890  150.8625 LP  0  0  0  0  0  0  0  0  0  0  0  0  # atno 17342 bound_to 10162
  140.7720  143.3486  151.2060 LP  0  0  0  0  0  0  0  0  0  0  0  0  # atno 17343 bound_to 10162
  156.8821  130.5183  149.5290 LP  0  0  0  0  0  0  0  0  0  0  0  0  # atno 17370 bound_to 10713
  156.0764  130.5785  150.9481 LP  0  0  0  0  0  0  0  0  0  0  0  0  # atno 17371 bound_to 10713
  140.3757  134.7567  157.4628 LP  0  0  0  0  0  0  0  0  0  0  0  0  # atno 17394 bound_to 11000
  140.0676  134.5907  155.8677 LP  0  0  0  0  0  0  0  0  0  0  0  0  # atno 17395 bound_to 11000

$$$$
