AV-unprocessed.smi:21|AV-procd|sdf|166|dock7
  -GOLD-   2262015413D 1   1.00000     0.00000
 Structure written by MMmdl.
 61 64  0  0  0  0  0  0  0  0  1 V2000
  151.6490  143.9149  159.8023 C   0  0  0  0  0  0  0  0  0  0  0  0
  150.9412  143.2960  158.7397 O   0  0  0  0  0  0  0  0  0  0  0  0
  151.6926  142.2964  158.0657 C   0  0  2  0  0  0  0  0  0  0  0  0
  151.0225  141.8174  156.7643 C   0  0  0  0  0  0  0  0  0  0  0  0
  150.7343  140.3275  157.0031 C   0  0  1  0  0  0  0  0  0  0  0  0
  150.7361  139.4811  155.7101 C   0  0  0  0  0  0  0  0  0  0  0  0
  149.4968  139.5990  154.9411 N   0  0  0  0  0  0  0  0  0  0  0  0
  148.9233  140.9335  154.7742 C   0  0  0  0  0  0  0  0  0  0  0  0
  148.6863  138.5115  154.7819 C   0  0  0  0  0  0  0  0  0  0  0  0
  148.9396  137.4001  155.5260 N   0  0  0  0  0  0  0  0  0  0  0  0
  148.1966  136.2990  155.3938 C   0  0  0  0  0  0  0  0  0  0  0  0
  147.1576  136.0887  154.5869 N   0  0  0  0  0  0  0  0  0  0  0  0
  146.8798  137.1965  153.8438 C   0  0  0  0  0  0  0  0  0  0  0  0
  147.5806  138.4383  153.8775 C   0  0  0  0  0  0  0  0  0  0  0  0
  146.9891  139.3218  152.9795 N   0  0  0  0  0  0  0  0  0  0  0  0
  146.0139  138.6434  152.4421 C   0  0  0  0  0  0  0  0  0  0  0  0
  145.8723  137.3584  152.9088 N   0  0  0  0  0  0  0  0  0  0  0  0
  144.8783  136.3881  152.4828 C   0  0  0  0  0  0  0  0  0  0  0  0
  144.7926  135.1477  153.4056 C   0  0  1  0  0  0  0  0  0  0  0  0
  143.6138  135.2936  154.3967 C   0  0  0  0  0  0  0  0  0  0  0  0
  143.5181  134.1542  155.2260 O   0  0  0  0  0  0  0  0  0  0  0  0
  144.7727  133.8105  152.6125 C   0  0  1  0  0  0  0  0  0  0  0  0
  143.5302  133.5800  151.7493 C   0  0  0  0  0  0  0  0  0  0  0  0
  144.0899  133.2564  150.3648 C   0  0  0  0  0  0  0  0  0  0  0  0
  145.3904  132.7597  150.6326 O   0  0  0  0  0  0  0  0  0  0  0  0
  145.9407  133.5923  151.6396 C   0  0  0  0  0  0  0  0  0  0  0  0
  151.7101  139.9148  157.9977 N   0  0  0  0  0  0  0  0  0  0  0  0
  151.3769  138.6602  158.6596 C   0  0  0  0  0  0  0  0  0  0  0  0
  151.7479  141.0290  158.9245 C   0  0  0  0  0  0  0  0  0  0  0  0
  152.7089  142.6407  157.8653 H   0  0  0  0  0  0  0  0  0  0  0  0
  149.7465  140.2643  157.4628 H   0  0  0  0  0  0  0  0  0  0  0  0
  151.0154  144.6665  160.2722 H   0  0  0  0  0  0  0  0  0  0  0  0
  152.5526  144.4138  159.4505 H   0  0  0  0  0  0  0  0  0  0  0  0
  151.9275  143.1876  160.5658 H   0  0  0  0  0  0  0  0  0  0  0  0
  150.1057  142.3598  156.5320 H   0  0  0  0  0  0  0  0  0  0  0  0
  151.7102  141.9540  155.9287 H   0  0  0  0  0  0  0  0  0  0  0  0
  151.5735  139.7941  155.0858 H   0  0  0  0  0  0  0  0  0  0  0  0
  150.9298  138.4316  155.9211 H   0  0  0  0  0  0  0  0  0  0  0  0
  148.4321  141.0253  153.8048 H   0  0  0  0  0  0  0  0  0  0  0  0
  149.6943  141.7027  154.8237 H   0  0  0  0  0  0  0  0  0  0  0  0
  148.1916  141.1411  155.5554 H   0  0  0  0  0  0  0  0  0  0  0  0
  148.4777  135.4671  156.0224 H   0  0  0  0  0  0  0  0  0  0  0  0
  145.3638  139.0655  151.6895 H   0  0  0  0  0  0  0  0  0  0  0  0
  143.9167  136.9009  152.4446 H   0  0  0  0  0  0  0  0  0  0  0  0
  145.1007  136.0818  151.4601 H   0  0  0  0  0  0  0  0  0  0  0  0
  145.7074  135.1269  154.0004 H   0  0  0  0  0  0  0  0  0  0  0  0
  143.7353  136.1745  155.0272 H   0  0  0  0  0  0  0  0  0  0  0  0
  142.6625  135.4034  153.8779 H   0  0  0  0  0  0  0  0  0  0  0  0
  143.4222  133.3903  154.6776 H   0  0  0  0  0  0  0  0  0  0  0  0
  144.7899  132.9831  153.3227 H   0  0  0  0  0  0  0  0  0  0  0  0
  142.9696  132.7271  152.1342 H   0  0  0  0  0  0  0  0  0  0  0  0
  142.8434  134.4257  151.7201 H   0  0  0  0  0  0  0  0  0  0  0  0
  143.4839  132.5292  149.8242 H   0  0  0  0  0  0  0  0  0  0  0  0
  144.1648  134.1600  149.7574 H   0  0  0  0  0  0  0  0  0  0  0  0
  146.2776  134.5200  151.1777 H   0  0  0  0  0  0  0  0  0  0  0  0
  146.8007  133.1215  152.1151 H   0  0  0  0  0  0  0  0  0  0  0  0
  152.1061  138.4325  159.4377 H   0  0  0  0  0  0  0  0  0  0  0  0
  151.3823  137.8312  157.9525 H   0  0  0  0  0  0  0  0  0  0  0  0
  150.3900  138.7055  159.1221 H   0  0  0  0  0  0  0  0  0  0  0  0
  152.6333  140.9955  159.5598 H   0  0  0  0  0  0  0  0  0  0  0  0
  150.8730  140.9955  159.5766 H   0  0  0  0  0  0  0  0  0  0  0  0
  1  2  1  0  0  0  0
  1 32  1  0  0  0  0
  1 33  1  0  0  0  0
  1 34  1  0  0  0  0
  2  3  1  0  0  0  0
  3 30  1  0  0  0  0
  3 29  1  0  0  0  0
  3  4  1  0  0  0  0
  4  5  1  0  0  0  0
  4 35  1  0  0  0  0
  4 36  1  0  0  0  0
  5 31  1  0  0  0  0
  5  6  1  0  0  0  0
  5 27  1  0  0  0  0
  6  7  1  0  0  0  0
  6 37  1  0  0  0  0
  6 38  1  0  0  0  0
  7  8  1  0  0  0  0
  7  9  1  0  0  0  0
  8 39  1  0  0  0  0
  8 40  1  0  0  0  0
  8 41  1  0  0  0  0
  9 14  1  0  0  0  0
  9 10  2  0  0  0  0
 10 11  1  0  0  0  0
 11 12  2  0  0  0  0
 11 42  1  0  0  0  0
 12 13  1  0  0  0  0
 13 17  1  0  0  0  0
 13 14  2  0  0  0  0
 14 15  1  0  0  0  0
 15 16  2  0  0  0  0
 16 17  1  0  0  0  0
 16 43  1  0  0  0  0
 17 18  1  0  0  0  0
 18 19  1  0  0  0  0
 18 44  1  0  0  0  0
 18 45  1  0  0  0  0
 19 20  1  0  0  0  0
 19 22  1  0  0  0  0
 19 46  1  0  0  0  0
 20 21  1  0  0  0  0
 20 47  1  0  0  0  0
 20 48  1  0  0  0  0
 21 49  1  0  0  0  0
 22 26  1  0  0  0  0
 22 23  1  0  0  0  0
 22 50  1  0  0  0  0
 23 24  1  0  0  0  0
 23 51  1  0  0  0  0
 23 52  1  0  0  0  0
 24 25  1  0  0  0  0
 24 53  1  0  0  0  0
 24 54  1  0  0  0  0
 25 26  1  0  0  0  0
 26 55  1  0  0  0  0
 26 56  1  0  0  0  0
 27 28  1  0  0  0  0
 27 29  1  0  0  0  0
 28 57  1  0  0  0  0
 28 58  1  0  0  0  0
 28 59  1  0  0  0  0
 29 60  1  0  0  0  0
 29 61  1  0  0  0  0
M  END
> <s_m_source_file>
AV-unprocessed.smi

> <i_m_source_file_index>
21

> <i_lp_mmshare_version>
43012

> <i_f3d_flags>
0

> <s_epik_input>
W0NIM11PW0NASF0xW0NIMl1bQ0BIXShOKFtDSDNdKVtDSDJdMSlbQ0gyXU4oW0NIM10pYyhuW2NIXW4yKWMoYzIzKW5bY0hdbjNbQ0gyXVtDQEhdKFtDSDJdW09IXSlbQ0BASF00W0NIMl1bQ0gyXU9bQ0gyXTQ=

> <s_epik_cmdline>
J2VwaWtfcHl0aG9uJywgJy1waCcsICc3LjAnLCAnLXRuJywgJzgnLCAnLW1hJywgJzIwMCcsICctbWV0YWxfYmluZGluZycsICctaW1hZScsICc8aW5maWxlLm1hZT4nLCAnLW9tYWUnLCAnPG91dGZpbGUubWFlPic=

> <r_lp_tautomer_probability>
1

> <r_epik_Ionization_Penalty>
2.17574

> <r_epik_Ionization_Penalty_Charging>
0

> <r_epik_Ionization_Penalty_Neutral>
2.17574

> <r_epik_State_Penalty>
2.31336

> <r_epik_Charging_Adjusted_Penalty>
2.31336

> <i_epik_Tot_Q>
0

> <i_epik_Tot_abs_Q>
0

> <r_epik_Metal_State_Penalty>
2.31025

> <b_epik_Metal_Only>
0

> <s_lp_Force_Field>
OPLS_2005

> <r_lp_Energy>
69.2807

> <b_lp_Chiralities_Consistent>
1

> <s_lp_Variant>
AV-unprocessed.smi:21-46

> <Gold.Version>
5.8.1

> <Gold.Id.Protein>
6NUR|6NUR_protein|mol2

> <Gold.PLP.Fitness>
43.5274

> <Gold.PLP.PLP>
-38.5187

> <Gold.PLP.part.hbond>
-1.0000

> <Gold.PLP.part.metal>
0.0000

> <Gold.PLP.part.buried>
-5.2488

> <Gold.PLP.part.nonpolar>
-34.3521

> <Gold.PLP.part.repulsive>
1.5123

> <Gold.PLP.ligand.clash>
0.0000

> <Gold.PLP.ligand.torsion>
1.4108

> <Gold.PLP.Chemscore.Hbond>
0.8564

> <Gold.PLP.Chemscore.CHOScore>
1.5077

> <Gold.PLP.Chemscore.Metal>
0.0000

> <Gold.Chemscore.Hbonds>
donor molecule, donor type, donor heavy atom, donor atom, acceptor molecule, acceptor atom, score
      L1  H    21    49       P1 10957  0.75
      L1  C    16    43       P1 10171  1.00
      L1  C    16    43       P1 10175  0.74

> <Gold.PLP.Chemscore.Internal.Correction>
0.7380

> <Gold.Rescore>
     Score         DG    S(hbond)    S(metal)    S(lipo)     H(rot)  DE(clash)    DE(int)     intcor
      8.26     -11.96       0.92        0.00      94.68       3.00       0.52       3.17       ----

> <Gold.Chemscore.Fitness>
8.2574

> <Gold.Chemscore.DG>
-11.9568

> <Gold.Chemscore.ZeroCoef>
-5.4800

> <Gold.Chemscore.Hbond>
0.9244

> <Gold.Chemscore.Metal>
0.0000

> <Gold.Chemscore.Lipo>
94.6783

> <Gold.Chemscore.Internal_Hbond>
0.0000

> <Gold.Chemscore.DEClash>
0.5245

> <Gold.Chemscore.DEInternal>
3.1750

> <Gold.Chemscore.Rot>
3.0031

> <Gold.Chemscore.Internal.Correction>
   9.000000E+99

> <Gold.Chemscore.Hbonds>
donor molecule, donor type, donor heavy atom, donor atom, acceptor molecule, acceptor atom, score
      L1  H    21    49       P1 10957  0.74

> <Gold.Chemscore.Hbond.Weighted>
-3.0875

> <Gold.Chemscore.Metal.Weighted>
-0.0000

> <Gold.Chemscore.Lipo.Weighted>
-11.0774

> <Gold.Chemscore.Internal_Hbond.Weighted>
0.0000

> <Gold.Chemscore.DEClash.Weighted>
0.5245

> <Gold.Chemscore.DEInternal.Weighted>
3.1750

> <Gold.Chemscore.Rot.Weighted>
7.6880

> <Gold.Chemscore.Internal.Correction.Weighted>
   9.000000E+99

> <Gold.Protein.RotatedTorsions>
[ 6907 6896 6895 6894 ] final -169.38 input  -60.11 | X-H torsion
[ 7974 7965 7964 7962 ] final  -93.27 input  175.53 | X-H torsion
[ 8008 7997 7996 7995 ] final -154.10 input   59.86 | X-H torsion
[ 10167 10162 10161 10158 ] final  -21.31 input  -65.29 | X-H torsion
[ 10718 10713 10712 10709 ] final  168.81 input   66.30 | X-H torsion
[ 10763 10752 10751 10750 ] final  -31.53 input  -60.55 | X-H torsion
[ 11005 11000 10999 10996 ] final  -47.90 input  -57.11 | X-H torsion

> <Gold.Protein.ActiveResidues>
 VAL166  LYS551  ARG553  GLY616  TRP617  ASP618  TYR619  PRO620  LYS621  CYS622 
 ASP623  PHE694  ASN695  SER759  ASP760  ASP761  ALA762  ILE779  LEU786  VAL792 
 PHE793  MET794  SER795  GLU796  ALA797  LYS798  CYS799  TRP800  GLU811  SER814 

> <Gold.Protein.RotatedAtoms>
  151.4908  133.3525  159.2852 H   0  0  0  0  0  0  0  0  0  0  0  0  # atno 6907 bound_to 6896
  150.8836  134.8233  159.7254 H   0  0  0  0  0  0  0  0  0  0  0  0  # atno 6908 bound_to 6896
  152.4778  134.4808  159.9717 H   0  0  0  0  0  0  0  0  0  0  0  0  # atno 6909 bound_to 6896
  145.3888  140.9526  143.2352 H   0  0  0  0  0  0  0  0  0  0  0  0  # atno 7974 bound_to 7965
  155.6811  140.0744  157.2484 H   0  0  0  0  0  0  0  0  0  0  0  0  # atno 8008 bound_to 7997
  154.4105  140.1681  156.2035 H   0  0  0  0  0  0  0  0  0  0  0  0  # atno 8009 bound_to 7997
  155.9534  140.3375  155.6430 H   0  0  0  0  0  0  0  0  0  0  0  0  # atno 8010 bound_to 7997
  140.7281  143.4640  151.0339 H   0  0  0  0  0  0  0  0  0  0  0  0  # atno 10167 bound_to 10162
  157.0317  131.0261  151.2742 H   0  0  0  0  0  0  0  0  0  0  0  0  # atno 10718 bound_to 10713
  153.7989  135.6892  153.4859 H   0  0  0  0  0  0  0  0  0  0  0  0  # atno 10763 bound_to 10752
  153.1701  135.4546  154.9889 H   0  0  0  0  0  0  0  0  0  0  0  0  # atno 10764 bound_to 10752
  154.8014  135.3339  154.7479 H   0  0  0  0  0  0  0  0  0  0  0  0  # atno 10765 bound_to 10752
  141.0669  133.6691  156.3364 H   0  0  0  0  0  0  0  0  0  0  0  0  # atno 11005 bound_to 11000
  144.8455  139.5404  143.6880 LP  0  0  0  0  0  0  0  0  0  0  0  0  # atno 17320 bound_to 7965
  146.2807  139.6871  142.9231 LP  0  0  0  0  0  0  0  0  0  0  0  0  # atno 17321 bound_to 7965
  139.8327  143.7669  152.3180 LP  0  0  0  0  0  0  0  0  0  0  0  0  # atno 17342 bound_to 10162
  139.7790  144.7451  151.0115 LP  0  0  0  0  0  0  0  0  0  0  0  0  # atno 17343 bound_to 10162
  157.5172  130.7975  149.7769 LP  0  0  0  0  0  0  0  0  0  0  0  0  # atno 17370 bound_to 10713
  156.0067  130.3852  150.2405 LP  0  0  0  0  0  0  0  0  0  0  0  0  # atno 17371 bound_to 10713
  140.5755  134.5797  157.5467 LP  0  0  0  0  0  0  0  0  0  0  0  0  # atno 17394 bound_to 11000
  139.9485  134.7660  156.0505 LP  0  0  0  0  0  0  0  0  0  0  0  0  # atno 17395 bound_to 11000

$$$$
