#       Name:                AV-unprocessed.smi:649
#       Creating user name   scv26
#       Creation time:       Fri Mar 27 00:10:41 2020


#       File generated by GOLD software.
#

@<TRIPOS>MOLECULE
AV-unprocessed.smi:649
    41    42     1
SMALL
NO_CHARGES


@<TRIPOS>ATOM
      1 ****        -2.2370  -2.8193  -0.6426 C.3            1 S1                 0.0000
      2 ****        -1.8959  -1.3438  -0.6397 C.ar           1 S1                 0.0000
      3 ****        -2.8369  -0.3958  -0.1993 C.ar           1 S1                 0.0000
      4 ****        -2.5021   0.9699  -0.1852 C.ar           1 S1                 0.0000
      5 ****        -1.2269   1.4077  -0.6043 C.ar           1 S1                 0.0000
      6 ****        -0.9341   2.8983  -0.5448 C.3            1 S1                 0.0000
      7 ****        -0.2714   0.4534  -1.0555 C.ar           1 S1                 0.0000
      8 ****         1.1508   0.8179  -1.4976 C.3            1 S1                 0.0000
      9 ****         1.2036   1.9039  -2.3996 O.3            1 S1                 0.0000
     10 ****         2.1323   1.0665  -0.3263 C.3            1 S1                 0.0000
     11 ****         2.0435   0.0340   0.7185 N.am           1 S1                 0.0000
     12 ****         1.2797   0.3213   1.8634 C.2            1 S1                 0.0000
     13 ****         1.1073  -0.5771   2.8517 C.2            1 S1                 0.0000
     14 ****         0.1483  -0.2014   4.2386 Cl             1 S1                 0.0000
     15 ****         1.7492  -1.8825   2.7115 C.2            1 S1                 0.0000
     16 ****         1.6133  -2.7264   3.5963 O.2            1 S1                 0.0000
     17 ****         2.4842  -2.1100   1.5835 N.pl3          1 S1                -1.0000
     18 ****         2.6417  -1.1865   0.5857 C.2            1 S1                 0.0000
     19 ****         3.2971  -1.4196  -0.4301 O.2            1 S1                 0.0000
     20 ****        -0.6253  -0.9152  -1.0671 C.ar           1 S1                 0.0000
     21 ****        -3.3159  -2.9745  -0.6186 H              1 S1                 0.0000
     22 ****        -1.7997  -3.3062   0.2294 H              1 S1                 0.0000
     23 ****        -1.8452  -3.3022  -1.5382 H              1 S1                 0.0000
     24 ****        -3.8149  -0.7111   0.1334 H              1 S1                 0.0000
     25 ****        -3.2351   1.6846   0.1588 H              1 S1                 0.0000
     26 ****        -0.8833   3.3192  -1.5487 H              1 S1                 0.0000
     27 ****         0.0034   3.1000  -0.0310 H              1 S1                 0.0000
     28 ****        -1.7168   3.4317  -0.0049 H              1 S1                 0.0000
     29 ****         1.5363  -0.0292  -2.0661 H              1 S1                 0.0000
     30 ****         0.7246   1.6655  -3.1783 H              1 S1                 0.0000
     31 ****         3.1537   1.1332  -0.7051 H              1 S1                 0.0000
     32 ****         1.9454   2.0421   0.1204 H              1 S1                 0.0000
     33 ****         0.8321   1.3042   1.8811 H              1 S1                 0.0000
     34 ****         0.0950  -1.6528  -1.3909 H              1 S1                 0.0000
     35 ****         2.1550   2.1021  -2.6350 LP             1 S1                 0.0000
     36 ****         0.7885   2.7117  -1.9811 LP             1 S1                 0.0000
     37 ****         1.0657  -2.5176   4.4066 LP             1 S1                 0.0000
     38 ****         2.0504  -3.6212   3.5053 LP             1 S1                 0.0000
     39 ****         2.9312  -2.9986   1.4810 LP             1 S1                 0.0000
     40 ****         3.3842  -0.7209  -1.1402 LP             1 S1                 0.0000
     41 ****         3.7423  -2.3076  -0.5450 LP             1 S1                 0.0000
@<TRIPOS>BOND
    1    1    2 1     
    2    1   21 1     
    3    1   22 1     
    4    1   23 1     
    5    2   20 ar    
    6    2    3 ar    
    7    3    4 ar    
    8    3   24 1     
    9    4    5 ar    
   10    4   25 1     
   11    5    6 1     
   12    5    7 ar    
   13    6   26 1     
   14    6   27 1     
   15    6   28 1     
   16    7    8 1     
   17    7   20 ar    
   18    8    9 1     
   19    8   10 1     
   20    8   29 1     
   21    9   30 1     
   22   10   11 1     
   23   10   31 1     
   24   10   32 1     
   25   11   18 am    
   26   11   12 1     
   27   12   13 2     
   28   12   33 1     
   29   13   14 1     
   30   13   15 1     
   31   15   16 2     
   32   15   17 1     
   33   17   18 1     
   34   18   19 2     
   35   20   34 1     
   36    9   35 1     
   37    9   36 1     
   38   16   37 1     
   39   16   38 1     
   40   17   39 1     
   41   19   40 1     
   42   19   41 1     
@<TRIPOS>SUBSTRUCTURE
      1 S1             1
@<TRIPOS>SET
LONE_PAIRS      STATIC     ATOMS    <user>   **** ""
7 35 36 37 38 39 40 41
DONOR_HYDROGENS      STATIC     ATOMS    <user>   **** ""
1 30
ATOM$BLUE        STATIC     ATOMS    COLORGROUP SYSTEM
7 35 36 37 38 39 40 41
ATOM$RED        STATIC     ATOMS    COLORGROUP SYSTEM
1 30
