AV-unprocessed.smi:2669|AV-procd|sdf|10344|dock7
  -GOLD-   2272014363D 1   1.00000     0.00000
 Structure written by MMmdl.
 39 41  0  0  0  0  0  0  0  0  1 V2000
  147.2088  136.7609  155.2125 C   0  0  0  0  0  0  0  0  0  0  0  0
  147.7988  137.3480  154.0201 N   0  0  0  0  0  0  0  0  0  0  0  0
  148.1255  138.7110  153.9829 C   0  0  0  0  0  0  0  0  0  0  0  0
  147.4171  139.5549  153.1969 N   0  0  0  0  0  0  0  0  0  0  0  0
  147.7643  140.8486  153.1942 C   0  0  0  0  0  0  0  0  0  0  0  0
  148.7425  141.4633  153.8771 N   0  0  0  0  0  0  0  0  0  0  0  0
  149.4500  140.6360  154.6586 C   0  0  0  0  0  0  0  0  0  0  0  0
  150.5119  140.9953  155.4708 N   0  0  0  0  0  0  0  0  0  0  0  0
  150.8443  139.8268  156.0136 C   0  0  0  0  0  0  0  0  0  0  0  0
  150.1250  138.7456  155.6526 N   0  0  0  0  0  0  0  0  0  0  0  0
  150.3147  137.3822  156.1183 C   0  0  0  0  0  0  0  0  0  0  0  0
  150.4834  136.3786  154.9601 C   0  0  1  0  0  0  0  0  0  0  0  0
  151.7719  136.5370  154.3973 O   0  0  0  0  0  0  0  0  0  0  0  0
  150.3295  134.9246  155.4340 C   0  0  0  0  0  0  0  0  0  0  0  0
  149.3697  134.2732  154.6128 O   0  0  0  0  0  0  0  0  0  0  0  0
  149.3663  132.8953  154.5772 C   0  0  0  0  0  0  0  0  0  0  0  0
  148.5664  132.2838  153.5897 C   0  0  0  0  0  0  0  0  0  0  0  0
  148.5005  130.8814  153.4812 C   0  0  0  0  0  0  0  0  0  0  0  0
  149.2393  130.0723  154.3642 C   0  0  0  0  0  0  0  0  0  0  0  0
  149.1604  128.3536  154.2336 Cl  0  0  0  0  0  0  0  0  0  0  0  0
  150.0426  130.6689  155.3539 C   0  0  0  0  0  0  0  0  0  0  0  0
  150.1078  132.0719  155.4623 C   0  0  0  0  0  0  0  0  0  0  0  0
  149.1827  139.2369  154.7518 C   0  0  0  0  0  0  0  0  0  0  0  0
  147.0024  135.7039  155.0438 H   0  0  0  0  0  0  0  0  0  0  0  0
  146.2701  137.2556  155.4638 H   0  0  0  0  0  0  0  0  0  0  0  0
  147.8881  136.8449  156.0613 H   0  0  0  0  0  0  0  0  0  0  0  0
  147.9322  136.7722  153.2016 H   0  0  0  0  0  0  0  0  0  0  0  0
  147.1741  141.4863  152.5530 H   0  0  0  0  0  0  0  0  0  0  0  0
  151.6629  139.7512  156.7144 H   0  0  0  0  0  0  0  0  0  0  0  0
  151.1866  137.3552  156.7737 H   0  0  0  0  0  0  0  0  0  0  0  0
  149.4588  137.1115  156.7371 H   0  0  0  0  0  0  0  0  0  0  0  0
  149.7383  136.5923  154.1929 H   0  0  0  0  0  0  0  0  0  0  0  0
  151.6993  136.4812  153.4570 H   0  0  0  0  0  0  0  0  0  0  0  0
  151.2912  134.4086  155.4209 H   0  0  0  0  0  0  0  0  0  0  0  0
  149.9613  134.9177  156.4613 H   0  0  0  0  0  0  0  0  0  0  0  0
  147.9955  132.8968  152.9076 H   0  0  0  0  0  0  0  0  0  0  0  0
  147.8821  130.4287  152.7201 H   0  0  0  0  0  0  0  0  0  0  0  0
  150.6108  130.0511  156.0338 H   0  0  0  0  0  0  0  0  0  0  0  0
  150.7343  132.4913  156.2347 H   0  0  0  0  0  0  0  0  0  0  0  0
  1  2  1  0  0  0  0
  1 24  1  0  0  0  0
  1 25  1  0  0  0  0
  1 26  1  0  0  0  0
  2  3  1  0  0  0  0
  2 27  1  0  0  0  0
  3 23  1  0  0  0  0
  3  4  2  0  0  0  0
  4  5  1  0  0  0  0
  5  6  2  0  0  0  0
  5 28  1  0  0  0  0
  6  7  1  0  0  0  0
  7 23  2  0  0  0  0
  7  8  1  0  0  0  0
  8  9  2  0  0  0  0
  9 10  1  0  0  0  0
  9 29  1  0  0  0  0
 10 11  1  0  0  0  0
 10 23  1  0  0  0  0
 11 12  1  0  0  0  0
 11 30  1  0  0  0  0
 11 31  1  0  0  0  0
 12 13  1  0  0  0  0
 12 14  1  0  0  0  0
 12 32  1  0  0  0  0
 13 33  1  0  0  0  0
 14 15  1  0  0  0  0
 14 34  1  0  0  0  0
 14 35  1  0  0  0  0
 15 16  1  0  0  0  0
 16 22  1  0  0  0  0
 16 17  2  0  0  0  0
 17 18  1  0  0  0  0
 17 36  1  0  0  0  0
 18 19  2  0  0  0  0
 18 37  1  0  0  0  0
 19 20  1  0  0  0  0
 19 21  1  0  0  0  0
 21 22  2  0  0  0  0
 21 38  1  0  0  0  0
 22 39  1  0  0  0  0
M  END
> <s_m_source_file>
AV-unprocessed.smi

> <i_m_source_file_index>
2669

> <i_lp_mmshare_version>
43012

> <i_f3d_flags>
0

> <s_epik_input>
bjFbY0hdbmMoW05IXVtDSDNdKWMoYzEyKW4oW2NIXW4yKVtDSDJdW0NASF0oW09IXSlbQ0gyXU9jM1tjSF1bY0hdYyhDbClbY0hdW2NIXTM=

> <s_epik_cmdline>
J2VwaWtfcHl0aG9uJywgJy1waCcsICc3LjAnLCAnLXRuJywgJzgnLCAnLW1hJywgJzIwMCcsICctbWV0YWxfYmluZGluZycsICctaW1hZScsICc8aW5maWxlLm1hZT4nLCAnLW9tYWUnLCAnPG91dGZpbGUubWFlPic=

> <r_lp_tautomer_probability>
1

> <r_epik_Ionization_Penalty>
0.00733592

> <r_epik_Ionization_Penalty_Charging>
0

> <r_epik_Ionization_Penalty_Neutral>
0.00733592

> <r_epik_State_Penalty>
-0

> <r_epik_Charging_Adjusted_Penalty>
0

> <i_epik_Tot_Q>
0

> <i_epik_Tot_abs_Q>
0

> <r_epik_Metal_State_Penalty>
-0

> <b_epik_Metal_Only>
0

> <s_lp_Force_Field>
OPLS_2005

> <r_lp_Energy>
13.4458

> <b_lp_Chiralities_Consistent>
1

> <s_lp_Variant>
AV-unprocessed.smi:2669-2

> <Gold.Version>
5.8.1

> <Gold.Id.Protein>
6NUR|6NUR_protein|mol2

> <Gold.PLP.Fitness>
46.1652

> <Gold.PLP.PLP>
-38.4124

> <Gold.PLP.part.hbond>
-5.0000

> <Gold.PLP.part.metal>
0.0000

> <Gold.PLP.part.buried>
-1.8254

> <Gold.PLP.part.nonpolar>
-30.5607

> <Gold.PLP.part.repulsive>
0.7459

> <Gold.PLP.ligand.clash>
0.0000

> <Gold.PLP.ligand.torsion>
1.7056

> <Gold.PLP.Chemscore.Hbond>
3.6761

> <Gold.PLP.Chemscore.CHOScore>
0.0000

> <Gold.PLP.Chemscore.Metal>
0.0000

> <Gold.Chemscore.Hbonds>
donor molecule, donor type, donor heavy atom, donor atom, acceptor molecule, acceptor atom, score
      L1  H     2    27       P1  7948  0.99
      L1  H    13    33       P1  7949  0.84
      P1  H  7989  7998       L1     8  0.03
      P1  H  8011  8017       L1     6  0.59
      P1  H 10752 10765       L1    13  0.46

> <Gold.PLP.Chemscore.Internal.Correction>
0.1358

> <Gold.Rescore>
     Score         DG    S(hbond)    S(metal)    S(lipo)     H(rot)  DE(clash)    DE(int)     intcor
      8.91     -11.86       2.10        0.00      59.65       2.97       0.30       2.65       ----

> <Gold.Chemscore.Fitness>
8.9130

> <Gold.Chemscore.DG>
-11.8608

> <Gold.Chemscore.ZeroCoef>
-5.4800

> <Gold.Chemscore.Hbond>
2.1008

> <Gold.Chemscore.Metal>
0.0000

> <Gold.Chemscore.Lipo>
59.6513

> <Gold.Chemscore.Internal_Hbond>
0.0000

> <Gold.Chemscore.DEClash>
0.2956

> <Gold.Chemscore.DEInternal>
2.6523

> <Gold.Chemscore.Rot>
2.9746

> <Gold.Chemscore.Internal.Correction>
   9.000000E+99

> <Gold.Chemscore.Hbonds>
donor molecule, donor type, donor heavy atom, donor atom, acceptor molecule, acceptor atom, score
      L1  H     2    27       P1  7948  0.94
      L1  H    13    33       P1  7949  0.80
      P1  H  8011  8017       L1     6  0.17
      P1  H 10752 10765       L1    13  0.03

> <Gold.Chemscore.Hbond.Weighted>
-7.0166

> <Gold.Chemscore.Metal.Weighted>
-0.0000

> <Gold.Chemscore.Lipo.Weighted>
-6.9792

> <Gold.Chemscore.Internal_Hbond.Weighted>
0.0000

> <Gold.Chemscore.DEClash.Weighted>
0.2956

> <Gold.Chemscore.DEInternal.Weighted>
2.6523

> <Gold.Chemscore.Rot.Weighted>
7.6150

> <Gold.Chemscore.Internal.Correction.Weighted>
   9.000000E+99

> <Gold.Protein.RotatedTorsions>
[ 6907 6896 6895 6894 ] final  179.82 input  -60.11 | X-H torsion
[ 7974 7965 7964 7962 ] final  -40.91 input  175.53 | X-H torsion
[ 8008 7997 7996 7995 ] final  109.87 input   59.86 | X-H torsion
[ 10167 10162 10161 10158 ] final    1.04 input  -65.29 | X-H torsion
[ 10718 10713 10712 10709 ] final   17.69 input   66.30 | X-H torsion
[ 10763 10752 10751 10750 ] final  168.03 input  -60.55 | X-H torsion
[ 11005 11000 10999 10996 ] final  -87.43 input  -57.11 | X-H torsion

> <Gold.Protein.ActiveResidues>
 VAL166  LYS551  ARG553  GLY616  TRP617  ASP618  TYR619  PRO620  LYS621  CYS622 
 ASP623  PHE694  ASN695  SER759  ASP760  ASP761  ALA762  ILE779  LEU786  VAL792 
 PHE793  MET794  SER795  GLU796  ALA797  LYS798  CYS799  TRP800  GLU811  SER814 

> <Gold.Protein.RotatedAtoms>
  151.6655  133.3315  159.3183 H   0  0  0  0  0  0  0  0  0  0  0  0  # atno 6907 bound_to 6896
  150.7893  134.6907  159.6505 H   0  0  0  0  0  0  0  0  0  0  0  0  # atno 6908 bound_to 6896
  152.3969  134.6354  160.0137 H   0  0  0  0  0  0  0  0  0  0  0  0  # atno 6909 bound_to 6896
  146.0260  140.6791  142.9155 H   0  0  0  0  0  0  0  0  0  0  0  0  # atno 7974 bound_to 7965
  156.2011  140.3049  155.9529 H   0  0  0  0  0  0  0  0  0  0  0  0  # atno 8008 bound_to 7997
  155.2951  140.0444  157.3043 H   0  0  0  0  0  0  0  0  0  0  0  0  # atno 8009 bound_to 7997
  154.5572  140.2309  155.8400 H   0  0  0  0  0  0  0  0  0  0  0  0  # atno 8010 bound_to 7997
  140.6701  143.7071  150.7906 H   0  0  0  0  0  0  0  0  0  0  0  0  # atno 10167 bound_to 10162
  157.0858  130.6407  149.5837 H   0  0  0  0  0  0  0  0  0  0  0  0  # atno 10718 bound_to 10713
  154.3625  135.2753  155.2312 H   0  0  0  0  0  0  0  0  0  0  0  0  # atno 10763 bound_to 10752
  154.4494  135.5935  153.6185 H   0  0  0  0  0  0  0  0  0  0  0  0  # atno 10764 bound_to 10752
  152.9842  135.6038  154.3847 H   0  0  0  0  0  0  0  0  0  0  0  0  # atno 10765 bound_to 10752
  141.1617  133.7511  156.9306 H   0  0  0  0  0  0  0  0  0  0  0  0  # atno 11005 bound_to 11000
  144.7010  140.3651  143.7156 LP  0  0  0  0  0  0  0  0  0  0  0  0  # atno 17320 bound_to 7965
  145.7117  139.1686  143.2535 LP  0  0  0  0  0  0  0  0  0  0  0  0  # atno 17321 bound_to 7965
  140.0755  143.5019  152.2557 LP  0  0  0  0  0  0  0  0  0  0  0  0  # atno 17342 bound_to 10162
  139.5966  144.7569  151.3272 LP  0  0  0  0  0  0  0  0  0  0  0  0  # atno 17343 bound_to 10162
  155.9911  130.4965  150.7286 LP  0  0  0  0  0  0  0  0  0  0  0  0  # atno 17370 bound_to 10713
  157.4763  131.0898  151.0587 LP  0  0  0  0  0  0  0  0  0  0  0  0  # atno 17371 bound_to 10713
  140.1389  134.9307  157.2439 LP  0  0  0  0  0  0  0  0  0  0  0  0  # atno 17394 bound_to 11000
  140.2861  134.3294  155.7328 LP  0  0  0  0  0  0  0  0  0  0  0  0  # atno 17395 bound_to 11000

$$$$
