AV-unprocessed.smi:667|AV-procd|sdf|3258|dock7
  -GOLD-   22720 0213D 1   1.00000     0.00000
 Structure written by MMmdl.
 48 49  0  0  0  0  0  0  0  0  1 V2000
  151.0912  145.6424  160.0607 C   0  0  0  0  0  0  0  0  0  0  0  0
  151.8633  144.4192  160.4664 C   0  0  0  0  0  0  0  0  0  0  0  0
  152.2105  144.2585  161.7325 N   0  0  0  0  0  0  0  0  0  0  0  0
  152.8722  143.0842  161.7617 N   0  0  0  0  0  0  0  0  0  0  0  0
  153.3991  142.5954  163.0211 C   0  0  0  0  0  0  0  0  0  0  0  0
  152.9412  142.5005  160.5117 C   0  0  0  0  0  0  0  0  0  0  0  0
  153.6188  141.1886  160.2796 C   0  0  0  0  0  0  0  0  0  0  0  0
  152.2972  143.3395  159.6422 C   0  0  0  0  0  0  0  0  0  0  0  0
  152.0815  143.1768  158.1564 C   0  0  0  0  0  0  0  0  0  0  0  0
  151.1265  142.0176  157.8507 C   0  0  0  0  0  0  0  0  0  0  0  0
  151.3163  140.9186  158.3707 O   0  0  0  0  0  0  0  0  0  0  0  0
  150.1294  142.2563  156.9833 N   0  0  0  0  0  0  0  0  0  0  0  0
  149.1816  141.2636  156.4924 C   0  0  0  0  0  0  0  0  0  0  0  0
  149.6494  140.6322  155.1646 C   0  0  1  0  0  0  0  0  0  0  0  0
  150.9580  139.8583  155.3090 C   0  0  0  0  0  0  0  0  0  0  0  0
  150.5664  138.4063  155.0596 C   0  0  0  0  0  0  0  0  0  0  0  0
  149.4905  138.5151  154.1460 O   0  0  0  0  0  0  0  0  0  0  0  0
  148.6672  139.5819  154.5974 C   0  0  2  0  0  0  0  0  0  0  0  0
  147.7261  140.0656  153.4693 C   0  0  0  0  0  0  0  0  0  0  0  0
  147.0028  141.3588  153.8761 C   0  0  0  0  0  0  0  0  0  0  0  0
  146.7121  138.9977  153.0193 C   0  0  0  0  0  0  0  0  0  0  0  0
  150.2078  145.3710  159.4828 H   0  0  0  0  0  0  0  0  0  0  0  0
  151.7018  146.3003  159.4425 H   0  0  0  0  0  0  0  0  0  0  0  0
  150.7549  146.2157  160.9251 H   0  0  0  0  0  0  0  0  0  0  0  0
  154.4584  142.3632  162.9116 H   0  0  0  0  0  0  0  0  0  0  0  0
  152.8644  141.6920  163.3150 H   0  0  0  0  0  0  0  0  0  0  0  0
  153.2834  143.3461  163.8041 H   0  0  0  0  0  0  0  0  0  0  0  0
  153.4928  140.8560  159.2493 H   0  0  0  0  0  0  0  0  0  0  0  0
  153.2059  140.4174  160.9303 H   0  0  0  0  0  0  0  0  0  0  0  0
  154.6878  141.2649  160.4788 H   0  0  0  0  0  0  0  0  0  0  0  0
  151.6643  144.0826  157.7157 H   0  0  0  0  0  0  0  0  0  0  0  0
  153.0269  143.0027  157.6413 H   0  0  0  0  0  0  0  0  0  0  0  0
  150.0431  143.1912  156.6112 H   0  0  0  0  0  0  0  0  0  0  0  0
  149.0269  140.4911  157.2476 H   0  0  0  0  0  0  0  0  0  0  0  0
  148.2177  141.7549  156.3555 H   0  0  0  0  0  0  0  0  0  0  0  0
  149.8172  141.4328  154.4451 H   0  0  0  0  0  0  0  0  0  0  0  0
  151.6605  140.1843  154.5407 H   0  0  0  0  0  0  0  0  0  0  0  0
  151.4431  139.9933  156.2764 H   0  0  0  0  0  0  0  0  0  0  0  0
  151.3847  137.8122  154.6521 H   0  0  0  0  0  0  0  0  0  0  0  0
  150.2195  137.9319  155.9792 H   0  0  0  0  0  0  0  0  0  0  0  0
  148.0650  139.1898  155.4195 H   0  0  0  0  0  0  0  0  0  0  0  0
  148.3422  140.3124  152.6048 H   0  0  0  0  0  0  0  0  0  0  0  0
  146.3537  141.1954  154.7369 H   0  0  0  0  0  0  0  0  0  0  0  0
  146.3860  141.7380  153.0610 H   0  0  0  0  0  0  0  0  0  0  0  0
  147.7132  142.1429  154.1397 H   0  0  0  0  0  0  0  0  0  0  0  0
  146.0589  138.6972  153.8391 H   0  0  0  0  0  0  0  0  0  0  0  0
  147.2009  138.1018  152.6387 H   0  0  0  0  0  0  0  0  0  0  0  0
  146.0779  139.3786  152.2184 H   0  0  0  0  0  0  0  0  0  0  0  0
  1  2  1  0  0  0  0
  1 22  1  0  0  0  0
  1 23  1  0  0  0  0
  1 24  1  0  0  0  0
  2  8  1  0  0  0  0
  2  3  2  0  0  0  0
  3  4  1  0  0  0  0
  4  5  1  0  0  0  0
  4  6  1  0  0  0  0
  5 25  1  0  0  0  0
  5 26  1  0  0  0  0
  5 27  1  0  0  0  0
  6  7  1  0  0  0  0
  6  8  2  0  0  0  0
  7 28  1  0  0  0  0
  7 29  1  0  0  0  0
  7 30  1  0  0  0  0
  8  9  1  0  0  0  0
  9 10  1  0  0  0  0
  9 31  1  0  0  0  0
  9 32  1  0  0  0  0
 10 11  2  0  0  0  0
 10 12  1  0  0  0  0
 12 13  1  0  0  0  0
 12 33  1  0  0  0  0
 13 14  1  0  0  0  0
 13 34  1  0  0  0  0
 13 35  1  0  0  0  0
 14 18  1  0  0  0  0
 14 15  1  0  0  0  0
 14 36  1  0  0  0  0
 15 16  1  0  0  0  0
 15 37  1  0  0  0  0
 15 38  1  0  0  0  0
 16 17  1  0  0  0  0
 16 39  1  0  0  0  0
 16 40  1  0  0  0  0
 17 18  1  0  0  0  0
 18 19  1  0  0  0  0
 18 41  1  0  0  0  0
 19 20  1  0  0  0  0
 19 21  1  0  0  0  0
 19 42  1  0  0  0  0
 20 43  1  0  0  0  0
 20 44  1  0  0  0  0
 20 45  1  0  0  0  0
 21 46  1  0  0  0  0
 21 47  1  0  0  0  0
 21 48  1  0  0  0  0
M  END
> <s_m_source_file>
AV-unprocessed.smi

> <i_m_source_file_index>
667

> <i_lp_mmshare_version>
43012

> <i_f3d_flags>
0

> <s_epik_input>
W0NIM11jMW5uKFtDSDNdKWMoW0NIM10pYzFbQ0gyXUMoPU8pW05IXVtDSDJdW0NAQEhdMltDSDJdW0NIMl1PW0NASF0yW0NIXShbQ0gzXSlbQ0gzXQ==

> <s_epik_cmdline>
J2VwaWtfcHl0aG9uJywgJy1waCcsICc3LjAnLCAnLXRuJywgJzgnLCAnLW1hJywgJzIwMCcsICctbWV0YWxfYmluZGluZycsICctaW1hZScsICc8aW5maWxlLm1hZT4nLCAnLW9tYWUnLCAnPG91dGZpbGUubWFlPic=

> <r_lp_tautomer_probability>
1

> <r_epik_Ionization_Penalty>
0.00315488

> <r_epik_Ionization_Penalty_Charging>
0

> <r_epik_Ionization_Penalty_Neutral>
0.00315488

> <r_epik_State_Penalty>
0.00222269

> <r_epik_Charging_Adjusted_Penalty>
0.00222269

> <i_epik_Tot_Q>
0

> <i_epik_Tot_abs_Q>
0

> <r_epik_Metal_State_Penalty>
-0

> <b_epik_Metal_Only>
0

> <s_lp_Force_Field>
OPLS_2005

> <r_lp_Energy>
15.0171

> <b_lp_Chiralities_Consistent>
1

> <s_lp_Variant>
AV-unprocessed.smi:667-4

> <Gold.Version>
5.8.1

> <Gold.Id.Protein>
6NUR|6NUR_protein|mol2

> <Gold.PLP.Fitness>
52.1822

> <Gold.PLP.PLP>
-50.3112

> <Gold.PLP.part.hbond>
-1.0000

> <Gold.PLP.part.metal>
0.0000

> <Gold.PLP.part.buried>
-2.1432

> <Gold.PLP.part.nonpolar>
-48.7509

> <Gold.PLP.part.repulsive>
0.9987

> <Gold.PLP.ligand.clash>
0.0000

> <Gold.PLP.ligand.torsion>
0.4141

> <Gold.PLP.Chemscore.Hbond>
0.8897

> <Gold.PLP.Chemscore.CHOScore>
0.0000

> <Gold.PLP.Chemscore.Metal>
0.0000

> <Gold.Chemscore.Hbonds>
donor molecule, donor type, donor heavy atom, donor atom, acceptor molecule, acceptor atom, score
      L1  H    12    33       P1  8028  0.73

> <Gold.PLP.Chemscore.Internal.Correction>
0.0301

> <Gold.Rescore>
     Score         DG    S(hbond)    S(metal)    S(lipo)     H(rot)  DE(clash)    DE(int)     intcor
     18.68     -19.42       0.82        0.00     128.94       1.52       0.20       0.54       ----

> <Gold.Chemscore.Fitness>
18.6834

> <Gold.Chemscore.DG>
-19.4204

> <Gold.Chemscore.ZeroCoef>
-5.4800

> <Gold.Chemscore.Hbond>
0.8231

> <Gold.Chemscore.Metal>
0.0000

> <Gold.Chemscore.Lipo>
128.9370

> <Gold.Chemscore.Internal_Hbond>
0.0000

> <Gold.Chemscore.DEClash>
0.1997

> <Gold.Chemscore.DEInternal>
0.5372

> <Gold.Chemscore.Rot>
1.5213

> <Gold.Chemscore.Internal.Correction>
   9.000000E+99

> <Gold.Chemscore.Hbonds>
donor molecule, donor type, donor heavy atom, donor atom, acceptor molecule, acceptor atom, score
      L1  H    12    33       P1  8028  0.69

> <Gold.Chemscore.Hbond.Weighted>
-2.7493

> <Gold.Chemscore.Metal.Weighted>
-0.0000

> <Gold.Chemscore.Lipo.Weighted>
-15.0856

> <Gold.Chemscore.Internal_Hbond.Weighted>
0.0000

> <Gold.Chemscore.DEClash.Weighted>
0.1997

> <Gold.Chemscore.DEInternal.Weighted>
0.5372

> <Gold.Chemscore.Rot.Weighted>
3.8945

> <Gold.Chemscore.Internal.Correction.Weighted>
   9.000000E+99

> <Gold.Protein.RotatedTorsions>
[ 6907 6896 6895 6894 ] final   76.33 input  -60.11 | X-H torsion
[ 7974 7965 7964 7962 ] final  159.51 input  175.53 | X-H torsion
[ 8008 7997 7996 7995 ] final  -75.35 input   59.86 | X-H torsion
[ 10167 10162 10161 10158 ] final  159.36 input  -65.29 | X-H torsion
[ 10718 10713 10712 10709 ] final  -87.67 input   66.30 | X-H torsion
[ 10763 10752 10751 10750 ] final  -91.18 input  -60.55 | X-H torsion
[ 11005 11000 10999 10996 ] final   35.73 input  -57.11 | X-H torsion

> <Gold.Protein.ActiveResidues>
 VAL166  LYS551  ARG553  GLY616  TRP617  ASP618  TYR619  PRO620  LYS621  CYS622 
 ASP623  PHE694  ASN695  SER759  ASP760  ASP761  ALA762  ILE779  LEU786  VAL792 
 PHE793  MET794  SER795  GLU796  ALA797  LYS798  CYS799  TRP800  GLU811  SER814 

> <Gold.Protein.RotatedAtoms>
  152.5068  134.3985  159.9408 H   0  0  0  0  0  0  0  0  0  0  0  0  # atno 6907 bound_to 6896
  151.3948  133.3771  159.2733 H   0  0  0  0  0  0  0  0  0  0  0  0  # atno 6908 bound_to 6896
  150.9406  134.8836  159.7668 H   0  0  0  0  0  0  0  0  0  0  0  0  # atno 6909 bound_to 6896
  144.7786  139.7627  143.6268 H   0  0  0  0  0  0  0  0  0  0  0  0  # atno 7974 bound_to 7965
  154.5409  140.0745  156.8508 H   0  0  0  0  0  0  0  0  0  0  0  0  # atno 8008 bound_to 7997
  155.3183  140.3394  155.4224 H   0  0  0  0  0  0  0  0  0  0  0  0  # atno 8009 bound_to 7997
  156.1873  140.1673  156.8146 H   0  0  0  0  0  0  0  0  0  0  0  0  # atno 8010 bound_to 7997
  139.4832  144.4737  151.8540 H   0  0  0  0  0  0  0  0  0  0  0  0  # atno 10167 bound_to 10162
  155.9985  130.4808  150.4902 H   0  0  0  0  0  0  0  0  0  0  0  0  # atno 10718 bound_to 10713
  154.6734  135.5277  153.8167 H   0  0  0  0  0  0  0  0  0  0  0  0  # atno 10763 bound_to 10752
  153.0516  135.6534  154.0689 H   0  0  0  0  0  0  0  0  0  0  0  0  # atno 10764 bound_to 10752
  154.0586  135.2963  155.3308 H   0  0  0  0  0  0  0  0  0  0  0  0  # atno 10765 bound_to 10752
  140.2397  134.3429  155.7930 H   0  0  0  0  0  0  0  0  0  0  0  0  # atno 11005 bound_to 11000
  146.1981  139.5260  142.9761 LP  0  0  0  0  0  0  0  0  0  0  0  0  # atno 17320 bound_to 7965
  145.6114  141.0339  143.1965 LP  0  0  0  0  0  0  0  0  0  0  0  0  # atno 17321 bound_to 7965
  140.4208  144.2245  150.5887 LP  0  0  0  0  0  0  0  0  0  0  0  0  # atno 17342 bound_to 10162
  140.4875  143.2358  151.8866 LP  0  0  0  0  0  0  0  0  0  0  0  0  # atno 17343 bound_to 10162
  157.2898  131.0624  151.2141 LP  0  0  0  0  0  0  0  0  0  0  0  0  # atno 17370 bound_to 10713
  157.3158  130.6912  149.6241 LP  0  0  0  0  0  0  0  0  0  0  0  0  # atno 17371 bound_to 10713
  141.2211  133.7292  156.8866 LP  0  0  0  0  0  0  0  0  0  0  0  0  # atno 17394 bound_to 11000
  140.1665  134.9129  157.2781 LP  0  0  0  0  0  0  0  0  0  0  0  0  # atno 17395 bound_to 11000

$$$$
