#       Name:                AV-unprocessed.smi:852
#       Creating user name   scv26
#       Creation time:       Fri Mar 27 01:42:17 2020


#       File generated by GOLD software.
#

@<TRIPOS>MOLECULE
AV-unprocessed.smi:852
    36    37     1
SMALL
NO_CHARGES


@<TRIPOS>ATOM
      1 ****        -1.9012  -1.3561  -1.9678 C.3            1 S1                 0.0000
      2 ****        -1.4149  -0.5077  -0.7764 C.3            1 S1                 0.0000
      3 ****        -1.9727   0.8562  -0.8929 C.1            1 S1                 0.0000
      4 ****        -2.4094   1.9244  -0.9848 N.1            1 S1                 0.0000
      5 ****         0.0486  -0.4674  -0.7778 N.am           1 S1                 0.0000
      6 ****         0.8501   0.1716  -1.6484 C.2            1 S1                 0.0000
      7 ****         0.4358   0.7946  -2.6246 O.2            1 S1                 0.0000
      8 ****         2.3556   0.0900  -1.3816 C.3            1 S1                 0.0000
      9 ****         2.6950   0.5844  -0.0583 N.pl3          1 S1                 0.0000
     10 ****         2.9169  -0.0742   1.0841 C.2            1 S1                 0.0000
     11 ****         3.1889   0.7130   2.1171 N.2            1 S1                 0.0000
     12 ****         3.1146   1.9215   1.4873 C.2            1 S1                 0.0000
     13 ****         3.3376   3.1657   2.2037 C.1            1 S1                 0.0000
     14 ****         3.5152   4.1565   2.7746 N.1            1 S1                 0.0000
     15 ****         2.8249   1.9110   0.1879 N.2            1 S1                 0.0000
     16 ****        -1.9141  -1.1531   0.5146 C.3            1 S1                 0.0000
     17 ****        -3.3112  -0.9312   1.0508 C.3            1 S1                 0.0000
     18 ****        -2.1172  -0.3709   1.7928 C.3            1 S1                 0.0000
     19 ****        -2.9874  -1.4531  -1.9608 H              1 S1                 0.0000
     20 ****        -1.4813  -2.3623  -1.9381 H              1 S1                 0.0000
     21 ****        -1.6262  -0.9108  -2.9242 H              1 S1                 0.0000
     22 ****         0.4986  -0.9533  -0.0158 H              1 S1                 0.0000
     23 ****         2.6860  -0.9456  -1.4695 H              1 S1                 0.0000
     24 ****         2.9036   0.6679  -2.1277 H              1 S1                 0.0000
     25 ****         2.8718  -1.1506   1.1624 H              1 S1                 0.0000
     26 ****        -1.5286  -2.1620   0.6530 H              1 S1                 0.0000
     27 ****        -3.9582  -0.2252   0.5341 H              1 S1                 0.0000
     28 ****        -3.8196  -1.7861   1.4919 H              1 S1                 0.0000
     29 ****        -1.8321  -0.8553   2.7243 H              1 S1                 0.0000
     30 ****        -1.9697   0.7067   1.7690 H              1 S1                 0.0000
     31 ****        -2.7866   2.8472  -1.0641 LP             1 S1                 0.0000
     32 ****        -0.5464   0.8455  -2.8052 LP             1 S1                 0.0000
     33 ****         1.0812   1.2504  -3.2376 LP             1 S1                 0.0000
     34 ****         3.3885   0.4883   3.0709 LP             1 S1                 0.0000
     35 ****         3.6687   5.0127   3.2680 LP             1 S1                 0.0000
     36 ****         2.7283   2.6814  -0.4424 LP             1 S1                 0.0000
@<TRIPOS>BOND
    1    1    2 1     
    2    1   19 1     
    3    1   20 1     
    4    1   21 1     
    5    2    3 1     
    6    2    5 1     
    7    2   16 1     
    8    3    4 3     
    9    5    6 am    
   10    5   22 1     
   11    6    7 2     
   12    6    8 1     
   13    8    9 1     
   14    8   23 1     
   15    8   24 1     
   16    9   15 1     
   17    9   10 1     
   18   10   11 2     
   19   10   25 1     
   20   11   12 1     
   21   12   13 1     
   22   12   15 2     
   23   13   14 3     
   24   16   18 1     
   25   16   17 1     
   26   16   26 1     
   27   17   18 1     
   28   17   27 1     
   29   17   28 1     
   30   18   29 1     
   31   18   30 1     
   32    4   31 1     
   33    7   32 1     
   34    7   33 1     
   35   11   34 1     
   36   14   35 1     
   37   15   36 1     
@<TRIPOS>SUBSTRUCTURE
      1 S1             1
@<TRIPOS>SET
LONE_PAIRS      STATIC     ATOMS    <user>   **** ""
6 31 32 33 34 35 36
DONOR_HYDROGENS      STATIC     ATOMS    <user>   **** ""
1 22
ATOM$BLUE        STATIC     ATOMS    COLORGROUP SYSTEM
6 31 32 33 34 35 36
ATOM$RED        STATIC     ATOMS    COLORGROUP SYSTEM
1 22
