#       Name:                AV-unprocessed.smi:1093
#       Creating user name   scv26
#       Creation time:       Fri Mar 27 03:27:48 2020


#       File generated by GOLD software.
#

@<TRIPOS>MOLECULE
AV-unprocessed.smi:1093
    51    52     1
SMALL
NO_CHARGES


@<TRIPOS>ATOM
      1 ****        -5.7820   0.2128  -2.4494 C.3            1 S1                 0.0000
      2 ****        -5.8514   0.3563  -0.9220 C.3            1 S1                 0.0000
      3 ****        -4.6257   0.9685  -0.3490 N.4            1 S1                 1.0000
      4 ****        -4.8712   1.5537   0.9952 C.3            1 S1                 0.0000
      5 ****        -3.6307   2.2984   1.5143 C.3            1 S1                 0.0000
      6 ****        -2.4055   1.3768   1.5399 C.3            1 S1                 0.0000
      7 ****        -2.1828   0.7588   0.1480 C.3            1 S1                 0.0000
      8 ****        -1.0690  -0.1849   0.1700 N.am           1 S1                 0.0000
      9 ****         0.2272   0.1486   0.0927 C.2            1 S1                 0.0000
     10 ****         0.6234   1.3094  -0.0083 O.2            1 S1                 0.0000
     11 ****         1.0113  -0.9424   0.1202 N.am           1 S1                 0.0000
     12 ****         2.4295  -1.0100   0.0769 C.ar           1 S1                 0.0000
     13 ****         3.0225  -2.2195  -0.3375 C.ar           1 S1                 0.0000
     14 ****         4.4259  -2.3205  -0.3723 C.ar           1 S1                 0.0000
     15 ****         5.1948  -1.2058   0.0206 C.ar           1 S1                 0.0000
     16 ****         6.5935  -1.2941  -0.0119 N.3            1 S1                 0.0000
     17 ****         7.1918  -0.4358  -1.0234 C.3            1 S1                 0.0000
     18 ****         7.1985  -1.2366   1.3103 C.3            1 S1                 0.0000
     19 ****         4.6358  -0.0448   0.4363 N.ar           1 S1                 0.0000
     20 ****         3.2890   0.0465   0.4652 C.ar           1 S1                 0.0000
     21 ****        -3.4594   0.0448  -0.3360 C.3            1 S1                 0.0000
     22 ****        -6.7316  -0.1515  -2.8422 H              1 S1                 0.0000
     23 ****        -5.0138  -0.4936  -2.7623 H              1 S1                 0.0000
     24 ****        -5.5742   1.1708  -2.9267 H              1 S1                 0.0000
     25 ****        -6.7097   0.9879  -0.6890 H              1 S1                 0.0000
     26 ****        -6.0437  -0.6090  -0.4517 H              1 S1                 0.0000
     27 ****        -5.7092   2.2501   0.9474 H              1 S1                 0.0000
     28 ****        -5.1550   0.7629   1.6917 H              1 S1                 0.0000
     29 ****        -3.4272   3.1604   0.8773 H              1 S1                 0.0000
     30 ****        -3.8222   2.6903   2.5137 H              1 S1                 0.0000
     31 ****        -1.5262   1.9397   1.8556 H              1 S1                 0.0000
     32 ****        -2.5549   0.5892   2.2801 H              1 S1                 0.0000
     33 ****        -1.9531   1.5567  -0.5614 H              1 S1                 0.0000
     34 ****        -1.3012  -1.1644   0.2476 H              1 S1                 0.0000
     35 ****         0.5360  -1.8329   0.1167 H              1 S1                 0.0000
     36 ****         2.4119  -3.0614  -0.6298 H              1 S1                 0.0000
     37 ****         4.9007  -3.2362  -0.6931 H              1 S1                 0.0000
     38 ****         6.6894  -0.5590  -1.9838 H              1 S1                 0.0000
     39 ****         8.2435  -0.6896  -1.1585 H              1 S1                 0.0000
     40 ****         7.1283   0.6134  -0.7320 H              1 S1                 0.0000
     41 ****         6.6960  -1.9184   1.9975 H              1 S1                 0.0000
     42 ****         7.1431  -0.2281   1.7217 H              1 S1                 0.0000
     43 ****         8.2483  -1.5260   1.2568 H              1 S1                 0.0000
     44 ****         2.9088   0.9874   0.8311 H              1 S1                 0.0000
     45 ****        -3.6820  -0.8103   0.3046 H              1 S1                 0.0000
     46 ****        -3.2836  -0.3488  -1.3368 H              1 S1                 0.0000
     47 ****        -4.3834   1.7416  -0.9523 H              1 S1                 0.0000
     48 ****        -0.0348   2.0617  -0.0364 LP             1 S1                 0.0000
     49 ****         1.6035   1.5003  -0.0623 LP             1 S1                 0.0000
     50 ****         6.8209  -2.2155  -0.3270 LP             1 S1                 0.0000
     51 ****         5.2071   0.7270   0.7154 LP             1 S1                 0.0000
@<TRIPOS>BOND
    1    1    2 1     
    2    1   22 1     
    3    1   23 1     
    4    1   24 1     
    5    2    3 1     
    6    2   25 1     
    7    2   26 1     
    8    3   21 1     
    9    3    4 1     
   10    3   47 1     
   11    4    5 1     
   12    4   27 1     
   13    4   28 1     
   14    5    6 1     
   15    5   29 1     
   16    5   30 1     
   17    6    7 1     
   18    6   31 1     
   19    6   32 1     
   20    7    8 1     
   21    7   21 1     
   22    7   33 1     
   23    8    9 am    
   24    8   34 1     
   25    9   10 2     
   26    9   11 am    
   27   11   12 1     
   28   11   35 1     
   29   12   20 ar    
   30   12   13 ar    
   31   13   14 ar    
   32   13   36 1     
   33   14   15 ar    
   34   14   37 1     
   35   15   16 1     
   36   15   19 ar    
   37   16   17 1     
   38   16   18 1     
   39   17   38 1     
   40   17   39 1     
   41   17   40 1     
   42   18   41 1     
   43   18   42 1     
   44   18   43 1     
   45   19   20 ar    
   46   20   44 1     
   47   21   45 1     
   48   21   46 1     
   49   10   48 1     
   50   10   49 1     
   51   16   50 1     
   52   19   51 1     
@<TRIPOS>SUBSTRUCTURE
      1 S1             1
@<TRIPOS>SET
LONE_PAIRS      STATIC     ATOMS    <user>   **** ""
4 48 49 50 51
DONOR_HYDROGENS      STATIC     ATOMS    <user>   **** ""
3 47 34 35
ATOM$BLUE        STATIC     ATOMS    COLORGROUP SYSTEM
4 48 49 50 51
ATOM$RED        STATIC     ATOMS    COLORGROUP SYSTEM
3 47 34 35
