AV-unprocessed.smi:1084|AV-procd|sdf|4717|dock6
  -GOLD-   22720 3243D 1   1.00000     0.00000
 Structure written by MMmdl.
 52 54  0  0  0  0  0  0  0  0  1 V2000
  147.5783  130.9429  154.6216 C   0  0  0  0  0  0  0  0  0  0  0  0
  147.5948  132.4124  154.1284 C   0  0  1  0  0  0  0  0  0  0  0  0
  149.0308  132.9857  154.3094 C   0  0  0  0  0  0  0  0  0  0  0  0
  149.1032  134.4361  154.1511 N   0  0  0  0  0  0  0  0  0  0  0  0
  149.6647  135.2790  155.0292 C   0  0  0  0  0  0  0  0  0  0  0  0
  150.1873  134.9131  156.0817 O   0  0  0  0  0  0  0  0  0  0  0  0
  149.5970  136.5489  154.5943 N   0  0  0  0  0  0  0  0  0  0  0  0
  150.0582  137.7295  155.2366 C   0  0  0  0  0  0  0  0  0  0  0  0
  150.2890  137.6814  156.6243 C   0  0  0  0  0  0  0  0  0  0  0  0
  150.7645  138.8290  157.2863 C   0  0  0  0  0  0  0  0  0  0  0  0
  151.0126  140.0078  156.5382 C   0  0  0  0  0  0  0  0  0  0  0  0
  151.4804  141.1989  157.1409 N   0  0  0  0  0  0  0  0  0  0  0  0
  151.9443  141.0989  158.5253 C   0  0  0  0  0  0  0  0  0  0  0  0
  152.7373  142.3548  158.9248 C   0  0  0  0  0  0  0  0  0  0  0  0
  151.9549  143.5178  158.6802 O   0  0  0  0  0  0  0  0  0  0  0  0
  151.6429  143.6564  157.2990 C   0  0  0  0  0  0  0  0  0  0  0  0
  150.8033  142.4558  156.8300 C   0  0  0  0  0  0  0  0  0  0  0  0
  150.8021  140.0444  155.1998 N   0  0  0  0  0  0  0  0  0  0  0  0
  150.3435  138.9431  154.5689 C   0  0  0  0  0  0  0  0  0  0  0  0
  147.0753  132.5600  152.7487 N   0  0  0  0  0  0  0  0  0  0  0  0
  145.9263  131.6860  152.4833 C   0  0  0  0  0  0  0  0  0  0  0  0
  145.3622  131.8535  151.0618 C   0  0  0  0  0  0  0  0  0  0  0  0
  145.0002  133.2104  150.8476 O   0  0  0  0  0  0  0  0  0  0  0  0
  146.1037  134.0888  151.0178 C   0  0  0  0  0  0  0  0  0  0  0  0
  146.6746  133.9375  152.4385 C   0  0  0  0  0  0  0  0  0  0  0  0
  148.0063  130.8325  155.6171 H   0  0  0  0  0  0  0  0  0  0  0  0
  148.1416  130.2953  153.9494 H   0  0  0  0  0  0  0  0  0  0  0  0
  146.5673  130.5462  154.7044 H   0  0  0  0  0  0  0  0  0  0  0  0
  146.9374  132.9762  154.7922 H   0  0  0  0  0  0  0  0  0  0  0  0
  149.4074  132.7344  155.3013 H   0  0  0  0  0  0  0  0  0  0  0  0
  149.7356  132.5594  153.5967 H   0  0  0  0  0  0  0  0  0  0  0  0
  148.7026  134.8217  153.3085 H   0  0  0  0  0  0  0  0  0  0  0  0
  149.2129  136.6817  153.6703 H   0  0  0  0  0  0  0  0  0  0  0  0
  150.1015  136.7753  157.1819 H   0  0  0  0  0  0  0  0  0  0  0  0
  150.9367  138.7737  158.3503 H   0  0  0  0  0  0  0  0  0  0  0  0
  151.0779  140.9809  159.1773 H   0  0  0  0  0  0  0  0  0  0  0  0
  152.5796  140.2265  158.6775 H   0  0  0  0  0  0  0  0  0  0  0  0
  152.9923  142.3150  159.9838 H   0  0  0  0  0  0  0  0  0  0  0  0
  153.6775  142.4125  158.3741 H   0  0  0  0  0  0  0  0  0  0  0  0
  151.0866  144.5821  157.1515 H   0  0  0  0  0  0  0  0  0  0  0  0
  152.5603  143.7408  156.7143 H   0  0  0  0  0  0  0  0  0  0  0  0
  150.6417  142.5457  155.7555 H   0  0  0  0  0  0  0  0  0  0  0  0
  149.8263  142.4678  157.3147 H   0  0  0  0  0  0  0  0  0  0  0  0
  150.2299  139.0508  153.5016 H   0  0  0  0  0  0  0  0  0  0  0  0
  146.2062  130.6398  152.5924 H   0  0  0  0  0  0  0  0  0  0  0  0
  145.1371  131.8814  153.2109 H   0  0  0  0  0  0  0  0  0  0  0  0
  146.0944  131.5408  150.3158 H   0  0  0  0  0  0  0  0  0  0  0  0
  144.4815  131.2253  150.9276 H   0  0  0  0  0  0  0  0  0  0  0  0
  146.8686  133.8748  150.2694 H   0  0  0  0  0  0  0  0  0  0  0  0
  145.7714  135.1135  150.8510 H   0  0  0  0  0  0  0  0  0  0  0  0
  145.9362  134.2805  153.1648 H   0  0  0  0  0  0  0  0  0  0  0  0
  147.5247  134.6128  152.5072 H   0  0  0  0  0  0  0  0  0  0  0  0
  1  2  1  0  0  0  0
  1 26  1  0  0  0  0
  1 27  1  0  0  0  0
  1 28  1  0  0  0  0
  2  3  1  0  0  0  0
  2 20  1  0  0  0  0
  2 29  1  0  0  0  0
  3  4  1  0  0  0  0
  3 30  1  0  0  0  0
  3 31  1  0  0  0  0
  4  5  1  0  0  0  0
  4 32  1  0  0  0  0
  5  6  2  0  0  0  0
  5  7  1  0  0  0  0
  7  8  1  0  0  0  0
  7 33  1  0  0  0  0
  8 19  1  0  0  0  0
  8  9  2  0  0  0  0
  9 10  1  0  0  0  0
  9 34  1  0  0  0  0
 10 11  2  0  0  0  0
 10 35  1  0  0  0  0
 11 12  1  0  0  0  0
 11 18  1  0  0  0  0
 12 17  1  0  0  0  0
 12 13  1  0  0  0  0
 13 14  1  0  0  0  0
 13 36  1  0  0  0  0
 13 37  1  0  0  0  0
 14 15  1  0  0  0  0
 14 38  1  0  0  0  0
 14 39  1  0  0  0  0
 15 16  1  0  0  0  0
 16 17  1  0  0  0  0
 16 40  1  0  0  0  0
 16 41  1  0  0  0  0
 17 42  1  0  0  0  0
 17 43  1  0  0  0  0
 18 19  2  0  0  0  0
 19 44  1  0  0  0  0
 20 25  1  0  0  0  0
 20 21  1  0  0  0  0
 21 22  1  0  0  0  0
 21 45  1  0  0  0  0
 21 46  1  0  0  0  0
 22 23  1  0  0  0  0
 22 47  1  0  0  0  0
 22 48  1  0  0  0  0
 23 24  1  0  0  0  0
 24 25  1  0  0  0  0
 24 49  1  0  0  0  0
 24 50  1  0  0  0  0
 25 51  1  0  0  0  0
 25 52  1  0  0  0  0
M  END
> <s_m_source_file>
AV-unprocessed.smi

> <i_m_source_file_index>
1084

> <i_lp_mmshare_version>
43012

> <i_f3d_flags>
0

> <s_epik_input>
W0NIMl0xW0NIMl1PW0NIMl1bQ0gyXU4xW0NASF0oW0NIM10pW0NIMl1bTkhdQyg9TylbTkhdYzJbY0hdW2NIXWMobltjSF0yKU4zW0NIMl1bQ0gyXU9bQ0gyXVtDSDJdMw==

> <s_epik_cmdline>
J2VwaWtfcHl0aG9uJywgJy1waCcsICc3LjAnLCAnLXRuJywgJzgnLCAnLW1hJywgJzIwMCcsICctbWV0YWxfYmluZGluZycsICctaW1hZScsICc8aW5maWxlLm1hZT4nLCAnLW9tYWUnLCAnPG91dGZpbGUubWFlPic=

> <r_lp_tautomer_probability>
1

> <r_epik_Ionization_Penalty>
0.268053

> <r_epik_Ionization_Penalty_Charging>
0

> <r_epik_Ionization_Penalty_Neutral>
0.268053

> <r_epik_State_Penalty>
0.269834

> <r_epik_Charging_Adjusted_Penalty>
0.269834

> <i_epik_Tot_Q>
0

> <i_epik_Tot_abs_Q>
0

> <r_epik_Metal_State_Penalty>
0.268436

> <b_epik_Metal_Only>
0

> <s_lp_Force_Field>
OPLS_2005

> <r_lp_Energy>
45.5603

> <b_lp_Chiralities_Consistent>
1

> <s_lp_Variant>
AV-unprocessed.smi:1084-2

> <Gold.Version>
5.8.1

> <Gold.Id.Protein>
6NUR|6NUR_protein|mol2

> <Gold.PLP.Fitness>
46.9023

> <Gold.PLP.PLP>
-37.2086

> <Gold.PLP.part.hbond>
-3.0000

> <Gold.PLP.part.metal>
0.0000

> <Gold.PLP.part.buried>
-5.1490

> <Gold.PLP.part.nonpolar>
-28.9375

> <Gold.PLP.part.repulsive>
0.4433

> <Gold.PLP.ligand.clash>
0.0000

> <Gold.PLP.ligand.torsion>
0.7218

> <Gold.PLP.Chemscore.Hbond>
2.5360

> <Gold.PLP.Chemscore.CHOScore>
0.9983

> <Gold.PLP.Chemscore.Metal>
0.0000

> <Gold.Chemscore.Hbonds>
donor molecule, donor type, donor heavy atom, donor atom, acceptor molecule, acceptor atom, score
      L1  H     4    32       P1  7948  0.88
      L1  H     7    33       P1  7948  1.00
      P1  H  7989  7998       L1    18  0.68
      L1  C    19    44       P1  7957  0.81

> <Gold.PLP.Chemscore.Internal.Correction>
0.5342

> <Gold.Rescore>
     Score         DG    S(hbond)    S(metal)    S(lipo)     H(rot)  DE(clash)    DE(int)     intcor
     15.11     -17.57       1.41        0.00      98.62       1.62       0.04       2.41       ----

> <Gold.Chemscore.Fitness>
15.1077

> <Gold.Chemscore.DG>
-17.5672

> <Gold.Chemscore.ZeroCoef>
-5.4800

> <Gold.Chemscore.Hbond>
1.4067

> <Gold.Chemscore.Metal>
0.0000

> <Gold.Chemscore.Lipo>
98.6215

> <Gold.Chemscore.Internal_Hbond>
0.0000

> <Gold.Chemscore.DEClash>
0.0449

> <Gold.Chemscore.DEInternal>
2.4145

> <Gold.Chemscore.Rot>
1.6211

> <Gold.Chemscore.Internal.Correction>
   9.000000E+99

> <Gold.Chemscore.Hbonds>
donor molecule, donor type, donor heavy atom, donor atom, acceptor molecule, acceptor atom, score
      L1  H     4    32       P1  7948  0.37
      L1  H     7    33       P1  7948  0.95
      P1  H  7989  7998       L1    18  0.08

> <Gold.Chemscore.Hbond.Weighted>
-4.6985

> <Gold.Chemscore.Metal.Weighted>
-0.0000

> <Gold.Chemscore.Lipo.Weighted>
-11.5387

> <Gold.Chemscore.Internal_Hbond.Weighted>
0.0000

> <Gold.Chemscore.DEClash.Weighted>
0.0449

> <Gold.Chemscore.DEInternal.Weighted>
2.4145

> <Gold.Chemscore.Rot.Weighted>
4.1501

> <Gold.Chemscore.Internal.Correction.Weighted>
   9.000000E+99

> <Gold.Protein.RotatedTorsions>
[ 6907 6896 6895 6894 ] final   71.30 input  -60.11 | X-H torsion
[ 7974 7965 7964 7962 ] final -137.73 input  175.53 | X-H torsion
[ 8008 7997 7996 7995 ] final  -56.82 input   59.86 | X-H torsion
[ 10167 10162 10161 10158 ] final   65.40 input  -65.29 | X-H torsion
[ 10718 10713 10712 10709 ] final  -29.83 input   66.30 | X-H torsion
[ 10763 10752 10751 10750 ] final  -72.29 input  -60.55 | X-H torsion
[ 11005 11000 10999 10996 ] final  -12.51 input  -57.11 | X-H torsion

> <Gold.Protein.ActiveResidues>
 VAL166  LYS551  ARG553  GLY616  TRP617  ASP618  TYR619  PRO620  LYS621  CYS622 
 ASP623  PHE694  ASN695  SER759  ASP760  ASP761  ALA762  ILE779  LEU786  VAL792 
 PHE793  MET794  SER795  GLU796  ALA797  LYS798  CYS799  TRP800  GLU811  SER814 

> <Gold.Protein.RotatedAtoms>
  152.4802  134.4740  159.9644 H   0  0  0  0  0  0  0  0  0  0  0  0  # atno 6907 bound_to 6896
  151.4748  133.3554  159.2837 H   0  0  0  0  0  0  0  0  0  0  0  0  # atno 6908 bound_to 6896
  150.8868  134.8293  159.7326 H   0  0  0  0  0  0  0  0  0  0  0  0  # atno 6909 bound_to 6896
  144.8817  140.6517  143.5201 H   0  0  0  0  0  0  0  0  0  0  0  0  # atno 7974 bound_to 7965
  154.4244  140.1121  156.5699 H   0  0  0  0  0  0  0  0  0  0  0  0  # atno 8008 bound_to 7997
  155.6223  140.3495  155.4637 H   0  0  0  0  0  0  0  0  0  0  0  0  # atno 8009 bound_to 7997
  156.0014  140.1200  157.0533 H   0  0  0  0  0  0  0  0  0  0  0  0  # atno 8010 bound_to 7997
  140.1117  144.4812  150.6974 H   0  0  0  0  0  0  0  0  0  0  0  0  # atno 10167 bound_to 10162
  156.4075  130.4402  149.7276 H   0  0  0  0  0  0  0  0  0  0  0  0  # atno 10718 bound_to 10713
  154.4437  135.5934  153.6146 H   0  0  0  0  0  0  0  0  0  0  0  0  # atno 10763 bound_to 10752
  152.9807  135.6004  154.3691 H   0  0  0  0  0  0  0  0  0  0  0  0  # atno 10764 bound_to 10752
  154.3544  135.2841  155.2333 H   0  0  0  0  0  0  0  0  0  0  0  0  # atno 10765 bound_to 10752
  140.7665  133.8473  155.9170 H   0  0  0  0  0  0  0  0  0  0  0  0  # atno 11005 bound_to 11000
  145.3941  139.1610  143.4213 LP  0  0  0  0  0  0  0  0  0  0  0  0  # atno 17320 bound_to 7965
  146.2999  140.4033  142.8708 LP  0  0  0  0  0  0  0  0  0  0  0  0  # atno 17321 bound_to 7965
  140.6922  143.2382  151.5101 LP  0  0  0  0  0  0  0  0  0  0  0  0  # atno 17342 bound_to 10162
  139.5615  144.2144  152.1699 LP  0  0  0  0  0  0  0  0  0  0  0  0  # atno 17343 bound_to 10162
  156.4268  130.7796  151.2814 LP  0  0  0  0  0  0  0  0  0  0  0  0  # atno 17370 bound_to 10713
  157.7506  131.0166  150.3551 LP  0  0  0  0  0  0  0  0  0  0  0  0  # atno 17371 bound_to 10713
  140.9614  134.1651  157.4651 LP  0  0  0  0  0  0  0  0  0  0  0  0  # atno 17394 bound_to 11000
  139.8762  134.9946  156.5702 LP  0  0  0  0  0  0  0  0  0  0  0  0  # atno 17395 bound_to 11000

$$$$
