AV-unprocessed.smi:2424|AV-procd|sdf|9566|dock1
  -GOLD-   2272013193D 1   1.00000     0.00000
 Structure written by MMmdl.
 50 51  0  0  0  0  0  0  0  0  1 V2000
  146.2370  141.8659  154.6015 C   0  0  0  0  0  0  0  0  0  0  0  0
  145.4294  140.6396  155.0612 C   0  0  0  0  0  0  0  0  0  0  0  0
  146.1024  139.2660  154.8154 C   0  0  0  0  0  0  0  0  0  0  0  0
  145.0433  138.1557  155.0422 C   0  0  0  0  0  0  0  0  0  0  0  0
  144.3621  138.1782  156.4211 C   0  0  0  0  0  0  0  0  0  0  0  0
  146.9224  139.2014  153.4930 C   0  0  2  0  0  0  0  0  0  0  0  0
  147.0365  137.8481  152.9434 N   0  0  0  0  0  0  0  0  0  0  0  0
  146.0398  137.1425  152.3947 C   0  0  0  0  0  0  0  0  0  0  0  0
  144.8923  137.5704  152.2786 O   0  0  0  0  0  0  0  0  0  0  0  0
  146.4755  135.9277  152.0154 N   0  0  0  0  0  0  0  0  0  0  0  0
  145.7690  134.8810  151.4079 C   0  0  0  0  0  0  0  0  0  0  0  0
  144.7045  135.2023  150.6524 C   0  0  0  0  0  0  0  0  0  0  0  0
  143.9439  134.2266  150.0046 N   0  0  0  0  0  0  0  0  0  0  0  0
  144.1939  132.8994  150.0716 C   0  0  0  0  0  0  0  0  0  0  0  0
  143.4810  132.0999  149.4678 O   0  0  0  0  0  0  0  0  0  0  0  0
  145.3477  132.5139  150.9004 C   0  0  0  0  0  0  0  0  0  0  0  0
  145.6732  131.0361  151.0258 C   0  0  0  0  0  0  0  0  0  0  0  0
  146.0840  133.4610  151.5273 C   0  0  0  0  0  0  0  0  0  0  0  0
  148.1824  139.6042  154.2772 C   0  0  2  0  0  0  0  0  0  0  0  0
  149.5660  139.0760  153.9026 C   0  0  0  0  0  0  0  0  0  0  0  0
  147.4696  139.1013  155.5434 C   0  0  2  0  0  0  0  0  0  0  0  0
  147.8247  137.7504  155.8166 O   0  0  0  0  0  0  0  0  0  0  0  0
  149.0584  137.6300  156.5043 C   0  0  0  0  0  0  0  0  0  0  0  0
  143.1628  134.5464  149.4505 H   0  0  0  0  0  0  0  0  0  0  0  0
  145.6329  142.7698  154.6798 H   0  0  0  0  0  0  0  0  0  0  0  0
  146.5558  141.7754  153.5636 H   0  0  0  0  0  0  0  0  0  0  0  0
  147.1232  142.0236  155.2151 H   0  0  0  0  0  0  0  0  0  0  0  0
  145.1663  140.7577  156.1118 H   0  0  0  0  0  0  0  0  0  0  0  0
  144.4715  140.6781  154.5428 H   0  0  0  0  0  0  0  0  0  0  0  0
  144.2542  138.2309  154.2945 H   0  0  0  0  0  0  0  0  0  0  0  0
  145.4698  137.1682  154.8744 H   0  0  0  0  0  0  0  0  0  0  0  0
  143.5469  137.4553  156.4552 H   0  0  0  0  0  0  0  0  0  0  0  0
  143.9407  139.1577  156.6463 H   0  0  0  0  0  0  0  0  0  0  0  0
  145.0542  137.9166  157.2208 H   0  0  0  0  0  0  0  0  0  0  0  0
  146.6165  139.9559  152.7660 H   0  0  0  0  0  0  0  0  0  0  0  0
  147.9495  137.4202  152.9941 H   0  0  0  0  0  0  0  0  0  0  0  0
  147.4473  135.7274  152.2012 H   0  0  0  0  0  0  0  0  0  0  0  0
  144.3606  136.2120  150.4809 H   0  0  0  0  0  0  0  0  0  0  0  0
  146.5371  130.8705  151.6701 H   0  0  0  0  0  0  0  0  0  0  0  0
  145.8970  130.6115  150.0465 H   0  0  0  0  0  0  0  0  0  0  0  0
  144.8277  130.4940  151.4506 H   0  0  0  0  0  0  0  0  0  0  0  0
  146.9128  133.1267  152.1290 H   0  0  0  0  0  0  0  0  0  0  0  0
  148.2200  140.6939  154.3166 H   0  0  0  0  0  0  0  0  0  0  0  0
  149.6023  137.9867  153.8921 H   0  0  0  0  0  0  0  0  0  0  0  0
  150.3204  139.4193  154.6104 H   0  0  0  0  0  0  0  0  0  0  0  0
  149.8618  139.4229  152.9124 H   0  0  0  0  0  0  0  0  0  0  0  0
  147.6316  139.7689  156.3911 H   0  0  0  0  0  0  0  0  0  0  0  0
  149.2532  136.5800  156.7219 H   0  0  0  0  0  0  0  0  0  0  0  0
  149.0489  138.1745  157.4485 H   0  0  0  0  0  0  0  0  0  0  0  0
  149.8820  138.0049  155.8958 H   0  0  0  0  0  0  0  0  0  0  0  0
  1  2  1  0  0  0  0
  1 25  1  0  0  0  0
  1 26  1  0  0  0  0
  1 27  1  0  0  0  0
  2  3  1  0  0  0  0
  2 28  1  0  0  0  0
  2 29  1  0  0  0  0
  3 21  1  0  0  0  0
  3  4  1  0  0  0  0
  3  6  1  0  0  0  0
  4  5  1  0  0  0  0
  4 30  1  0  0  0  0
  4 31  1  0  0  0  0
  5 32  1  0  0  0  0
  5 33  1  0  0  0  0
  5 34  1  0  0  0  0
  6  7  1  0  0  0  0
  6 19  1  0  0  0  0
  6 35  1  0  0  0  0
  7  8  1  0  0  0  0
  7 36  1  0  0  0  0
  8  9  2  0  0  0  0
  8 10  1  0  0  0  0
 10 11  1  0  0  0  0
 10 37  1  0  0  0  0
 11 18  1  0  0  0  0
 11 12  2  0  0  0  0
 12 13  1  0  0  0  0
 12 38  1  0  0  0  0
 13 24  1  0  0  0  0
 13 14  1  0  0  0  0
 14 15  2  0  0  0  0
 14 16  1  0  0  0  0
 16 17  1  0  0  0  0
 16 18  2  0  0  0  0
 17 39  1  0  0  0  0
 17 40  1  0  0  0  0
 17 41  1  0  0  0  0
 18 42  1  0  0  0  0
 19 20  1  0  0  0  0
 19 21  1  0  0  0  0
 19 43  1  0  0  0  0
 20 44  1  0  0  0  0
 20 45  1  0  0  0  0
 20 46  1  0  0  0  0
 21 22  1  0  0  0  0
 21 47  1  0  0  0  0
 22 23  1  0  0  0  0
 23 48  1  0  0  0  0
 23 49  1  0  0  0  0
 23 50  1  0  0  0  0
M  END
> <s_m_source_file>
AV-unprocessed.smi

> <i_m_source_file_index>
2424

> <i_lp_mmshare_version>
43012

> <i_f3d_flags>
0

> <s_epik_input>
W0NIM11PW0NAQEhdMVtDQEhdKFtDSDNdKVtDQEBIXShDMShbQ0gyXVtDSDNdKVtDSDJdW0NIM10pW05IXUMoPU8pW05IXWMyW2NIXVtuSF1jKD1PKWMoW0NIM10pW2NIXTI=

> <s_epik_cmdline>
J2VwaWtfcHl0aG9uJywgJy1waCcsICc3LjAnLCAnLXRuJywgJzgnLCAnLW1hJywgJzIwMCcsICctbWV0YWxfYmluZGluZycsICctaW1hZScsICc8aW5maWxlLm1hZT4nLCAnLW9tYWUnLCAnPG91dGZpbGUubWFlPic=

> <r_lp_tautomer_probability>
1

> <r_epik_Ionization_Penalty>
4.7326e-05

> <r_epik_Ionization_Penalty_Charging>
2.70169e-05

> <r_epik_Ionization_Penalty_Neutral>
2.0309e-05

> <r_epik_State_Penalty>
-0

> <r_epik_Charging_Adjusted_Penalty>
2.70169e-05

> <i_epik_Tot_Q>
0

> <i_epik_Tot_abs_Q>
0

> <r_epik_Metal_State_Penalty>
0.0198736

> <b_epik_Metal_Only>
0

> <s_lp_Force_Field>
OPLS_2005

> <r_lp_Energy>
37.0094

> <b_lp_Chiralities_Consistent>
1

> <s_lp_Variant>
AV-unprocessed.smi:2424-8

> <Gold.Version>
5.8.1

> <Gold.Id.Protein>
6NUR|6NUR_protein|mol2

> <Gold.PLP.Fitness>
40.4942

> <Gold.PLP.PLP>
-27.3630

> <Gold.PLP.part.hbond>
-3.7732

> <Gold.PLP.part.metal>
0.0000

> <Gold.PLP.part.buried>
-3.1988

> <Gold.PLP.part.nonpolar>
-23.1596

> <Gold.PLP.part.repulsive>
1.5529

> <Gold.PLP.ligand.clash>
0.0000

> <Gold.PLP.ligand.torsion>
0.6066

> <Gold.PLP.Chemscore.Hbond>
3.5245

> <Gold.PLP.Chemscore.CHOScore>
0.9996

> <Gold.PLP.Chemscore.Metal>
0.0000

> <Gold.Chemscore.Hbonds>
donor molecule, donor type, donor heavy atom, donor atom, acceptor molecule, acceptor atom, score
      L1  H     7    36       P1  7948  0.69
      L1  H    10    37       P1  7948  0.85
      L1  H    13    24       P1 10186  0.53
      P1  H 10785 10796       L1    15  0.81
      L1  C    12    38       P1 10171  1.00

> <Gold.PLP.Chemscore.Internal.Correction>
0.7722

> <Gold.Rescore>
     Score         DG    S(hbond)    S(metal)    S(lipo)     H(rot)  DE(clash)    DE(int)     intcor
     12.80     -20.12       3.32        0.00      64.32       1.55       1.77       5.54       ----

> <Gold.Chemscore.Fitness>
12.8005

> <Gold.Chemscore.DG>
-20.1181

> <Gold.Chemscore.ZeroCoef>
-5.4800

> <Gold.Chemscore.Hbond>
3.3178

> <Gold.Chemscore.Metal>
0.0000

> <Gold.Chemscore.Lipo>
64.3185

> <Gold.Chemscore.Internal_Hbond>
0.0000

> <Gold.Chemscore.DEClash>
1.7744

> <Gold.Chemscore.DEInternal>
5.5432

> <Gold.Chemscore.Rot>
1.5502

> <Gold.Chemscore.Internal.Correction>
   9.000000E+99

> <Gold.Chemscore.Hbonds>
donor molecule, donor type, donor heavy atom, donor atom, acceptor molecule, acceptor atom, score
      L1  H     7    36       P1  7948  0.70
      L1  H    10    37       P1  7948  0.82
      L1  H    13    24       P1 10186  0.51
      P1  H 10785 10796       L1    15  0.77

> <Gold.Chemscore.Hbond.Weighted>
-11.0814

> <Gold.Chemscore.Metal.Weighted>
-0.0000

> <Gold.Chemscore.Lipo.Weighted>
-7.5253

> <Gold.Chemscore.Internal_Hbond.Weighted>
0.0000

> <Gold.Chemscore.DEClash.Weighted>
1.7744

> <Gold.Chemscore.DEInternal.Weighted>
5.5432

> <Gold.Chemscore.Rot.Weighted>
3.9685

> <Gold.Chemscore.Internal.Correction.Weighted>
   9.000000E+99

> <Gold.Protein.RotatedTorsions>
[ 6907 6896 6895 6894 ] final   97.60 input  -60.11 | X-H torsion
[ 7974 7965 7964 7962 ] final   62.19 input  175.53 | X-H torsion
[ 8008 7997 7996 7995 ] final  -52.67 input   59.86 | X-H torsion
[ 10167 10162 10161 10158 ] final -159.64 input  -65.29 | X-H torsion
[ 10718 10713 10712 10709 ] final  136.63 input   66.30 | X-H torsion
[ 10763 10752 10751 10750 ] final -164.16 input  -60.55 | X-H torsion
[ 11005 11000 10999 10996 ] final  -23.90 input  -57.11 | X-H torsion

> <Gold.Protein.ActiveResidues>
 VAL166  LYS551  ARG553  GLY616  TRP617  ASP618  TYR619  PRO620  LYS621  CYS622 
 ASP623  PHE694  ASN695  SER759  ASP760  ASP761  ALA762  ILE779  LEU786  VAL792 
 PHE793  MET794  SER795  GLU796  ALA797  LYS798  CYS799  TRP800  GLU811  SER814 

> <Gold.Protein.RotatedAtoms>
  152.5421  134.0708  159.8192 H   0  0  0  0  0  0  0  0  0  0  0  0  # atno 6907 bound_to 6896
  151.0823  133.5373  159.2627 H   0  0  0  0  0  0  0  0  0  0  0  0  # atno 6908 bound_to 6896
  151.2196  135.0522  159.8998 H   0  0  0  0  0  0  0  0  0  0  0  0  # atno 6909 bound_to 6896
  145.8762  139.3412  143.0733 H   0  0  0  0  0  0  0  0  0  0  0  0  # atno 7974 bound_to 7965
  154.4113  140.1218  156.5030 H   0  0  0  0  0  0  0  0  0  0  0  0  # atno 8008 bound_to 7997
  155.6876  140.3495  155.4861 H   0  0  0  0  0  0  0  0  0  0  0  0  # atno 8009 bound_to 7997
  155.9497  140.1102  157.0977 H   0  0  0  0  0  0  0  0  0  0  0  0  # atno 8010 bound_to 7997
  139.6600  143.9930  152.2219 H   0  0  0  0  0  0  0  0  0  0  0  0  # atno 10167 bound_to 10162
  157.4446  131.1060  151.0104 H   0  0  0  0  0  0  0  0  0  0  0  0  # atno 10718 bound_to 10713
  154.7055  135.2996  154.9277 H   0  0  0  0  0  0  0  0  0  0  0  0  # atno 10763 bound_to 10752
  154.0195  135.6684  153.4775 H   0  0  0  0  0  0  0  0  0  0  0  0  # atno 10764 bound_to 10752
  153.0714  135.5059  154.8223 H   0  0  0  0  0  0  0  0  0  0  0  0  # atno 10765 bound_to 10752
  140.8795  133.7664  156.0284 H   0  0  0  0  0  0  0  0  0  0  0  0  # atno 11005 bound_to 11000
  145.9078  140.9200  143.0470 LP  0  0  0  0  0  0  0  0  0  0  0  0  # atno 17320 bound_to 7965
  144.6726  140.1119  143.7455 LP  0  0  0  0  0  0  0  0  0  0  0  0  # atno 17321 bound_to 7965
  139.9667  144.6521  150.8028 LP  0  0  0  0  0  0  0  0  0  0  0  0  # atno 17342 bound_to 10162
  140.7576  143.3089  151.2894 LP  0  0  0  0  0  0  0  0  0  0  0  0  # atno 17343 bound_to 10162
  157.0955  130.5960  149.5449 LP  0  0  0  0  0  0  0  0  0  0  0  0  # atno 17370 bound_to 10713
  155.9962  130.5031  150.7488 LP  0  0  0  0  0  0  0  0  0  0  0  0  # atno 17371 bound_to 10713
  140.8478  134.2990  157.5287 LP  0  0  0  0  0  0  0  0  0  0  0  0  # atno 17394 bound_to 11000
  139.8718  134.9451  156.3901 LP  0  0  0  0  0  0  0  0  0  0  0  0  # atno 17395 bound_to 11000

$$$$
