AV-unprocessed.smi:1826|AV-procd|sdf|7418|dock7
  -GOLD-   22720 9103D 1   1.00000     0.00000
 Structure written by MMmdl.
 40 42  0  0  0  0  0  0  0  0  2 V2000
  149.2752  142.1189  154.3599 O   0  0  0  0  0  0  0  0  0  0  0  0
  149.9714  141.1863  155.1606 C   0  0  0  0  0  0  0  0  0  0  0  0
  150.6391  141.8067  156.3461 C   0  0  0  0  0  0  0  0  0  0  0  0
  150.5198  143.1011  156.7588 N   0  3  0  0  0  0  0  0  0  0  0  0
  151.3059  143.3124  157.8915 C   0  0  0  0  0  0  0  0  0  0  0  0
  151.5118  144.4556  158.6575 C   0  0  0  0  0  0  0  0  0  0  0  0
  152.3881  144.3320  159.7557 C   0  0  0  0  0  0  0  0  0  0  0  0
  153.0194  143.1076  160.0571 C   0  0  0  0  0  0  0  0  0  0  0  0
  152.8010  141.9551  159.2740 C   0  0  0  0  0  0  0  0  0  0  0  0
  151.9340  142.0858  158.1895 C   0  0  0  0  0  0  0  0  0  0  0  0
  151.4908  141.1866  157.2127 N   0  0  0  0  0  0  0  0  0  0  0  0
  151.9770  139.7960  157.2347 C   0  0  0  0  0  0  0  0  0  0  0  0
  152.1335  139.1372  155.8379 C   0  0  1  0  0  0  0  0  0  0  0  0
  153.4654  139.1765  155.3551 O   0  0  0  0  0  0  0  0  0  0  0  0
  151.5457  137.7332  155.8100 C   0  0  0  0  0  0  0  0  0  0  0  0
  150.4772  137.4369  154.9378 C   0  0  0  0  0  0  0  0  0  0  0  0
  149.9191  136.1440  154.9091 C   0  0  0  0  0  0  0  0  0  0  0  0
  150.4227  135.1299  155.7517 C   0  0  0  0  0  0  0  0  0  0  0  0
  149.8119  133.7365  155.7260 C   0  0  0  0  0  0  0  0  0  0  0  0
  150.4665  132.9112  156.5436 F   0  0  0  0  0  0  0  0  0  0  0  0
  148.5403  133.8081  156.1174 F   0  0  0  0  0  0  0  0  0  0  0  0
  149.8547  133.2246  154.4956 F   0  0  0  0  0  0  0  0  0  0  0  0
  151.4845  135.4298  156.6322 C   0  0  0  0  0  0  0  0  0  0  0  0
  152.0435  136.7219  156.6603 C   0  0  0  0  0  0  0  0  0  0  0  0
  148.9907  142.8335  154.9093 H   0  0  0  0  0  0  0  0  0  0  0  0
  149.2728  140.4225  155.5029 H   0  0  0  0  0  0  0  0  0  0  0  0
  150.7237  140.6887  154.5484 H   0  0  0  0  0  0  0  0  0  0  0  0
  151.0298  145.3945  158.4271 H   0  0  0  0  0  0  0  0  0  0  0  0
  152.5804  145.1935  160.3785 H   0  0  0  0  0  0  0  0  0  0  0  0
  153.6856  143.0507  160.9058 H   0  0  0  0  0  0  0  0  0  0  0  0
  153.2906  141.0233  159.5144 H   0  0  0  0  0  0  0  0  0  0  0  0
  152.9086  139.7624  157.8005 H   0  0  0  0  0  0  0  0  0  0  0  0
  151.2681  139.2188  157.8291 H   0  0  0  0  0  0  0  0  0  0  0  0
  151.5616  139.7363  155.1279 H   0  0  0  0  0  0  0  0  0  0  0  0
  153.5827  138.4648  154.7442 H   0  0  0  0  0  0  0  0  0  0  0  0
  150.0787  138.2021  154.2878 H   0  0  0  0  0  0  0  0  0  0  0  0
  149.0991  135.9347  154.2377 H   0  0  0  0  0  0  0  0  0  0  0  0
  151.8751  134.6703  157.2931 H   0  0  0  0  0  0  0  0  0  0  0  0
  152.8541  136.9321  157.3426 H   0  0  0  0  0  0  0  0  0  0  0  0
  149.9434  143.7872  156.2884 H   0  0  0  0  0  0  0  0  0  0  0  0
  1  2  1  0  0  0  0
  1 25  1  0  0  0  0
  2  3  1  0  0  0  0
  2 26  1  0  0  0  0
  2 27  1  0  0  0  0
  3 11  1  0  0  0  0
  3  4  2  0  0  0  0
  4  5  1  0  0  0  0
  4 40  1  0  0  0  0
  5 10  2  0  0  0  0
  5  6  1  0  0  0  0
  6  7  2  0  0  0  0
  6 28  1  0  0  0  0
  7  8  1  0  0  0  0
  7 29  1  0  0  0  0
  8  9  2  0  0  0  0
  8 30  1  0  0  0  0
  9 10  1  0  0  0  0
  9 31  1  0  0  0  0
 10 11  1  0  0  0  0
 11 12  1  0  0  0  0
 12 13  1  0  0  0  0
 12 32  1  0  0  0  0
 12 33  1  0  0  0  0
 13 14  1  0  0  0  0
 13 15  1  0  0  0  0
 13 34  1  0  0  0  0
 14 35  1  0  0  0  0
 15 24  1  0  0  0  0
 15 16  2  0  0  0  0
 16 17  1  0  0  0  0
 16 36  1  0  0  0  0
 17 18  2  0  0  0  0
 17 37  1  0  0  0  0
 18 19  1  0  0  0  0
 18 23  1  0  0  0  0
 19 20  1  0  0  0  0
 19 21  1  0  0  0  0
 19 22  1  0  0  0  0
 23 24  2  0  0  0  0
 23 38  1  0  0  0  0
 24 39  1  0  0  0  0
M  CHG  1   4   1
M  END
> <s_m_source_file>
AV-unprocessed.smi

> <i_m_source_file_index>
1826

> <i_lp_mmshare_version>
43012

> <i_f3d_flags>
0

> <s_epik_input>
W2NIXTFbY0hdW2NIXVtjSF1jKGMxMiluKGMobjIpW0NIMl1bT0hdKVtDSDJdW0NASF0oW09IXSljM1tjSF1bY0hdYyhDKEYpKEYpRilbY0hdW2NIXTM=

> <s_epik_cmdline>
J2VwaWtfcHl0aG9uJywgJy1waCcsICc3LjAnLCAnLXRuJywgJzgnLCAnLW1hJywgJzIwMCcsICctbWV0YWxfYmluZGluZycsICctaW1hZScsICc8aW5maWxlLm1hZT4nLCAnLW9tYWUnLCAnPG91dGZpbGUubWFlPic=

> <r_epik_Ionization_Penalty>
1.35643

> <r_epik_Ionization_Penalty_Charging>
1.35557

> <r_epik_Ionization_Penalty_Neutral>
0.000856405

> <r_epik_State_Penalty>
1.43401

> <r_epik_Charging_Adjusted_Penalty>
2.78958

> <i_epik_Tot_Q>
1

> <i_epik_Tot_abs_Q>
1

> <r_epik_Metal_State_Penalty>
5.47166

> <b_epik_Metal_Only>
0

> <s_lp_Force_Field>
OPLS_2005

> <r_lp_Energy>
22.2169

> <b_lp_Chiralities_Consistent>
1

> <s_lp_Variant>
AV-unprocessed.smi:1826-4

> <Gold.Version>
5.8.1

> <Gold.Id.Protein>
6NUR|6NUR_protein|mol2

> <Gold.PLP.Fitness>
59.6208

> <Gold.PLP.PLP>
-49.0218

> <Gold.PLP.part.hbond>
-4.1946

> <Gold.PLP.part.metal>
0.0000

> <Gold.PLP.part.buried>
-5.6525

> <Gold.PLP.part.nonpolar>
-39.9697

> <Gold.PLP.part.repulsive>
0.0396

> <Gold.PLP.ligand.clash>
1.1560

> <Gold.PLP.ligand.torsion>
1.0948

> <Gold.PLP.Chemscore.Hbond>
4.2080

> <Gold.PLP.Chemscore.CHOScore>
0.0000

> <Gold.PLP.Chemscore.Metal>
0.0000

> <Gold.Chemscore.Hbonds>
donor molecule, donor type, donor heavy atom, donor atom, acceptor molecule, acceptor atom, score
      L1  H     1    25       P1  8028  1.00
      L1  H     4    40       P1  8028  2.00
      P1  H  7997  8008       L1    14  0.98
      P1  H  8011  8017       L1     1  0.25

> <Gold.PLP.Chemscore.Internal.Correction>
1.3205

> <Gold.Rescore>
     Score         DG    S(hbond)    S(metal)    S(lipo)     H(rot)  DE(clash)    DE(int)     intcor
     20.57     -22.39       3.05        0.00     122.62       2.98       0.00       1.82       ----

> <Gold.Chemscore.Fitness>
20.5710

> <Gold.Chemscore.DG>
-22.3928

> <Gold.Chemscore.ZeroCoef>
-5.4800

> <Gold.Chemscore.Hbond>
3.0542

> <Gold.Chemscore.Metal>
0.0000

> <Gold.Chemscore.Lipo>
122.6166

> <Gold.Chemscore.Internal_Hbond>
0.0000

> <Gold.Chemscore.DEClash>
0.0019

> <Gold.Chemscore.DEInternal>
1.8200

> <Gold.Chemscore.Rot>
2.9822

> <Gold.Chemscore.Internal.Correction>
   9.000000E+99

> <Gold.Chemscore.Hbonds>
donor molecule, donor type, donor heavy atom, donor atom, acceptor molecule, acceptor atom, score
      L1  H     1    25       P1  8028  0.94
      L1  H     4    40       P1  8028  0.93
      P1  H  7997  8008       L1    14  0.89
      P1  H  8011  8017       L1     1  0.23

> <Gold.Chemscore.Hbond.Weighted>
-10.2010

> <Gold.Chemscore.Metal.Weighted>
-0.0000

> <Gold.Chemscore.Lipo.Weighted>
-14.3461

> <Gold.Chemscore.Internal_Hbond.Weighted>
0.0000

> <Gold.Chemscore.DEClash.Weighted>
0.0019

> <Gold.Chemscore.DEInternal.Weighted>
1.8200

> <Gold.Chemscore.Rot.Weighted>
7.6343

> <Gold.Chemscore.Internal.Correction.Weighted>
   9.000000E+99

> <Gold.Protein.RotatedTorsions>
[ 6907 6896 6895 6894 ] final   89.07 input  -60.11 | X-H torsion
[ 7974 7965 7964 7962 ] final  143.58 input  175.53 | X-H torsion
[ 8008 7997 7996 7995 ] final  -12.50 input   59.86 | X-H torsion
[ 10167 10162 10161 10158 ] final   55.01 input  -65.29 | X-H torsion
[ 10718 10713 10712 10709 ] final  168.33 input   66.30 | X-H torsion
[ 10763 10752 10751 10750 ] final  -52.69 input  -60.55 | X-H torsion
[ 11005 11000 10999 10996 ] final   17.67 input  -57.11 | X-H torsion

> <Gold.Protein.ActiveResidues>
 VAL166  LYS551  ARG553  GLY616  TRP617  ASP618  TYR619  PRO620  LYS621  CYS622 
 ASP623  PHE694  ASN695  SER759  ASP760  ASP761  ALA762  ILE779  LEU786  VAL792 
 PHE793  MET794  SER795  GLU796  ALA797  LYS798  CYS799  TRP800  GLU811  SER814 

> <Gold.Protein.RotatedAtoms>
  152.5432  134.2023  159.8716 H   0  0  0  0  0  0  0  0  0  0  0  0  # atno 6907 bound_to 6896
  151.2011  133.4603  159.2604 H   0  0  0  0  0  0  0  0  0  0  0  0  # atno 6908 bound_to 6896
  151.0988  134.9972  159.8494 H   0  0  0  0  0  0  0  0  0  0  0  0  # atno 6909 bound_to 6896
  144.8908  139.5561  143.5799 H   0  0  0  0  0  0  0  0  0  0  0  0  # atno 7974 bound_to 7965
  154.5372  140.2274  155.8702 H   0  0  0  0  0  0  0  0  0  0  0  0  # atno 8008 bound_to 7997
  156.1823  140.3097  155.9135 H   0  0  0  0  0  0  0  0  0  0  0  0  # atno 8009 bound_to 7997
  155.3330  140.0446  157.3033 H   0  0  0  0  0  0  0  0  0  0  0  0  # atno 8010 bound_to 7997
  140.2241  144.3758  150.6439 H   0  0  0  0  0  0  0  0  0  0  0  0  # atno 10167 bound_to 10162
  157.0387  131.0280  151.2720 H   0  0  0  0  0  0  0  0  0  0  0  0  # atno 10718 bound_to 10713
  154.1467  135.6496  153.4954 H   0  0  0  0  0  0  0  0  0  0  0  0  # atno 10763 bound_to 10752
  153.0150  135.5328  154.6849 H   0  0  0  0  0  0  0  0  0  0  0  0  # atno 10764 bound_to 10752
  154.6126  135.2955  155.0387 H   0  0  0  0  0  0  0  0  0  0  0  0  # atno 10765 bound_to 10752
  140.4334  134.1396  155.7683 H   0  0  0  0  0  0  0  0  0  0  0  0  # atno 11005 bound_to 11000
  146.3053  139.7558  142.9061 LP  0  0  0  0  0  0  0  0  0  0  0  0  # atno 17320 bound_to 7965
  145.3786  141.0354  143.3190 LP  0  0  0  0  0  0  0  0  0  0  0  0  # atno 17321 bound_to 7965
  140.6234  143.2178  151.6647 LP  0  0  0  0  0  0  0  0  0  0  0  0  # atno 17342 bound_to 10162
  139.5133  144.3446  152.0709 LP  0  0  0  0  0  0  0  0  0  0  0  0  # atno 17343 bound_to 10162
  157.5121  130.7945  149.7717 LP  0  0  0  0  0  0  0  0  0  0  0  0  # atno 17370 bound_to 10713
  156.0045  130.3862  150.2481 LP  0  0  0  0  0  0  0  0  0  0  0  0  # atno 17371 bound_to 10713
  141.1736  133.8559  157.1493 LP  0  0  0  0  0  0  0  0  0  0  0  0  # atno 17394 bound_to 11000
  140.0119  134.9984  157.0412 LP  0  0  0  0  0  0  0  0  0  0  0  0  # atno 17395 bound_to 11000

$$$$
