AV-unprocessed.smi:623|AV-procd|sdf|3095|dock1
  -GOLD-   22720 0 13D 1   1.00000     0.00000
 Structure written by MMmdl.
 44 46  0  0  0  0  0  0  0  0  2 V2000
  147.3325  133.5617  162.2694 C   0  0  0  0  0  0  0  0  0  0  0  0
  146.4357  134.8077  162.0252 C   0  0  0  0  0  0  0  0  0  0  0  0
  145.0916  134.4963  162.7422 C   0  0  0  0  0  0  0  0  0  0  0  0
  147.0780  136.1446  162.4464 C   0  0  2  0  0  0  0  0  0  0  0  0
  146.0556  137.2045  161.9790 C   0  0  0  0  0  0  0  0  0  0  0  0
  145.5022  136.5868  160.6795 C   0  0  0  0  0  0  0  0  0  0  0  0
  146.3241  135.2745  160.5477 C   0  0  2  0  0  0  0  0  0  0  0  0
  145.6917  134.2625  159.5767 C   0  0  0  0  0  0  0  0  0  0  0  0
  147.7984  135.6527  160.1929 C   0  0  1  0  0  0  0  0  0  0  0  0
  147.9338  136.6059  159.0914 N   0  0  0  0  0  0  0  0  0  0  0  0
  149.0731  136.8941  158.4454 C   0  0  0  0  0  0  0  0  0  0  0  0
  150.1530  136.3632  158.7086 O   0  0  0  0  0  0  0  0  0  0  0  0
  148.9591  137.9162  157.3066 C   0  0  0  0  0  0  0  0  0  0  0  0
  150.2299  138.1267  156.5950 N   0  0  0  0  0  0  0  0  0  0  0  0
  150.7791  139.4210  156.6056 C   0  0  0  0  0  0  0  0  0  0  0  0
  151.9354  139.7072  155.9774 C   0  0  0  0  0  0  0  0  0  0  0  0
  152.6222  138.6321  155.2724 C   0  0  0  0  0  0  0  0  0  0  0  0
  153.6818  138.8742  154.6976 O   0  0  0  0  0  0  0  0  0  0  0  0
  152.0466  137.3943  155.2868 N   0  5  0  0  0  0  0  0  0  0  0  0
  150.8683  137.1184  155.9278 C   0  0  0  0  0  0  0  0  0  0  0  0
  150.3643  135.9945  155.9262 O   0  0  0  0  0  0  0  0  0  0  0  0
  148.3064  136.2656  161.5182 C   0  0  0  0  0  0  0  0  0  0  0  0
  147.4711  133.3938  163.3378 H   0  0  0  0  0  0  0  0  0  0  0  0
  148.3292  133.6151  161.8371 H   0  0  0  0  0  0  0  0  0  0  0  0
  146.8663  132.6641  161.8622 H   0  0  0  0  0  0  0  0  0  0  0  0
  144.3400  135.2799  162.6795 H   0  0  0  0  0  0  0  0  0  0  0  0
  145.2581  134.3176  163.8050 H   0  0  0  0  0  0  0  0  0  0  0  0
  144.6348  133.5939  162.3353 H   0  0  0  0  0  0  0  0  0  0  0  0
  147.3276  136.2232  163.5050 H   0  0  0  0  0  0  0  0  0  0  0  0
  145.2647  137.3526  162.7148 H   0  0  0  0  0  0  0  0  0  0  0  0
  146.5182  138.1768  161.8063 H   0  0  0  0  0  0  0  0  0  0  0  0
  144.4354  136.3816  160.7706 H   0  0  0  0  0  0  0  0  0  0  0  0
  145.6011  137.2583  159.8271 H   0  0  0  0  0  0  0  0  0  0  0  0
  145.6058  134.6819  158.5743 H   0  0  0  0  0  0  0  0  0  0  0  0
  144.6897  133.9766  159.8963 H   0  0  0  0  0  0  0  0  0  0  0  0
  146.2900  133.3543  159.5037 H   0  0  0  0  0  0  0  0  0  0  0  0
  148.3820  134.7604  159.9609 H   0  0  0  0  0  0  0  0  0  0  0  0
  147.0953  137.0884  158.8029 H   0  0  0  0  0  0  0  0  0  0  0  0
  148.1893  137.5683  156.6166 H   0  0  0  0  0  0  0  0  0  0  0  0
  148.5860  138.8654  157.6961 H   0  0  0  0  0  0  0  0  0  0  0  0
  150.2046  140.1601  157.1445 H   0  0  0  0  0  0  0  0  0  0  0  0
  152.3425  140.7073  155.9920 H   0  0  0  0  0  0  0  0  0  0  0  0
  148.6360  137.3005  161.4133 H   0  0  0  0  0  0  0  0  0  0  0  0
  149.1575  135.7068  161.9079 H   0  0  0  0  0  0  0  0  0  0  0  0
  1  2  1  0  0  0  0
  1 23  1  0  0  0  0
  1 24  1  0  0  0  0
  1 25  1  0  0  0  0
  2  7  1  0  0  0  0
  2  3  1  0  0  0  0
  2  4  1  0  0  0  0
  3 26  1  0  0  0  0
  3 27  1  0  0  0  0
  3 28  1  0  0  0  0
  4 22  1  0  0  0  0
  4  5  1  0  0  0  0
  4 29  1  0  0  0  0
  5  6  1  0  0  0  0
  5 30  1  0  0  0  0
  5 31  1  0  0  0  0
  6  7  1  0  0  0  0
  6 32  1  0  0  0  0
  6 33  1  0  0  0  0
  7  8  1  0  0  0  0
  7  9  1  0  0  0  0
  8 34  1  0  0  0  0
  8 35  1  0  0  0  0
  8 36  1  0  0  0  0
  9 10  1  0  0  0  0
  9 22  1  0  0  0  0
  9 37  1  0  0  0  0
 10 11  1  0  0  0  0
 10 38  1  0  0  0  0
 11 12  2  0  0  0  0
 11 13  1  0  0  0  0
 13 14  1  0  0  0  0
 13 39  1  0  0  0  0
 13 40  1  0  0  0  0
 14 20  1  0  0  0  0
 14 15  1  0  0  0  0
 15 16  2  0  0  0  0
 15 41  1  0  0  0  0
 16 17  1  0  0  0  0
 16 42  1  0  0  0  0
 17 18  2  0  0  0  0
 17 19  1  0  0  0  0
 19 20  1  0  0  0  0
 20 21  2  0  0  0  0
 22 43  1  0  0  0  0
 22 44  1  0  0  0  0
M  CHG  1  19  -1
M  END
> <s_m_source_file>
AV-unprocessed.smi

> <i_m_source_file_index>
623

> <i_lp_mmshare_version>
43012

> <i_f3d_flags>
0

> <s_epik_input>
W0NIM11bQ0BdMTJDKFtDSDNdKShbQ0gzXSlbQ0BIXShbQ0gyXVtDSDJdMSlbQ0gyXVtDQEBIXTJbTkhdQyg9TylbQ0gyXW4zW2NIXVtjSF1jKD1PKVtuSF1jMz1P

> <s_epik_cmdline>
J2VwaWtfcHl0aG9uJywgJy1waCcsICc3LjAnLCAnLXRuJywgJzgnLCAnLW1hJywgJzIwMCcsICctbWV0YWxfYmluZGluZycsICctaW1hZScsICc8aW5maWxlLm1hZT4nLCAnLW9tYWUnLCAnPG91dGZpbGUubWFlPic=

> <r_lp_tautomer_probability>
0.999537

> <r_epik_Ionization_Penalty>
3.12624

> <r_epik_Ionization_Penalty_Charging>
3.01273e-08

> <r_epik_Ionization_Penalty_Neutral>
3.12624

> <r_epik_State_Penalty>
3.12534

> <r_epik_Charging_Adjusted_Penalty>
3.12534

> <i_epik_Tot_Q>
-1

> <i_epik_Tot_abs_Q>
1

> <r_epik_Metal_State_Penalty>
0.46406

> <b_epik_Metal_Only>
1

> <s_lp_Force_Field>
OPLS_2005

> <r_lp_Energy>
65.0016

> <b_lp_Chiralities_Consistent>
1

> <s_lp_Variant>
AV-unprocessed.smi:623-5

> <Gold.Version>
5.8.1

> <Gold.Id.Protein>
6NUR|6NUR_protein|mol2

> <Gold.PLP.Fitness>
44.1052

> <Gold.PLP.PLP>
-33.4696

> <Gold.PLP.part.hbond>
-3.0000

> <Gold.PLP.part.metal>
0.0000

> <Gold.PLP.part.buried>
-4.6290

> <Gold.PLP.part.nonpolar>
-25.9456

> <Gold.PLP.part.repulsive>
0.2361

> <Gold.PLP.ligand.clash>
0.0000

> <Gold.PLP.ligand.torsion>
0.2042

> <Gold.PLP.Chemscore.Hbond>
3.6720

> <Gold.PLP.Chemscore.CHOScore>
0.0000

> <Gold.PLP.Chemscore.Metal>
0.0000

> <Gold.Chemscore.Hbonds>
donor molecule, donor type, donor heavy atom, donor atom, acceptor molecule, acceptor atom, score
      P1  H  6896  6908       L1    12  1.00
      P1  H  7997  8009       L1    18  0.96
      P1  H 10752 10763       L1    19  1.35

> <Gold.PLP.Chemscore.Internal.Correction>
0.0281

> <Gold.Rescore>
     Score         DG    S(hbond)    S(metal)    S(lipo)     H(rot)  DE(clash)    DE(int)     intcor
     18.72     -19.03       2.50        0.00      80.08       1.63       0.12       0.20       ----

> <Gold.Chemscore.Fitness>
18.7195

> <Gold.Chemscore.DG>
-19.0304

> <Gold.Chemscore.ZeroCoef>
-5.4800

> <Gold.Chemscore.Hbond>
2.5028

> <Gold.Chemscore.Metal>
0.0000

> <Gold.Chemscore.Lipo>
80.0800

> <Gold.Chemscore.Internal_Hbond>
0.0000

> <Gold.Chemscore.DEClash>
0.1154

> <Gold.Chemscore.DEInternal>
0.1955

> <Gold.Chemscore.Rot>
1.6322

> <Gold.Chemscore.Internal.Correction>
   9.000000E+99

> <Gold.Chemscore.Hbonds>
donor molecule, donor type, donor heavy atom, donor atom, acceptor molecule, acceptor atom, score
      P1  H  6896  6908       L1    12  0.96
      P1  H  7997  8009       L1    18  0.32
      P1  H 10752 10763       L1    19  0.49

> <Gold.Chemscore.Hbond.Weighted>
-8.3593

> <Gold.Chemscore.Metal.Weighted>
-0.0000

> <Gold.Chemscore.Lipo.Weighted>
-9.3694

> <Gold.Chemscore.Internal_Hbond.Weighted>
0.0000

> <Gold.Chemscore.DEClash.Weighted>
0.1154

> <Gold.Chemscore.DEInternal.Weighted>
0.1955

> <Gold.Chemscore.Rot.Weighted>
4.1783

> <Gold.Chemscore.Internal.Correction.Weighted>
   9.000000E+99

> <Gold.Protein.RotatedTorsions>
[ 6907 6896 6895 6894 ] final -176.52 input  -60.11 | X-H torsion
[ 7974 7965 7964 7962 ] final  -86.03 input  175.53 | X-H torsion
[ 8008 7997 7996 7995 ] final -135.03 input   59.86 | X-H torsion
[ 10167 10162 10161 10158 ] final  -63.20 input  -65.29 | X-H torsion
[ 10718 10713 10712 10709 ] final  -60.48 input   66.30 | X-H torsion
[ 10763 10752 10751 10750 ] final   64.55 input  -60.55 | X-H torsion
[ 11005 11000 10999 10996 ] final   13.26 input  -57.11 | X-H torsion

> <Gold.Protein.ActiveResidues>
 VAL166  LYS551  ARG553  GLY616  TRP617  ASP618  TYR619  PRO620  LYS621  CYS622 
 ASP623  PHE694  ASN695  SER759  ASP760  ASP761  ALA762  ILE779  LEU786  VAL792 
 PHE793  MET794  SER795  GLU796  ALA797  LYS798  CYS799  TRP800  GLU811  SER814 

> <Gold.Protein.RotatedAtoms>
  151.6062  133.3351  159.3057 H   0  0  0  0  0  0  0  0  0  0  0  0  # atno 6907 bound_to 6896
  150.8181  134.7377  159.6759 H   0  0  0  0  0  0  0  0  0  0  0  0  # atno 6908 bound_to 6896
  152.4276  134.5844  160.0008 H   0  0  0  0  0  0  0  0  0  0  0  0  # atno 6909 bound_to 6896
  145.4853  140.9555  143.1842 H   0  0  0  0  0  0  0  0  0  0  0  0  # atno 7974 bound_to 7965
  155.3719  140.0489  157.3045 H   0  0  0  0  0  0  0  0  0  0  0  0  # atno 8008 bound_to 7997
  154.5126  140.2197  155.9090 H   0  0  0  0  0  0  0  0  0  0  0  0  # atno 8009 bound_to 7997
  156.1600  140.3118  155.8796 H   0  0  0  0  0  0  0  0  0  0  0  0  # atno 8010 bound_to 7997
  140.5887  143.2338  151.6187 H   0  0  0  0  0  0  0  0  0  0  0  0  # atno 10167 bound_to 10162
  156.0987  130.4189  150.0861 H   0  0  0  0  0  0  0  0  0  0  0  0  # atno 10718 bound_to 10713
  153.0060  135.5389  154.6528 H   0  0  0  0  0  0  0  0  0  0  0  0  # atno 10763 bound_to 10752
  154.5756  135.2845  155.0786 H   0  0  0  0  0  0  0  0  0  0  0  0  # atno 10764 bound_to 10752
  154.1935  135.6496  153.5119 H   0  0  0  0  0  0  0  0  0  0  0  0  # atno 10765 bound_to 10752
  140.4828  134.0918  155.7754 H   0  0  0  0  0  0  0  0  0  0  0  0  # atno 11005 bound_to 11000
  144.7865  139.6416  143.7132 LP  0  0  0  0  0  0  0  0  0  0  0  0  # atno 17320 bound_to 7965
  146.2317  139.5826  142.9551 LP  0  0  0  0  0  0  0  0  0  0  0  0  # atno 17321 bound_to 7965
  139.5214  144.3195  152.0923 LP  0  0  0  0  0  0  0  0  0  0  0  0  # atno 17342 bound_to 10162
  140.2356  144.4323  150.6281 LP  0  0  0  0  0  0  0  0  0  0  0  0  # atno 17343 bound_to 10162
  156.8853  130.9570  151.3595 LP  0  0  0  0  0  0  0  0  0  0  0  0  # atno 17370 bound_to 10713
  157.6153  130.8614  149.9019 LP  0  0  0  0  0  0  0  0  0  0  0  0  # atno 17371 bound_to 10713
  141.1523  133.8946  157.2067 LP  0  0  0  0  0  0  0  0  0  0  0  0  # atno 17394 bound_to 11000
  139.9816  135.0096  156.9763 LP  0  0  0  0  0  0  0  0  0  0  0  0  # atno 17395 bound_to 11000

$$$$
