AV-unprocessed.smi:2821|AV-procd|sdf|10858|dock6
  -GOLD-   2272015303D 1   1.00000     0.00000
 Structure written by MMmdl.
 36 37  0  0  0  0  0  0  0  0  1 V2000
  145.8852  142.5972  154.3459 C   0  0  0  0  0  0  0  0  0  0  0  0
  147.1971  141.8208  154.2081 C   0  0  0  0  0  0  0  0  0  0  0  0
  147.7726  141.6603  155.5012 O   0  0  0  0  0  0  0  0  0  0  0  0
  149.0639  141.1825  155.5877 C   0  0  0  0  0  0  0  0  0  0  0  0
  149.5858  140.3941  154.5401 C   0  0  0  0  0  0  0  0  0  0  0  0
  150.8440  139.9025  154.5736 N   0  0  0  0  0  0  0  0  0  0  0  0
  151.5827  140.2029  155.6646 C   0  0  0  0  0  0  0  0  0  0  0  0
  151.0740  140.9902  156.7215 C   0  0  0  0  0  0  0  0  0  0  0  0
  151.8888  141.2619  157.8302 N   0  0  0  0  0  0  0  0  0  0  0  0
  151.5468  142.2900  158.8099 C   0  0  2  0  0  0  0  0  0  0  0  0
  151.1481  143.6051  158.1189 C   0  0  0  0  0  0  0  0  0  0  0  0
  152.7019  142.5109  159.8068 C   0  0  1  0  0  0  0  0  0  0  0  0
  152.2899  143.0345  161.1853 C   0  0  0  0  0  0  0  0  0  0  0  0
  153.4503  142.5733  162.0376 C   0  0  0  0  0  0  0  0  0  0  0  0
  153.7520  141.2042  161.4347 C   0  0  0  0  0  0  0  0  0  0  0  0
  153.4284  141.3074  160.0507 O   0  0  0  0  0  0  0  0  0  0  0  0
  149.8110  141.4786  156.6810 N   0  0  0  0  0  0  0  0  0  0  0  0
  145.4131  142.7391  153.3736 H   0  0  0  0  0  0  0  0  0  0  0  0
  146.0572  143.5821  154.7807 H   0  0  0  0  0  0  0  0  0  0  0  0
  145.1804  142.0658  154.9857 H   0  0  0  0  0  0  0  0  0  0  0  0
  147.0015  140.8467  153.7563 H   0  0  0  0  0  0  0  0  0  0  0  0
  147.8765  142.3674  153.5520 H   0  0  0  0  0  0  0  0  0  0  0  0
  148.9905  140.1569  153.6707 H   0  0  0  0  0  0  0  0  0  0  0  0
  152.5886  139.8096  155.6923 H   0  0  0  0  0  0  0  0  0  0  0  0
  152.7959  140.8228  157.8981 H   0  0  0  0  0  0  0  0  0  0  0  0
  150.6913  141.9430  159.3906 H   0  0  0  0  0  0  0  0  0  0  0  0
  150.8711  144.3628  158.8520 H   0  0  0  0  0  0  0  0  0  0  0  0
  150.2935  143.4678  157.4564 H   0  0  0  0  0  0  0  0  0  0  0  0
  151.9691  144.0047  157.5226 H   0  0  0  0  0  0  0  0  0  0  0  0
  153.4092  143.2240  159.3799 H   0  0  0  0  0  0  0  0  0  0  0  0
  152.1481  144.1155  161.2033 H   0  0  0  0  0  0  0  0  0  0  0  0
  151.3689  142.5650  161.5330 H   0  0  0  0  0  0  0  0  0  0  0  0
  154.3028  143.2405  161.9026 H   0  0  0  0  0  0  0  0  0  0  0  0
  153.2139  142.5288  163.1008 H   0  0  0  0  0  0  0  0  0  0  0  0
  154.7895  140.9025  161.5812 H   0  0  0  0  0  0  0  0  0  0  0  0
  153.1114  140.4433  161.8823 H   0  0  0  0  0  0  0  0  0  0  0  0
  1  2  1  0  0  0  0
  1 18  1  0  0  0  0
  1 19  1  0  0  0  0
  1 20  1  0  0  0  0
  2  3  1  0  0  0  0
  2 21  1  0  0  0  0
  2 22  1  0  0  0  0
  3  4  1  0  0  0  0
  4 17  1  0  0  0  0
  4  5  2  0  0  0  0
  5  6  1  0  0  0  0
  5 23  1  0  0  0  0
  6  7  2  0  0  0  0
  7  8  1  0  0  0  0
  7 24  1  0  0  0  0
  8  9  1  0  0  0  0
  8 17  2  0  0  0  0
  9 10  1  0  0  0  0
  9 25  1  0  0  0  0
 10 11  1  0  0  0  0
 10 12  1  0  0  0  0
 10 26  1  0  0  0  0
 11 27  1  0  0  0  0
 11 28  1  0  0  0  0
 11 29  1  0  0  0  0
 12 16  1  0  0  0  0
 12 13  1  0  0  0  0
 12 30  1  0  0  0  0
 13 14  1  0  0  0  0
 13 31  1  0  0  0  0
 13 32  1  0  0  0  0
 14 15  1  0  0  0  0
 14 33  1  0  0  0  0
 14 34  1  0  0  0  0
 15 16  1  0  0  0  0
 15 35  1  0  0  0  0
 15 36  1  0  0  0  0
M  END
> <s_m_source_file>
AV-unprocessed.smi

> <i_m_source_file_index>
2821

> <i_lp_mmshare_version>
43012

> <i_f3d_flags>
0

> <s_epik_input>
W0NIM11bQ0gyXU9jMVtjSF1uW2NIXWMobjEpW05IXVtDQEhdKFtDSDNdKVtDQEBIXTJbQ0gyXVtDSDJdW0NIMl1PMg==

> <s_epik_cmdline>
J2VwaWtfcHl0aG9uJywgJy1waCcsICc3LjAnLCAnLXRuJywgJzgnLCAnLW1hJywgJzIwMCcsICctbWV0YWxfYmluZGluZycsICctaW1hZScsICc8aW5maWxlLm1hZT4nLCAnLW9tYWUnLCAnPG91dGZpbGUubWFlPic=

> <r_lp_tautomer_probability>
1

> <r_epik_Ionization_Penalty>
4.69533e-05

> <r_epik_Ionization_Penalty_Charging>
0

> <r_epik_Ionization_Penalty_Neutral>
4.69533e-05

> <r_epik_State_Penalty>
-0

> <r_epik_Charging_Adjusted_Penalty>
0

> <i_epik_Tot_Q>
0

> <i_epik_Tot_abs_Q>
0

> <r_epik_Metal_State_Penalty>
-0

> <b_epik_Metal_Only>
0

> <s_lp_Force_Field>
OPLS_2005

> <r_lp_Energy>
29.921

> <b_lp_Chiralities_Consistent>
1

> <s_lp_Variant>
AV-unprocessed.smi:2821-3

> <Gold.Version>
5.8.1

> <Gold.Id.Protein>
6NUR|6NUR_protein|mol2

> <Gold.PLP.Fitness>
42.7887

> <Gold.PLP.PLP>
-38.8603

> <Gold.PLP.part.hbond>
-1.0000

> <Gold.PLP.part.metal>
0.0000

> <Gold.PLP.part.buried>
-4.9067

> <Gold.PLP.part.nonpolar>
-33.1945

> <Gold.PLP.part.repulsive>
0.7887

> <Gold.PLP.ligand.clash>
0.0000

> <Gold.PLP.ligand.torsion>
1.0647

> <Gold.PLP.Chemscore.Hbond>
1.0000

> <Gold.PLP.Chemscore.CHOScore>
1.0000

> <Gold.PLP.Chemscore.Metal>
0.0000

> <Gold.Chemscore.Hbonds>
donor molecule, donor type, donor heavy atom, donor atom, acceptor molecule, acceptor atom, score
      P1  H  7989  7998       L1     6  0.90
      L1  C     5    23       P1  7957  0.86

> <Gold.PLP.Chemscore.Internal.Correction>
0.0578

> <Gold.Rescore>
     Score         DG    S(hbond)    S(metal)    S(lipo)     H(rot)  DE(clash)    DE(int)     intcor
     11.08     -12.40       0.06        0.00      91.30       1.55       0.08       1.24       ----

> <Gold.Chemscore.Fitness>
11.0798

> <Gold.Chemscore.DG>
-12.3979

> <Gold.Chemscore.ZeroCoef>
-5.4800

> <Gold.Chemscore.Hbond>
0.0619

> <Gold.Chemscore.Metal>
0.0000

> <Gold.Chemscore.Lipo>
91.3040

> <Gold.Chemscore.Internal_Hbond>
0.0000

> <Gold.Chemscore.DEClash>
0.0799

> <Gold.Chemscore.DEInternal>
1.2382

> <Gold.Chemscore.Rot>
1.5514

> <Gold.Chemscore.Internal.Correction>
   9.000000E+99

> <Gold.Chemscore.Hbonds>
donor molecule, donor type, donor heavy atom, donor atom, acceptor molecule, acceptor atom, score
      P1  H  7989  7998       L1     6  0.06

> <Gold.Chemscore.Hbond.Weighted>
-0.2068

> <Gold.Chemscore.Metal.Weighted>
-0.0000

> <Gold.Chemscore.Lipo.Weighted>
-10.6826

> <Gold.Chemscore.Internal_Hbond.Weighted>
0.0000

> <Gold.Chemscore.DEClash.Weighted>
0.0799

> <Gold.Chemscore.DEInternal.Weighted>
1.2382

> <Gold.Chemscore.Rot.Weighted>
3.9715

> <Gold.Chemscore.Internal.Correction.Weighted>
   9.000000E+99

> <Gold.Protein.RotatedTorsions>
[ 6907 6896 6895 6894 ] final  -28.45 input  -60.11 | X-H torsion
[ 7974 7965 7964 7962 ] final -153.31 input  175.53 | X-H torsion
[ 8008 7997 7996 7995 ] final  -44.90 input   59.86 | X-H torsion
[ 10167 10162 10161 10158 ] final  -33.03 input  -65.29 | X-H torsion
[ 10718 10713 10712 10709 ] final   58.26 input   66.30 | X-H torsion
[ 10763 10752 10751 10750 ] final   39.55 input  -60.55 | X-H torsion
[ 11005 11000 10999 10996 ] final   52.23 input  -57.11 | X-H torsion

> <Gold.Protein.ActiveResidues>
 VAL166  LYS551  ARG553  GLY616  TRP617  ASP618  TYR619  PRO620  LYS621  CYS622 
 ASP623  PHE694  ASN695  SER759  ASP760  ASP761  ALA762  ILE779  LEU786  VAL792 
 PHE793  MET794  SER795  GLU796  ALA797  LYS798  CYS799  TRP800  GLU811  SER814 

> <Gold.Protein.RotatedAtoms>
  151.1328  135.0139  159.8589 H   0  0  0  0  0  0  0  0  0  0  0  0  # atno 6907 bound_to 6896
  152.5451  134.1590  159.8560 H   0  0  0  0  0  0  0  0  0  0  0  0  # atno 6908 bound_to 6896
  151.1659  133.4770  159.2627 H   0  0  0  0  0  0  0  0  0  0  0  0  # atno 6909 bound_to 6896
  144.7747  140.4543  143.5882 H   0  0  0  0  0  0  0  0  0  0  0  0  # atno 7974 bound_to 7965
  154.3999  140.1410  156.3759 H   0  0  0  0  0  0  0  0  0  0  0  0  # atno 8008 bound_to 7997
  155.8049  140.3474  155.5403 H   0  0  0  0  0  0  0  0  0  0  0  0  # atno 8009 bound_to 7997
  155.8446  140.0932  157.1704 H   0  0  0  0  0  0  0  0  0  0  0  0  # atno 8010 bound_to 7997
  140.7211  143.3650  151.1888 H   0  0  0  0  0  0  0  0  0  0  0  0  # atno 10167 bound_to 10162
  157.5582  130.8816  149.9069 H   0  0  0  0  0  0  0  0  0  0  0  0  # atno 10718 bound_to 10713
  152.9963  135.6217  154.2484 H   0  0  0  0  0  0  0  0  0  0  0  0  # atno 10763 bound_to 10752
  154.2223  135.2795  155.2922 H   0  0  0  0  0  0  0  0  0  0  0  0  # atno 10764 bound_to 10752
  154.5518  135.5731  153.6987 H   0  0  0  0  0  0  0  0  0  0  0  0  # atno 10765 bound_to 10752
  140.0866  134.5265  155.8893 H   0  0  0  0  0  0  0  0  0  0  0  0  # atno 11005 bound_to 11000
  145.6220  139.1525  143.3017 LP  0  0  0  0  0  0  0  0  0  0  0  0  # atno 17320 bound_to 7965
  146.1919  140.6329  142.9142 LP  0  0  0  0  0  0  0  0  0  0  0  0  # atno 17321 bound_to 7965
  139.7210  143.9223  152.2985 LP  0  0  0  0  0  0  0  0  0  0  0  0  # atno 17342 bound_to 10162
  139.8980  144.6928  150.8696 LP  0  0  0  0  0  0  0  0  0  0  0  0  # atno 17343 bound_to 10162
  156.0638  130.3695  150.0923 LP  0  0  0  0  0  0  0  0  0  0  0  0  # atno 17370 bound_to 10713
  156.9090  130.9645  151.3566 LP  0  0  0  0  0  0  0  0  0  0  0  0  # atno 17371 bound_to 10713
  141.2064  133.6655  156.6243 LP  0  0  0  0  0  0  0  0  0  0  0  0  # atno 17394 bound_to 11000
  140.3411  134.7848  157.4398 LP  0  0  0  0  0  0  0  0  0  0  0  0  # atno 17395 bound_to 11000

$$$$
