#       Name:                AV-unprocessed.smi:458
#       Creating user name   scv26
#       Creation time:       Thu Mar 26 23:02:21 2020


#       File generated by GOLD software.
#

@<TRIPOS>MOLECULE
AV-unprocessed.smi:458
    41    43     1
SMALL
NO_CHARGES


@<TRIPOS>ATOM
      1 ****        -0.9322   3.0805  -1.8927 O.3            1 S1                 0.0000
      2 ****        -1.4175   2.7047  -0.6216 C.3            1 S1                 0.0000
      3 ****        -2.0132   1.3297  -0.6125 C.2            1 S1                 0.0000
      4 ****        -3.3317   1.1331  -0.6394 N.2            1 S1                 0.0000
      5 ****        -3.4339  -0.2443  -0.6322 C.ar           1 S1                 0.0000
      6 ****        -4.5732  -1.0804  -0.6536 C.ar           1 S1                 0.0000
      7 ****        -4.4296  -2.4833  -0.6405 C.ar           1 S1                 0.0000
      8 ****        -3.1476  -3.0693  -0.6060 C.ar           1 S1                 0.0000
      9 ****        -1.9993  -2.2545  -0.5847 C.ar           1 S1                 0.0000
     10 ****        -2.1479  -0.8545  -0.5982 C.ar           1 S1                 0.0000
     11 ****        -1.2495   0.2084  -0.5839 N.pl3          1 S1                 0.0000
     12 ****         0.2038   0.1108  -0.5516 C.3            1 S1                 0.0000
     13 ****         0.7794   0.1827   0.8770 C.3            1 S1                 0.0000
     14 ****         0.2460  -0.8608   1.6697 O.3            1 S1                 0.0000
     15 ****         2.3001   0.1770   0.8541 C.ar           1 S1                 0.0000
     16 ****         3.0194  -1.0364   0.7733 C.ar           1 S1                 0.0000
     17 ****         4.4277  -1.0256   0.7405 C.ar           1 S1                 0.0000
     18 ****         5.1245   0.1971   0.7826 C.ar           1 S1                 0.0000
     19 ****         6.4780   0.2069   0.7480 F              1 S1                 0.0000
     20 ****         4.4127   1.4097   0.8580 C.ar           1 S1                 0.0000
     21 ****         3.0047   1.3995   0.8926 C.ar           1 S1                 0.0000
     22 ****        -0.5996   3.9632  -1.8381 H              1 S1                 0.0000
     23 ****        -0.6095   2.7666   0.1063 H              1 S1                 0.0000
     24 ****        -2.1732   3.4268  -0.3105 H              1 S1                 0.0000
     25 ****        -5.5595  -0.6414  -0.6807 H              1 S1                 0.0000
     26 ****        -5.3072  -3.1128  -0.6568 H              1 S1                 0.0000
     27 ****        -3.0462  -4.1447  -0.5954 H              1 S1                 0.0000
     28 ****        -1.0160  -2.6999  -0.5557 H              1 S1                 0.0000
     29 ****         0.4998  -0.8230  -1.0317 H              1 S1                 0.0000
     30 ****         0.6205   0.9082  -1.1671 H              1 S1                 0.0000
     31 ****         0.4560   1.1128   1.3449 H              1 S1                 0.0000
     32 ****         0.5312  -0.7352   2.5618 H              1 S1                 0.0000
     33 ****         2.4951  -1.9799   0.7323 H              1 S1                 0.0000
     34 ****         4.9733  -1.9558   0.6805 H              1 S1                 0.0000
     35 ****         4.9464   2.3483   0.8874 H              1 S1                 0.0000
     36 ****         2.4670   2.3350   0.9449 H              1 S1                 0.0000
     37 ****        -1.6739   3.0404  -2.5622 LP             1 S1                 0.0000
     38 ****        -0.1986   2.4603  -2.1705 LP             1 S1                 0.0000
     39 ****        -4.0642   1.8136  -0.6598 LP             1 S1                 0.0000
     40 ****         0.5742  -1.7428   1.3316 LP             1 S1                 0.0000
     41 ****        -0.7529  -0.8388   1.6286 LP             1 S1                 0.0000
@<TRIPOS>BOND
    1    1    2 1     
    2    1   22 1     
    3    2    3 1     
    4    2   23 1     
    5    2   24 1     
    6    3   11 1     
    7    3    4 2     
    8    4    5 1     
    9    5   10 ar    
   10    5    6 ar    
   11    6    7 ar    
   12    6   25 1     
   13    7    8 ar    
   14    7   26 1     
   15    8    9 ar    
   16    8   27 1     
   17    9   10 ar    
   18    9   28 1     
   19   10   11 1     
   20   11   12 1     
   21   12   13 1     
   22   12   29 1     
   23   12   30 1     
   24   13   14 1     
   25   13   15 1     
   26   13   31 1     
   27   14   32 1     
   28   15   21 ar    
   29   15   16 ar    
   30   16   17 ar    
   31   16   33 1     
   32   17   18 ar    
   33   17   34 1     
   34   18   19 1     
   35   18   20 ar    
   36   20   21 ar    
   37   20   35 1     
   38   21   36 1     
   39    1   37 1     
   40    1   38 1     
   41    4   39 1     
   42   14   40 1     
   43   14   41 1     
@<TRIPOS>SUBSTRUCTURE
      1 S1             1
@<TRIPOS>SET
LONE_PAIRS      STATIC     ATOMS    <user>   **** ""
5 37 38 39 40 41
DONOR_HYDROGENS      STATIC     ATOMS    <user>   **** ""
2 22 32
ATOM$BLUE        STATIC     ATOMS    COLORGROUP SYSTEM
5 37 38 39 40 41
ATOM$RED        STATIC     ATOMS    COLORGROUP SYSTEM
2 22 32
