#       Name:                AV-unprocessed.smi:2385
#       Creating user name   scv26
#       Creation time:       Fri Mar 27 13:09:28 2020


#       File generated by GOLD software.
#

@<TRIPOS>MOLECULE
AV-unprocessed.smi:2385
    55    57     1
SMALL
NO_CHARGES


@<TRIPOS>ATOM
      1 ****        -6.3224   5.6598  -1.4978 C.3            1 S1                 0.0000
      2 ****        -5.1633   4.7885  -1.0610 C.ar           1 S1                 0.0000
      3 ****        -5.3570   3.6921  -0.1993 C.ar           1 S1                 0.0000
      4 ****        -4.2421   2.9163   0.1730 C.ar           1 S1                 0.0000
      5 ****        -2.9626   3.2542  -0.3228 C.ar           1 S1                 0.0000
      6 ****        -1.9067   2.4086   0.1108 N.am           1 S1                 0.0000
      7 ****        -0.5979   2.4958  -0.1857 C.2            1 S1                 0.0000
      8 ****        -0.0817   3.3647  -0.8889 O.2            1 S1                 0.0000
      9 ****         0.0978   1.5019   0.3867 N.am           1 S1                 0.0000
     10 ****         1.5444   1.3114   0.2787 C.3            1 S1                 0.0000
     11 ****         1.9510   0.7321  -1.0903 C.3            1 S1                 0.0000
     12 ****         1.5128  -0.7342  -1.2489 C.3            1 S1                 0.0000
     13 ****         2.0467  -1.5815  -0.1502 N.4            1 S1                 1.0000
     14 ****         1.7520  -3.0243  -0.3595 C.3            1 S1                 0.0000
     15 ****         2.8509  -3.9527   0.1990 C.3            1 S1                 0.0000
     16 ****         2.7950  -4.2237   1.7005 C.3            1 S1                 0.0000
     17 ****         3.2162  -5.6900   1.8470 C.3            1 S1                 0.0000
     18 ****         3.5660  -6.1164   0.5385 O.3            1 S1                 0.0000
     19 ****         2.7841  -5.3673  -0.3736 C.3            1 S1                 0.0000
     20 ****         1.6153  -1.0765   1.1807 C.3            1 S1                 0.0000
     21 ****         2.0505   0.3849   1.3969 C.3            1 S1                 0.0000
     22 ****        -2.7864   4.3122  -1.1532 N.ar           1 S1                 0.0000
     23 ****        -3.8552   5.0553  -1.5093 C.ar           1 S1                 0.0000
     24 ****        -7.2654   5.3035  -1.0824 H              1 S1                 0.0000
     25 ****        -6.4066   5.6588  -2.5849 H              1 S1                 0.0000
     26 ****        -6.1688   6.6868  -1.1652 H              1 S1                 0.0000
     27 ****        -6.3411   3.4454   0.1720 H              1 S1                 0.0000
     28 ****        -4.3739   2.0715   0.8337 H              1 S1                 0.0000
     29 ****        -2.1826   1.6473   0.7130 H              1 S1                 0.0000
     30 ****        -0.4086   0.8379   0.9539 H              1 S1                 0.0000
     31 ****         2.0196   2.2861   0.4048 H              1 S1                 0.0000
     32 ****         1.5421   1.3344  -1.9023 H              1 S1                 0.0000
     33 ****         3.0354   0.7910  -1.1936 H              1 S1                 0.0000
     34 ****         0.4242  -0.8062  -1.2716 H              1 S1                 0.0000
     35 ****         1.8738  -1.1043  -2.2092 H              1 S1                 0.0000
     36 ****         0.7677  -3.2820   0.0346 H              1 S1                 0.0000
     37 ****         1.6961  -3.2118  -1.4328 H              1 S1                 0.0000
     38 ****         3.8335  -3.5479  -0.0497 H              1 S1                 0.0000
     39 ****         3.4637  -3.5591   2.2482 H              1 S1                 0.0000
     40 ****         1.7882  -4.0896   2.0983 H              1 S1                 0.0000
     41 ****         4.0551  -5.8172   2.5316 H              1 S1                 0.0000
     42 ****         2.3845  -6.2935   2.2129 H              1 S1                 0.0000
     43 ****         1.7613  -5.7481  -0.3788 H              1 S1                 0.0000
     44 ****         3.1814  -5.4313  -1.3869 H              1 S1                 0.0000
     45 ****         0.5317  -1.1657   1.2715 H              1 S1                 0.0000
     46 ****         2.0447  -1.6833   1.9747 H              1 S1                 0.0000
     47 ****         3.1401   0.4289   1.4313 H              1 S1                 0.0000
     48 ****         1.7036   0.7397   2.3683 H              1 S1                 0.0000
     49 ****        -3.6597   5.8859  -2.1716 H              1 S1                 0.0000
     50 ****         3.0515  -1.4874  -0.1922 H              1 S1                 0.0000
     51 ****        -0.6481   4.0834  -1.2920 LP             1 S1                 0.0000
     52 ****         0.9040   3.3516  -1.0569 LP             1 S1                 0.0000
     53 ****         3.3727  -7.0919   0.4337 LP             1 S1                 0.0000
     54 ****         4.5380  -5.9496   0.3730 LP             1 S1                 0.0000
     55 ****        -1.8753   4.5389  -1.4974 LP             1 S1                 0.0000
@<TRIPOS>BOND
    1    1    2 1     
    2    1   24 1     
    3    1   25 1     
    4    1   26 1     
    5    2   23 ar    
    6    2    3 ar    
    7    3    4 ar    
    8    3   27 1     
    9    4    5 ar    
   10    4   28 1     
   11    5    6 1     
   12    5   22 ar    
   13    6    7 am    
   14    6   29 1     
   15    7    8 2     
   16    7    9 am    
   17    9   10 1     
   18    9   30 1     
   19   10   21 1     
   20   10   11 1     
   21   10   31 1     
   22   11   12 1     
   23   11   32 1     
   24   11   33 1     
   25   12   13 1     
   26   12   34 1     
   27   12   35 1     
   28   13   14 1     
   29   13   20 1     
   30   13   50 1     
   31   14   15 1     
   32   14   36 1     
   33   14   37 1     
   34   15   19 1     
   35   15   16 1     
   36   15   38 1     
   37   16   17 1     
   38   16   39 1     
   39   16   40 1     
   40   17   18 1     
   41   17   41 1     
   42   17   42 1     
   43   18   19 1     
   44   19   43 1     
   45   19   44 1     
   46   20   21 1     
   47   20   45 1     
   48   20   46 1     
   49   21   47 1     
   50   21   48 1     
   51   22   23 ar    
   52   23   49 1     
   53    8   51 1     
   54    8   52 1     
   55   18   53 1     
   56   18   54 1     
   57   22   55 1     
@<TRIPOS>SUBSTRUCTURE
      1 S1             1
@<TRIPOS>SET
LONE_PAIRS      STATIC     ATOMS    <user>   **** ""
5 51 52 53 54 55
DONOR_HYDROGENS      STATIC     ATOMS    <user>   **** ""
3 29 30 50
ATOM$BLUE        STATIC     ATOMS    COLORGROUP SYSTEM
5 51 52 53 54 55
ATOM$RED        STATIC     ATOMS    COLORGROUP SYSTEM
3 29 30 50
