AV-unprocessed.smi:209|AV-procd|sdf|1610|dock9
  -GOLD-   2262019533D 1   1.00000     0.00000
 Structure written by MMmdl.
 48 52  0  0  0  0  0  0  0  0  1 V2000
  154.2017  142.2611  160.5321 O   0  0  0  0  0  0  0  0  0  0  0  0
  153.2820  141.6726  159.9671 C   0  0  0  0  0  0  0  0  0  0  0  0
  153.3199  140.4250  159.5022 N   0  0  0  0  0  0  0  0  0  0  0  0
  152.1047  140.0389  158.8049 C   0  0  0  0  0  0  0  0  0  0  0  0
  151.3338  141.3668  158.6007 C   0  0  1  0  0  0  0  0  0  0  0  0
  151.9018  142.2668  159.7256 C   0  0  2  0  0  0  0  0  0  0  0  0
  151.8459  143.7852  159.4554 C   0  0  0  0  0  0  0  0  0  0  0  0
  152.2294  144.1310  158.0141 C   0  0  0  0  0  0  0  0  0  0  0  0
  151.3639  143.3254  157.0411 C   0  0  0  0  0  0  0  0  0  0  0  0
  151.5723  141.8944  157.2441 N   0  0  0  0  0  0  0  0  0  0  0  0
  151.1218  141.1619  156.1929 C   0  0  0  0  0  0  0  0  0  0  0  0
  151.9377  140.2544  155.5927 N   0  0  0  0  0  0  0  0  0  0  0  0
  151.4922  139.5221  154.5679 C   0  0  0  0  0  0  0  0  0  0  0  0
  150.2879  139.5366  153.9934 N   0  0  0  0  0  0  0  0  0  0  0  0
  149.4671  140.4498  154.5872 C   0  0  0  0  0  0  0  0  0  0  0  0
  149.8005  141.2948  155.6824 C   0  0  0  0  0  0  0  0  0  0  0  0
  148.7135  142.0949  156.0114 N   0  0  0  0  0  0  0  0  0  0  0  0
  147.7874  141.7375  155.1638 C   0  0  0  0  0  0  0  0  0  0  0  0
  148.1569  140.7609  154.2655 N   0  0  0  0  0  0  0  0  0  0  0  0
  147.3290  140.1712  153.2232 C   0  0  0  0  0  0  0  0  0  0  0  0
  146.7325  138.7948  153.5816 C   0  0  0  0  0  0  0  0  0  0  0  0
  146.1390  138.1632  152.3061 C   0  0  0  0  0  0  0  0  0  0  0  0
  147.1295  137.7987  151.3656 O   0  0  0  0  0  0  0  0  0  0  0  0
  147.6714  137.9172  154.4237 C   0  0  0  0  0  0  0  0  0  0  0  0
  146.9122  138.1570  155.6289 O   0  0  0  0  0  0  0  0  0  0  0  0
  145.8584  138.7581  154.8444 C   0  0  0  0  0  0  0  0  0  0  0  0
  150.2630  141.2221  158.7503 H   0  0  0  0  0  0  0  0  0  0  0  0
  151.3452  142.0698  160.6430 H   0  0  0  0  0  0  0  0  0  0  0  0
  154.1312  139.8261  159.5543 H   0  0  0  0  0  0  0  0  0  0  0  0
  152.3360  139.5048  157.8829 H   0  0  0  0  0  0  0  0  0  0  0  0
  151.5389  139.3630  159.4468 H   0  0  0  0  0  0  0  0  0  0  0  0
  150.8312  144.1377  159.6440 H   0  0  0  0  0  0  0  0  0  0  0  0
  152.4845  144.3273  160.1538 H   0  0  0  0  0  0  0  0  0  0  0  0
  152.0934  145.1986  157.8395 H   0  0  0  0  0  0  0  0  0  0  0  0
  153.2849  143.9165  157.8412 H   0  0  0  0  0  0  0  0  0  0  0  0
  150.3088  143.5593  157.1899 H   0  0  0  0  0  0  0  0  0  0  0  0
  151.6103  143.6182  156.0202 H   0  0  0  0  0  0  0  0  0  0  0  0
  152.2018  138.8243  154.1485 H   0  0  0  0  0  0  0  0  0  0  0  0
  146.8017  142.1791  155.1758 H   0  0  0  0  0  0  0  0  0  0  0  0
  146.5338  140.8768  152.9794 H   0  0  0  0  0  0  0  0  0  0  0  0
  147.9386  140.0970  152.3214 H   0  0  0  0  0  0  0  0  0  0  0  0
  145.5743  137.2606  152.5394 H   0  0  0  0  0  0  0  0  0  0  0  0
  145.4498  138.8528  151.8181 H   0  0  0  0  0  0  0  0  0  0  0  0
  147.5983  137.0483  151.6978 H   0  0  0  0  0  0  0  0  0  0  0  0
  147.6784  136.8603  154.1544 H   0  0  0  0  0  0  0  0  0  0  0  0
  148.6909  138.2987  154.4922 H   0  0  0  0  0  0  0  0  0  0  0  0
  145.5702  139.7373  155.2243 H   0  0  0  0  0  0  0  0  0  0  0  0
  144.9875  138.1053  154.7709 H   0  0  0  0  0  0  0  0  0  0  0  0
  1  2  2  0  0  0  0
  2  6  1  0  0  0  0
  2  3  1  0  0  0  0
  3  4  1  0  0  0  0
  3 29  1  0  0  0  0
  4  5  1  0  0  0  0
  4 30  1  0  0  0  0
  4 31  1  0  0  0  0
  5 27  1  0  0  0  0
  5 10  1  0  0  0  0
  5  6  1  0  0  0  0
  6 28  1  0  0  0  0
  6  7  1  0  0  0  0
  7  8  1  0  0  0  0
  7 32  1  0  0  0  0
  7 33  1  0  0  0  0
  8  9  1  0  0  0  0
  8 34  1  0  0  0  0
  8 35  1  0  0  0  0
  9 10  1  0  0  0  0
  9 36  1  0  0  0  0
  9 37  1  0  0  0  0
 10 11  1  0  0  0  0
 11 16  1  0  0  0  0
 11 12  2  0  0  0  0
 12 13  1  0  0  0  0
 13 14  2  0  0  0  0
 13 38  1  0  0  0  0
 14 15  1  0  0  0  0
 15 19  1  0  0  0  0
 15 16  2  0  0  0  0
 16 17  1  0  0  0  0
 17 18  2  0  0  0  0
 18 19  1  0  0  0  0
 18 39  1  0  0  0  0
 19 20  1  0  0  0  0
 20 21  1  0  0  0  0
 20 40  1  0  0  0  0
 20 41  1  0  0  0  0
 21 26  1  0  0  0  0
 21 22  1  0  0  0  0
 21 24  1  0  0  0  0
 22 23  1  0  0  0  0
 22 42  1  0  0  0  0
 22 43  1  0  0  0  0
 23 44  1  0  0  0  0
 24 25  1  0  0  0  0
 24 45  1  0  0  0  0
 24 46  1  0  0  0  0
 25 26  1  0  0  0  0
 26 47  1  0  0  0  0
 26 48  1  0  0  0  0
M  END
> <s_m_source_file>
AV-unprocessed.smi

> <i_m_source_file_index>
209

> <i_lp_mmshare_version>
43012

> <i_f3d_flags>
0

> <s_epik_input>
W0NIMl0xW05IXUMoPU8pW0NAQEhdKFtDQEBIXTEyKVtDSDJdW0NIMl1bQ0gyXU4yYyhuW2NIXW4zKWMoYzM0KW5bY0hdbjRbQ0gyXUM1KFtDSDJdW09IXSlbQ0gyXU9bQ0gyXTU=

> <s_epik_cmdline>
J2VwaWtfcHl0aG9uJywgJy1waCcsICc3LjAnLCAnLXRuJywgJzgnLCAnLW1hJywgJzIwMCcsICctbWV0YWxfYmluZGluZycsICctaW1hZScsICc8aW5maWxlLm1hZT4nLCAnLW9tYWUnLCAnPG91dGZpbGUubWFlPic=

> <r_lp_tautomer_probability>
1

> <r_epik_Ionization_Penalty>
0.00113306

> <r_epik_Ionization_Penalty_Charging>
0

> <r_epik_Ionization_Penalty_Neutral>
0.00113306

> <r_epik_State_Penalty>
0.000624042

> <r_epik_Charging_Adjusted_Penalty>
0.000624042

> <i_epik_Tot_Q>
0

> <i_epik_Tot_abs_Q>
0

> <r_epik_Metal_State_Penalty>
-0

> <b_epik_Metal_Only>
0

> <s_lp_Force_Field>
OPLS_2005

> <r_lp_Energy>
50.5129

> <b_lp_Chiralities_Consistent>
1

> <s_lp_Variant>
AV-unprocessed.smi:209-4

> <Gold.Version>
5.8.1

> <Gold.Id.Protein>
6NUR|6NUR_protein|mol2

> <Gold.PLP.Fitness>
44.5646

> <Gold.PLP.PLP>
-40.9066

> <Gold.PLP.part.hbond>
-3.7825

> <Gold.PLP.part.metal>
0.0000

> <Gold.PLP.part.buried>
-1.2032

> <Gold.PLP.part.nonpolar>
-39.9278

> <Gold.PLP.part.repulsive>
3.6806

> <Gold.PLP.ligand.clash>
0.0000

> <Gold.PLP.ligand.torsion>
0.9816

> <Gold.PLP.Chemscore.Hbond>
1.6440

> <Gold.PLP.Chemscore.CHOScore>
0.0000

> <Gold.PLP.Chemscore.Metal>
0.0000

> <Gold.Chemscore.Hbonds>
donor molecule, donor type, donor heavy atom, donor atom, acceptor molecule, acceptor atom, score
      L1  H    23    44       P1  7948  0.98
      P1  H  7954  7966       L1    23  0.60

> <Gold.PLP.Chemscore.Internal.Correction>
0.6893

> <Gold.Rescore>
     Score         DG    S(hbond)    S(metal)    S(lipo)     H(rot)  DE(clash)    DE(int)     intcor
      7.42     -11.13       0.76        0.00      84.91       2.66       2.87       0.84       ----

> <Gold.Chemscore.Fitness>
7.4214

> <Gold.Chemscore.DG>
-11.1344

> <Gold.Chemscore.ZeroCoef>
-5.4800

> <Gold.Chemscore.Hbond>
0.7590

> <Gold.Chemscore.Metal>
0.0000

> <Gold.Chemscore.Lipo>
84.9077

> <Gold.Chemscore.Internal_Hbond>
0.0000

> <Gold.Chemscore.DEClash>
2.8687

> <Gold.Chemscore.DEInternal>
0.8443

> <Gold.Chemscore.Rot>
2.6620

> <Gold.Chemscore.Internal.Correction>
   9.000000E+99

> <Gold.Chemscore.Hbonds>
donor molecule, donor type, donor heavy atom, donor atom, acceptor molecule, acceptor atom, score
      L1  H    23    44       P1  7948  0.90
      P1  H  7954  7966       L1    23  0.04

> <Gold.Chemscore.Hbond.Weighted>
-2.5350

> <Gold.Chemscore.Metal.Weighted>
-0.0000

> <Gold.Chemscore.Lipo.Weighted>
-9.9342

> <Gold.Chemscore.Internal_Hbond.Weighted>
0.0000

> <Gold.Chemscore.DEClash.Weighted>
2.8687

> <Gold.Chemscore.DEInternal.Weighted>
0.8443

> <Gold.Chemscore.Rot.Weighted>
6.8148

> <Gold.Chemscore.Internal.Correction.Weighted>
   9.000000E+99

> <Gold.Protein.RotatedTorsions>
[ 6907 6896 6895 6894 ] final   40.37 input  -60.11 | X-H torsion
[ 7974 7965 7964 7962 ] final  164.11 input  175.53 | X-H torsion
[ 8008 7997 7996 7995 ] final  127.04 input   59.86 | X-H torsion
[ 10167 10162 10161 10158 ] final  -48.94 input  -65.29 | X-H torsion
[ 10718 10713 10712 10709 ] final  105.87 input   66.30 | X-H torsion
[ 10763 10752 10751 10750 ] final  -87.47 input  -60.55 | X-H torsion
[ 11005 11000 10999 10996 ] final  -90.49 input  -57.11 | X-H torsion

> <Gold.Protein.ActiveResidues>
 VAL166  LYS551  ARG553  GLY616  TRP617  ASP618  TYR619  PRO620  LYS621  CYS622 
 ASP623  PHE694  ASN695  SER759  ASP760  ASP761  ALA762  ILE779  LEU786  VAL792 
 PHE793  MET794  SER795  GLU796  ALA797  LYS798  CYS799  TRP800  GLU811  SER814 

> <Gold.Protein.RotatedAtoms>
  152.1817  134.8748  160.0525 H   0  0  0  0  0  0  0  0  0  0  0  0  # atno 6907 bound_to 6896
  151.9670  133.3708  159.4065 H   0  0  0  0  0  0  0  0  0  0  0  0  # atno 6908 bound_to 6896
  150.6918  134.4103  159.5203 H   0  0  0  0  0  0  0  0  0  0  0  0  # atno 6909 bound_to 6896
  144.7559  139.8279  143.6350 H   0  0  0  0  0  0  0  0  0  0  0  0  # atno 7974 bound_to 7965
  156.2880  140.2678  156.2208 H   0  0  0  0  0  0  0  0  0  0  0  0  # atno 8008 bound_to 7997
  155.0170  140.0387  157.2440 H   0  0  0  0  0  0  0  0  0  0  0  0  # atno 8009 bound_to 7997
  154.7469  140.2735  155.6330 H   0  0  0  0  0  0  0  0  0  0  0  0  # atno 8010 bound_to 7997
  140.6708  143.2718  151.4143 H   0  0  0  0  0  0  0  0  0  0  0  0  # atno 10167 bound_to 10162
  157.6690  131.0837  150.5921 H   0  0  0  0  0  0  0  0  0  0  0  0  # atno 10718 bound_to 10713
  154.6340  135.5412  153.7712 H   0  0  0  0  0  0  0  0  0  0  0  0  # atno 10763 bound_to 10752
  153.0299  135.6443  154.1259 H   0  0  0  0  0  0  0  0  0  0  0  0  # atno 10764 bound_to 10752
  154.1188  135.2922  155.3193 H   0  0  0  0  0  0  0  0  0  0  0  0  # atno 10765 bound_to 10752
  141.1564  133.7695  156.9745 H   0  0  0  0  0  0  0  0  0  0  0  0  # atno 11005 bound_to 11000
  146.1569  139.4670  143.0013 LP  0  0  0  0  0  0  0  0  0  0  0  0  # atno 17320 bound_to 7965
  145.6780  141.0199  143.1622 LP  0  0  0  0  0  0  0  0  0  0  0  0  # atno 17321 bound_to 7965
  139.5976  144.1365  152.2161 LP  0  0  0  0  0  0  0  0  0  0  0  0  # atno 17342 bound_to 10162
  140.0739  144.5757  150.7171 LP  0  0  0  0  0  0  0  0  0  0  0  0  # atno 17343 bound_to 10162
  156.6221  130.4409  149.5818 LP  0  0  0  0  0  0  0  0  0  0  0  0  # atno 17370 bound_to 10713
  156.2347  130.6816  151.1498 LP  0  0  0  0  0  0  0  0  0  0  0  0  # atno 17371 bound_to 10713
  140.1107  134.9479  157.2061 LP  0  0  0  0  0  0  0  0  0  0  0  0  # atno 17394 bound_to 11000
  140.3198  134.2929  155.7249 LP  0  0  0  0  0  0  0  0  0  0  0  0  # atno 17395 bound_to 11000

$$$$
