AV-unprocessed.smi:2446|AV-procd|sdf|9641|dock8
  -GOLD-   2272013273D 1   1.00000     0.00000
 Structure written by MMmdl.
 39 40  0  0  0  0  0  0  0  0  1 V2000
  151.7029  144.9561  157.7131 C   0  0  0  0  0  0  0  0  0  0  0  0
  152.0039  143.6296  158.3893 C   0  0  0  0  0  0  0  0  0  0  0  0
  153.1164  143.5150  159.2504 C   0  0  0  0  0  0  0  0  0  0  0  0
  153.4494  142.3759  159.8913 N   0  0  0  0  0  0  0  0  0  0  0  0
  152.6685  141.2936  159.6969 C   0  0  0  0  0  0  0  0  0  0  0  0
  151.5360  141.2949  158.8595 C   0  0  0  0  0  0  0  0  0  0  0  0
  151.1959  142.4866  158.1747 C   0  0  0  0  0  0  0  0  0  0  0  0
  150.0664  142.6049  157.3170 N   0  0  0  0  0  0  0  0  0  0  0  0
  149.1074  141.7002  157.0383 C   0  0  0  0  0  0  0  0  0  0  0  0
  149.0374  140.5753  157.5282 O   0  0  0  0  0  0  0  0  0  0  0  0
  148.2006  142.1207  156.1373 N   0  0  0  0  0  0  0  0  0  0  0  0
  147.0347  141.4058  155.6060 C   0  0  2  0  0  0  0  0  0  0  0  0
  147.1380  141.2935  154.0731 C   0  0  0  0  0  0  0  0  0  0  0  0
  146.9273  142.6477  153.3753 C   0  0  0  0  0  0  0  0  0  0  0  0
  145.5977  143.2934  153.7943 C   0  0  0  0  0  0  0  0  0  0  0  0
  145.4996  143.4538  155.3259 C   0  0  1  0  0  0  0  0  0  0  0  0
  144.1747  144.1180  155.7538 C   0  0  0  0  0  0  0  0  0  0  0  0
  144.1716  144.3717  157.0627 F   0  0  0  0  0  0  0  0  0  0  0  0
  144.0048  145.2632  155.0930 F   0  0  0  0  0  0  0  0  0  0  0  0
  143.1485  143.3166  155.4677 F   0  0  0  0  0  0  0  0  0  0  0  0
  145.7097  142.0875  156.0169 C   0  0  0  0  0  0  0  0  0  0  0  0
  152.4079  145.7277  158.0239 H   0  0  0  0  0  0  0  0  0  0  0  0
  150.6987  145.2960  157.9682 H   0  0  0  0  0  0  0  0  0  0  0  0
  151.7696  144.8544  156.6297 H   0  0  0  0  0  0  0  0  0  0  0  0
  153.7597  144.3630  159.4342 H   0  0  0  0  0  0  0  0  0  0  0  0
  152.9506  140.3985  160.2313 H   0  0  0  0  0  0  0  0  0  0  0  0
  150.9517  140.3923  158.7722 H   0  0  0  0  0  0  0  0  0  0  0  0
  150.0230  143.4609  156.7841 H   0  0  0  0  0  0  0  0  0  0  0  0
  148.3337  143.0556  155.7795 H   0  0  0  0  0  0  0  0  0  0  0  0
  147.0437  140.3895  156.0036 H   0  0  0  0  0  0  0  0  0  0  0  0
  148.1034  140.8729  153.7889 H   0  0  0  0  0  0  0  0  0  0  0  0
  146.3852  140.5898  153.7155 H   0  0  0  0  0  0  0  0  0  0  0  0
  147.7521  143.3201  153.6144 H   0  0  0  0  0  0  0  0  0  0  0  0
  146.9470  142.5124  152.2936 H   0  0  0  0  0  0  0  0  0  0  0  0
  145.5000  144.2643  153.3081 H   0  0  0  0  0  0  0  0  0  0  0  0
  144.7688  142.6839  153.4322 H   0  0  0  0  0  0  0  0  0  0  0  0
  146.3070  144.1163  155.6414 H   0  0  0  0  0  0  0  0  0  0  0  0
  144.8811  141.4261  155.7605 H   0  0  0  0  0  0  0  0  0  0  0  0
  145.6678  142.2069  157.0994 H   0  0  0  0  0  0  0  0  0  0  0  0
  1  2  1  0  0  0  0
  1 22  1  0  0  0  0
  1 23  1  0  0  0  0
  1 24  1  0  0  0  0
  2  7  1  0  0  0  0
  2  3  2  0  0  0  0
  3  4  1  0  0  0  0
  3 25  1  0  0  0  0
  4  5  2  0  0  0  0
  5  6  1  0  0  0  0
  5 26  1  0  0  0  0
  6  7  2  0  0  0  0
  6 27  1  0  0  0  0
  7  8  1  0  0  0  0
  8  9  1  0  0  0  0
  8 28  1  0  0  0  0
  9 10  2  0  0  0  0
  9 11  1  0  0  0  0
 11 12  1  0  0  0  0
 11 29  1  0  0  0  0
 12 21  1  0  0  0  0
 12 13  1  0  0  0  0
 12 30  1  0  0  0  0
 13 14  1  0  0  0  0
 13 31  1  0  0  0  0
 13 32  1  0  0  0  0
 14 15  1  0  0  0  0
 14 33  1  0  0  0  0
 14 34  1  0  0  0  0
 15 16  1  0  0  0  0
 15 35  1  0  0  0  0
 15 36  1  0  0  0  0
 16 17  1  0  0  0  0
 16 21  1  0  0  0  0
 16 37  1  0  0  0  0
 17 18  1  0  0  0  0
 17 19  1  0  0  0  0
 17 20  1  0  0  0  0
 21 38  1  0  0  0  0
 21 39  1  0  0  0  0
M  END
> <s_m_source_file>
AV-unprocessed.smi

> <i_m_source_file_index>
2446

> <i_lp_mmshare_version>
43012

> <i_f3d_flags>
0

> <s_epik_input>
W0NIM11jMVtjSF1uW2NIXVtjSF1jMVtOSF1DKD1PKVtOSF1bQ0BASF0yW0NIMl1bQ0gyXVtDSDJdW0NAQEhdKEMoRikoRilGKVtDSDJdMg==

> <s_epik_cmdline>
J2VwaWtfcHl0aG9uJywgJy1waCcsICc3LjAnLCAnLXRuJywgJzgnLCAnLW1hJywgJzIwMCcsICctbWV0YWxfYmluZGluZycsICctaW1hZScsICc8aW5maWxlLm1hZT4nLCAnLW9tYWUnLCAnPG91dGZpbGUubWFlPic=

> <r_epik_Ionization_Penalty>
0.20168

> <r_epik_Ionization_Penalty_Charging>
0

> <r_epik_Ionization_Penalty_Neutral>
0.20168

> <r_epik_State_Penalty>
0.191514

> <r_epik_Charging_Adjusted_Penalty>
0.191514

> <i_epik_Tot_Q>
0

> <i_epik_Tot_abs_Q>
0

> <r_epik_Metal_State_Penalty>
0.142371

> <b_epik_Metal_Only>
0

> <s_lp_Force_Field>
OPLS_2005

> <r_lp_Energy>
25.5489

> <b_lp_Chiralities_Consistent>
1

> <s_lp_Variant>
AV-unprocessed.smi:2446-1

> <Gold.Version>
5.8.1

> <Gold.Id.Protein>
6NUR|6NUR_protein|mol2

> <Gold.PLP.Fitness>
42.8800

> <Gold.PLP.PLP>
-37.1111

> <Gold.PLP.part.hbond>
-2.0000

> <Gold.PLP.part.metal>
0.0000

> <Gold.PLP.part.buried>
-7.9988

> <Gold.PLP.part.nonpolar>
-27.3945

> <Gold.PLP.part.repulsive>
0.0700

> <Gold.PLP.ligand.clash>
0.0000

> <Gold.PLP.ligand.torsion>
0.0531

> <Gold.PLP.Chemscore.Hbond>
1.9516

> <Gold.PLP.Chemscore.CHOScore>
0.0000

> <Gold.PLP.Chemscore.Metal>
0.0000

> <Gold.Chemscore.Hbonds>
donor molecule, donor type, donor heavy atom, donor atom, acceptor molecule, acceptor atom, score
      L1  H     8    28       P1  8028  0.96
      L1  H    11    29       P1  8028  1.00

> <Gold.PLP.Chemscore.Internal.Correction>
0.0204

> <Gold.Rescore>
     Score         DG    S(hbond)    S(metal)    S(lipo)     H(rot)  DE(clash)    DE(int)     intcor
     17.12     -20.77       1.89        0.00      98.75       1.00       2.36       1.30       ----

> <Gold.Chemscore.Fitness>
17.1167

> <Gold.Chemscore.DG>
-20.7700

> <Gold.Chemscore.ZeroCoef>
-5.4800

> <Gold.Chemscore.Hbond>
1.8852

> <Gold.Chemscore.Metal>
0.0000

> <Gold.Chemscore.Lipo>
98.7468

> <Gold.Chemscore.Internal_Hbond>
0.0000

> <Gold.Chemscore.DEClash>
2.3555

> <Gold.Chemscore.DEInternal>
1.2978

> <Gold.Chemscore.Rot>
1.0000

> <Gold.Chemscore.Internal.Correction>
   9.000000E+99

> <Gold.Chemscore.Hbonds>
donor molecule, donor type, donor heavy atom, donor atom, acceptor molecule, acceptor atom, score
      L1  H     8    28       P1  8028  0.86
      L1  H    11    29       P1  8028  0.94

> <Gold.Chemscore.Hbond.Weighted>
-6.2966

> <Gold.Chemscore.Metal.Weighted>
-0.0000

> <Gold.Chemscore.Lipo.Weighted>
-11.5534

> <Gold.Chemscore.Internal_Hbond.Weighted>
0.0000

> <Gold.Chemscore.DEClash.Weighted>
2.3555

> <Gold.Chemscore.DEInternal.Weighted>
1.2978

> <Gold.Chemscore.Rot.Weighted>
2.5600

> <Gold.Chemscore.Internal.Correction.Weighted>
   9.000000E+99

> <Gold.Protein.RotatedTorsions>
[ 6907 6896 6895 6894 ] final  149.82 input  -60.11 | X-H torsion
[ 7974 7965 7964 7962 ] final  139.70 input  175.53 | X-H torsion
[ 8008 7997 7996 7995 ] final -175.23 input   59.86 | X-H torsion
[ 10167 10162 10161 10158 ] final  118.89 input  -65.29 | X-H torsion
[ 10718 10713 10712 10709 ] final  176.68 input   66.30 | X-H torsion
[ 10763 10752 10751 10750 ] final   52.52 input  -60.55 | X-H torsion
[ 11005 11000 10999 10996 ] final  176.91 input  -57.11 | X-H torsion

> <Gold.Protein.ActiveResidues>
 VAL166  LYS551  ARG553  GLY616  TRP617  ASP618  TYR619  PRO620  LYS621  CYS622 
 ASP623  PHE694  ASN695  SER759  ASP760  ASP761  ALA762  ILE779  LEU786  VAL792 
 PHE793  MET794  SER795  GLU796  ALA797  LYS798  CYS799  TRP800  GLU811  SER814 

> <Gold.Protein.RotatedAtoms>
  152.1229  133.4363  159.4683 H   0  0  0  0  0  0  0  0  0  0  0  0  # atno 6907 bound_to 6896
  150.6873  134.2513  159.4521 H   0  0  0  0  0  0  0  0  0  0  0  0  # atno 6908 bound_to 6896
  152.0391  134.9721  160.0624 H   0  0  0  0  0  0  0  0  0  0  0  0  # atno 6909 bound_to 6896
  144.9254  139.5114  143.5643 H   0  0  0  0  0  0  0  0  0  0  0  0  # atno 7974 bound_to 7965
  155.9800  140.1180  157.0735 H   0  0  0  0  0  0  0  0  0  0  0  0  # atno 8008 bound_to 7997
  154.4180  140.1146  156.5490 H   0  0  0  0  0  0  0  0  0  0  0  0  # atno 8009 bound_to 7997
  155.6484  140.3473  155.4741 H   0  0  0  0  0  0  0  0  0  0  0  0  # atno 8010 bound_to 7997
  139.6082  144.7075  151.2905 H   0  0  0  0  0  0  0  0  0  0  0  0  # atno 10167 bound_to 10162
  156.9166  130.9927  151.3012 H   0  0  0  0  0  0  0  0  0  0  0  0  # atno 10718 bound_to 10713
  152.9789  135.5810  154.4591 H   0  0  0  0  0  0  0  0  0  0  0  0  # atno 10763 bound_to 10752
  154.4170  135.2771  155.2002 H   0  0  0  0  0  0  0  0  0  0  0  0  # atno 10764 bound_to 10752
  154.3768  135.6155  153.5823 H   0  0  0  0  0  0  0  0  0  0  0  0  # atno 10765 bound_to 10752
  140.3783  134.6969  157.4435 H   0  0  0  0  0  0  0  0  0  0  0  0  # atno 11005 bound_to 11000
  146.3223  139.8165  142.8935 LP  0  0  0  0  0  0  0  0  0  0  0  0  # atno 17320 bound_to 7965
  145.3228  141.0248  143.3491 LP  0  0  0  0  0  0  0  0  0  0  0  0  # atno 17321 bound_to 7965
  140.7300  143.6892  150.7936 LP  0  0  0  0  0  0  0  0  0  0  0  0  # atno 17342 bound_to 10162
  140.0482  143.5276  152.2686 LP  0  0  0  0  0  0  0  0  0  0  0  0  # atno 17343 bound_to 10162
  157.5934  130.8460  149.8693 LP  0  0  0  0  0  0  0  0  0  0  0  0  # atno 17370 bound_to 10713
  156.0511  130.3717  150.1200 LP  0  0  0  0  0  0  0  0  0  0  0  0  # atno 17371 bound_to 10713
  140.0498  134.6147  155.8876 LP  0  0  0  0  0  0  0  0  0  0  0  0  # atno 17394 bound_to 11000
  141.1932  133.6578  156.5536 LP  0  0  0  0  0  0  0  0  0  0  0  0  # atno 17395 bound_to 11000

$$$$
