#       Name:                AV-unprocessed.smi:112
#       Creating user name   scv26
#       Creation time:       Thu Mar 26 18:18:04 2020


#       File generated by GOLD software.
#

@<TRIPOS>MOLECULE
AV-unprocessed.smi:112
    68    71     1
SMALL
NO_CHARGES


@<TRIPOS>ATOM
      1 ****        -1.2026   4.5418  -1.0069 C.3            1 S1                 0.0000
      2 ****        -0.5483   3.1754  -1.1392 C.2            1 S1                 0.0000
      3 ****         0.7954   3.0235  -1.1859 C.2            1 S1                 0.0000
      4 ****         1.4211   1.7952  -1.3031 N.am           1 S1                 0.0000
      5 ****         2.9279   1.6591  -1.3199 C.3            1 S1                 0.0000
      6 ****         3.4495   1.3252   0.0865 C.3            1 S1                 0.0000
      7 ****         4.6807   2.2028   0.1932 C.3            1 S1                 0.0000
      8 ****         4.9549   2.5297   1.5401 O.3            1 S1                 0.0000
      9 ****         4.2473   3.4191  -0.6277 C.3            1 S1                 0.0000
     10 ****         5.3576   4.3535  -1.1383 C.3            1 S1                 0.0000
     11 ****         6.4165   3.6365  -1.7373 O.3            1 S1                 0.0000
     12 ****         3.5083   2.8703  -1.7133 O.3            1 S1                 0.0000
     13 ****         0.6456   0.6207  -1.3619 C.2            1 S1                 0.0000
     14 ****         1.1844  -0.4865  -1.4322 O.2            1 S1                 0.0000
     15 ****        -0.7612   0.7451  -1.3251 N.am           1 S1                 0.0000
     16 ****        -1.5787  -0.4884  -1.3709 C.3            1 S1                 0.0000
     17 ****        -1.8238  -1.1235   0.0161 C.2            1 S1                 0.0000
     18 ****        -1.4583  -0.5136   1.0217 O.2            1 S1                 0.0000
     19 ****        -2.4420  -2.3299   0.0615 N.am           1 S1                 0.0000
     20 ****        -2.8933  -3.0579  -1.1373 C.3            1 S1                 0.0000
     21 ****        -3.5704  -4.3502  -0.6316 C.3            1 S1                 0.0000
     22 ****        -3.4101  -4.2565   0.8567 C.ar           1 S1                 0.0000
     23 ****        -3.8403  -5.1974   1.8072 C.ar           1 S1                 0.0000
     24 ****        -3.6047  -4.9403   3.1805 C.ar           1 S1                 0.0000
     25 ****        -4.0439  -5.9058   4.2075 N.pl3          1 S1                 1.0000
     26 ****        -3.8285  -5.6407   5.3858 O.2            1 S1                 0.0000
     27 ****        -4.6058  -6.9317   3.8373 O.2            1 S1                -1.0000
     28 ****        -2.9409  -3.7415   3.5542 C.ar           1 S1                 0.0000
     29 ****        -2.5142  -2.8070   2.5852 C.ar           1 S1                 0.0000
     30 ****        -2.7604  -3.0835   1.2227 C.ar           1 S1                 0.0000
     31 ****        -1.4150   1.9962  -1.2079 C.2            1 S1                 0.0000
     32 ****        -2.6448   2.0599  -1.1579 O.2            1 S1                 0.0000
     33 ****        -0.4655   5.3449  -0.9821 H              1 S1                 0.0000
     34 ****        -1.7860   4.5963  -0.0872 H              1 S1                 0.0000
     35 ****        -1.8699   4.7299  -1.8487 H              1 S1                 0.0000
     36 ****         1.3980   3.9165  -1.1216 H              1 S1                 0.0000
     37 ****         3.1646   0.9046  -2.0720 H              1 S1                 0.0000
     38 ****         2.7030   1.6138   0.8294 H              1 S1                 0.0000
     39 ****         3.6574   0.2598   0.1895 H              1 S1                 0.0000
     40 ****         5.5343   1.6942  -0.2560 H              1 S1                 0.0000
     41 ****         5.7121   3.0949   1.5637 H              1 S1                 0.0000
     42 ****         3.5429   4.0104  -0.0395 H              1 S1                 0.0000
     43 ****         4.9550   5.0754  -1.8492 H              1 S1                 0.0000
     44 ****         5.7703   4.9226  -0.3050 H              1 S1                 0.0000
     45 ****         6.0790   3.1813  -2.4938 H              1 S1                 0.0000
     46 ****        -2.5444  -0.2980  -1.8411 H              1 S1                 0.0000
     47 ****        -1.1030  -1.2193  -2.0258 H              1 S1                 0.0000
     48 ****        -3.5963  -2.4595  -1.7183 H              1 S1                 0.0000
     49 ****        -2.0442  -3.3065  -1.7755 H              1 S1                 0.0000
     50 ****        -4.6273  -4.3851  -0.8978 H              1 S1                 0.0000
     51 ****        -3.0793  -5.2451  -1.0153 H              1 S1                 0.0000
     52 ****        -4.3412  -6.0970   1.4807 H              1 S1                 0.0000
     53 ****        -2.7503  -3.5251   4.5951 H              1 S1                 0.0000
     54 ****        -2.0121  -1.9100   2.9116 H              1 S1                 0.0000
     55 ****         5.1408   1.6951   2.0586 LP             1 S1                 0.0000
     56 ****         4.1690   3.0020   1.9392 LP             1 S1                 0.0000
     57 ****         6.7891   2.9767  -1.0847 LP             1 S1                 0.0000
     58 ****         7.1370   4.2705  -2.0184 LP             1 S1                 0.0000
     59 ****         2.7902   3.5110  -1.9850 LP             1 S1                 0.0000
     60 ****         4.1219   2.7100  -2.4865 LP             1 S1                 0.0000
     61 ****         2.1818  -0.5571  -1.4480 LP             1 S1                 0.0000
     62 ****         0.6239  -1.3136  -1.4735 LP             1 S1                 0.0000
     63 ****        -1.0115   0.3766   0.9318 LP             1 S1                 0.0000
     64 ****        -1.6082  -0.9085   1.9281 LP             1 S1                 0.0000
     65 ****        -3.3660  -4.7883   5.6301 LP             1 S1                 0.0000
     66 ****        -4.1153  -6.2769   6.1020 LP             1 S1                 0.0000
     67 ****        -3.0962   2.9475  -1.0662 LP             1 S1                 0.0000
     68 ****        -3.1912   1.2240  -1.2091 LP             1 S1                 0.0000
@<TRIPOS>BOND
    1    1    2 1     
    2    1   33 1     
    3    1   34 1     
    4    1   35 1     
    5    2   31 1     
    6    2    3 2     
    7    3    4 1     
    8    3   36 1     
    9    4    5 1     
   10    4   13 am    
   11    5   12 1     
   12    5    6 1     
   13    5   37 1     
   14    6    7 1     
   15    6   38 1     
   16    6   39 1     
   17    7    8 1     
   18    7    9 1     
   19    7   40 1     
   20    8   41 1     
   21    9   10 1     
   22    9   12 1     
   23    9   42 1     
   24   10   11 1     
   25   10   43 1     
   26   10   44 1     
   27   11   45 1     
   28   13   14 2     
   29   13   15 am    
   30   15   16 1     
   31   15   31 am    
   32   16   17 1     
   33   16   46 1     
   34   16   47 1     
   35   17   18 2     
   36   17   19 am    
   37   19   30 1     
   38   19   20 1     
   39   20   21 1     
   40   20   48 1     
   41   20   49 1     
   42   21   22 1     
   43   21   50 1     
   44   21   51 1     
   45   22   30 ar    
   46   22   23 ar    
   47   23   24 ar    
   48   23   52 1     
   49   24   25 1     
   50   24   28 ar    
   51   25   26 2     
   52   25   27 1     
   53   28   29 ar    
   54   28   53 1     
   55   29   30 ar    
   56   29   54 1     
   57   31   32 2     
   58    8   55 1     
   59    8   56 1     
   60   11   57 1     
   61   11   58 1     
   62   12   59 1     
   63   12   60 1     
   64   14   61 1     
   65   14   62 1     
   66   18   63 1     
   67   18   64 1     
   68   26   65 1     
   69   26   66 1     
   70   32   67 1     
   71   32   68 1     
@<TRIPOS>SUBSTRUCTURE
      1 S1             1
@<TRIPOS>SET
LONE_PAIRS      STATIC     ATOMS    <user>   **** ""
15 55 56 57 58 59 60 61 62 63 64 65 66 27 67 68
DONOR_HYDROGENS      STATIC     ATOMS    <user>   **** ""
2 41 45
ATOM$BLUE        STATIC     ATOMS    COLORGROUP SYSTEM
15 55 56 57 58 59 60 61 62 63 64 65 66 27 67 68
ATOM$RED        STATIC     ATOMS    COLORGROUP SYSTEM
2 41 45
