AV-unprocessed.smi:51|AV-procd|sdf|504|dock10
  -GOLD-   2262016373D 1   1.00000     0.00000
 Structure written by MMmdl.
 26 27  0  0  0  0  0  0  0  0  3 V2000
  150.9595  140.5278  155.2427 O   0  0  0  0  0  0  0  0  0  0  0  0
  151.7462  139.9234  156.0030 C   0  0  0  0  0  0  0  0  0  0  0  0
  152.8922  139.5256  155.6957 O   0  5  0  0  0  0  0  0  0  0  0  0
  151.2626  139.6721  157.4387 C   0  0  1  0  0  0  0  0  0  0  0  0
  151.3230  138.1826  157.8189 C   0  0  0  0  0  0  0  0  0  0  0  0
  151.5862  138.2196  159.3241 C   0  0  1  0  0  0  0  0  0  0  0  0
  152.1828  137.0340  159.8051 O   0  0  0  0  0  0  0  0  0  0  0  0
  152.4909  139.4408  159.5001 C   0  0  0  0  0  0  0  0  0  0  0  0
  152.0970  140.3481  158.4324 N   0  0  0  0  0  0  0  0  0  0  0  0
  152.1148  141.7455  158.6106 C   0  0  0  0  0  0  0  0  0  0  0  0
  152.7389  142.3304  159.7323 C   0  0  0  0  0  0  0  0  0  0  0  0
  152.7176  143.7345  159.8216 C   0  0  0  0  0  0  0  0  0  0  0  0
  152.1136  144.4740  158.8605 N   0  3  0  0  0  0  0  0  0  0  0  0
  151.5360  143.8573  157.8195 C   0  0  0  0  0  0  0  0  0  0  0  0
  151.5219  142.5275  157.6797 N   0  0  0  0  0  0  0  0  0  0  0  0
  150.2373  140.0288  157.5487 H   0  0  0  0  0  0  0  0  0  0  0  0
  150.4061  137.6487  157.5673 H   0  0  0  0  0  0  0  0  0  0  0  0
  152.1499  137.6809  157.3120 H   0  0  0  0  0  0  0  0  0  0  0  0
  150.6442  138.3856  159.8490 H   0  0  0  0  0  0  0  0  0  0  0  0
  153.0898  137.0265  159.5401 H   0  0  0  0  0  0  0  0  0  0  0  0
  152.3723  139.8729  160.4946 H   0  0  0  0  0  0  0  0  0  0  0  0
  153.5414  139.1815  159.3600 H   0  0  0  0  0  0  0  0  0  0  0  0
  153.2305  141.7369  160.4890 H   0  0  0  0  0  0  0  0  0  0  0  0
  153.1682  144.2910  160.6303 H   0  0  0  0  0  0  0  0  0  0  0  0
  151.0684  144.4875  157.0775 H   0  0  0  0  0  0  0  0  0  0  0  0
  152.1061  145.4914  158.9336 H   0  0  0  0  0  0  0  0  0  0  0  0
  1  2  2  0  0  0  0
  2  3  1  0  0  0  0
  2  4  1  0  0  0  0
  4  9  1  0  0  0  0
  4  5  1  0  0  0  0
  4 16  1  0  0  0  0
  5  6  1  0  0  0  0
  5 17  1  0  0  0  0
  5 18  1  0  0  0  0
  6  7  1  0  0  0  0
  6  8  1  0  0  0  0
  6 19  1  0  0  0  0
  7 20  1  0  0  0  0
  8  9  1  0  0  0  0
  8 21  1  0  0  0  0
  8 22  1  0  0  0  0
  9 10  1  0  0  0  0
 10 15  1  0  0  0  0
 10 11  2  0  0  0  0
 11 12  1  0  0  0  0
 11 23  1  0  0  0  0
 12 13  2  0  0  0  0
 12 24  1  0  0  0  0
 13 14  1  0  0  0  0
 13 26  1  0  0  0  0
 14 15  2  0  0  0  0
 14 25  1  0  0  0  0
M  CHG  1   3  -1
M  CHG  1  13   1
M  END
> <s_m_source_file>
AV-unprocessed.smi

> <i_m_source_file_index>
51

> <i_lp_mmshare_version>
43012

> <i_f3d_flags>
0

> <s_epik_input>
Tz1DKFtPSF0pW0NAQEhdMVtDSDJdW0NAQEhdKFtPSF0pW0NIMl1OMWMyW2NIXVtjSF1uW2NIXW4y

> <s_epik_cmdline>
J2VwaWtfcHl0aG9uJywgJy1waCcsICc3LjAnLCAnLXRuJywgJzgnLCAnLW1hJywgJzIwMCcsICctbWV0YWxfYmluZGluZycsICctaW1hZScsICc8aW5maWxlLm1hZT4nLCAnLW9tYWUnLCAnPG91dGZpbGUubWFlPic=

> <r_lp_tautomer_probability>
0.999336

> <r_epik_Ionization_Penalty>
0.688427

> <r_epik_Ionization_Penalty_Charging>
0.688427

> <r_epik_Ionization_Penalty_Neutral>
1.98379e-07

> <r_epik_State_Penalty>
0.709817

> <r_epik_Charging_Adjusted_Penalty>
1.39824

> <i_epik_Tot_Q>
0

> <i_epik_Tot_abs_Q>
2

> <r_epik_Metal_State_Penalty>
0.873261

> <b_epik_Metal_Only>
0

> <s_lp_Force_Field>
OPLS_2005

> <r_lp_Energy>
15.7

> <b_lp_Chiralities_Consistent>
1

> <s_lp_Variant>
AV-unprocessed.smi:51-6

> <Gold.Version>
5.8.1

> <Gold.Id.Protein>
6NUR|6NUR_protein|mol2

> <Gold.PLP.Fitness>
43.7800

> <Gold.PLP.PLP>
-28.8626

> <Gold.PLP.part.hbond>
-3.0000

> <Gold.PLP.part.metal>
0.0000

> <Gold.PLP.part.buried>
-4.9905

> <Gold.PLP.part.nonpolar>
-21.2269

> <Gold.PLP.part.repulsive>
0.1421

> <Gold.PLP.ligand.clash>
0.0000

> <Gold.PLP.ligand.torsion>
0.0891

> <Gold.PLP.Chemscore.Hbond>
3.9920

> <Gold.PLP.Chemscore.CHOScore>
0.9965

> <Gold.PLP.Chemscore.Metal>
0.0000

> <Gold.Chemscore.Hbonds>
donor molecule, donor type, donor heavy atom, donor atom, acceptor molecule, acceptor atom, score
      P1  H  6896  6909       L1     7  1.00
      P1  H  7989  7998       L1     1  0.96
      P1  H  7997  8010       L1     3  2.00
      L1  C    14    25       P1  8028  0.88

> <Gold.PLP.Chemscore.Internal.Correction>
0.1300

> <Gold.Rescore>
     Score         DG    S(hbond)    S(metal)    S(lipo)     H(rot)  DE(clash)    DE(int)     intcor
     15.61     -15.71       2.88        0.00      42.44       1.70       0.00       0.10       ----

> <Gold.Chemscore.Fitness>
15.6095

> <Gold.Chemscore.DG>
-15.7095

> <Gold.Chemscore.ZeroCoef>
-5.4800

> <Gold.Chemscore.Hbond>
2.8805

> <Gold.Chemscore.Metal>
0.0000

> <Gold.Chemscore.Lipo>
42.4434

> <Gold.Chemscore.Internal_Hbond>
0.0000

> <Gold.Chemscore.DEClash>
0.0000

> <Gold.Chemscore.DEInternal>
0.1000

> <Gold.Chemscore.Rot>
1.7020

> <Gold.Chemscore.Internal.Correction>
   9.000000E+99

> <Gold.Chemscore.Hbonds>
donor molecule, donor type, donor heavy atom, donor atom, acceptor molecule, acceptor atom, score
      P1  H  6896  6909       L1     7  0.50
      P1  H  7989  7998       L1     1  0.83
      P1  H  7997  8010       L1     3  1.00

> <Gold.Chemscore.Hbond.Weighted>
-9.6207

> <Gold.Chemscore.Metal.Weighted>
-0.0000

> <Gold.Chemscore.Lipo.Weighted>
-4.9659

> <Gold.Chemscore.Internal_Hbond.Weighted>
0.0000

> <Gold.Chemscore.DEClash.Weighted>
0.0000

> <Gold.Chemscore.DEInternal.Weighted>
0.1000

> <Gold.Chemscore.Rot.Weighted>
4.3571

> <Gold.Chemscore.Internal.Correction.Weighted>
   9.000000E+99

> <Gold.Protein.RotatedTorsions>
[ 6907 6896 6895 6894 ] final  128.33 input  -60.11 | X-H torsion
[ 7974 7965 7964 7962 ] final  -78.65 input  175.53 | X-H torsion
[ 8008 7997 7996 7995 ] final  102.31 input   59.86 | X-H torsion
[ 10167 10162 10161 10158 ] final   39.38 input  -65.29 | X-H torsion
[ 10718 10713 10712 10709 ] final -137.63 input   66.30 | X-H torsion
[ 10763 10752 10751 10750 ] final  151.33 input  -60.55 | X-H torsion
[ 11005 11000 10999 10996 ] final  169.01 input  -57.11 | X-H torsion

> <Gold.Protein.ActiveResidues>
 VAL166  LYS551  ARG553  GLY616  TRP617  ASP618  TYR619  PRO620  LYS621  CYS622 
 ASP623  PHE694  ASN695  SER759  ASP760  ASP761  ALA762  ILE779  LEU786  VAL792 
 PHE793  MET794  SER795  GLU796  ALA797  LYS798  CYS799  TRP800  GLU811  SER814 

> <Gold.Protein.RotatedAtoms>
  152.3730  133.6443  159.6101 H   0  0  0  0  0  0  0  0  0  0  0  0  # atno 6907 bound_to 6896
  150.7682  133.9240  159.3415 H   0  0  0  0  0  0  0  0  0  0  0  0  # atno 6908 bound_to 6896
  151.7059  135.0923  160.0310 H   0  0  0  0  0  0  0  0  0  0  0  0  # atno 6909 bound_to 6896
  145.5836  140.9443  143.1330 H   0  0  0  0  0  0  0  0  0  0  0  0  # atno 7974 bound_to 7965
  156.1381  140.3183  155.8452 H   0  0  0  0  0  0  0  0  0  0  0  0  # atno 8008 bound_to 7997
  155.4206  140.0512  157.3043 H   0  0  0  0  0  0  0  0  0  0  0  0  # atno 8009 bound_to 7997
  154.4953  140.2108  155.9472 H   0  0  0  0  0  0  0  0  0  0  0  0  # atno 8010 bound_to 7997
  140.3845  144.1935  150.6130 H   0  0  0  0  0  0  0  0  0  0  0  0  # atno 10167 bound_to 10162
  156.2903  130.7371  151.1394 H   0  0  0  0  0  0  0  0  0  0  0  0  # atno 10718 bound_to 10713
  154.1020  135.2845  155.3249 H   0  0  0  0  0  0  0  0  0  0  0  0  # atno 10763 bound_to 10752
  154.6549  135.5355  153.7950 H   0  0  0  0  0  0  0  0  0  0  0  0  # atno 10764 bound_to 10752
  153.0376  135.6519  154.1183 H   0  0  0  0  0  0  0  0  0  0  0  0  # atno 10765 bound_to 10752
  140.2932  134.7656  157.3855 H   0  0  0  0  0  0  0  0  0  0  0  0  # atno 11005 bound_to 11000
  144.7383  139.7523  143.7321 LP  0  0  0  0  0  0  0  0  0  0  0  0  # atno 17320 bound_to 7965
  146.1698  139.4844  142.9935 LP  0  0  0  0  0  0  0  0  0  0  0  0  # atno 17321 bound_to 7965
  140.4903  143.2349  151.8828 LP  0  0  0  0  0  0  0  0  0  0  0  0  # atno 17342 bound_to 10162
  139.4793  144.5173  151.8850 LP  0  0  0  0  0  0  0  0  0  0  0  0  # atno 17343 bound_to 10162
  157.7340  131.0585  150.5545 LP  0  0  0  0  0  0  0  0  0  0  0  0  # atno 17370 bound_to 10713
  156.5661  130.4268  149.6040 LP  0  0  0  0  0  0  0  0  0  0  0  0  # atno 17371 bound_to 10713
  140.1176  134.5262  155.8211 LP  0  0  0  0  0  0  0  0  0  0  0  0  # atno 17394 bound_to 11000
  141.2142  133.6745  156.6806 LP  0  0  0  0  0  0  0  0  0  0  0  0  # atno 17395 bound_to 11000

$$$$
