AV-unprocessed.smi:853|AV-procd|sdf|3953|dock2
  -GOLD-   22720 1423D 1   1.00000     0.00000
 Structure written by MMmdl.
 49 51  0  0  0  0  0  0  0  0  1 V2000
  144.3217  132.7342  149.2586 C   0  0  0  0  0  0  0  0  0  0  0  0
  144.2877  132.6783  150.7876 C   0  0  0  0  0  0  0  0  0  0  0  0
  144.4413  131.5835  151.3296 O   0  0  0  0  0  0  0  0  0  0  0  0
  144.0944  133.8215  151.4884 N   0  0  0  0  0  0  0  0  0  0  0  0
  144.1167  133.8668  152.9550 C   0  0  0  0  0  0  0  0  0  0  0  0
  145.3915  134.5993  153.4103 C   0  0  0  0  0  0  0  0  0  0  0  0
  145.4859  136.0074  152.7843 C   0  0  0  0  0  0  0  0  0  0  0  0
  146.7882  136.5919  153.0899 N   0  0  0  0  0  0  0  0  0  0  0  0
  147.0188  137.5252  154.0241 C   0  0  0  0  0  0  0  0  0  0  0  0
  146.1359  138.0092  154.7319 O   0  0  0  0  0  0  0  0  0  0  0  0
  148.3198  137.8605  154.0600 N   0  0  0  0  0  0  0  0  0  0  0  0
  148.9828  138.7751  154.9228 C   0  0  0  0  0  0  0  0  0  0  0  0
  148.6224  139.0155  156.2694 C   0  0  0  0  0  0  0  0  0  0  0  0
  149.3779  139.9326  157.0248 C   0  0  0  0  0  0  0  0  0  0  0  0
  150.4825  140.5801  156.4223 C   0  0  0  0  0  0  0  0  0  0  0  0
  151.2644  141.5033  157.1450 N   0  0  0  0  0  0  0  0  0  0  0  0
  151.5614  141.3123  158.5565 C   0  0  0  0  0  0  0  0  0  0  0  0
  152.2777  142.5942  158.9777 C   0  0  0  0  0  0  0  0  0  0  0  0
  151.6257  143.6592  158.0964 C   0  0  0  0  0  0  0  0  0  0  0  0
  151.2932  142.9178  156.7964 C   0  0  0  0  0  0  0  0  0  0  0  0
  150.8265  140.3471  155.1334 N   0  0  0  0  0  0  0  0  0  0  0  0
  150.0994  139.4676  154.4136 C   0  0  0  0  0  0  0  0  0  0  0  0
  145.2531  135.9625  151.2563 C   0  0  0  0  0  0  0  0  0  0  0  0
  143.9832  135.1657  150.9083 C   0  0  0  0  0  0  0  0  0  0  0  0
  145.1141  133.3986  148.9125 H   0  0  0  0  0  0  0  0  0  0  0  0
  143.3671  133.0830  148.8639 H   0  0  0  0  0  0  0  0  0  0  0  0
  144.5126  131.7446  148.8420 H   0  0  0  0  0  0  0  0  0  0  0  0
  143.2317  134.3940  153.3147 H   0  0  0  0  0  0  0  0  0  0  0  0
  144.0760  132.8760  153.4095 H   0  0  0  0  0  0  0  0  0  0  0  0
  145.4101  134.6713  154.4984 H   0  0  0  0  0  0  0  0  0  0  0  0
  146.2625  134.0072  153.1246 H   0  0  0  0  0  0  0  0  0  0  0  0
  144.7029  136.6213  153.2339 H   0  0  0  0  0  0  0  0  0  0  0  0
  147.5730  136.2567  152.5505 H   0  0  0  0  0  0  0  0  0  0  0  0
  148.9058  137.4299  153.3597 H   0  0  0  0  0  0  0  0  0  0  0  0
  147.7957  138.5116  156.7445 H   0  0  0  0  0  0  0  0  0  0  0  0
  149.0995  140.1255  158.0500 H   0  0  0  0  0  0  0  0  0  0  0  0
  150.6300  141.1921  159.1120 H   0  0  0  0  0  0  0  0  0  0  0  0
  152.1806  140.4304  158.7235 H   0  0  0  0  0  0  0  0  0  0  0  0
  152.1823  142.8038  160.0433 H   0  0  0  0  0  0  0  0  0  0  0  0
  153.3398  142.5193  158.7405 H   0  0  0  0  0  0  0  0  0  0  0  0
  150.7031  144.0032  158.5662 H   0  0  0  0  0  0  0  0  0  0  0  0
  152.2638  144.5288  157.9361 H   0  0  0  0  0  0  0  0  0  0  0  0
  152.0706  143.0796  156.0491 H   0  0  0  0  0  0  0  0  0  0  0  0
  150.3438  143.2625  156.3853 H   0  0  0  0  0  0  0  0  0  0  0  0
  150.4221  139.3138  153.3942 H   0  0  0  0  0  0  0  0  0  0  0  0
  145.1754  136.9745  150.8572 H   0  0  0  0  0  0  0  0  0  0  0  0
  146.1105  135.5010  150.7638 H   0  0  0  0  0  0  0  0  0  0  0  0
  143.8300  135.1658  149.8303 H   0  0  0  0  0  0  0  0  0  0  0  0
  143.1068  135.6637  151.3254 H   0  0  0  0  0  0  0  0  0  0  0  0
  1  2  1  0  0  0  0
  1 25  1  0  0  0  0
  1 26  1  0  0  0  0
  1 27  1  0  0  0  0
  2  3  2  0  0  0  0
  2  4  1  0  0  0  0
  4 24  1  0  0  0  0
  4  5  1  0  0  0  0
  5  6  1  0  0  0  0
  5 28  1  0  0  0  0
  5 29  1  0  0  0  0
  6  7  1  0  0  0  0
  6 30  1  0  0  0  0
  6 31  1  0  0  0  0
  7  8  1  0  0  0  0
  7 23  1  0  0  0  0
  7 32  1  0  0  0  0
  8  9  1  0  0  0  0
  8 33  1  0  0  0  0
  9 10  2  0  0  0  0
  9 11  1  0  0  0  0
 11 12  1  0  0  0  0
 11 34  1  0  0  0  0
 12 22  1  0  0  0  0
 12 13  2  0  0  0  0
 13 14  1  0  0  0  0
 13 35  1  0  0  0  0
 14 15  2  0  0  0  0
 14 36  1  0  0  0  0
 15 16  1  0  0  0  0
 15 21  1  0  0  0  0
 16 20  1  0  0  0  0
 16 17  1  0  0  0  0
 17 18  1  0  0  0  0
 17 37  1  0  0  0  0
 17 38  1  0  0  0  0
 18 19  1  0  0  0  0
 18 39  1  0  0  0  0
 18 40  1  0  0  0  0
 19 20  1  0  0  0  0
 19 41  1  0  0  0  0
 19 42  1  0  0  0  0
 20 43  1  0  0  0  0
 20 44  1  0  0  0  0
 21 22  2  0  0  0  0
 22 45  1  0  0  0  0
 23 24  1  0  0  0  0
 23 46  1  0  0  0  0
 23 47  1  0  0  0  0
 24 48  1  0  0  0  0
 24 49  1  0  0  0  0
M  END
> <s_m_source_file>
AV-unprocessed.smi

> <i_m_source_file_index>
853

> <i_lp_mmshare_version>
43012

> <i_f3d_flags>
0

> <s_epik_input>
W0NIM11DKD1PKU4xW0NIMl1bQ0gyXVtDSF0oW0NIMl1bQ0gyXTEpW05IXUMoPU8pW05IXWMyW2NIXVtjSF1jKG5bY0hdMilOM1tDSDJdW0NIMl1bQ0gyXVtDSDJdMw==

> <s_epik_cmdline>
J2VwaWtfcHl0aG9uJywgJy1waCcsICc3LjAnLCAnLXRuJywgJzgnLCAnLW1hJywgJzIwMCcsICctbWV0YWxfYmluZGluZycsICctaW1hZScsICc8aW5maWxlLm1hZT4nLCAnLW9tYWUnLCAnPG91dGZpbGUubWFlPic=

> <r_lp_tautomer_probability>
1

> <r_epik_Ionization_Penalty>
0.102256

> <r_epik_Ionization_Penalty_Charging>
0

> <r_epik_Ionization_Penalty_Neutral>
0.102256

> <r_epik_State_Penalty>
0.0916633

> <r_epik_Charging_Adjusted_Penalty>
0.0916633

> <i_epik_Tot_Q>
0

> <i_epik_Tot_abs_Q>
0

> <r_epik_Metal_State_Penalty>
0.078099

> <b_epik_Metal_Only>
0

> <s_lp_Force_Field>
OPLS_2005

> <r_lp_Energy>
47.0227

> <b_lp_Chiralities_Consistent>
1

> <s_lp_Variant>
AV-unprocessed.smi:853-1

> <Gold.Version>
5.8.1

> <Gold.Id.Protein>
6NUR|6NUR_protein|mol2

> <Gold.PLP.Fitness>
43.7101

> <Gold.PLP.PLP>
-36.1449

> <Gold.PLP.part.hbond>
-2.9323

> <Gold.PLP.part.metal>
0.0000

> <Gold.PLP.part.buried>
-4.0330

> <Gold.PLP.part.nonpolar>
-30.6119

> <Gold.PLP.part.repulsive>
0.3028

> <Gold.PLP.ligand.clash>
0.0000

> <Gold.PLP.ligand.torsion>
1.3160

> <Gold.PLP.Chemscore.Hbond>
2.3280

> <Gold.PLP.Chemscore.CHOScore>
1.0000

> <Gold.PLP.Chemscore.Metal>
0.0000

> <Gold.Chemscore.Hbonds>
donor molecule, donor type, donor heavy atom, donor atom, acceptor molecule, acceptor atom, score
      L1  H     8    33       P1  7948  1.00
      L1  H    11    34       P1  7948  0.93
      P1  H  7989  7998       L1    21  0.40
      L1  C    22    45       P1  7957  1.00

> <Gold.PLP.Chemscore.Internal.Correction>
0.2131

> <Gold.Rescore>
     Score         DG    S(hbond)    S(metal)    S(lipo)     H(rot)  DE(clash)    DE(int)     intcor
     18.24     -19.77       1.97        0.00      87.76       1.00       0.20       1.33       ----

> <Gold.Chemscore.Fitness>
18.2410

> <Gold.Chemscore.DG>
-19.7676

> <Gold.Chemscore.ZeroCoef>
-5.4800

> <Gold.Chemscore.Hbond>
1.9698

> <Gold.Chemscore.Metal>
0.0000

> <Gold.Chemscore.Lipo>
87.7636

> <Gold.Chemscore.Internal_Hbond>
0.0000

> <Gold.Chemscore.DEClash>
0.2014

> <Gold.Chemscore.DEInternal>
1.3252

> <Gold.Chemscore.Rot>
1.0000

> <Gold.Chemscore.Internal.Correction>
   9.000000E+99

> <Gold.Chemscore.Hbonds>
donor molecule, donor type, donor heavy atom, donor atom, acceptor molecule, acceptor atom, score
      L1  H     8    33       P1  7948  0.93
      L1  H    11    34       P1  7948  0.91
      P1  H  7989  7998       L1    21  0.01

> <Gold.Chemscore.Hbond.Weighted>
-6.5792

> <Gold.Chemscore.Metal.Weighted>
-0.0000

> <Gold.Chemscore.Lipo.Weighted>
-10.2683

> <Gold.Chemscore.Internal_Hbond.Weighted>
0.0000

> <Gold.Chemscore.DEClash.Weighted>
0.2014

> <Gold.Chemscore.DEInternal.Weighted>
1.3252

> <Gold.Chemscore.Rot.Weighted>
2.5600

> <Gold.Chemscore.Internal.Correction.Weighted>
   9.000000E+99

> <Gold.Protein.RotatedTorsions>
[ 6907 6896 6895 6894 ] final -151.96 input  -60.11 | X-H torsion
[ 7974 7965 7964 7962 ] final   94.29 input  175.53 | X-H torsion
[ 8008 7997 7996 7995 ] final -175.80 input   59.86 | X-H torsion
[ 10167 10162 10161 10158 ] final  -56.07 input  -65.29 | X-H torsion
[ 10718 10713 10712 10709 ] final  -39.67 input   66.30 | X-H torsion
[ 10763 10752 10751 10750 ] final  -34.53 input  -60.55 | X-H torsion
[ 11005 11000 10999 10996 ] final  163.55 input  -57.11 | X-H torsion

> <Gold.Protein.ActiveResidues>
 VAL166  LYS551  ARG553  GLY616  TRP617  ASP618  TYR619  PRO620  LYS621  CYS622 
 ASP623  PHE694  ASN695  SER759  ASP760  ASP761  ALA762  ILE779  LEU786  VAL792 
 PHE793  MET794  SER795  GLU796  ALA797  LYS798  CYS799  TRP800  GLU811  SER814 

> <Gold.Protein.RotatedAtoms>
  151.2208  133.4503  159.2600 H   0  0  0  0  0  0  0  0  0  0  0  0  # atno 6907 bound_to 6896
  151.0886  134.9903  159.8402 H   0  0  0  0  0  0  0  0  0  0  0  0  # atno 6908 bound_to 6896
  152.5432  134.2143  159.8815 H   0  0  0  0  0  0  0  0  0  0  0  0  # atno 6909 bound_to 6896
  145.4676  139.2283  143.2953 H   0  0  0  0  0  0  0  0  0  0  0  0  # atno 7974 bound_to 7965
  155.9870  140.1193  157.0674 H   0  0  0  0  0  0  0  0  0  0  0  0  # atno 8008 bound_to 7997
  154.4200  140.1133  156.5581 H   0  0  0  0  0  0  0  0  0  0  0  0  # atno 8009 bound_to 7997
  155.6394  140.3473  155.4712 H   0  0  0  0  0  0  0  0  0  0  0  0  # atno 8010 bound_to 7997
  140.6339  143.2472  151.5170 H   0  0  0  0  0  0  0  0  0  0  0  0  # atno 10167 bound_to 10162
  156.2898  130.4227  149.8250 H   0  0  0  0  0  0  0  0  0  0  0  0  # atno 10718 bound_to 10713
  153.8482  135.6851  153.4795 H   0  0  0  0  0  0  0  0  0  0  0  0  # atno 10763 bound_to 10752
  153.1413  135.4656  154.9498 H   0  0  0  0  0  0  0  0  0  0  0  0  # atno 10764 bound_to 10752
  154.7814  135.3270  154.7928 H   0  0  0  0  0  0  0  0  0  0  0  0  # atno 10765 bound_to 10752
  140.2369  134.8081  157.3372 H   0  0  0  0  0  0  0  0  0  0  0  0  # atno 11005 bound_to 11000
  146.2415  140.5451  142.8932 LP  0  0  0  0  0  0  0  0  0  0  0  0  # atno 17320 bound_to 7965
  144.7965  140.6132  143.6507 LP  0  0  0  0  0  0  0  0  0  0  0  0  # atno 17321 bound_to 7965
  139.5550  144.2298  152.1597 LP  0  0  0  0  0  0  0  0  0  0  0  0  # atno 17342 bound_to 10162
  140.1549  144.5080  150.6666 LP  0  0  0  0  0  0  0  0  0  0  0  0  # atno 17343 bound_to 10162
  156.5667  130.8407  151.3344 LP  0  0  0  0  0  0  0  0  0  0  0  0  # atno 17370 bound_to 10713
  157.7339  130.9738  150.2002 LP  0  0  0  0  0  0  0  0  0  0  0  0  # atno 17371 bound_to 10713
  140.1693  134.4629  155.7842 LP  0  0  0  0  0  0  0  0  0  0  0  0  # atno 17394 bound_to 11000
  141.2213  133.6935  156.7680 LP  0  0  0  0  0  0  0  0  0  0  0  0  # atno 17395 bound_to 11000

$$$$
