AV-unprocessed.smi:2567|AV-procd|sdf|10080|dock5
  -GOLD-   2272014103D 1   1.00000     0.00000
 Structure written by MMmdl.
 33 34  0  0  0  0  0  0  0  0  1 V2000
  152.4597  144.9634  158.2592 C   0  0  0  0  0  0  0  0  0  0  0  0
  151.8003  143.7593  158.9595 C   0  0  0  0  0  0  0  0  0  0  0  0
  152.7478  143.2027  160.0395 C   0  0  0  0  0  0  0  0  0  0  0  0
  150.5146  144.2587  159.6558 C   0  0  0  0  0  0  0  0  0  0  0  0
  151.5025  142.6815  157.9443 C   0  0  0  0  0  0  0  0  0  0  0  0
  150.6729  142.8503  156.9086 N   0  0  0  0  0  0  0  0  0  0  0  0
  150.5913  141.7061  156.1986 N   0  0  0  0  0  0  0  0  0  0  0  0
  151.4133  140.9033  156.8715 C   0  0  0  0  0  0  0  0  0  0  0  0
  151.6037  139.4773  156.4571 C   0  0  2  0  0  0  0  0  0  0  0  0
  152.3326  139.3592  155.1043 C   0  0  0  0  0  0  0  0  0  0  0  0
  152.4074  137.9590  154.6895 N   0  0  0  0  0  0  0  0  0  0  0  0
  151.0799  137.3465  154.6571 C   0  0  0  0  0  0  0  0  0  0  0  0
  150.3767  137.5168  156.0161 C   0  0  0  0  0  0  0  0  0  0  0  0
  150.3047  138.8994  156.3475 O   0  0  0  0  0  0  0  0  0  0  0  0
  151.9969  141.4462  157.9838 N   0  0  0  0  0  0  0  0  0  0  0  0
  152.6790  145.7641  158.9662 H   0  0  0  0  0  0  0  0  0  0  0  0
  151.8102  145.3753  157.4858 H   0  0  0  0  0  0  0  0  0  0  0  0
  153.4005  144.6847  157.7831 H   0  0  0  0  0  0  0  0  0  0  0  0
  153.6941  142.8718  159.6096 H   0  0  0  0  0  0  0  0  0  0  0  0
  152.3043  142.3485  160.5526 H   0  0  0  0  0  0  0  0  0  0  0  0
  152.9789  143.9561  160.7933 H   0  0  0  0  0  0  0  0  0  0  0  0
  150.7357  145.0432  160.3806 H   0  0  0  0  0  0  0  0  0  0  0  0
  150.0115  143.4551  160.1951 H   0  0  0  0  0  0  0  0  0  0  0  0
  149.8055  144.6728  158.9380 H   0  0  0  0  0  0  0  0  0  0  0  0
  152.1662  138.9575  157.2356 H   0  0  0  0  0  0  0  0  0  0  0  0
  151.8025  139.9397  154.3479 H   0  0  0  0  0  0  0  0  0  0  0  0
  153.3349  139.7818  155.1782 H   0  0  0  0  0  0  0  0  0  0  0  0
  150.4771  137.8083  153.8741 H   0  0  0  0  0  0  0  0  0  0  0  0
  151.1619  136.2886  154.4071 H   0  0  0  0  0  0  0  0  0  0  0  0
  149.3651  137.1138  155.9675 H   0  0  0  0  0  0  0  0  0  0  0  0
  150.9008  136.9668  156.7993 H   0  0  0  0  0  0  0  0  0  0  0  0
  152.8317  137.8995  153.7693 H   0  0  0  0  0  0  0  0  0  0  0  0
  150.1619  143.6867  156.6651 H   0  0  0  0  0  0  0  0  0  0  0  0
  1  2  1  0  0  0  0
  1 16  1  0  0  0  0
  1 17  1  0  0  0  0
  1 18  1  0  0  0  0
  2  3  1  0  0  0  0
  2  4  1  0  0  0  0
  2  5  1  0  0  0  0
  3 19  1  0  0  0  0
  3 20  1  0  0  0  0
  3 21  1  0  0  0  0
  4 22  1  0  0  0  0
  4 23  1  0  0  0  0
  4 24  1  0  0  0  0
  5 15  2  0  0  0  0
  5  6  1  0  0  0  0
  6  7  1  0  0  0  0
  6 33  1  0  0  0  0
  7  8  2  0  0  0  0
  8  9  1  0  0  0  0
  8 15  1  0  0  0  0
  9 14  1  0  0  0  0
  9 10  1  0  0  0  0
  9 25  1  0  0  0  0
 10 11  1  0  0  0  0
 10 26  1  0  0  0  0
 10 27  1  0  0  0  0
 11 12  1  0  0  0  0
 11 32  1  0  0  0  0
 12 13  1  0  0  0  0
 12 28  1  0  0  0  0
 12 29  1  0  0  0  0
 13 14  1  0  0  0  0
 13 30  1  0  0  0  0
 13 31  1  0  0  0  0
M  END
> <s_m_source_file>
AV-unprocessed.smi

> <i_m_source_file_index>
2567

> <i_lp_mmshare_version>
43012

> <i_f3d_flags>
0

> <s_epik_input>
W0NIM11DKFtDSDNdKShbQ0gzXSljMW5bbkhdYyhuMSlbQ0BASF0yW0NIMl1bTkhdW0NIMl1bQ0gyXU8y

> <s_epik_cmdline>
J2VwaWtfcHl0aG9uJywgJy1waCcsICc3LjAnLCAnLXRuJywgJzgnLCAnLW1hJywgJzIwMCcsICctbWV0YWxfYmluZGluZycsICctaW1hZScsICc8aW5maWxlLm1hZT4nLCAnLW9tYWUnLCAnPG91dGZpbGUubWFlPic=

> <r_lp_tautomer_probability>
0.948284

> <r_epik_Ionization_Penalty>
1.10045

> <r_epik_Ionization_Penalty_Charging>
0

> <r_epik_Ionization_Penalty_Neutral>
1.10045

> <r_epik_State_Penalty>
1.2625

> <r_epik_Charging_Adjusted_Penalty>
1.2625

> <i_epik_Tot_Q>
0

> <i_epik_Tot_abs_Q>
0

> <r_epik_Metal_State_Penalty>
1.57133

> <b_epik_Metal_Only>
0

> <s_lp_Force_Field>
OPLS_2005

> <r_lp_Energy>
14.8987

> <b_lp_Chiralities_Consistent>
1

> <s_lp_Variant>
AV-unprocessed.smi:2567-5

> <Gold.Version>
5.8.1

> <Gold.Id.Protein>
6NUR|6NUR_protein|mol2

> <Gold.PLP.Fitness>
33.2341

> <Gold.PLP.PLP>
-30.3879

> <Gold.PLP.part.hbond>
-1.8006

> <Gold.PLP.part.metal>
0.0000

> <Gold.PLP.part.buried>
-4.8527

> <Gold.PLP.part.nonpolar>
-24.2741

> <Gold.PLP.part.repulsive>
0.1132

> <Gold.PLP.ligand.clash>
0.0000

> <Gold.PLP.ligand.torsion>
0.0866

> <Gold.PLP.Chemscore.Hbond>
1.0000

> <Gold.PLP.Chemscore.CHOScore>
0.0000

> <Gold.PLP.Chemscore.Metal>
0.0000

> <Gold.Chemscore.Hbonds>
donor molecule, donor type, donor heavy atom, donor atom, acceptor molecule, acceptor atom, score
      L1  H     6    33       P1  8028  1.00

> <Gold.PLP.Chemscore.Internal.Correction>
0.0195

> <Gold.Rescore>
     Score         DG    S(hbond)    S(metal)    S(lipo)     H(rot)  DE(clash)    DE(int)     intcor
     13.97     -14.20       0.97        0.00      74.14       1.25       0.09       0.15       ----

> <Gold.Chemscore.Fitness>
13.9651

> <Gold.Chemscore.DG>
-14.2042

> <Gold.Chemscore.ZeroCoef>
-5.4800

> <Gold.Chemscore.Hbond>
0.9693

> <Gold.Chemscore.Metal>
0.0000

> <Gold.Chemscore.Lipo>
74.1378

> <Gold.Chemscore.Internal_Hbond>
0.0000

> <Gold.Chemscore.DEClash>
0.0901

> <Gold.Chemscore.DEInternal>
0.1490

> <Gold.Chemscore.Rot>
1.2450

> <Gold.Chemscore.Internal.Correction>
   9.000000E+99

> <Gold.Chemscore.Hbonds>
donor molecule, donor type, donor heavy atom, donor atom, acceptor molecule, acceptor atom, score
      L1  H     6    33       P1  8028  0.98

> <Gold.Chemscore.Hbond.Weighted>
-3.2373

> <Gold.Chemscore.Metal.Weighted>
-0.0000

> <Gold.Chemscore.Lipo.Weighted>
-8.6741

> <Gold.Chemscore.Internal_Hbond.Weighted>
0.0000

> <Gold.Chemscore.DEClash.Weighted>
0.0901

> <Gold.Chemscore.DEInternal.Weighted>
0.1490

> <Gold.Chemscore.Rot.Weighted>
3.1872

> <Gold.Chemscore.Internal.Correction.Weighted>
   9.000000E+99

> <Gold.Protein.RotatedTorsions>
[ 6907 6896 6895 6894 ] final -174.53 input  -60.11 | X-H torsion
[ 7974 7965 7964 7962 ] final  118.14 input  175.53 | X-H torsion
[ 8008 7997 7996 7995 ] final   58.22 input   59.86 | X-H torsion
[ 10167 10162 10161 10158 ] final  -80.91 input  -65.29 | X-H torsion
[ 10718 10713 10712 10709 ] final -159.93 input   66.30 | X-H torsion
[ 10763 10752 10751 10750 ] final   75.90 input  -60.55 | X-H torsion
[ 11005 11000 10999 10996 ] final   26.56 input  -57.11 | X-H torsion

> <Gold.Protein.ActiveResidues>
 VAL166  LYS551  ARG553  GLY616  TRP617  ASP618  TYR619  PRO620  LYS621  CYS622 
 ASP623  PHE694  ASN695  SER759  ASP760  ASP761  ALA762  ILE779  LEU786  VAL792 
 PHE793  MET794  SER795  GLU796  ALA797  LYS798  CYS799  TRP800  GLU811  SER814 

> <Gold.Protein.RotatedAtoms>
  151.5738  133.3386  159.2994 H   0  0  0  0  0  0  0  0  0  0  0  0  # atno 6907 bound_to 6896
  150.8352  134.7625  159.6898 H   0  0  0  0  0  0  0  0  0  0  0  0  # atno 6908 bound_to 6896
  152.4430  134.5560  159.9932 H   0  0  0  0  0  0  0  0  0  0  0  0  # atno 6909 bound_to 6896
  145.1588  139.3167  143.4528 H   0  0  0  0  0  0  0  0  0  0  0  0  # atno 7974 bound_to 7965
  155.5465  140.3485  155.4458 H   0  0  0  0  0  0  0  0  0  0  0  0  # atno 8008 bound_to 7997
  156.0614  140.1341  156.9963 H   0  0  0  0  0  0  0  0  0  0  0  0  # atno 8009 bound_to 7997
  154.4481  140.0984  156.6507 H   0  0  0  0  0  0  0  0  0  0  0  0  # atno 8010 bound_to 7997
  140.4460  143.2498  151.8557 H   0  0  0  0  0  0  0  0  0  0  0  0  # atno 10167 bound_to 10162
  156.5750  130.8705  151.2848 H   0  0  0  0  0  0  0  0  0  0  0  0  # atno 10718 bound_to 10713
  153.0687  135.4971  154.8257 H   0  0  0  0  0  0  0  0  0  0  0  0  # atno 10763 bound_to 10752
  154.6991  135.2998  154.9370 H   0  0  0  0  0  0  0  0  0  0  0  0  # atno 10764 bound_to 10752
  154.0100  135.6755  153.4817 H   0  0  0  0  0  0  0  0  0  0  0  0  # atno 10765 bound_to 10752
  140.3357  134.2388  155.7696 H   0  0  0  0  0  0  0  0  0  0  0  0  # atno 11005 bound_to 11000
  146.3485  140.1691  142.8590 LP  0  0  0  0  0  0  0  0  0  0  0  0  # atno 17320 bound_to 7965
  145.0353  140.8903  143.5085 LP  0  0  0  0  0  0  0  0  0  0  0  0  # atno 17321 bound_to 7965
  139.4793  144.5175  151.8848 LP  0  0  0  0  0  0  0  0  0  0  0  0  # atno 17342 bound_to 10162
  140.4263  144.2176  150.5887 LP  0  0  0  0  0  0  0  0  0  0  0  0  # atno 17343 bound_to 10162
  157.7339  130.9738  150.2004 LP  0  0  0  0  0  0  0  0  0  0  0  0  # atno 17370 bound_to 10713
  156.2681  130.3718  149.8060 LP  0  0  0  0  0  0  0  0  0  0  0  0  # atno 17371 bound_to 10713
  141.2052  133.7867  157.0247 LP  0  0  0  0  0  0  0  0  0  0  0  0  # atno 17394 bound_to 11000
  140.0823  134.9641  157.1644 LP  0  0  0  0  0  0  0  0  0  0  0  0  # atno 17395 bound_to 11000

$$$$
