AV-unprocessed.smi:2021|AV-procd|sdf|8186|dock4
  -GOLD-   2272010443D 1   1.00000     0.00000
 Structure written by MMmdl.
 40 41  0  0  0  0  0  0  0  0  2 V2000
  153.2553  142.7226  159.7008 C   0  0  0  0  0  0  0  0  0  0  0  0
  152.2259  143.2803  158.7030 C   0  0  0  0  0  0  0  0  0  0  0  0
  151.7855  144.6868  159.1376 C   0  0  0  0  0  0  0  0  0  0  0  0
  151.0069  142.3408  158.5491 C   0  0  0  0  0  0  0  0  0  0  0  0
  151.2546  141.1004  157.8132 N   0  0  0  0  0  0  0  0  0  0  0  0
  151.3145  141.3510  156.3775 C   0  0  0  0  0  0  0  0  0  0  0  0
  151.5746  140.0635  155.5792 C   0  0  0  0  0  0  0  0  0  0  0  0
  150.5657  139.1079  155.8853 O   0  0  0  0  0  0  0  0  0  0  0  0
  150.5094  138.7833  157.2727 C   0  0  2  0  0  0  0  0  0  0  0  0
  149.4017  137.7428  157.4899 C   0  0  0  0  0  0  0  0  0  0  0  0
  148.9686  137.7299  158.8811 N   0  0  0  0  0  0  0  0  0  0  0  0
  148.1355  136.8303  159.4199 C   0  0  0  0  0  0  0  0  0  0  0  0
  147.6777  135.9230  158.7212 O   0  0  0  0  0  0  0  0  0  0  0  0
  147.8848  137.0357  160.7332 N   0  5  0  0  0  0  0  0  0  0  0  0
  147.0299  136.2324  161.3876 C   0  0  0  0  0  0  0  0  0  0  0  0
  145.7470  136.0930  161.0160 N   0  0  0  0  0  0  0  0  0  0  0  0
  145.0348  135.2202  161.8276 N   0  0  0  0  0  0  0  0  0  0  0  0
  145.8008  134.7281  162.8008 C   0  0  0  0  0  0  0  0  0  0  0  0
  147.4598  135.2882  162.8166 S   0  0  0  0  0  0  0  0  0  0  0  0
  150.2477  140.0744  158.0742 C   0  0  0  0  0  0  0  0  0  0  0  0
  152.8301  142.6393  160.7015 H   0  0  0  0  0  0  0  0  0  0  0  0
  154.1284  143.3723  159.7663 H   0  0  0  0  0  0  0  0  0  0  0  0
  153.6079  141.7335  159.4118 H   0  0  0  0  0  0  0  0  0  0  0  0
  152.7129  143.3898  157.7329 H   0  0  0  0  0  0  0  0  0  0  0  0
  151.2788  144.6638  160.1028 H   0  0  0  0  0  0  0  0  0  0  0  0
  151.1012  145.1257  158.4110 H   0  0  0  0  0  0  0  0  0  0  0  0
  152.6404  145.3575  159.2261 H   0  0  0  0  0  0  0  0  0  0  0  0
  150.5797  142.1168  159.5278 H   0  0  0  0  0  0  0  0  0  0  0  0
  150.2264  142.8887  158.0190 H   0  0  0  0  0  0  0  0  0  0  0  0
  150.3783  141.7989  156.0409 H   0  0  0  0  0  0  0  0  0  0  0  0
  152.1016  142.0737  156.1594 H   0  0  0  0  0  0  0  0  0  0  0  0
  151.5571  140.2701  154.5091 H   0  0  0  0  0  0  0  0  0  0  0  0
  152.5588  139.6541  155.8122 H   0  0  0  0  0  0  0  0  0  0  0  0
  151.4663  138.3569  157.5804 H   0  0  0  0  0  0  0  0  0  0  0  0
  148.5442  137.9770  156.8573 H   0  0  0  0  0  0  0  0  0  0  0  0
  149.7528  136.7502  157.2034 H   0  0  0  0  0  0  0  0  0  0  0  0
  149.3286  138.4570  159.4820 H   0  0  0  0  0  0  0  0  0  0  0  0
  145.3855  134.0341  163.5161 H   0  0  0  0  0  0  0  0  0  0  0  0
  150.2382  139.8236  159.1344 H   0  0  0  0  0  0  0  0  0  0  0  0
  149.2560  140.4600  157.8323 H   0  0  0  0  0  0  0  0  0  0  0  0
  1  2  1  0  0  0  0
  1 21  1  0  0  0  0
  1 22  1  0  0  0  0
  1 23  1  0  0  0  0
  2  3  1  0  0  0  0
  2  4  1  0  0  0  0
  2 24  1  0  0  0  0
  3 25  1  0  0  0  0
  3 26  1  0  0  0  0
  3 27  1  0  0  0  0
  4  5  1  0  0  0  0
  4 28  1  0  0  0  0
  4 29  1  0  0  0  0
  5 20  1  0  0  0  0
  5  6  1  0  0  0  0
  6  7  1  0  0  0  0
  6 30  1  0  0  0  0
  6 31  1  0  0  0  0
  7  8  1  0  0  0  0
  7 32  1  0  0  0  0
  7 33  1  0  0  0  0
  8  9  1  0  0  0  0
  9 10  1  0  0  0  0
  9 20  1  0  0  0  0
  9 34  1  0  0  0  0
 10 11  1  0  0  0  0
 10 35  1  0  0  0  0
 10 36  1  0  0  0  0
 11 12  1  0  0  0  0
 11 37  1  0  0  0  0
 12 13  2  0  0  0  0
 12 14  1  0  0  0  0
 14 15  1  0  0  0  0
 15 19  1  0  0  0  0
 15 16  2  0  0  0  0
 16 17  1  0  0  0  0
 17 18  2  0  0  0  0
 18 19  1  0  0  0  0
 18 38  1  0  0  0  0
 20 39  1  0  0  0  0
 20 40  1  0  0  0  0
M  CHG  1  14  -1
M  END
> <s_m_source_file>
AV-unprocessed.smi

> <i_m_source_file_index>
2021

> <i_lp_mmshare_version>
43012

> <i_f3d_flags>
0

> <s_epik_input>
W0NIM11bQ0hdKFtDSDNdKVtDSDJdTjFbQ0gyXVtDSDJdT1tDQEhdKFtDSDJdMSlbQ0gyXVtOSF1DKD1PKVtOSF1jMm5uW2NIXXMy

> <s_epik_cmdline>
J2VwaWtfcHl0aG9uJywgJy1waCcsICc3LjAnLCAnLXRuJywgJzgnLCAnLW1hJywgJzIwMCcsICctbWV0YWxfYmluZGluZycsICctaW1hZScsICc8aW5maWxlLm1hZT4nLCAnLW9tYWUnLCAnPG91dGZpbGUubWFlPic=

> <r_lp_tautomer_probability>
1

> <r_epik_Ionization_Penalty>
4.44864

> <r_epik_Ionization_Penalty_Charging>
3.27383

> <r_epik_Ionization_Penalty_Neutral>
1.17482

> <r_epik_State_Penalty>
4.44168

> <r_epik_Charging_Adjusted_Penalty>
7.7155

> <i_epik_Tot_Q>
-1

> <i_epik_Tot_abs_Q>
1

> <r_epik_Metal_State_Penalty>
1.66628

> <b_epik_Metal_Only>
1

> <s_lp_Force_Field>
OPLS_2005

> <r_lp_Energy>
22.4741

> <b_lp_Chiralities_Consistent>
1

> <s_lp_Variant>
AV-unprocessed.smi:2021-12

> <Gold.Version>
5.8.1

> <Gold.Id.Protein>
6NUR|6NUR_protein|mol2

> <Gold.PLP.Fitness>
43.6973

> <Gold.PLP.PLP>
-35.3720

> <Gold.PLP.part.hbond>
-2.0000

> <Gold.PLP.part.metal>
0.0000

> <Gold.PLP.part.buried>
-4.3581

> <Gold.PLP.part.nonpolar>
-28.8298

> <Gold.PLP.part.repulsive>
0.2114

> <Gold.PLP.ligand.clash>
0.0000

> <Gold.PLP.ligand.torsion>
1.0281

> <Gold.PLP.Chemscore.Hbond>
3.4409

> <Gold.PLP.Chemscore.CHOScore>
0.0000

> <Gold.PLP.Chemscore.Metal>
0.0000

> <Gold.Chemscore.Hbonds>
donor molecule, donor type, donor heavy atom, donor atom, acceptor molecule, acceptor atom, score
      P1  H  6931  6943       L1    14  1.75
      P1  H  6934  6947       L1    14  1.35

> <Gold.PLP.Chemscore.Internal.Correction>
0.0589

> <Gold.Rescore>
     Score         DG    S(hbond)    S(metal)    S(lipo)     H(rot)  DE(clash)    DE(int)     intcor
     12.65     -14.80       1.20        0.00      84.98       1.81       0.03       2.12       ----

> <Gold.Chemscore.Fitness>
12.6467

> <Gold.Chemscore.DG>
-14.7994

> <Gold.Chemscore.ZeroCoef>
-5.4800

> <Gold.Chemscore.Hbond>
1.1975

> <Gold.Chemscore.Metal>
0.0000

> <Gold.Chemscore.Lipo>
84.9760

> <Gold.Chemscore.Internal_Hbond>
0.0000

> <Gold.Chemscore.DEClash>
0.0308

> <Gold.Chemscore.DEInternal>
2.1220

> <Gold.Chemscore.Rot>
1.8056

> <Gold.Chemscore.Internal.Correction>
   9.000000E+99

> <Gold.Chemscore.Hbonds>
donor molecule, donor type, donor heavy atom, donor atom, acceptor molecule, acceptor atom, score
      P1  H  6931  6943       L1    14  0.75
      P1  H  6934  6947       L1    14  0.26

> <Gold.Chemscore.Hbond.Weighted>
-3.9996

> <Gold.Chemscore.Metal.Weighted>
-0.0000

> <Gold.Chemscore.Lipo.Weighted>
-9.9422

> <Gold.Chemscore.Internal_Hbond.Weighted>
0.0000

> <Gold.Chemscore.DEClash.Weighted>
0.0308

> <Gold.Chemscore.DEInternal.Weighted>
2.1220

> <Gold.Chemscore.Rot.Weighted>
4.6224

> <Gold.Chemscore.Internal.Correction.Weighted>
   9.000000E+99

> <Gold.Protein.RotatedTorsions>
[ 6907 6896 6895 6894 ] final  -83.06 input  -60.11 | X-H torsion
[ 7974 7965 7964 7962 ] final   35.17 input  175.53 | X-H torsion
[ 8008 7997 7996 7995 ] final   67.88 input   59.86 | X-H torsion
[ 10167 10162 10161 10158 ] final  -35.16 input  -65.29 | X-H torsion
[ 10718 10713 10712 10709 ] final  -40.30 input   66.30 | X-H torsion
[ 10763 10752 10751 10750 ] final  -71.26 input  -60.55 | X-H torsion
[ 11005 11000 10999 10996 ] final   47.50 input  -57.11 | X-H torsion

> <Gold.Protein.ActiveResidues>
 VAL166  LYS551  ARG553  GLY616  TRP617  ASP618  TYR619  PRO620  LYS621  CYS622 
 ASP623  PHE694  ASN695  SER759  ASP760  ASP761  ALA762  ILE779  LEU786  VAL792 
 PHE793  MET794  SER795  GLU796  ALA797  LYS798  CYS799  TRP800  GLU811  SER814 

> <Gold.Protein.RotatedAtoms>
  150.6890  134.3569  159.4933 H   0  0  0  0  0  0  0  0  0  0  0  0  # atno 6907 bound_to 6896
  152.1403  134.9065  160.0563 H   0  0  0  0  0  0  0  0  0  0  0  0  # atno 6908 bound_to 6896
  152.0201  133.3860  159.4291 H   0  0  0  0  0  0  0  0  0  0  0  0  # atno 6909 bound_to 6896
  146.1301  139.6176  142.9232 H   0  0  0  0  0  0  0  0  0  0  0  0  # atno 7974 bound_to 7965
  155.6997  140.3495  155.4928 H   0  0  0  0  0  0  0  0  0  0  0  0  # atno 8008 bound_to 7997
  155.9451  140.1109  157.1046 H   0  0  0  0  0  0  0  0  0  0  0  0  # atno 8009 bound_to 7997
  154.4110  140.1205  156.4965 H   0  0  0  0  0  0  0  0  0  0  0  0  # atno 8010 bound_to 7997
  140.7171  143.3496  151.2183 H   0  0  0  0  0  0  0  0  0  0  0  0  # atno 10167 bound_to 10162
  156.2828  130.4219  149.8319 H   0  0  0  0  0  0  0  0  0  0  0  0  # atno 10718 bound_to 10713
  154.4292  135.5968  153.6058 H   0  0  0  0  0  0  0  0  0  0  0  0  # atno 10763 bound_to 10752
  152.9798  135.5971  154.3860 H   0  0  0  0  0  0  0  0  0  0  0  0  # atno 10764 bound_to 10752
  154.3696  135.2841  155.2252 H   0  0  0  0  0  0  0  0  0  0  0  0  # atno 10765 bound_to 10752
  140.1273  134.4751  155.8549 H   0  0  0  0  0  0  0  0  0  0  0  0  # atno 11005 bound_to 11000
  145.5278  141.0428  143.2399 LP  0  0  0  0  0  0  0  0  0  0  0  0  # atno 17320 bound_to 7965
  144.7682  139.6796  143.7206 LP  0  0  0  0  0  0  0  0  0  0  0  0  # atno 17321 bound_to 7965
  139.7024  143.9511  152.2911 LP  0  0  0  0  0  0  0  0  0  0  0  0  # atno 17342 bound_to 10162
  139.9208  144.6800  150.8463 LP  0  0  0  0  0  0  0  0  0  0  0  0  # atno 17343 bound_to 10162
  156.5760  130.8445  151.3370 LP  0  0  0  0  0  0  0  0  0  0  0  0  # atno 17370 bound_to 10713
  157.7319  130.9708  150.1905 LP  0  0  0  0  0  0  0  0  0  0  0  0  # atno 17371 bound_to 10713
  141.2163  133.6782  156.7003 LP  0  0  0  0  0  0  0  0  0  0  0  0  # atno 17394 bound_to 11000
  140.2887  134.8258  157.3998 LP  0  0  0  0  0  0  0  0  0  0  0  0  # atno 17395 bound_to 11000

$$$$
