AV-unprocessed.smi:2881|AV-procd|sdf|11066|dock5
  -GOLD-   2272015543D 1   1.00000     0.00000
 Structure written by MMmdl.
 40 42  0  0  0  0  0  0  0  0  1 V2000
  153.1657  143.2404  163.2631 C   0  0  0  0  0  0  0  0  0  0  0  0
  152.7667  143.0140  161.8343 C   0  0  0  0  0  0  0  0  0  0  0  0
  151.7451  143.6777  161.0942 C   0  0  0  0  0  0  0  0  0  0  0  0
  151.8014  143.1075  159.8530 C   0  0  0  0  0  0  0  0  0  0  0  0
  151.0186  143.3764  158.6065 C   0  0  0  0  0  0  0  0  0  0  0  0
  150.2574  142.1246  158.1686 C   0  0  0  0  0  0  0  0  0  0  0  0
  150.3979  141.0695  158.7858 O   0  0  0  0  0  0  0  0  0  0  0  0
  149.4782  142.2526  157.0830 N   0  0  0  0  0  0  0  0  0  0  0  0
  148.7678  141.1665  156.4097 C   0  0  1  0  0  0  0  0  0  0  0  0
  147.9300  141.7238  155.2389 C   0  0  2  0  0  0  0  0  0  0  0  0
  146.9199  140.6528  154.7886 C   0  0  0  0  0  0  0  0  0  0  0  0
  147.8215  139.6153  154.0927 C   0  0  0  0  0  0  0  0  0  0  0  0
  149.2278  140.2318  154.2341 C   0  0  1  0  0  0  0  0  0  0  0  0
  148.9237  141.7169  154.0832 C   0  0  0  0  0  0  0  0  0  0  0  0
  149.6912  140.1232  155.7079 C   0  0  1  0  0  0  0  0  0  0  0  0
  151.2143  140.3293  155.8868 C   0  0  0  0  0  0  0  0  0  0  0  0
  151.9256  139.7114  154.8354 O   0  0  0  0  0  0  0  0  0  0  0  0
  152.8018  142.1636  159.9105 N   0  0  0  0  0  0  0  0  0  0  0  0
  153.4004  142.1003  161.1139 N   0  0  0  0  0  0  0  0  0  0  0  0
  153.0886  141.5713  159.1439 H   0  0  0  0  0  0  0  0  0  0  0  0
  153.1360  144.3011  163.5128 H   0  0  0  0  0  0  0  0  0  0  0  0
  154.1774  142.8841  163.4606 H   0  0  0  0  0  0  0  0  0  0  0  0
  152.4905  142.7203  163.9426 H   0  0  0  0  0  0  0  0  0  0  0  0
  151.0793  144.4616  161.4232 H   0  0  0  0  0  0  0  0  0  0  0  0
  151.6849  143.6903  157.8022 H   0  0  0  0  0  0  0  0  0  0  0  0
  150.3175  144.1956  158.7724 H   0  0  0  0  0  0  0  0  0  0  0  0
  149.4240  143.1630  156.6494 H   0  0  0  0  0  0  0  0  0  0  0  0
  148.1100  140.6719  157.1270 H   0  0  0  0  0  0  0  0  0  0  0  0
  147.4668  142.6899  155.4436 H   0  0  0  0  0  0  0  0  0  0  0  0
  146.3604  140.2281  155.6230 H   0  0  0  0  0  0  0  0  0  0  0  0
  146.2007  141.0698  154.0826 H   0  0  0  0  0  0  0  0  0  0  0  0
  147.7515  138.6276  154.5498 H   0  0  0  0  0  0  0  0  0  0  0  0
  147.5465  139.5151  153.0420 H   0  0  0  0  0  0  0  0  0  0  0  0
  149.9410  139.8354  153.5110 H   0  0  0  0  0  0  0  0  0  0  0  0
  148.4714  141.9704  153.1228 H   0  0  0  0  0  0  0  0  0  0  0  0
  149.7890  142.3603  154.2483 H   0  0  0  0  0  0  0  0  0  0  0  0
  149.4532  139.1298  156.0920 H   0  0  0  0  0  0  0  0  0  0  0  0
  151.4776  141.3868  155.9213 H   0  0  0  0  0  0  0  0  0  0  0  0
  151.5543  139.8796  156.8195 H   0  0  0  0  0  0  0  0  0  0  0  0
  151.9118  138.7763  154.9734 H   0  0  0  0  0  0  0  0  0  0  0  0
  1 21  1  0  0  0  0
  1 22  1  0  0  0  0
  1 23  1  0  0  0  0
  1  2  1  0  0  0  0
  2 19  2  0  0  0  0
  2  3  1  0  0  0  0
  3  4  2  0  0  0  0
  3 24  1  0  0  0  0
  4 18  1  0  0  0  0
  4  5  1  0  0  0  0
  5  6  1  0  0  0  0
  5 25  1  0  0  0  0
  5 26  1  0  0  0  0
  6  7  2  0  0  0  0
  6  8  1  0  0  0  0
  8  9  1  0  0  0  0
  8 27  1  0  0  0  0
  9 15  1  0  0  0  0
  9 10  1  0  0  0  0
  9 28  1  0  0  0  0
 10 14  1  0  0  0  0
 10 11  1  0  0  0  0
 10 29  1  0  0  0  0
 11 12  1  0  0  0  0
 11 30  1  0  0  0  0
 11 31  1  0  0  0  0
 12 13  1  0  0  0  0
 12 32  1  0  0  0  0
 12 33  1  0  0  0  0
 13 14  1  0  0  0  0
 13 15  1  0  0  0  0
 13 34  1  0  0  0  0
 14 35  1  0  0  0  0
 14 36  1  0  0  0  0
 15 16  1  0  0  0  0
 15 37  1  0  0  0  0
 16 17  1  0  0  0  0
 16 38  1  0  0  0  0
 16 39  1  0  0  0  0
 17 40  1  0  0  0  0
 18 19  1  0  0  0  0
 18 20  1  0  0  0  0
M  END
> <s_m_source_file>
AV-unprocessed.smi

> <i_m_source_file_index>
2881

> <i_lp_mmshare_version>
43012

> <i_f3d_flags>
0

> <s_epik_input>
W0NIM11jMVtjSF1jKG5bbkhdMSlbQ0gyXUMoPU8pW05IXVtDQEhdKFtDQEBIXTIzKVtDQEhdKFtDSDJdW09IXSlbQ0BASF0oW0NIMl0zKVtDSDJdW0NIMl0y

> <s_epik_cmdline>
J2VwaWtfcHl0aG9uJywgJy1waCcsICc3LjAnLCAnLXRuJywgJzgnLCAnLW1hJywgJzIwMCcsICctbWV0YWxfYmluZGluZycsICctaW1hZScsICc8aW5maWxlLm1hZT4nLCAnLW9tYWUnLCAnPG91dGZpbGUubWFlPic=

> <r_lp_tautomer_probability>
0.5

> <r_epik_Ionization_Penalty>
0.00013396

> <r_epik_Ionization_Penalty_Charging>
0

> <r_epik_Ionization_Penalty_Neutral>
0.00013396

> <r_epik_State_Penalty>
0.41068

> <r_epik_Charging_Adjusted_Penalty>
0.41068

> <i_epik_Tot_Q>
0

> <i_epik_Tot_abs_Q>
0

> <r_epik_Metal_State_Penalty>
0.41066

> <b_epik_Metal_Only>
0

> <s_lp_Force_Field>
OPLS_2005

> <r_lp_Energy>
46.6503

> <b_lp_Chiralities_Consistent>
1

> <s_lp_Variant>
AV-unprocessed.smi:2881-12

> <Gold.Version>
5.8.1

> <Gold.Id.Protein>
6NUR|6NUR_protein|mol2

> <Gold.PLP.Fitness>
41.1198

> <Gold.PLP.PLP>
-35.6421

> <Gold.PLP.part.hbond>
-2.1257

> <Gold.PLP.part.metal>
0.0000

> <Gold.PLP.part.buried>
-3.2930

> <Gold.PLP.part.nonpolar>
-30.3339

> <Gold.PLP.part.repulsive>
0.0847

> <Gold.PLP.ligand.clash>
0.0000

> <Gold.PLP.ligand.torsion>
0.2621

> <Gold.PLP.Chemscore.Hbond>
1.9920

> <Gold.PLP.Chemscore.CHOScore>
0.0000

> <Gold.PLP.Chemscore.Metal>
0.0000

> <Gold.Chemscore.Hbonds>
donor molecule, donor type, donor heavy atom, donor atom, acceptor molecule, acceptor atom, score
      L1  H     8    27       P1  8028  1.00
      P1  H  7989  7998       L1    17  0.94

> <Gold.PLP.Chemscore.Internal.Correction>
0.0260

> <Gold.Rescore>
     Score         DG    S(hbond)    S(metal)    S(lipo)     H(rot)  DE(clash)    DE(int)     intcor
     15.97     -17.43       1.86        0.00      98.88       2.28       0.84       0.62       ----

> <Gold.Chemscore.Fitness>
15.9729

> <Gold.Chemscore.DG>
-17.4343

> <Gold.Chemscore.ZeroCoef>
-5.4800

> <Gold.Chemscore.Hbond>
1.8595

> <Gold.Chemscore.Metal>
0.0000

> <Gold.Chemscore.Lipo>
98.8794

> <Gold.Chemscore.Internal_Hbond>
0.0000

> <Gold.Chemscore.DEClash>
0.8367

> <Gold.Chemscore.DEInternal>
0.6248

> <Gold.Chemscore.Rot>
2.2755

> <Gold.Chemscore.Internal.Correction>
   9.000000E+99

> <Gold.Chemscore.Hbonds>
donor molecule, donor type, donor heavy atom, donor atom, acceptor molecule, acceptor atom, score
      L1  H     8    27       P1  8028  1.00
      P1  H  7989  7998       L1    17  0.32

> <Gold.Chemscore.Hbond.Weighted>
-6.2107

> <Gold.Chemscore.Metal.Weighted>
-0.0000

> <Gold.Chemscore.Lipo.Weighted>
-11.5689

> <Gold.Chemscore.Internal_Hbond.Weighted>
0.0000

> <Gold.Chemscore.DEClash.Weighted>
0.8367

> <Gold.Chemscore.DEInternal.Weighted>
0.6248

> <Gold.Chemscore.Rot.Weighted>
5.8252

> <Gold.Chemscore.Internal.Correction.Weighted>
   9.000000E+99

> <Gold.Protein.RotatedTorsions>
[ 6907 6896 6895 6894 ] final  -21.63 input  -60.11 | X-H torsion
[ 7974 7965 7964 7962 ] final  -35.51 input  175.53 | X-H torsion
[ 8008 7997 7996 7995 ] final -166.69 input   59.86 | X-H torsion
[ 10167 10162 10161 10158 ] final   -1.62 input  -65.29 | X-H torsion
[ 10718 10713 10712 10709 ] final -156.23 input   66.30 | X-H torsion
[ 10763 10752 10751 10750 ] final -145.59 input  -60.55 | X-H torsion
[ 11005 11000 10999 10996 ] final -119.82 input  -57.11 | X-H torsion

> <Gold.Protein.ActiveResidues>
 VAL166  LYS551  ARG553  GLY616  TRP617  ASP618  TYR619  PRO620  LYS621  CYS622 
 ASP623  PHE694  ASN695  SER759  ASP760  ASP761  ALA762  ILE779  LEU786  VAL792 
 PHE793  MET794  SER795  GLU796  ALA797  LYS798  CYS799  TRP800  GLU811  SER814 

> <Gold.Protein.RotatedAtoms>
  151.2305  135.0552  159.8985 H   0  0  0  0  0  0  0  0  0  0  0  0  # atno 6907 bound_to 6896
  152.5405  134.0542  159.8134 H   0  0  0  0  0  0  0  0  0  0  0  0  # atno 6908 bound_to 6896
  151.0721  133.5409  159.2658 H   0  0  0  0  0  0  0  0  0  0  0  0  # atno 6909 bound_to 6896
  146.0740  140.6168  142.8939 H   0  0  0  0  0  0  0  0  0  0  0  0  # atno 7974 bound_to 7965
  155.8674  140.0988  157.1573 H   0  0  0  0  0  0  0  0  0  0  0  0  # atno 8008 bound_to 7997
  154.3994  140.1353  156.4098 H   0  0  0  0  0  0  0  0  0  0  0  0  # atno 8009 bound_to 7997
  155.7789  140.3459  155.5289 H   0  0  0  0  0  0  0  0  0  0  0  0  # atno 8010 bound_to 7997
  140.6818  143.6753  150.8150 H   0  0  0  0  0  0  0  0  0  0  0  0  # atno 10167 bound_to 10162
  156.5237  130.8489  151.2691 H   0  0  0  0  0  0  0  0  0  0  0  0  # atno 10718 bound_to 10713
  154.8376  135.3409  154.6529 H   0  0  0  0  0  0  0  0  0  0  0  0  # atno 10763 bound_to 10752
  153.7142  135.6962  153.5034 H   0  0  0  0  0  0  0  0  0  0  0  0  # atno 10764 bound_to 10752
  153.2429  135.4378  155.0670 H   0  0  0  0  0  0  0  0  0  0  0  0  # atno 10765 bound_to 10752
  141.0188  134.0155  157.3312 H   0  0  0  0  0  0  0  0  0  0  0  0  # atno 11005 bound_to 11000
  144.7250  140.4495  143.6980 LP  0  0  0  0  0  0  0  0  0  0  0  0  # atno 17320 bound_to 7965
  145.6339  139.1540  143.2953 LP  0  0  0  0  0  0  0  0  0  0  0  0  # atno 17321 bound_to 7965
  140.0455  143.5303  152.2698 LP  0  0  0  0  0  0  0  0  0  0  0  0  # atno 17342 bound_to 10162
  139.6145  144.7616  151.2876 LP  0  0  0  0  0  0  0  0  0  0  0  0  # atno 17343 bound_to 10162
  157.7433  130.9908  150.2580 LP  0  0  0  0  0  0  0  0  0  0  0  0  # atno 17370 bound_to 10713
  156.3125  130.3774  149.7649 LP  0  0  0  0  0  0  0  0  0  0  0  0  # atno 17371 bound_to 10713
  139.9133  135.0193  156.7781 LP  0  0  0  0  0  0  0  0  0  0  0  0  # atno 17394 bound_to 11000
  140.6609  133.9646  155.7804 LP  0  0  0  0  0  0  0  0  0  0  0  0  # atno 17395 bound_to 11000

$$$$
