AV-unprocessed.smi:1786|AV-procd|sdf|7205|dock2
  -GOLD-   22720 8443D 1   1.00000     0.00000
 Structure written by MMmdl.
 44 45  0  0  0  0  0  0  0  0  2 V2000
  147.9646  144.5777  161.4685 C   0  0  0  0  0  0  0  0  0  0  0  0
  146.5232  144.7569  160.9526 C   0  0  1  0  0  0  0  0  0  0  0  0
  146.1861  146.2637  160.9123 C   0  0  0  0  0  0  0  0  0  0  0  0
  144.7683  146.5220  160.3936 C   0  0  0  0  0  0  0  0  0  0  0  0
  144.6013  145.8686  159.0204 C   0  0  0  0  0  0  0  0  0  0  0  0
  144.9278  144.3704  159.0956 C   0  0  0  0  0  0  0  0  0  0  0  0
  146.3024  144.1248  159.6121 N   0  3  2  0  0  0  0  0  0  0  0  0
  146.6474  142.6777  159.5560 C   0  0  0  0  0  0  0  0  0  0  0  0
  146.8165  142.1861  158.1053 C   0  0  0  0  0  0  0  0  0  0  0  0
  148.1771  142.3988  157.6268 N   0  0  0  0  0  0  0  0  0  0  0  0
  149.0775  141.4241  157.4272 C   0  0  0  0  0  0  0  0  0  0  0  0
  148.8500  140.2384  157.6706 O   0  0  0  0  0  0  0  0  0  0  0  0
  150.4439  141.8582  156.8806 C   0  0  0  0  0  0  0  0  0  0  0  0
  151.3028  142.4520  157.9184 N   0  0  0  0  0  0  0  0  0  0  0  0
  151.5441  143.8383  157.8412 C   0  0  0  0  0  0  0  0  0  0  0  0
  152.3069  144.4769  158.7425 C   0  0  0  0  0  0  0  0  0  0  0  0
  152.8909  143.7043  159.8133 C   0  0  0  0  0  0  0  0  0  0  0  0
  152.6639  142.3784  159.8981 C   0  0  0  0  0  0  0  0  0  0  0  0
  151.8254  141.6773  158.9192 C   0  0  0  0  0  0  0  0  0  0  0  0
  151.6036  140.4681  158.9953 O   0  0  0  0  0  0  0  0  0  0  0  0
  148.1030  145.0941  162.4188 H   0  0  0  0  0  0  0  0  0  0  0  0
  148.6918  144.9876  160.7669 H   0  0  0  0  0  0  0  0  0  0  0  0
  148.2160  143.5322  161.6452 H   0  0  0  0  0  0  0  0  0  0  0  0
  145.8480  144.2759  161.6624 H   0  0  0  0  0  0  0  0  0  0  0  0
  146.2893  146.6959  161.9085 H   0  0  0  0  0  0  0  0  0  0  0  0
  146.9029  146.7854  160.2765 H   0  0  0  0  0  0  0  0  0  0  0  0
  144.0361  146.1150  161.0923 H   0  0  0  0  0  0  0  0  0  0  0  0
  144.5791  147.5938  160.3286 H   0  0  0  0  0  0  0  0  0  0  0  0
  143.5813  146.0107  158.6619 H   0  0  0  0  0  0  0  0  0  0  0  0
  145.2561  146.3542  158.2954 H   0  0  0  0  0  0  0  0  0  0  0  0
  144.2036  143.8616  159.7343 H   0  0  0  0  0  0  0  0  0  0  0  0
  144.8295  143.9395  158.0981 H   0  0  0  0  0  0  0  0  0  0  0  0
  147.5376  142.4784  160.1541 H   0  0  0  0  0  0  0  0  0  0  0  0
  145.8596  142.0800  160.0178 H   0  0  0  0  0  0  0  0  0  0  0  0
  146.6012  141.1186  158.0498 H   0  0  0  0  0  0  0  0  0  0  0  0
  146.1151  142.6753  157.4296 H   0  0  0  0  0  0  0  0  0  0  0  0
  148.4475  143.3485  157.4140 H   0  0  0  0  0  0  0  0  0  0  0  0
  150.9502  141.0073  156.4201 H   0  0  0  0  0  0  0  0  0  0  0  0
  150.2744  142.5649  156.0671 H   0  0  0  0  0  0  0  0  0  0  0  0
  151.0663  144.3447  157.0150 H   0  0  0  0  0  0  0  0  0  0  0  0
  152.4766  145.5412  158.6704 H   0  0  0  0  0  0  0  0  0  0  0  0
  153.5128  144.1914  160.5500 H   0  0  0  0  0  0  0  0  0  0  0  0
  153.1096  141.8164  160.7060 H   0  0  0  0  0  0  0  0  0  0  0  0
  146.9259  144.5889  158.9672 H   0  0  0  0  0  0  0  0  0  0  0  0
  1  2  1  0  0  0  0
  1 21  1  0  0  0  0
  1 22  1  0  0  0  0
  1 23  1  0  0  0  0
  2  7  1  0  0  0  0
  2  3  1  0  0  0  0
  2 24  1  0  0  0  0
  3  4  1  0  0  0  0
  3 25  1  0  0  0  0
  3 26  1  0  0  0  0
  4  5  1  0  0  0  0
  4 27  1  0  0  0  0
  4 28  1  0  0  0  0
  5  6  1  0  0  0  0
  5 29  1  0  0  0  0
  5 30  1  0  0  0  0
  6  7  1  0  0  0  0
  6 31  1  0  0  0  0
  6 32  1  0  0  0  0
  7  8  1  0  0  0  0
  7 44  1  0  0  0  0
  8  9  1  0  0  0  0
  8 33  1  0  0  0  0
  8 34  1  0  0  0  0
  9 10  1  0  0  0  0
  9 35  1  0  0  0  0
  9 36  1  0  0  0  0
 10 11  1  0  0  0  0
 10 37  1  0  0  0  0
 11 12  2  0  0  0  0
 11 13  1  0  0  0  0
 13 14  1  0  0  0  0
 13 38  1  0  0  0  0
 13 39  1  0  0  0  0
 14 19  1  0  0  0  0
 14 15  1  0  0  0  0
 15 16  2  0  0  0  0
 15 40  1  0  0  0  0
 16 17  1  0  0  0  0
 16 41  1  0  0  0  0
 17 18  2  0  0  0  0
 17 42  1  0  0  0  0
 18 19  1  0  0  0  0
 18 43  1  0  0  0  0
 19 20  2  0  0  0  0
M  CHG  1   7   1
M  END
> <s_m_source_file>
AV-unprocessed.smi

> <i_m_source_file_index>
1786

> <i_lp_mmshare_version>
43012

> <i_f3d_flags>
0

> <s_epik_input>
W0NIM11bQ0BASF0xW0NIMl1bQ0gyXVtDSDJdW0NIMl1OMVtDSDJdW0NIMl1bTkhdQyg9TylbQ0gyXW4yW2NIXVtjSF1bY0hdW2NIXWMyPU8=

> <s_epik_cmdline>
J2VwaWtfcHl0aG9uJywgJy1waCcsICc3LjAnLCAnLXRuJywgJzgnLCAnLW1hJywgJzIwMCcsICctbWV0YWxfYmluZGluZycsICctaW1hZScsICc8aW5maWxlLm1hZT4nLCAnLW9tYWUnLCAnPG91dGZpbGUubWFlPic=

> <r_lp_tautomer_probability>
1

> <r_epik_Ionization_Penalty>
0.00237247

> <r_epik_Ionization_Penalty_Charging>
0.00237238

> <r_epik_Ionization_Penalty_Neutral>
8.2065e-08

> <r_epik_State_Penalty>
0.00163922

> <r_epik_Charging_Adjusted_Penalty>
0.0040116

> <i_epik_Tot_Q>
1

> <i_epik_Tot_abs_Q>
1

> <r_epik_Metal_State_Penalty>
-0

> <b_epik_Metal_Only>
0

> <s_lp_Force_Field>
OPLS_2005

> <r_lp_Energy>
27.3139

> <b_lp_Chiralities_Consistent>
1

> <s_lp_Variant>
AV-unprocessed.smi:1786-4

> <Gold.Version>
5.8.1

> <Gold.Id.Protein>
6NUR|6NUR_protein|mol2

> <Gold.PLP.Fitness>
52.7276

> <Gold.PLP.PLP>
-42.4142

> <Gold.PLP.part.hbond>
-2.0442

> <Gold.PLP.part.metal>
0.0000

> <Gold.PLP.part.buried>
-4.4883

> <Gold.PLP.part.nonpolar>
-33.7429

> <Gold.PLP.part.repulsive>
0.0609

> <Gold.PLP.ligand.clash>
0.0000

> <Gold.PLP.ligand.torsion>
0.6540

> <Gold.PLP.Chemscore.Hbond>
2.8500

> <Gold.PLP.Chemscore.CHOScore>
1.0000

> <Gold.PLP.Chemscore.Metal>
0.0000

> <Gold.Chemscore.Hbonds>
donor molecule, donor type, donor heavy atom, donor atom, acceptor molecule, acceptor atom, score
      L1  H     7    44       P1  8029  0.36
      L1  H    10    37       P1  8028  0.29
      L1  C    15    40       P1  8028  0.92

> <Gold.PLP.Chemscore.Internal.Correction>
0.0714

> <Gold.Rescore>
     Score         DG    S(hbond)    S(metal)    S(lipo)     H(rot)  DE(clash)    DE(int)     intcor
     14.17     -14.85       1.10        0.00      89.28       1.86       0.01       0.67       ----

> <Gold.Chemscore.Fitness>
14.1746

> <Gold.Chemscore.DG>
-14.8486

> <Gold.Chemscore.ZeroCoef>
-5.4800

> <Gold.Chemscore.Hbond>
1.1022

> <Gold.Chemscore.Metal>
0.0000

> <Gold.Chemscore.Lipo>
89.2762

> <Gold.Chemscore.Internal_Hbond>
0.0000

> <Gold.Chemscore.DEClash>
0.0089

> <Gold.Chemscore.DEInternal>
0.6651

> <Gold.Chemscore.Rot>
1.8586

> <Gold.Chemscore.Internal.Correction>
   9.000000E+99

> <Gold.Chemscore.Hbonds>
donor molecule, donor type, donor heavy atom, donor atom, acceptor molecule, acceptor atom, score
      L1  H     7    44       P1  8029  0.19
      L1  H    10    37       P1  8028  0.04

> <Gold.Chemscore.Hbond.Weighted>
-3.6814

> <Gold.Chemscore.Metal.Weighted>
-0.0000

> <Gold.Chemscore.Lipo.Weighted>
-10.4453

> <Gold.Chemscore.Internal_Hbond.Weighted>
0.0000

> <Gold.Chemscore.DEClash.Weighted>
0.0089

> <Gold.Chemscore.DEInternal.Weighted>
0.6651

> <Gold.Chemscore.Rot.Weighted>
4.7581

> <Gold.Chemscore.Internal.Correction.Weighted>
   9.000000E+99

> <Gold.Protein.RotatedTorsions>
[ 6907 6896 6895 6894 ] final  -37.48 input  -60.11 | X-H torsion
[ 7974 7965 7964 7962 ] final   10.31 input  175.53 | X-H torsion
[ 8008 7997 7996 7995 ] final  -68.20 input   59.86 | X-H torsion
[ 10167 10162 10161 10158 ] final  -45.74 input  -65.29 | X-H torsion
[ 10718 10713 10712 10709 ] final -175.73 input   66.30 | X-H torsion
[ 10763 10752 10751 10750 ] final -156.31 input  -60.55 | X-H torsion
[ 11005 11000 10999 10996 ] final   72.14 input  -57.11 | X-H torsion

> <Gold.Protein.ActiveResidues>
 VAL166  LYS551  ARG553  GLY616  TRP617  ASP618  TYR619  PRO620  LYS621  CYS622 
 ASP623  PHE694  ASN695  SER759  ASP760  ASP761  ALA762  ILE779  LEU786  VAL792 
 PHE793  MET794  SER795  GLU796  ALA797  LYS798  CYS799  TRP800  GLU811  SER814 

> <Gold.Protein.RotatedAtoms>
  151.0142  134.9420  159.8023 H   0  0  0  0  0  0  0  0  0  0  0  0  # atno 6907 bound_to 6896
  152.5310  134.2988  159.9081 H   0  0  0  0  0  0  0  0  0  0  0  0  # atno 6908 bound_to 6896
  151.2995  133.4087  159.2673 H   0  0  0  0  0  0  0  0  0  0  0  0  # atno 6909 bound_to 6896
  146.2390  139.9652  142.8453 H   0  0  0  0  0  0  0  0  0  0  0  0  # atno 7974 bound_to 7965
  154.4852  140.0877  156.7469 H   0  0  0  0  0  0  0  0  0  0  0  0  # atno 8008 bound_to 7997
  155.4369  140.3452  155.4267 H   0  0  0  0  0  0  0  0  0  0  0  0  # atno 8009 bound_to 7997
  156.1250  140.1485  156.9137 H   0  0  0  0  0  0  0  0  0  0  0  0  # atno 8010 bound_to 7997
  140.6846  143.2865  151.3682 H   0  0  0  0  0  0  0  0  0  0  0  0  # atno 10167 bound_to 10162
  156.8042  130.9563  151.3118 H   0  0  0  0  0  0  0  0  0  0  0  0  # atno 10718 bound_to 10713
  154.7722  135.3148  154.8165 H   0  0  0  0  0  0  0  0  0  0  0  0  # atno 10763 bound_to 10752
  153.8898  135.6826  153.4765 H   0  0  0  0  0  0  0  0  0  0  0  0  # atno 10764 bound_to 10752
  153.1338  135.4768  154.9326 H   0  0  0  0  0  0  0  0  0  0  0  0  # atno 10765 bound_to 10752
  139.9506  134.7233  156.0871 H   0  0  0  0  0  0  0  0  0  0  0  0  # atno 11005 bound_to 11000
  145.1733  140.9731  143.4309 LP  0  0  0  0  0  0  0  0  0  0  0  0  # atno 17320 bound_to 7965
  145.0009  139.3599  143.6168 LP  0  0  0  0  0  0  0  0  0  0  0  0  # atno 17321 bound_to 7965
  139.6194  144.0938  152.2376 LP  0  0  0  0  0  0  0  0  0  0  0  0  # atno 17342 bound_to 10162
  140.0377  144.6032  150.7436 LP  0  0  0  0  0  0  0  0  0  0  0  0  # atno 17343 bound_to 10162
  157.6538  130.8907  149.9688 LP  0  0  0  0  0  0  0  0  0  0  0  0  # atno 17370 bound_to 10713
  156.1083  130.3651  150.0094 LP  0  0  0  0  0  0  0  0  0  0  0  0  # atno 17371 bound_to 10713
  141.1168  133.6625  156.3114 LP  0  0  0  0  0  0  0  0  0  0  0  0  # atno 17394 bound_to 11000
  140.5728  134.5824  157.5461 LP  0  0  0  0  0  0  0  0  0  0  0  0  # atno 17395 bound_to 11000

$$$$
