#       Name:                AV-unprocessed.smi:453
#       Creating user name   scv26
#       Creation time:       Thu Mar 26 23:01:03 2020


#       File generated by GOLD software.
#

@<TRIPOS>MOLECULE
AV-unprocessed.smi:453
    49    50     1
SMALL
NO_CHARGES


@<TRIPOS>ATOM
      1 ****        -2.8433   4.3198   3.0777 C.3            1 S1                 0.0000
      2 ****        -3.2898   3.9881   1.6417 C.3            1 S1                 0.0000
      3 ****        -4.8042   4.2004   1.4922 C.3            1 S1                 0.0000
      4 ****        -2.8958   2.5620   1.1923 C.3            1 S1                 0.0000
      5 ****        -1.3833   2.3478   1.0739 C.2            1 S1                 0.0000
      6 ****        -0.7121   2.0986   2.0750 O.2            1 S1                 0.0000
      7 ****        -0.8643   2.4244  -0.1612 N.am           1 S1                 0.0000
      8 ****         0.5465   2.2449  -0.4897 C.3            1 S1                 0.0000
      9 ****         0.9962   0.7940  -0.5994 C.ar           1 S1                 0.0000
     10 ****         2.3468   0.4582  -0.3829 C.ar           1 S1                 0.0000
     11 ****         2.7485  -0.8855  -0.5053 C.ar           1 S1                 0.0000
     12 ****         1.7868  -1.8652  -0.8482 C.ar           1 S1                 0.0000
     13 ****         2.1684  -3.2179  -0.9826 N.3            1 S1                 0.0000
     14 ****         1.1102  -4.2215  -1.0835 C.3            1 S1                 0.0000
     15 ****         1.6966  -5.6355  -0.9366 C.3            1 S1                 0.0000
     16 ****         2.7290  -5.8284  -1.8978 O.3            1 S1                 0.0000
     17 ****         3.8020  -4.9112  -1.7129 C.3            1 S1                 0.0000
     18 ****         3.2916  -3.4697  -1.8824 C.3            1 S1                 0.0000
     19 ****         0.4866  -1.5397  -1.0537 N.ar           1 S1                 0.0000
     20 ****         0.1071  -0.2499  -0.9358 C.ar           1 S1                 0.0000
     21 ****        -3.2591   3.6112   3.7949 H              1 S1                 0.0000
     22 ****        -3.1734   5.3174   3.3685 H              1 S1                 0.0000
     23 ****        -1.7585   4.3025   3.1805 H              1 S1                 0.0000
     24 ****        -2.8011   4.6991   0.9737 H              1 S1                 0.0000
     25 ****        -5.3646   3.5217   2.1361 H              1 S1                 0.0000
     26 ****        -5.1273   4.0279   0.4653 H              1 S1                 0.0000
     27 ****        -5.0872   5.2198   1.7567 H              1 S1                 0.0000
     28 ****        -3.2984   1.8274   1.8913 H              1 S1                 0.0000
     29 ****        -3.3543   2.3388   0.2275 H              1 S1                 0.0000
     30 ****        -1.4902   2.6267  -0.9274 H              1 S1                 0.0000
     31 ****         0.7328   2.7302  -1.4479 H              1 S1                 0.0000
     32 ****         1.1649   2.7664   0.2431 H              1 S1                 0.0000
     33 ****         3.0685   1.2188  -0.1233 H              1 S1                 0.0000
     34 ****         3.7798  -1.1485  -0.3236 H              1 S1                 0.0000
     35 ****         0.3605  -4.0592  -0.3080 H              1 S1                 0.0000
     36 ****         0.6098  -4.1238  -2.0480 H              1 S1                 0.0000
     37 ****         2.0876  -5.7919   0.0701 H              1 S1                 0.0000
     38 ****         0.9189  -6.3826  -1.0956 H              1 S1                 0.0000
     39 ****         4.2494  -5.0519  -0.7275 H              1 S1                 0.0000
     40 ****         4.5792  -5.1222  -2.4476 H              1 S1                 0.0000
     41 ****         2.9607  -3.3104  -2.9097 H              1 S1                 0.0000
     42 ****         4.1153  -2.7797  -1.7050 H              1 S1                 0.0000
     43 ****        -0.9380  -0.0535  -1.1237 H              1 S1                 0.0000
     44 ****        -1.1536   2.0353   2.9700 LP             1 S1                 0.0000
     45 ****         0.2748   1.9595   1.9934 LP             1 S1                 0.0000
     46 ****         2.5211  -3.3731  -0.0598 LP             1 S1                 0.0000
     47 ****         2.3473  -5.6996  -2.8131 LP             1 S1                 0.0000
     48 ****         3.0814  -6.7603  -1.8117 LP             1 S1                 0.0000
     49 ****        -0.1816  -2.2453  -1.2893 LP             1 S1                 0.0000
@<TRIPOS>BOND
    1    1    2 1     
    2    1   21 1     
    3    1   22 1     
    4    1   23 1     
    5    2    3 1     
    6    2    4 1     
    7    2   24 1     
    8    3   25 1     
    9    3   26 1     
   10    3   27 1     
   11    4    5 1     
   12    4   28 1     
   13    4   29 1     
   14    5    6 2     
   15    5    7 am    
   16    7    8 1     
   17    7   30 1     
   18    8    9 1     
   19    8   31 1     
   20    8   32 1     
   21    9   20 ar    
   22    9   10 ar    
   23   10   11 ar    
   24   10   33 1     
   25   11   12 ar    
   26   11   34 1     
   27   12   13 1     
   28   12   19 ar    
   29   13   18 1     
   30   13   14 1     
   31   14   15 1     
   32   14   35 1     
   33   14   36 1     
   34   15   16 1     
   35   15   37 1     
   36   15   38 1     
   37   16   17 1     
   38   17   18 1     
   39   17   39 1     
   40   17   40 1     
   41   18   41 1     
   42   18   42 1     
   43   19   20 ar    
   44   20   43 1     
   45    6   44 1     
   46    6   45 1     
   47   13   46 1     
   48   16   47 1     
   49   16   48 1     
   50   19   49 1     
@<TRIPOS>SUBSTRUCTURE
      1 S1             1
@<TRIPOS>SET
LONE_PAIRS      STATIC     ATOMS    <user>   **** ""
6 44 45 46 47 48 49
DONOR_HYDROGENS      STATIC     ATOMS    <user>   **** ""
1 30
ATOM$BLUE        STATIC     ATOMS    COLORGROUP SYSTEM
6 44 45 46 47 48 49
ATOM$RED        STATIC     ATOMS    COLORGROUP SYSTEM
1 30
