AV-unprocessed.smi:3065|AV-procd|sdf|11692|dock3
  -GOLD-   2272017 93D 1   1.00000     0.00000
 Structure written by MMmdl.
 24 25  0  0  0  0  0  0  0  0  2 V2000
  149.2110  140.3521  154.2164 C   0  0  0  0  0  0  0  0  0  0  0  0
  148.3727  141.3002  154.7313 N   0  0  0  0  0  0  0  0  0  0  0  0
  149.1092  141.7180  155.7512 C   0  0  0  0  0  0  0  0  0  0  0  0
  150.2814  141.0906  155.8608 N   0  0  0  0  0  0  0  0  0  0  0  0
  151.3496  141.2493  156.8299 C   0  0  0  0  0  0  0  0  0  0  0  0
  151.1140  142.4470  157.7682 C   0  0  1  0  0  0  0  0  0  0  0  0
  152.0396  142.5098  158.9880 C   0  0  0  0  0  0  0  0  0  0  0  0
  152.0157  143.9883  159.3554 C   0  0  0  0  0  0  0  0  0  0  0  0
  151.9406  144.6881  157.9966 C   0  0  0  0  0  0  0  0  0  0  0  0
  151.2920  143.7368  157.0711 N   0  3  0  0  0  0  0  0  0  0  0  0
  150.3683  140.1861  154.8576 N   0  0  0  0  0  0  0  0  0  0  0  0
  148.9604  139.7657  153.3445 H   0  0  0  0  0  0  0  0  0  0  0  0
  148.7864  142.4922  156.4318 H   0  0  0  0  0  0  0  0  0  0  0  0
  151.4385  140.3268  157.4064 H   0  0  0  0  0  0  0  0  0  0  0  0
  152.2883  141.3711  156.2878 H   0  0  0  0  0  0  0  0  0  0  0  0
  150.0836  142.4237  158.1269 H   0  0  0  0  0  0  0  0  0  0  0  0
  151.7110  141.8652  159.8041 H   0  0  0  0  0  0  0  0  0  0  0  0
  153.0536  142.2150  158.7126 H   0  0  0  0  0  0  0  0  0  0  0  0
  151.1195  144.2091  159.9371 H   0  0  0  0  0  0  0  0  0  0  0  0
  152.8819  144.2948  159.9426 H   0  0  0  0  0  0  0  0  0  0  0  0
  151.3943  145.6303  158.0470 H   0  0  0  0  0  0  0  0  0  0  0  0
  152.9436  144.8999  157.6240 H   0  0  0  0  0  0  0  0  0  0  0  0
  151.8933  143.6071  156.2700 H   0  0  0  0  0  0  0  0  0  0  0  0
  150.3953  144.0898  156.7682 H   0  0  0  0  0  0  0  0  0  0  0  0
  1 11  2  0  0  0  0
  1  2  1  0  0  0  0
  1 12  1  0  0  0  0
  2  3  2  0  0  0  0
  3  4  1  0  0  0  0
  3 13  1  0  0  0  0
  4  5  1  0  0  0  0
  4 11  1  0  0  0  0
  5  6  1  0  0  0  0
  5 14  1  0  0  0  0
  5 15  1  0  0  0  0
  6 10  1  0  0  0  0
  6  7  1  0  0  0  0
  6 16  1  0  0  0  0
  7  8  1  0  0  0  0
  7 17  1  0  0  0  0
  7 18  1  0  0  0  0
  8  9  1  0  0  0  0
  8 19  1  0  0  0  0
  8 20  1  0  0  0  0
  9 10  1  0  0  0  0
  9 21  1  0  0  0  0
  9 22  1  0  0  0  0
 10 23  1  0  0  0  0
 10 24  1  0  0  0  0
M  CHG  1  10   1
M  END
> <s_m_source_file>
AV-unprocessed.smi

> <i_m_source_file_index>
3065

> <i_lp_mmshare_version>
43012

> <i_f3d_flags>
0

> <s_epik_input>
bjFbY0hdbltjSF1uMVtDSDJdW0NAQEhdMltDSDJdW0NIMl1bQ0gyXVtOSF0y

> <s_epik_cmdline>
J2VwaWtfcHl0aG9uJywgJy1waCcsICc3LjAnLCAnLXRuJywgJzgnLCAnLW1hJywgJzIwMCcsICctbWV0YWxfYmluZGluZycsICctaW1hZScsICc8aW5maWxlLm1hZT4nLCAnLW9tYWUnLCAnPG91dGZpbGUubWFlPic=

> <r_lp_tautomer_probability>
1

> <r_epik_Ionization_Penalty>
0.000581652

> <r_epik_Ionization_Penalty_Charging>
0.000580891

> <r_epik_Ionization_Penalty_Neutral>
7.60238e-07

> <r_epik_State_Penalty>
0.000365066

> <r_epik_Charging_Adjusted_Penalty>
0.000945958

> <i_epik_Tot_Q>
1

> <i_epik_Tot_abs_Q>
1

> <r_epik_Metal_State_Penalty>
-0

> <b_epik_Metal_Only>
0

> <s_lp_Force_Field>
OPLS_2005

> <r_lp_Energy>
26.7057

> <b_lp_Chiralities_Consistent>
1

> <s_lp_Variant>
AV-unprocessed.smi:3065-2

> <Gold.Version>
5.8.1

> <Gold.Id.Protein>
6NUR|6NUR_protein|mol2

> <Gold.PLP.Fitness>
38.2976

> <Gold.PLP.PLP>
-24.2551

> <Gold.PLP.part.hbond>
-2.0000

> <Gold.PLP.part.metal>
0.0000

> <Gold.PLP.part.buried>
-1.4823

> <Gold.PLP.part.nonpolar>
-20.9048

> <Gold.PLP.part.repulsive>
0.2078

> <Gold.PLP.ligand.clash>
0.0000

> <Gold.PLP.ligand.torsion>
0.1184

> <Gold.PLP.Chemscore.Hbond>
3.0000

> <Gold.PLP.Chemscore.CHOScore>
1.7597

> <Gold.PLP.Chemscore.Metal>
0.0000

> <Gold.Chemscore.Hbonds>
donor molecule, donor type, donor heavy atom, donor atom, acceptor molecule, acceptor atom, score
      L1  H    10    24       P1  8028  2.00
      P1  H  7989  7998       L1    11  1.00
      L1  C     1    12       P1  7957  1.00
      L1  C     3    13       P1  8028  0.75

> <Gold.PLP.Chemscore.Internal.Correction>
0.0001

> <Gold.Rescore>
     Score         DG    S(hbond)    S(metal)    S(lipo)     H(rot)  DE(clash)    DE(int)     intcor
     13.44     -13.92       1.84        0.00      53.00       1.52       0.08       0.40       ----

> <Gold.Chemscore.Fitness>
13.4363

> <Gold.Chemscore.DG>
-13.9179

> <Gold.Chemscore.ZeroCoef>
-5.4800

> <Gold.Chemscore.Hbond>
1.8367

> <Gold.Chemscore.Metal>
0.0000

> <Gold.Chemscore.Lipo>
53.0046

> <Gold.Chemscore.Internal_Hbond>
0.0000

> <Gold.Chemscore.DEClash>
0.0827

> <Gold.Chemscore.DEInternal>
0.3989

> <Gold.Chemscore.Rot>
1.5227

> <Gold.Chemscore.Internal.Correction>
   9.000000E+99

> <Gold.Chemscore.Hbonds>
donor molecule, donor type, donor heavy atom, donor atom, acceptor molecule, acceptor atom, score
      L1  H    10    24       P1  8028  0.98
      P1  H  7989  7998       L1    11  0.16

> <Gold.Chemscore.Hbond.Weighted>
-6.1345

> <Gold.Chemscore.Metal.Weighted>
-0.0000

> <Gold.Chemscore.Lipo.Weighted>
-6.2015

> <Gold.Chemscore.Internal_Hbond.Weighted>
0.0000

> <Gold.Chemscore.DEClash.Weighted>
0.0827

> <Gold.Chemscore.DEInternal.Weighted>
0.3989

> <Gold.Chemscore.Rot.Weighted>
3.8981

> <Gold.Chemscore.Internal.Correction.Weighted>
   9.000000E+99

> <Gold.Protein.RotatedTorsions>
[ 6907 6896 6895 6894 ] final  168.98 input  -60.11 | X-H torsion
[ 7974 7965 7964 7962 ] final   -3.10 input  175.53 | X-H torsion
[ 8008 7997 7996 7995 ] final   40.63 input   59.86 | X-H torsion
[ 10167 10162 10161 10158 ] final -157.97 input  -65.29 | X-H torsion
[ 10718 10713 10712 10709 ] final -158.75 input   66.30 | X-H torsion
[ 10763 10752 10751 10750 ] final  114.95 input  -60.55 | X-H torsion
[ 11005 11000 10999 10996 ] final   23.76 input  -57.11 | X-H torsion

> <Gold.Protein.ActiveResidues>
 VAL166  LYS551  ARG553  GLY616  TRP617  ASP618  TYR619  PRO620  LYS621  CYS622 
 ASP623  PHE694  ASN695  SER759  ASP760  ASP761  ALA762  ILE779  LEU786  VAL792 
 PHE793  MET794  SER795  GLU796  ALA797  LYS798  CYS799  TRP800  GLU811  SER814 

> <Gold.Protein.RotatedAtoms>
  151.8392  133.3421  159.3637 H   0  0  0  0  0  0  0  0  0  0  0  0  # atno 6907 bound_to 6896
  150.7240  134.5408  159.5756 H   0  0  0  0  0  0  0  0  0  0  0  0  # atno 6908 bound_to 6896
  152.2878  134.7757  160.0435 H   0  0  0  0  0  0  0  0  0  0  0  0  # atno 6909 bound_to 6896
  146.2395  140.1671  142.8332 H   0  0  0  0  0  0  0  0  0  0  0  0  # atno 7974 bound_to 7965
  155.2562  140.3356  155.4277 H   0  0  0  0  0  0  0  0  0  0  0  0  # atno 8008 bound_to 7997
  156.2194  140.1802  156.7555 H   0  0  0  0  0  0  0  0  0  0  0  0  # atno 8009 bound_to 7997
  154.5802  140.0655  156.9078 H   0  0  0  0  0  0  0  0  0  0  0  0  # atno 8010 bound_to 7997
  139.6729  143.9714  152.2294 H   0  0  0  0  0  0  0  0  0  0  0  0  # atno 10167 bound_to 10162
  156.5585  130.8636  151.2802 H   0  0  0  0  0  0  0  0  0  0  0  0  # atno 10718 bound_to 10713
  153.5150  135.3610  155.2605 H   0  0  0  0  0  0  0  0  0  0  0  0  # atno 10763 bound_to 10752
  154.8739  135.4032  154.3325 H   0  0  0  0  0  0  0  0  0  0  0  0  # atno 10764 bound_to 10752
  153.3985  135.7074  153.6510 H   0  0  0  0  0  0  0  0  0  0  0  0  # atno 10765 bound_to 10752
  140.3661  134.2073  155.7669 H   0  0  0  0  0  0  0  0  0  0  0  0  # atno 11005 bound_to 11000
  145.0042  140.8658  143.5263 LP  0  0  0  0  0  0  0  0  0  0  0  0  # atno 17320 bound_to 7965
  145.1694  139.2412  143.5350 LP  0  0  0  0  0  0  0  0  0  0  0  0  # atno 17321 bound_to 7965
  139.9483  144.6637  150.8197 LP  0  0  0  0  0  0  0  0  0  0  0  0  # atno 17342 bound_to 10162
  140.7625  143.3199  151.2646 LP  0  0  0  0  0  0  0  0  0  0  0  0  # atno 17343 bound_to 10162
  157.7373  130.9794  150.2187 LP  0  0  0  0  0  0  0  0  0  0  0  0  # atno 17370 bound_to 10713
  156.2820  130.3734  149.7926 LP  0  0  0  0  0  0  0  0  0  0  0  0  # atno 17371 bound_to 10713
  141.1969  133.8071  157.0650 LP  0  0  0  0  0  0  0  0  0  0  0  0  # atno 17394 bound_to 11000
  140.0589  134.9766  157.1269 LP  0  0  0  0  0  0  0  0  0  0  0  0  # atno 17395 bound_to 11000

$$$$
