#       Name:                AV-unprocessed.smi:2172
#       Creating user name   scv26
#       Creation time:       Fri Mar 27 12:02:45 2020


#       File generated by GOLD software.
#

@<TRIPOS>MOLECULE
AV-unprocessed.smi:2172
    41    43     1
SMALL
NO_CHARGES


@<TRIPOS>ATOM
      1 ****         0.3121   3.5170   0.4271 O.3            1 S1                 0.0000
      2 ****        -0.4982   3.2942  -0.7065 C.3            1 S1                 0.0000
      3 ****        -1.4719   2.1700  -0.5195 C.2            1 S1                 0.0000
      4 ****        -2.7770   2.3960  -0.3625 N.2            1 S1                 0.0000
      5 ****        -3.2960   1.1218  -0.2486 C.ar           1 S1                 0.0000
      6 ****        -4.6280   0.6861  -0.0657 C.ar           1 S1                 0.0000
      7 ****        -4.9241  -0.6904   0.0158 C.ar           1 S1                 0.0000
      8 ****        -3.8951  -1.6488  -0.0864 C.ar           1 S1                 0.0000
      9 ****        -2.5611  -1.2358  -0.2676 C.ar           1 S1                 0.0000
     10 ****        -2.2700   0.1398  -0.3436 C.ar           1 S1                 0.0000
     11 ****        -1.0934   0.8653  -0.5063 N.pl3          1 S1                 0.0000
     12 ****         0.2444   0.3011  -0.6465 C.3            1 S1                 0.0000
     13 ****         0.7695  -0.3307   0.6592 C.3            1 S1                 0.0000
     14 ****         0.7580   0.6239   1.7025 O.3            1 S1                 0.0000
     15 ****         2.1436  -0.9501   0.4563 C.ar           1 S1                 0.0000
     16 ****         2.2621  -2.3370   0.2226 C.ar           1 S1                 0.0000
     17 ****         3.5298  -2.9186   0.0259 C.ar           1 S1                 0.0000
     18 ****         4.6866  -2.1161   0.0594 C.ar           1 S1                 0.0000
     19 ****         6.2393  -2.8293  -0.1807 Cl             1 S1                 0.0000
     20 ****         4.5743  -0.7309   0.2870 C.ar           1 S1                 0.0000
     21 ****         3.3067  -0.1491   0.4829 C.ar           1 S1                 0.0000
     22 ****         0.8868   4.2446   0.2461 H              1 S1                 0.0000
     23 ****        -1.0458   4.2121  -0.9228 H              1 S1                 0.0000
     24 ****         0.1294   3.0979  -1.5755 H              1 S1                 0.0000
     25 ****        -5.4234   1.4126   0.0106 H              1 S1                 0.0000
     26 ****        -5.9457  -1.0120   0.1554 H              1 S1                 0.0000
     27 ****        -4.1305  -2.7013  -0.0253 H              1 S1                 0.0000
     28 ****        -1.7717  -1.9682  -0.3472 H              1 S1                 0.0000
     29 ****         0.2065  -0.4534  -1.4332 H              1 S1                 0.0000
     30 ****         0.9362   1.0664  -0.9954 H              1 S1                 0.0000
     31 ****         0.0884  -1.1240   0.9684 H              1 S1                 0.0000
     32 ****         0.9740   0.1867   2.5118 H              1 S1                 0.0000
     33 ****         1.3805  -2.9603   0.1921 H              1 S1                 0.0000
     34 ****         3.6132  -3.9809  -0.1513 H              1 S1                 0.0000
     35 ****         5.4596  -0.1126   0.3110 H              1 S1                 0.0000
     36 ****         3.2311   0.9152   0.6520 H              1 S1                 0.0000
     37 ****         0.8539   2.6990   0.6205 LP             1 S1                 0.0000
     38 ****        -0.2635   3.7299   1.2166 LP             1 S1                 0.0000
     39 ****        -3.2598   3.2712  -0.3343 LP             1 S1                 0.0000
     40 ****        -0.1508   1.0350   1.7734 LP             1 S1                 0.0000
     41 ****         1.4328   1.3374   1.5141 LP             1 S1                 0.0000
@<TRIPOS>BOND
    1    1    2 1     
    2    1   22 1     
    3    2    3 1     
    4    2   23 1     
    5    2   24 1     
    6    3   11 1     
    7    3    4 2     
    8    4    5 1     
    9    5   10 ar    
   10    5    6 ar    
   11    6    7 ar    
   12    6   25 1     
   13    7    8 ar    
   14    7   26 1     
   15    8    9 ar    
   16    8   27 1     
   17    9   10 ar    
   18    9   28 1     
   19   10   11 1     
   20   11   12 1     
   21   12   13 1     
   22   12   29 1     
   23   12   30 1     
   24   13   14 1     
   25   13   15 1     
   26   13   31 1     
   27   14   32 1     
   28   15   21 ar    
   29   15   16 ar    
   30   16   17 ar    
   31   16   33 1     
   32   17   18 ar    
   33   17   34 1     
   34   18   19 1     
   35   18   20 ar    
   36   20   21 ar    
   37   20   35 1     
   38   21   36 1     
   39    1   37 1     
   40    1   38 1     
   41    4   39 1     
   42   14   40 1     
   43   14   41 1     
@<TRIPOS>SUBSTRUCTURE
      1 S1             1
@<TRIPOS>SET
LONE_PAIRS      STATIC     ATOMS    <user>   **** ""
5 37 38 39 40 41
DONOR_HYDROGENS      STATIC     ATOMS    <user>   **** ""
2 22 32
ATOM$BLUE        STATIC     ATOMS    COLORGROUP SYSTEM
5 37 38 39 40 41
ATOM$RED        STATIC     ATOMS    COLORGROUP SYSTEM
2 22 32
