#       Name:                AV-unprocessed.smi:72
#       Creating user name   scv26
#       Creation time:       Thu Mar 26 17:01:08 2020


#       File generated by GOLD software.
#

@<TRIPOS>MOLECULE
AV-unprocessed.smi:72
    41    42     1
SMALL
NO_CHARGES


@<TRIPOS>ATOM
      1 ****        -4.9848  -0.1568   0.0691 N.pl3          1 S1                 0.0000
      2 ****        -3.6441  -0.4806   0.0890 C.2            1 S1                 0.0000
      3 ****        -2.7410   0.5360   0.3459 N.pl3          1 S1                 1.0000
      4 ****        -1.4106   0.3869   0.4082 C.2            1 S1                 0.0000
      5 ****        -0.8927  -0.8107   0.2272 N.am           1 S1                 0.0000
      6 ****         0.5935  -1.0298   0.2900 C.3            1 S1                 0.0000
      7 ****         1.1359  -0.0402   1.1114 O.3            1 S1                 0.0000
      8 ****         2.2563   0.5664   0.4748 C.3            1 S1                 0.0000
      9 ****         2.4360   2.0014   0.9935 C.3            1 S1                 0.0000
     10 ****         3.1301   1.9876   2.2222 O.3            1 S1                 0.0000
     11 ****         1.8747   0.4908  -1.0034 C.3            1 S1                 0.0000
     12 ****         2.9805   0.6459  -1.8722 O.3            1 S1                 0.0000
     13 ****         1.2118  -0.8779  -1.1084 C.3            1 S1                 0.0000
     14 ****         2.1381  -1.9171  -1.3653 O.3            1 S1                 0.0000
     15 ****        -1.7359  -1.9100  -0.0740 C.2            1 S1                 0.0000
     16 ****        -1.2560  -3.0220  -0.2914 O.2            1 S1                 0.0000
     17 ****        -3.1144  -1.6551  -0.1156 N.2            1 S1                 0.0000
     18 ****         0.7447  -2.0089   0.7486 H              1 S1                 0.0000
     19 ****         3.1476  -0.0380   0.6566 H              1 S1                 0.0000
     20 ****         1.1367   1.2618  -1.2297 H              1 S1                 0.0000
     21 ****         0.4483  -0.8976  -1.8875 H              1 S1                 0.0000
     22 ****        -5.7142  -0.8316  -0.1145 H              1 S1                 0.0000
     23 ****        -5.3441   0.7724   0.2344 H              1 S1                 0.0000
     24 ****        -0.7847   1.2496   0.5996 H              1 S1                 0.0000
     25 ****         3.0307   2.5841   0.2895 H              1 S1                 0.0000
     26 ****         1.4769   2.5080   1.1042 H              1 S1                 0.0000
     27 ****         2.6294   1.4847   2.8463 H              1 S1                 0.0000
     28 ****         2.6957   0.4808  -2.7580 H              1 S1                 0.0000
     29 ****         1.6736  -2.7402  -1.3874 H              1 S1                 0.0000
     30 ****        -3.1176   1.4608   0.4981 H              1 S1                 0.0000
     31 ****         1.4288  -0.4512   1.9747 LP             1 S1                 0.0000
     32 ****         0.4415   0.6563   1.2924 LP             1 S1                 0.0000
     33 ****         3.2421   2.9235   2.5562 LP             1 S1                 0.0000
     34 ****         4.0294   1.5688   2.0962 LP             1 S1                 0.0000
     35 ****         3.6981  -0.0044  -1.6228 LP             1 S1                 0.0000
     36 ****         3.3359   1.5779  -1.8013 LP             1 S1                 0.0000
     37 ****         2.8275  -1.9395  -0.6414 LP             1 S1                 0.0000
     38 ****         2.5846  -1.7593  -2.2461 LP             1 S1                 0.0000
     39 ****        -0.2655  -3.1547  -0.2563 LP             1 S1                 0.0000
     40 ****        -1.8565  -3.7931  -0.5033 LP             1 S1                 0.0000
     41 ****        -3.7280  -2.4194  -0.3140 LP             1 S1                 0.0000
@<TRIPOS>BOND
    1    1    2 1     
    2    1   22 1     
    3    1   23 1     
    4    2   17 2     
    5    2    3 1     
    6    3    4 2     
    7    3   30 1     
    8    4    5 1     
    9    4   24 1     
   10    5    6 1     
   11    5   15 am    
   12    6   18 1     
   13    6   13 1     
   14    6    7 1     
   15    7    8 1     
   16    8   19 1     
   17    8    9 1     
   18    8   11 1     
   19    9   10 1     
   20    9   25 1     
   21    9   26 1     
   22   10   27 1     
   23   11   20 1     
   24   11   12 1     
   25   11   13 1     
   26   12   28 1     
   27   13   21 1     
   28   13   14 1     
   29   14   29 1     
   30   15   16 2     
   31   15   17 1     
   32    7   31 1     
   33    7   32 1     
   34   10   33 1     
   35   10   34 1     
   36   12   35 1     
   37   12   36 1     
   38   14   37 1     
   39   14   38 1     
   40   16   39 1     
   41   16   40 1     
   42   17   41 1     
@<TRIPOS>SUBSTRUCTURE
      1 S1             1
@<TRIPOS>SET
LONE_PAIRS      STATIC     ATOMS    <user>   **** ""
11 31 32 33 34 35 36 37 38 39 40 41
DONOR_HYDROGENS      STATIC     ATOMS    <user>   **** ""
6 22 23 30 27 28 29
ATOM$BLUE        STATIC     ATOMS    COLORGROUP SYSTEM
11 31 32 33 34 35 36 37 38 39 40 41
ATOM$RED        STATIC     ATOMS    COLORGROUP SYSTEM
6 22 23 30 27 28 29
