AV-unprocessed.smi:1389|AV-procd|sdf|5650|dock2
  -GOLD-   22720 5273D 1   1.00000     0.00000
 Structure written by MMmdl.
 52 54  0  0  0  0  0  0  0  0  2 V2000
  148.7575  138.5289  155.1369 C   0  0  0  0  0  0  0  0  0  0  0  0
  150.3000  138.5675  155.0364 C   0  0  2  0  0  0  0  0  0  0  0  0
  150.8371  137.1404  155.3238 C   0  0  0  0  0  0  0  0  0  0  0  0
  150.2037  136.1432  154.4637 N   0  0  0  0  0  0  0  0  0  0  0  0
  150.0888  134.8359  154.7345 C   0  0  0  0  0  0  0  0  0  0  0  0
  150.6013  134.2867  155.7096 O   0  0  0  0  0  0  0  0  0  0  0  0
  149.3191  134.2206  153.8230 N   0  0  0  0  0  0  0  0  0  0  0  0
  148.8698  132.8711  153.8419 C   0  0  0  0  0  0  0  0  0  0  0  0
  149.6254  131.8430  154.4599 C   0  0  0  0  0  0  0  0  0  0  0  0
  149.1430  130.5201  154.4519 C   0  0  0  0  0  0  0  0  0  0  0  0
  147.9181  130.2445  153.8182 C   0  0  0  0  0  0  0  0  0  0  0  0
  147.2313  131.2434  153.2251 N   0  3  0  0  0  0  0  0  0  0  0  0
  147.6454  132.5345  153.2032 C   0  0  0  0  0  0  0  0  0  0  0  0
  146.8560  133.4948  152.5363 N   0  0  0  0  0  0  0  0  0  0  0  0
  146.7664  133.3010  151.0920 C   0  0  0  0  0  0  0  0  0  0  0  0
  145.3610  133.7460  150.6838 C   0  0  0  0  0  0  0  0  0  0  0  0
  144.5420  133.4995  151.9447 C   0  0  0  0  0  0  0  0  0  0  0  0
  145.5333  133.8381  153.0565 C   0  0  0  0  0  0  0  0  0  0  0  0
  150.9242  139.6191  155.8686 N   0  0  0  0  0  0  0  0  0  0  0  0
  150.8765  139.3185  157.3024 C   0  0  0  0  0  0  0  0  0  0  0  0
  151.5229  140.4231  158.1571 C   0  0  0  0  0  0  0  0  0  0  0  0
  150.8927  141.6694  157.8913 O   0  0  0  0  0  0  0  0  0  0  0  0
  150.9666  142.0294  156.5179 C   0  0  0  0  0  0  0  0  0  0  0  0
  150.3077  140.9336  155.6639 C   0  0  0  0  0  0  0  0  0  0  0  0
  148.3476  137.6703  154.6041 H   0  0  0  0  0  0  0  0  0  0  0  0
  148.2984  139.4096  154.6886 H   0  0  0  0  0  0  0  0  0  0  0  0
  148.4228  138.4652  156.1728 H   0  0  0  0  0  0  0  0  0  0  0  0
  150.5353  138.7836  153.9933 H   0  0  0  0  0  0  0  0  0  0  0  0
  151.9086  137.1086  155.1235 H   0  0  0  0  0  0  0  0  0  0  0  0
  150.7506  136.8799  156.3786 H   0  0  0  0  0  0  0  0  0  0  0  0
  149.7524  136.4944  153.6320 H   0  0  0  0  0  0  0  0  0  0  0  0
  148.8906  134.8161  153.1299 H   0  0  0  0  0  0  0  0  0  0  0  0
  150.5737  132.0502  154.9326 H   0  0  0  0  0  0  0  0  0  0  0  0
  149.7076  129.7286  154.9227 H   0  0  0  0  0  0  0  0  0  0  0  0
  147.4733  129.2616  153.7608 H   0  0  0  0  0  0  0  0  0  0  0  0
  147.5299  133.8760  150.5672 H   0  0  0  0  0  0  0  0  0  0  0  0
  146.9111  132.2474  150.8462 H   0  0  0  0  0  0  0  0  0  0  0  0
  145.3622  134.8114  150.4489 H   0  0  0  0  0  0  0  0  0  0  0  0
  144.9807  133.2089  149.8147 H   0  0  0  0  0  0  0  0  0  0  0  0
  143.6330  134.0999  151.9887 H   0  0  0  0  0  0  0  0  0  0  0  0
  144.2593  132.4476  152.0047 H   0  0  0  0  0  0  0  0  0  0  0  0
  145.2701  133.3479  153.9934 H   0  0  0  0  0  0  0  0  0  0  0  0
  145.5221  134.9116  153.2479 H   0  0  0  0  0  0  0  0  0  0  0  0
  149.8419  139.1732  157.6168 H   0  0  0  0  0  0  0  0  0  0  0  0
  151.4050  138.3906  157.5162 H   0  0  0  0  0  0  0  0  0  0  0  0
  151.4190  140.1909  159.2171 H   0  0  0  0  0  0  0  0  0  0  0  0
  152.5914  140.4964  157.9488 H   0  0  0  0  0  0  0  0  0  0  0  0
  150.4574  142.9819  156.3714 H   0  0  0  0  0  0  0  0  0  0  0  0
  152.0078  142.1733  156.2245 H   0  0  0  0  0  0  0  0  0  0  0  0
  150.3805  141.2403  154.6234 H   0  0  0  0  0  0  0  0  0  0  0  0
  149.2437  140.8838  155.8996 H   0  0  0  0  0  0  0  0  0  0  0  0
  146.3509  131.0122  152.7647 H   0  0  0  0  0  0  0  0  0  0  0  0
  1  2  1  0  0  0  0
  1 25  1  0  0  0  0
  1 26  1  0  0  0  0
  1 27  1  0  0  0  0
  2  3  1  0  0  0  0
  2 19  1  0  0  0  0
  2 28  1  0  0  0  0
  3  4  1  0  0  0  0
  3 29  1  0  0  0  0
  3 30  1  0  0  0  0
  4  5  1  0  0  0  0
  4 31  1  0  0  0  0
  5  6  2  0  0  0  0
  5  7  1  0  0  0  0
  7  8  1  0  0  0  0
  7 32  1  0  0  0  0
  8 13  1  0  0  0  0
  8  9  2  0  0  0  0
  9 10  1  0  0  0  0
  9 33  1  0  0  0  0
 10 11  2  0  0  0  0
 10 34  1  0  0  0  0
 11 12  1  0  0  0  0
 11 35  1  0  0  0  0
 12 13  2  0  0  0  0
 12 52  1  0  0  0  0
 13 14  1  0  0  0  0
 14 18  1  0  0  0  0
 14 15  1  0  0  0  0
 15 16  1  0  0  0  0
 15 36  1  0  0  0  0
 15 37  1  0  0  0  0
 16 17  1  0  0  0  0
 16 38  1  0  0  0  0
 16 39  1  0  0  0  0
 17 18  1  0  0  0  0
 17 40  1  0  0  0  0
 17 41  1  0  0  0  0
 18 42  1  0  0  0  0
 18 43  1  0  0  0  0
 19 24  1  0  0  0  0
 19 20  1  0  0  0  0
 20 21  1  0  0  0  0
 20 44  1  0  0  0  0
 20 45  1  0  0  0  0
 21 22  1  0  0  0  0
 21 46  1  0  0  0  0
 21 47  1  0  0  0  0
 22 23  1  0  0  0  0
 23 24  1  0  0  0  0
 23 48  1  0  0  0  0
 23 49  1  0  0  0  0
 24 50  1  0  0  0  0
 24 51  1  0  0  0  0
M  CHG  1  12   1
M  END
> <s_m_source_file>
AV-unprocessed.smi

> <i_m_source_file_index>
1389

> <i_lp_mmshare_version>
43012

> <i_f3d_flags>
0

> <s_epik_input>
W0NIMl0xW0NIMl1PW0NIMl1bQ0gyXU4xW0NASF0oW0NIM10pW0NIMl1bTkhdQyg9TylbTkhdYzJbY0hdW2NIXVtjSF1uYzJOM1tDSDJdW0NIMl1bQ0gyXVtDSDJdMw==

> <s_epik_cmdline>
J2VwaWtfcHl0aG9uJywgJy1waCcsICc3LjAnLCAnLXRuJywgJzgnLCAnLW1hJywgJzIwMCcsICctbWV0YWxfYmluZGluZycsICctaW1hZScsICc8aW5maWxlLm1hZT4nLCAnLW9tYWUnLCAnPG91dGZpbGUubWFlPic=

> <r_epik_Ionization_Penalty>
1.37675

> <r_epik_Ionization_Penalty_Charging>
1.11074

> <r_epik_Ionization_Penalty_Neutral>
0.26601

> <r_epik_State_Penalty>
1.46015

> <r_epik_Charging_Adjusted_Penalty>
2.57089

> <i_epik_Tot_Q>
1

> <i_epik_Tot_abs_Q>
1

> <r_epik_Metal_State_Penalty>
1.54223

> <b_epik_Metal_Only>
0

> <s_lp_Force_Field>
OPLS_2005

> <r_lp_Energy>
66.6842

> <b_lp_Chiralities_Consistent>
1

> <s_lp_Variant>
AV-unprocessed.smi:1389-5

> <Gold.Version>
5.8.1

> <Gold.Id.Protein>
6NUR|6NUR_protein|mol2

> <Gold.PLP.Fitness>
41.6631

> <Gold.PLP.PLP>
-36.9147

> <Gold.PLP.part.hbond>
-2.8496

> <Gold.PLP.part.metal>
0.0000

> <Gold.PLP.part.buried>
-5.3402

> <Gold.PLP.part.nonpolar>
-28.8349

> <Gold.PLP.part.repulsive>
0.3023

> <Gold.PLP.ligand.clash>
0.0000

> <Gold.PLP.ligand.torsion>
0.5155

> <Gold.PLP.Chemscore.Hbond>
1.8500

> <Gold.PLP.Chemscore.CHOScore>
0.0000

> <Gold.PLP.Chemscore.Metal>
0.0000

> <Gold.Chemscore.Hbonds>
donor molecule, donor type, donor heavy atom, donor atom, acceptor molecule, acceptor atom, score
      L1  H     4    31       P1  7948  1.00
      L1  H     7    32       P1  7948  0.90

> <Gold.PLP.Chemscore.Internal.Correction>
0.2293

> <Gold.Rescore>
     Score         DG    S(hbond)    S(metal)    S(lipo)     H(rot)  DE(clash)    DE(int)     intcor
     12.99     -14.72       1.25        0.00      78.28       1.60       0.00       1.73       ----

> <Gold.Chemscore.Fitness>
12.9883

> <Gold.Chemscore.DG>
-14.7189

> <Gold.Chemscore.ZeroCoef>
-5.4800

> <Gold.Chemscore.Hbond>
1.2530

> <Gold.Chemscore.Metal>
0.0000

> <Gold.Chemscore.Lipo>
78.2793

> <Gold.Chemscore.Internal_Hbond>
0.0000

> <Gold.Chemscore.DEClash>
0.0009

> <Gold.Chemscore.DEInternal>
1.7297

> <Gold.Chemscore.Rot>
1.6035

> <Gold.Chemscore.Internal.Correction>
   9.000000E+99

> <Gold.Chemscore.Hbonds>
donor molecule, donor type, donor heavy atom, donor atom, acceptor molecule, acceptor atom, score
      L1  H     4    31       P1  7948  0.38
      L1  H     7    32       P1  7948  0.17

> <Gold.Chemscore.Hbond.Weighted>
-4.1852

> <Gold.Chemscore.Metal.Weighted>
-0.0000

> <Gold.Chemscore.Lipo.Weighted>
-9.1587

> <Gold.Chemscore.Internal_Hbond.Weighted>
0.0000

> <Gold.Chemscore.DEClash.Weighted>
0.0009

> <Gold.Chemscore.DEInternal.Weighted>
1.7297

> <Gold.Chemscore.Rot.Weighted>
4.1049

> <Gold.Chemscore.Internal.Correction.Weighted>
   9.000000E+99

> <Gold.Protein.RotatedTorsions>
[ 6907 6896 6895 6894 ] final -129.92 input  -60.11 | X-H torsion
[ 7974 7965 7964 7962 ] final   87.50 input  175.53 | X-H torsion
[ 8008 7997 7996 7995 ] final   62.25 input   59.86 | X-H torsion
[ 10167 10162 10161 10158 ] final  -79.82 input  -65.29 | X-H torsion
[ 10718 10713 10712 10709 ] final  140.98 input   66.30 | X-H torsion
[ 10763 10752 10751 10750 ] final -149.64 input  -60.55 | X-H torsion
[ 11005 11000 10999 10996 ] final -113.45 input  -57.11 | X-H torsion

> <Gold.Protein.ActiveResidues>
 VAL166  LYS551  ARG553  GLY616  TRP617  ASP618  TYR619  PRO620  LYS621  CYS622 
 ASP623  PHE694  ASN695  SER759  ASP760  ASP761  ALA762  ILE779  LEU786  VAL792 
 PHE793  MET794  SER795  GLU796  ALA797  LYS798  CYS799  TRP800  GLU811  SER814 

> <Gold.Protein.RotatedAtoms>
  150.9340  133.6733  159.2804 H   0  0  0  0  0  0  0  0  0  0  0  0  # atno 6907 bound_to 6896
  151.4145  135.0988  159.9605 H   0  0  0  0  0  0  0  0  0  0  0  0  # atno 6908 bound_to 6896
  152.5039  133.8806  159.7399 H   0  0  0  0  0  0  0  0  0  0  0  0  # atno 6909 bound_to 6896
  145.5582  139.2301  143.2474 H   0  0  0  0  0  0  0  0  0  0  0  0  # atno 7974 bound_to 7965
  155.6114  140.3495  155.4623 H   0  0  0  0  0  0  0  0  0  0  0  0  # atno 8008 bound_to 7997
  156.0151  140.1241  157.0438 H   0  0  0  0  0  0  0  0  0  0  0  0  # atno 8009 bound_to 7997
  154.4295  140.1073  156.5871 H   0  0  0  0  0  0  0  0  0  0  0  0  # atno 8010 bound_to 7997
  140.4559  143.2468  151.8420 H   0  0  0  0  0  0  0  0  0  0  0  0  # atno 10167 bound_to 10162
  157.3972  131.1012  151.0588 H   0  0  0  0  0  0  0  0  0  0  0  0  # atno 10718 bound_to 10713
  154.8165  135.3304  154.7160 H   0  0  0  0  0  0  0  0  0  0  0  0  # atno 10763 bound_to 10752
  153.7800  135.6919  153.4894 H   0  0  0  0  0  0  0  0  0  0  0  0  # atno 10764 bound_to 10752
  153.1987  135.4524  155.0187 H   0  0  0  0  0  0  0  0  0  0  0  0  # atno 10765 bound_to 10752
  141.0613  133.9530  157.2661 H   0  0  0  0  0  0  0  0  0  0  0  0  # atno 11005 bound_to 11000
  146.1870  140.6406  142.9163 LP  0  0  0  0  0  0  0  0  0  0  0  0  # atno 17320 bound_to 7965
  144.7496  140.5157  143.6811 LP  0  0  0  0  0  0  0  0  0  0  0  0  # atno 17321 bound_to 7965
  139.4801  144.5065  151.8990 LP  0  0  0  0  0  0  0  0  0  0  0  0  # atno 17342 bound_to 10162
  140.4152  144.2317  150.5888 LP  0  0  0  0  0  0  0  0  0  0  0  0  # atno 17343 bound_to 10162
  157.1600  130.6221  149.5608 LP  0  0  0  0  0  0  0  0  0  0  0  0  # atno 17370 bound_to 10713
  155.9813  130.4820  150.6822 LP  0  0  0  0  0  0  0  0  0  0  0  0  # atno 17371 bound_to 10713
  139.9435  135.0187  156.8782 LP  0  0  0  0  0  0  0  0  0  0  0  0  # atno 17394 bound_to 11000
  140.5863  134.0304  155.7482 LP  0  0  0  0  0  0  0  0  0  0  0  0  # atno 17395 bound_to 11000

$$$$
