AV-unprocessed.smi:56|AV-procd|sdf|579|dock8
  -GOLD-   2262016483D 1   1.00000     0.00000
 Structure written by MMmdl.
 23 24  0  0  0  0  0  0  0  0  2 V2000
  146.4886  134.6657  152.4337 O   0  0  0  0  0  0  0  0  0  0  0  0
  145.4227  135.1935  151.6623 C   0  0  1  0  0  0  0  0  0  0  0  0
  144.6382  134.0752  151.0398 C   0  0  0  0  0  0  0  0  0  0  0  0
  143.8666  133.0836  151.5825 C   0  0  0  0  0  0  0  0  0  0  0  0
  143.3949  132.3483  150.4570 C   0  0  0  0  0  0  0  0  0  0  0  0
  143.8325  132.8348  149.3076 N   0  0  0  0  0  0  0  0  0  0  0  0
  144.5903  133.8842  149.6753 N   0  0  0  0  0  0  0  0  0  0  0  0
  144.6173  136.1496  152.5503 C   0  0  0  0  0  0  0  0  0  0  0  0
  145.4450  137.4421  152.5690 C   0  0  0  0  0  0  0  0  0  0  0  0
  146.2924  137.4158  151.3590 N   0  3  0  0  0  0  0  0  0  0  0  0
  146.0170  136.1623  150.6309 C   0  0  0  0  0  0  0  0  0  0  0  0
  145.0723  134.4518  148.9926 H   0  0  0  0  0  0  0  0  0  0  0  0
  147.2599  135.1934  152.2963 H   0  0  0  0  0  0  0  0  0  0  0  0
  143.6660  132.9037  152.6282 H   0  0  0  0  0  0  0  0  0  0  0  0
  142.7519  131.4805  150.4426 H   0  0  0  0  0  0  0  0  0  0  0  0
  143.6582  136.3716  152.0801 H   0  0  0  0  0  0  0  0  0  0  0  0
  144.4077  135.7516  153.5442 H   0  0  0  0  0  0  0  0  0  0  0  0
  144.8131  138.3305  152.5890 H   0  0  0  0  0  0  0  0  0  0  0  0
  146.0930  137.4710  153.4455 H   0  0  0  0  0  0  0  0  0  0  0  0
  146.1028  138.2126  150.7676 H   0  0  0  0  0  0  0  0  0  0  0  0
  146.9020  135.7737  150.1254 H   0  0  0  0  0  0  0  0  0  0  0  0
  145.2741  136.3904  149.8651 H   0  0  0  0  0  0  0  0  0  0  0  0
  147.2613  137.4277  151.6439 H   0  0  0  0  0  0  0  0  0  0  0  0
  1  2  1  0  0  0  0
  1 13  1  0  0  0  0
  2 11  1  0  0  0  0
  2  3  1  0  0  0  0
  2  8  1  0  0  0  0
  3  7  1  0  0  0  0
  3  4  2  0  0  0  0
  4  5  1  0  0  0  0
  4 14  1  0  0  0  0
  5  6  2  0  0  0  0
  5 15  1  0  0  0  0
  6  7  1  0  0  0  0
  7 12  1  0  0  0  0
  8  9  1  0  0  0  0
  8 16  1  0  0  0  0
  8 17  1  0  0  0  0
  9 10  1  0  0  0  0
  9 18  1  0  0  0  0
  9 19  1  0  0  0  0
 10 11  1  0  0  0  0
 10 20  1  0  0  0  0
 10 23  1  0  0  0  0
 11 21  1  0  0  0  0
 11 22  1  0  0  0  0
M  CHG  1  10   1
M  END
> <s_m_source_file>
AV-unprocessed.smi

> <i_m_source_file_index>
56

> <i_lp_mmshare_version>
43012

> <i_f3d_flags>
0

> <s_epik_input>
W0NIMl0xW05IXVtDSDJdW0NIMl1bQ0BAXTEoW09IXSljMltjSF1bY0hdbltuSF0y

> <s_epik_cmdline>
J2VwaWtfcHl0aG9uJywgJy1waCcsICc3LjAnLCAnLXRuJywgJzgnLCAnLW1hJywgJzIwMCcsICctbWV0YWxfYmluZGluZycsICctaW1hZScsICc8aW5maWxlLm1hZT4nLCAnLW9tYWUnLCAnPG91dGZpbGUubWFlPic=

> <r_lp_tautomer_probability>
0.5

> <r_epik_Ionization_Penalty>
0.00599842

> <r_epik_Ionization_Penalty_Charging>
0.00599115

> <r_epik_Ionization_Penalty_Neutral>
7.26593e-06

> <r_epik_State_Penalty>
0.41068

> <r_epik_Charging_Adjusted_Penalty>
0.416671

> <i_epik_Tot_Q>
1

> <i_epik_Tot_abs_Q>
1

> <r_epik_Metal_State_Penalty>
0.410678

> <b_epik_Metal_Only>
0

> <s_lp_Force_Field>
OPLS_2005

> <r_lp_Energy>
26.3948

> <b_lp_Chiralities_Consistent>
1

> <s_lp_Variant>
AV-unprocessed.smi:56-3

> <Gold.Version>
5.8.1

> <Gold.Id.Protein>
6NUR|6NUR_protein|mol2

> <Gold.PLP.Fitness>
32.8820

> <Gold.PLP.PLP>
-18.7813

> <Gold.PLP.part.hbond>
-3.7472

> <Gold.PLP.part.metal>
0.0000

> <Gold.PLP.part.buried>
-3.9687

> <Gold.PLP.part.nonpolar>
-12.6983

> <Gold.PLP.part.repulsive>
0.4472

> <Gold.PLP.ligand.clash>
0.0000

> <Gold.PLP.ligand.torsion>
0.0739

> <Gold.PLP.Chemscore.Hbond>
3.7446

> <Gold.PLP.Chemscore.CHOScore>
1.0000

> <Gold.PLP.Chemscore.Metal>
0.0000

> <Gold.Chemscore.Hbonds>
donor molecule, donor type, donor heavy atom, donor atom, acceptor molecule, acceptor atom, score
      L1  H     1    13       P1  7948  1.00
      L1  H     7    12       P1  7921  1.00
      L1  H    10    23       P1  7948  1.63
      L1  C     5    15       P1 10952  1.00

> <Gold.PLP.Chemscore.Internal.Correction>
0.0147

> <Gold.Rescore>
     Score         DG    S(hbond)    S(metal)    S(lipo)     H(rot)  DE(clash)    DE(int)     intcor
     16.14     -16.47       2.86        0.00      45.12       1.50       0.27       0.06       ----

> <Gold.Chemscore.Fitness>
16.1383

> <Gold.Chemscore.DG>
-16.4661

> <Gold.Chemscore.ZeroCoef>
-5.4800

> <Gold.Chemscore.Hbond>
2.8572

> <Gold.Chemscore.Metal>
0.0000

> <Gold.Chemscore.Lipo>
45.1224

> <Gold.Chemscore.Internal_Hbond>
0.0000

> <Gold.Chemscore.DEClash>
0.2671

> <Gold.Chemscore.DEInternal>
0.0608

> <Gold.Chemscore.Rot>
1.4985

> <Gold.Chemscore.Internal.Correction>
   9.000000E+99

> <Gold.Chemscore.Hbonds>
donor molecule, donor type, donor heavy atom, donor atom, acceptor molecule, acceptor atom, score
      L1  H     1    13       P1  7948  0.96
      L1  H     7    12       P1  7921  0.99
      L1  H    10    20       P1 10171  0.02
      L1  H    10    23       P1  7948  0.76

> <Gold.Chemscore.Hbond.Weighted>
-9.5430

> <Gold.Chemscore.Metal.Weighted>
-0.0000

> <Gold.Chemscore.Lipo.Weighted>
-5.2793

> <Gold.Chemscore.Internal_Hbond.Weighted>
0.0000

> <Gold.Chemscore.DEClash.Weighted>
0.2671

> <Gold.Chemscore.DEInternal.Weighted>
0.0608

> <Gold.Chemscore.Rot.Weighted>
3.8362

> <Gold.Chemscore.Internal.Correction.Weighted>
   9.000000E+99

> <Gold.Protein.RotatedTorsions>
[ 6907 6896 6895 6894 ] final -137.84 input  -60.11 | X-H torsion
[ 7974 7965 7964 7962 ] final -179.44 input  175.53 | X-H torsion
[ 8008 7997 7996 7995 ] final  121.42 input   59.86 | X-H torsion
[ 10167 10162 10161 10158 ] final   92.25 input  -65.29 | X-H torsion
[ 10718 10713 10712 10709 ] final  -80.26 input   66.30 | X-H torsion
[ 10763 10752 10751 10750 ] final  -13.21 input  -60.55 | X-H torsion
[ 11005 11000 10999 10996 ] final -104.23 input  -57.11 | X-H torsion

> <Gold.Protein.ActiveResidues>
 VAL166  LYS551  ARG553  GLY616  TRP617  ASP618  TYR619  PRO620  LYS621  CYS622 
 ASP623  PHE694  ASN695  SER759  ASP760  ASP761  ALA762  ILE779  LEU786  VAL792 
 PHE793  MET794  SER795  GLU796  ALA797  LYS798  CYS799  TRP800  GLU811  SER814 

> <Gold.Protein.RotatedAtoms>
  151.0275  133.5820  159.2664 H   0  0  0  0  0  0  0  0  0  0  0  0  # atno 6907 bound_to 6896
  151.2914  135.0742  159.9215 H   0  0  0  0  0  0  0  0  0  0  0  0  # atno 6908 bound_to 6896
  152.5337  133.9973  159.7932 H   0  0  0  0  0  0  0  0  0  0  0  0  # atno 6909 bound_to 6896
  144.7136  140.0717  143.6429 H   0  0  0  0  0  0  0  0  0  0  0  0  # atno 7974 bound_to 7965
  156.2685  140.2809  156.1305 H   0  0  0  0  0  0  0  0  0  0  0  0  # atno 8008 bound_to 7997
  155.1059  140.0390  157.2728 H   0  0  0  0  0  0  0  0  0  0  0  0  # atno 8009 bound_to 7997
  154.6779  140.2602  155.6944 H   0  0  0  0  0  0  0  0  0  0  0  0  # atno 8010 bound_to 7997
  139.8295  144.6694  150.9417 H   0  0  0  0  0  0  0  0  0  0  0  0  # atno 10167 bound_to 10162
  156.0074  130.4569  150.3773 H   0  0  0  0  0  0  0  0  0  0  0  0  # atno 10718 bound_to 10713
  153.5099  135.7016  153.5786 H   0  0  0  0  0  0  0  0  0  0  0  0  # atno 10763 bound_to 10752
  153.3881  135.3903  155.1904 H   0  0  0  0  0  0  0  0  0  0  0  0  # atno 10764 bound_to 10752
  154.8704  135.3851  154.4578 H   0  0  0  0  0  0  0  0  0  0  0  0  # atno 10765 bound_to 10752
  141.1110  133.8706  157.1585 H   0  0  0  0  0  0  0  0  0  0  0  0  # atno 11005 bound_to 11000
  145.9778  139.2918  143.1060 LP  0  0  0  0  0  0  0  0  0  0  0  0  # atno 17320 bound_to 7965
  145.9045  140.9221  143.0486 LP  0  0  0  0  0  0  0  0  0  0  0  0  # atno 17321 bound_to 7965
  140.7808  143.4014  151.1142 LP  0  0  0  0  0  0  0  0  0  0  0  0  # atno 17342 bound_to 10162
  139.7669  143.8552  152.3112 LP  0  0  0  0  0  0  0  0  0  0  0  0  # atno 17343 bound_to 10162
  157.1854  131.0402  151.2727 LP  0  0  0  0  0  0  0  0  0  0  0  0  # atno 17370 bound_to 10713
  157.4108  130.7384  149.6838 LP  0  0  0  0  0  0  0  0  0  0  0  0  # atno 17371 bound_to 10713
  140.0004  135.0030  157.0176 LP  0  0  0  0  0  0  0  0  0  0  0  0  # atno 17394 bound_to 11000
  140.4775  134.1323  155.7212 LP  0  0  0  0  0  0  0  0  0  0  0  0  # atno 17395 bound_to 11000

$$$$
