#       Name:                AV-unprocessed.smi:1540
#       Creating user name   scv26
#       Creation time:       Fri Mar 27 06:37:06 2020


#       File generated by GOLD software.
#

@<TRIPOS>MOLECULE
AV-unprocessed.smi:1540
    39    39     1
SMALL
NO_CHARGES


@<TRIPOS>ATOM
      1 ****        -4.4799   0.3083   2.9051 C.2            1 S1                 0.0000
      2 ****        -3.7712  -0.2219   1.8970 C.2            1 S1                 0.0000
      3 ****        -2.2643  -0.1593   1.7809 C.3            1 S1                 0.0000
      4 ****        -1.7193  -1.4726   1.7497 O.3            1 S1                 0.0000
      5 ****        -0.2954  -1.5444   1.7328 C.3            1 S1                 0.0000
      6 ****         0.0974  -2.9998   2.0281 C.3            1 S1                 0.0000
      7 ****         0.2488  -1.0832   0.3707 C.2            1 S1                 0.0000
      8 ****         0.0106  -1.7556  -0.6323 O.2            1 S1                 0.0000
      9 ****         0.9654   0.0579   0.3947 N.am           1 S1                 0.0000
     10 ****         1.5802   0.7614  -0.6559 C.2            1 S1                 0.0000
     11 ****         1.3741   0.5281  -1.9819 C.2            1 S1                 0.0000
     12 ****         2.0419   1.2988  -3.0233 C.2            1 S1                 0.0000
     13 ****         1.7766   1.1143  -4.5070 C.3            1 S1                 0.0000
     14 ****         1.8830   2.2704  -5.1623 F              1 S1                 0.0000
     15 ****         2.6601   0.2611  -5.0228 F              1 S1                 0.0000
     16 ****         0.5548   0.6234  -4.7156 F              1 S1                 0.0000
     17 ****         2.8588   2.2843  -2.5043 C.2            1 S1                 0.0000
     18 ****         3.1230   2.5763  -1.2122 N.pl3          1 S1                -1.0000
     19 ****         2.4999   1.8435  -0.2468 C.2            1 S1                 0.0000
     20 ****         2.6874   2.0642   0.9502 O.2            1 S1                 0.0000
     21 ****        -3.9964   0.8277   3.7195 H              1 S1                 0.0000
     22 ****        -5.5568   0.2281   2.9280 H              1 S1                 0.0000
     23 ****        -4.2889  -0.7347   1.0995 H              1 S1                 0.0000
     24 ****        -2.0171   0.3907   0.8726 H              1 S1                 0.0000
     25 ****        -1.8539   0.3969   2.6254 H              1 S1                 0.0000
     26 ****         0.1080  -0.9144   2.5282 H              1 S1                 0.0000
     27 ****         1.1805  -3.1278   2.0174 H              1 S1                 0.0000
     28 ****        -0.3297  -3.6878   1.2974 H              1 S1                 0.0000
     29 ****        -0.2595  -3.3037   3.0125 H              1 S1                 0.0000
     30 ****         1.1133   0.4684   1.3053 H              1 S1                 0.0000
     31 ****         0.6939  -0.2378  -2.3135 H              1 S1                 0.0000
     32 ****         3.3748   2.9399  -3.2379 H              1 S1                 0.0000
     33 ****        -2.0608  -1.9288   0.9280 LP             1 S1                 0.0000
     34 ****        -2.0431  -1.9602   2.5606 LP             1 S1                 0.0000
     35 ****        -0.5318  -2.5923  -0.5561 LP             1 S1                 0.0000
     36 ****         0.3594  -1.4653  -1.5233 LP             1 S1                 0.0000
     37 ****         3.7582   3.3099  -0.9707 LP             1 S1                 0.0000
     38 ****         2.2184   1.5124   1.6398 LP             1 S1                 0.0000
     39 ****         3.3087   2.7951   1.2326 LP             1 S1                 0.0000
@<TRIPOS>BOND
    1    1    2 2     
    2    1   21 1     
    3    1   22 1     
    4    2    3 1     
    5    2   23 1     
    6    3    4 1     
    7    3   24 1     
    8    3   25 1     
    9    4    5 1     
   10    5    6 1     
   11    5    7 1     
   12    5   26 1     
   13    6   27 1     
   14    6   28 1     
   15    6   29 1     
   16    7    8 2     
   17    7    9 am    
   18    9   10 1     
   19    9   30 1     
   20   10   19 1     
   21   10   11 2     
   22   11   12 1     
   23   11   31 1     
   24   12   13 1     
   25   12   17 2     
   26   13   14 1     
   27   13   15 1     
   28   13   16 1     
   29   17   18 1     
   30   17   32 1     
   31   18   19 1     
   32   19   20 2     
   33    4   33 1     
   34    4   34 1     
   35    8   35 1     
   36    8   36 1     
   37   18   37 1     
   38   20   38 1     
   39   20   39 1     
@<TRIPOS>SUBSTRUCTURE
      1 S1             1
@<TRIPOS>SET
LONE_PAIRS      STATIC     ATOMS    <user>   **** ""
7 33 34 35 36 37 38 39
DONOR_HYDROGENS      STATIC     ATOMS    <user>   **** ""
1 30
ATOM$BLUE        STATIC     ATOMS    COLORGROUP SYSTEM
7 33 34 35 36 37 38 39
ATOM$RED        STATIC     ATOMS    COLORGROUP SYSTEM
1 30
