AV-unprocessed.smi:274|AV-procd|sdf|2059|dock1
  -GOLD-   2262021303D 1   1.00000     0.00000
 Structure written by MMmdl.
 50 53  0  0  0  0  0  0  0  0  1 V2000
  152.0247  139.5194  154.8790 C   0  0  0  0  0  0  0  0  0  0  0  0
  151.2793  140.6190  155.6624 C   0  0  0  0  0  0  0  0  0  0  0  0
  152.1121  141.0004  156.9029 C   0  0  0  0  0  0  0  0  0  0  0  0
  149.8132  140.2020  156.0003 C   0  0  1  0  0  0  0  0  0  0  0  0
  149.0260  141.3149  156.7369 C   0  0  0  0  0  0  0  0  0  0  0  0
  149.2309  141.5233  157.9310 O   0  0  0  0  0  0  0  0  0  0  0  0
  148.0997  142.0192  156.0616 N   0  0  0  0  0  0  0  0  0  0  0  0
  147.7039  141.8129  154.6681 C   0  0  0  0  0  0  0  0  0  0  0  0
  148.6419  140.8657  153.8987 C   0  0  0  0  0  0  0  0  0  0  0  0
  149.1149  139.7930  154.7700 N   0  0  0  0  0  0  0  0  0  0  0  0
  148.3236  138.6895  154.7961 C   0  0  0  0  0  0  0  0  0  0  0  0
  148.3718  137.8375  155.8547 N   0  0  0  0  0  0  0  0  0  0  0  0
  147.5833  136.7595  155.8882 C   0  0  0  0  0  0  0  0  0  0  0  0
  146.6904  136.3505  154.9849 N   0  0  0  0  0  0  0  0  0  0  0  0
  146.6410  137.1991  153.9182 C   0  0  0  0  0  0  0  0  0  0  0  0
  147.4123  138.3830  153.7482 C   0  0  0  0  0  0  0  0  0  0  0  0
  147.0892  138.9902  152.5408 N   0  0  0  0  0  0  0  0  0  0  0  0
  146.1747  138.2124  152.0289 C   0  0  0  0  0  0  0  0  0  0  0  0
  145.8530  137.1065  152.7837 N   0  0  0  0  0  0  0  0  0  0  0  0
  144.8812  136.0742  152.4554 C   0  0  0  0  0  0  0  0  0  0  0  0
  145.2786  135.2142  151.2319 C   0  0  1  0  0  0  0  0  0  0  0  0
  145.3464  136.0415  150.0831 O   0  0  0  0  0  0  0  0  0  0  0  0
  146.6264  134.5262  151.4068 C   0  0  0  0  0  0  0  0  0  0  0  0
  146.4800  133.2761  150.5498 C   0  0  0  0  0  0  0  0  0  0  0  0
  145.1435  132.8755  150.7995 O   0  0  0  0  0  0  0  0  0  0  0  0
  144.3280  134.0365  150.9318 C   0  0  0  0  0  0  0  0  0  0  0  0
  152.0582  138.5873  155.4440 H   0  0  0  0  0  0  0  0  0  0  0  0
  153.0527  139.8148  154.6675 H   0  0  0  0  0  0  0  0  0  0  0  0
  151.5541  139.3098  153.9181 H   0  0  0  0  0  0  0  0  0  0  0  0
  151.2511  141.5022  155.0235 H   0  0  0  0  0  0  0  0  0  0  0  0
  152.1111  140.1989  157.6422 H   0  0  0  0  0  0  0  0  0  0  0  0
  151.7394  141.9040  157.3842 H   0  0  0  0  0  0  0  0  0  0  0  0
  153.1496  141.1998  156.6333 H   0  0  0  0  0  0  0  0  0  0  0  0
  149.8807  139.3519  156.6819 H   0  0  0  0  0  0  0  0  0  0  0  0
  147.6008  142.7346  156.5704 H   0  0  0  0  0  0  0  0  0  0  0  0
  146.6990  141.3895  154.6826 H   0  0  0  0  0  0  0  0  0  0  0  0
  147.6306  142.7744  154.1599 H   0  0  0  0  0  0  0  0  0  0  0  0
  148.1405  140.4890  153.0067 H   0  0  0  0  0  0  0  0  0  0  0  0
  149.5064  141.4209  153.5354 H   0  0  0  0  0  0  0  0  0  0  0  0
  147.6817  136.1358  156.7645 H   0  0  0  0  0  0  0  0  0  0  0  0
  145.7099  138.4264  151.0777 H   0  0  0  0  0  0  0  0  0  0  0  0
  144.7475  135.4387  153.3320 H   0  0  0  0  0  0  0  0  0  0  0  0
  143.9189  136.5569  152.2802 H   0  0  0  0  0  0  0  0  0  0  0  0
  145.6785  135.5282  149.3627 H   0  0  0  0  0  0  0  0  0  0  0  0
  147.4770  135.1469  151.1214 H   0  0  0  0  0  0  0  0  0  0  0  0
  146.7668  134.2292  152.4472 H   0  0  0  0  0  0  0  0  0  0  0  0
  146.6015  133.5092  149.4908 H   0  0  0  0  0  0  0  0  0  0  0  0
  147.1913  132.4942  150.8159 H   0  0  0  0  0  0  0  0  0  0  0  0
  143.6247  133.8572  151.7442 H   0  0  0  0  0  0  0  0  0  0  0  0
  143.7447  134.1944  150.0233 H   0  0  0  0  0  0  0  0  0  0  0  0
  1  2  1  0  0  0  0
  1 27  1  0  0  0  0
  1 28  1  0  0  0  0
  1 29  1  0  0  0  0
  2  3  1  0  0  0  0
  2  4  1  0  0  0  0
  2 30  1  0  0  0  0
  3 31  1  0  0  0  0
  3 32  1  0  0  0  0
  3 33  1  0  0  0  0
  4 10  1  0  0  0  0
  4  5  1  0  0  0  0
  4 34  1  0  0  0  0
  5  6  2  0  0  0  0
  5  7  1  0  0  0  0
  7  8  1  0  0  0  0
  7 35  1  0  0  0  0
  8  9  1  0  0  0  0
  8 36  1  0  0  0  0
  8 37  1  0  0  0  0
  9 10  1  0  0  0  0
  9 38  1  0  0  0  0
  9 39  1  0  0  0  0
 10 11  1  0  0  0  0
 11 16  1  0  0  0  0
 11 12  2  0  0  0  0
 12 13  1  0  0  0  0
 13 14  2  0  0  0  0
 13 40  1  0  0  0  0
 14 15  1  0  0  0  0
 15 19  1  0  0  0  0
 15 16  2  0  0  0  0
 16 17  1  0  0  0  0
 17 18  2  0  0  0  0
 18 19  1  0  0  0  0
 18 41  1  0  0  0  0
 19 20  1  0  0  0  0
 20 21  1  0  0  0  0
 20 42  1  0  0  0  0
 20 43  1  0  0  0  0
 21 26  1  0  0  0  0
 21 22  1  0  0  0  0
 21 23  1  0  0  0  0
 22 44  1  0  0  0  0
 23 24  1  0  0  0  0
 23 45  1  0  0  0  0
 23 46  1  0  0  0  0
 24 25  1  0  0  0  0
 24 47  1  0  0  0  0
 24 48  1  0  0  0  0
 25 26  1  0  0  0  0
 26 49  1  0  0  0  0
 26 50  1  0  0  0  0
M  END
> <s_m_source_file>
AV-unprocessed.smi

> <i_m_source_file_index>
274

> <i_lp_mmshare_version>
43012

> <i_f3d_flags>
0

> <s_epik_input>
W0NIM11bQ0hdKFtDSDNdKVtDQEBIXTFDKD1PKVtOSF1bQ0gyXVtDSDJdTjFjKG5bY0hdbjIpYyhjMjMpbltjSF1uM1tDSDJdW0NAQF00KFtPSF0pW0NIMl1bQ0gyXU9bQ0gyXTQ=

> <s_epik_cmdline>
J2VwaWtfcHl0aG9uJywgJy1waCcsICc3LjAnLCAnLXRuJywgJzgnLCAnLW1hJywgJzIwMCcsICctbWV0YWxfYmluZGluZycsICctaW1hZScsICc8aW5maWxlLm1hZT4nLCAnLW9tYWUnLCAnPG91dGZpbGUubWFlPic=

> <r_lp_tautomer_probability>
1

> <r_epik_Ionization_Penalty>
0.000690079

> <r_epik_Ionization_Penalty_Charging>
0

> <r_epik_Ionization_Penalty_Neutral>
0.000690079

> <r_epik_State_Penalty>
0.000321372

> <r_epik_Charging_Adjusted_Penalty>
0.000321372

> <i_epik_Tot_Q>
0

> <i_epik_Tot_abs_Q>
0

> <r_epik_Metal_State_Penalty>
-0

> <b_epik_Metal_Only>
0

> <s_lp_Force_Field>
OPLS_2005

> <r_lp_Energy>
42.7916

> <b_lp_Chiralities_Consistent>
1

> <s_lp_Variant>
AV-unprocessed.smi:274-2

> <Gold.Version>
5.8.1

> <Gold.Id.Protein>
6NUR|6NUR_protein|mol2

> <Gold.PLP.Fitness>
42.0924

> <Gold.PLP.PLP>
-36.1650

> <Gold.PLP.part.hbond>
-3.0000

> <Gold.PLP.part.metal>
0.0000

> <Gold.PLP.part.buried>
-3.2280

> <Gold.PLP.part.nonpolar>
-30.8759

> <Gold.PLP.part.repulsive>
1.3572

> <Gold.PLP.ligand.clash>
0.0000

> <Gold.PLP.ligand.torsion>
0.2077

> <Gold.PLP.Chemscore.Hbond>
1.0000

> <Gold.PLP.Chemscore.CHOScore>
1.0000

> <Gold.PLP.Chemscore.Metal>
0.0000

> <Gold.Chemscore.Hbonds>
donor molecule, donor type, donor heavy atom, donor atom, acceptor molecule, acceptor atom, score
      L1  H    22    44       P1  7921  1.00
      L1  C    18    41       P1 10171  1.00

> <Gold.PLP.Chemscore.Internal.Correction>
0.3429

> <Gold.Rescore>
     Score         DG    S(hbond)    S(metal)    S(lipo)     H(rot)  DE(clash)    DE(int)     intcor
      9.48     -11.16       0.99        0.00      67.02       2.14       0.01       1.66       ----

> <Gold.Chemscore.Fitness>
9.4825

> <Gold.Chemscore.DG>
-11.1560

> <Gold.Chemscore.ZeroCoef>
-5.4800

> <Gold.Chemscore.Hbond>
0.9944

> <Gold.Chemscore.Metal>
0.0000

> <Gold.Chemscore.Lipo>
67.0159

> <Gold.Chemscore.Internal_Hbond>
0.0000

> <Gold.Chemscore.DEClash>
0.0088

> <Gold.Chemscore.DEInternal>
1.6647

> <Gold.Chemscore.Rot>
2.1431

> <Gold.Chemscore.Internal.Correction>
   9.000000E+99

> <Gold.Chemscore.Hbonds>
donor molecule, donor type, donor heavy atom, donor atom, acceptor molecule, acceptor atom, score
      L1  H    22    44       P1  7921  1.00

> <Gold.Chemscore.Hbond.Weighted>
-3.3214

> <Gold.Chemscore.Metal.Weighted>
-0.0000

> <Gold.Chemscore.Lipo.Weighted>
-7.8409

> <Gold.Chemscore.Internal_Hbond.Weighted>
0.0000

> <Gold.Chemscore.DEClash.Weighted>
0.0088

> <Gold.Chemscore.DEInternal.Weighted>
1.6647

> <Gold.Chemscore.Rot.Weighted>
5.4863

> <Gold.Chemscore.Internal.Correction.Weighted>
   9.000000E+99

> <Gold.Protein.RotatedTorsions>
[ 6907 6896 6895 6894 ] final  -57.13 input  -60.11 | X-H torsion
[ 7974 7965 7964 7962 ] final -158.64 input  175.53 | X-H torsion
[ 8008 7997 7996 7995 ] final -137.67 input   59.86 | X-H torsion
[ 10167 10162 10161 10158 ] final  147.47 input  -65.29 | X-H torsion
[ 10718 10713 10712 10709 ] final   -4.32 input   66.30 | X-H torsion
[ 10763 10752 10751 10750 ] final   45.87 input  -60.55 | X-H torsion
[ 11005 11000 10999 10996 ] final -113.99 input  -57.11 | X-H torsion

> <Gold.Protein.ActiveResidues>
 VAL166  LYS551  ARG553  GLY616  TRP617  ASP618  TYR619  PRO620  LYS621  CYS622 
 ASP623  PHE694  ASN695  SER759  ASP760  ASP761  ALA762  ILE779  LEU786  VAL792 
 PHE793  MET794  SER795  GLU796  ALA797  LYS798  CYS799  TRP800  GLU811  SER814 

> <Gold.Protein.RotatedAtoms>
  150.8111  134.7266  159.6688 H   0  0  0  0  0  0  0  0  0  0  0  0  # atno 6907 bound_to 6896
  152.4231  134.5915  159.9985 H   0  0  0  0  0  0  0  0  0  0  0  0  # atno 6908 bound_to 6896
  151.6125  133.3309  159.3106 H   0  0  0  0  0  0  0  0  0  0  0  0  # atno 6909 bound_to 6896
  144.7497  140.3799  143.6057 H   0  0  0  0  0  0  0  0  0  0  0  0  # atno 7974 bound_to 7965
  155.4157  140.0515  157.3029 H   0  0  0  0  0  0  0  0  0  0  0  0  # atno 8008 bound_to 7997
  154.4925  140.2126  155.9476 H   0  0  0  0  0  0  0  0  0  0  0  0  # atno 8009 bound_to 7997
  156.1362  140.3163  155.8429 H   0  0  0  0  0  0  0  0  0  0  0  0  # atno 8010 bound_to 7997
  139.4889  144.5752  151.6978 H   0  0  0  0  0  0  0  0  0  0  0  0  # atno 10167 bound_to 10162
  156.7631  130.5276  149.5781 H   0  0  0  0  0  0  0  0  0  0  0  0  # atno 10718 bound_to 10713
  152.9818  135.6026  154.3507 H   0  0  0  0  0  0  0  0  0  0  0  0  # atno 10763 bound_to 10752
  154.3196  135.2770  155.2528 H   0  0  0  0  0  0  0  0  0  0  0  0  # atno 10764 bound_to 10752
  154.4700  135.5944  153.6371 H   0  0  0  0  0  0  0  0  0  0  0  0  # atno 10765 bound_to 10752
  141.0580  133.9581  157.2719 H   0  0  0  0  0  0  0  0  0  0  0  0  # atno 11005 bound_to 11000
  145.6988  139.1656  143.2604 LP  0  0  0  0  0  0  0  0  0  0  0  0  # atno 17320 bound_to 7965
  146.1430  140.7031  142.9358 LP  0  0  0  0  0  0  0  0  0  0  0  0  # atno 17321 bound_to 7965
  140.5347  144.0674  150.6066 LP  0  0  0  0  0  0  0  0  0  0  0  0  # atno 17342 bound_to 10162
  140.3676  143.2872  152.0314 LP  0  0  0  0  0  0  0  0  0  0  0  0  # atno 17343 bound_to 10162
  156.1326  130.6189  151.0355 LP  0  0  0  0  0  0  0  0  0  0  0  0  # atno 17370 bound_to 10713
  157.6725  131.0858  150.7576 LP  0  0  0  0  0  0  0  0  0  0  0  0  # atno 17371 bound_to 10713
  139.9407  135.0191  156.8699 LP  0  0  0  0  0  0  0  0  0  0  0  0  # atno 17394 bound_to 11000
  140.5925  134.0248  155.7505 LP  0  0  0  0  0  0  0  0  0  0  0  0  # atno 17395 bound_to 11000

$$$$
