AV-unprocessed.smi:283|AV-procd|sdf|2135|dock10
  -GOLD-   2262021453D 1   1.00000     0.00000
 Structure written by MMmdl.
 48 51  0  0  0  0  0  0  0  0  1 V2000
  150.7343  142.3663  156.1711 C   0  0  0  0  0  0  0  0  0  0  0  0
  151.7298  142.0084  157.2827 C   0  0  2  0  0  0  0  0  0  0  0  0
  151.4537  140.6644  157.7875 N   0  0  0  0  0  0  0  0  0  0  0  0
  151.7029  139.5755  157.0263 C   0  0  0  0  0  0  0  0  0  0  0  0
  152.4640  139.6619  155.9042 N   0  0  0  0  0  0  0  0  0  0  0  0
  152.6977  138.5705  155.1707 C   0  0  0  0  0  0  0  0  0  0  0  0
  152.2706  137.3229  155.3743 N   0  0  0  0  0  0  0  0  0  0  0  0
  151.5004  137.2288  156.4967 C   0  0  0  0  0  0  0  0  0  0  0  0
  151.1734  138.3048  157.3691 C   0  0  0  0  0  0  0  0  0  0  0  0
  150.3775  137.8444  158.4091 N   0  0  0  0  0  0  0  0  0  0  0  0
  150.2435  136.5696  158.1617 C   0  0  0  0  0  0  0  0  0  0  0  0
  150.8873  136.1121  157.0332 N   0  0  0  0  0  0  0  0  0  0  0  0
  150.9062  134.7037  156.5168 C   0  0  1  0  0  0  0  0  0  0  0  0
  150.1835  133.8748  157.3788 O   0  0  0  0  0  0  0  0  0  0  0  0
  149.0694  133.2954  156.7010 C   0  0  2  0  0  0  0  0  0  0  0  0
  148.7021  131.9297  157.3066 C   0  0  0  0  0  0  0  0  0  0  0  0
  147.6638  131.3344  156.5584 O   0  0  0  0  0  0  0  0  0  0  0  0
  149.5058  133.2738  155.2302 C   0  0  2  0  0  0  0  0  0  0  0  0
  150.3255  132.1518  154.9556 O   0  0  0  0  0  0  0  0  0  0  0  0
  150.3030  134.5625  155.1041 C   0  0  1  0  0  0  0  0  0  0  0  0
  149.4574  135.6360  154.7300 O   0  0  0  0  0  0  0  0  0  0  0  0
  151.7388  143.0920  158.3633 C   0  0  0  0  0  0  0  0  0  0  0  0
  150.9544  144.2561  158.1907 C   0  0  0  0  0  0  0  0  0  0  0  0
  150.9434  145.2665  159.1704 C   0  0  0  0  0  0  0  0  0  0  0  0
  151.7220  145.1258  160.3330 C   0  0  0  0  0  0  0  0  0  0  0  0
  152.5140  143.9765  160.5108 C   0  0  0  0  0  0  0  0  0  0  0  0
  152.5298  142.9616  159.5326 C   0  0  0  0  0  0  0  0  0  0  0  0
  153.5307  141.5773  159.8008 Cl  0  0  0  0  0  0  0  0  0  0  0  0
  151.9569  134.4137  156.5550 H   0  0  0  0  0  0  0  0  0  0  0  0
  148.2176  133.9721  156.7789 H   0  0  0  0  0  0  0  0  0  0  0  0
  148.6521  133.2416  154.5517 H   0  0  0  0  0  0  0  0  0  0  0  0
  151.1037  134.4905  154.3669 H   0  0  0  0  0  0  0  0  0  0  0  0
  150.9745  143.3332  155.7279 H   0  0  0  0  0  0  0  0  0  0  0  0
  149.7138  142.4190  156.5521 H   0  0  0  0  0  0  0  0  0  0  0  0
  150.7540  141.6248  155.3719 H   0  0  0  0  0  0  0  0  0  0  0  0
  152.7155  141.9573  156.8221 H   0  0  0  0  0  0  0  0  0  0  0  0
  151.2468  140.6029  158.7740 H   0  0  0  0  0  0  0  0  0  0  0  0
  153.3146  138.7178  154.2965 H   0  0  0  0  0  0  0  0  0  0  0  0
  149.6671  135.9197  158.8041 H   0  0  0  0  0  0  0  0  0  0  0  0
  149.5597  131.2575  157.2669 H   0  0  0  0  0  0  0  0  0  0  0  0
  148.4079  132.0230  158.3524 H   0  0  0  0  0  0  0  0  0  0  0  0
  147.2154  130.7130  157.1116 H   0  0  0  0  0  0  0  0  0  0  0  0
  150.5679  131.7493  155.7755 H   0  0  0  0  0  0  0  0  0  0  0  0
  149.2271  135.5327  153.8194 H   0  0  0  0  0  0  0  0  0  0  0  0
  150.3530  144.3798  157.3021 H   0  0  0  0  0  0  0  0  0  0  0  0
  150.3375  146.1494  159.0292 H   0  0  0  0  0  0  0  0  0  0  0  0
  151.7139  145.8996  161.0865 H   0  0  0  0  0  0  0  0  0  0  0  0
  153.1141  143.8736  161.4030 H   0  0  0  0  0  0  0  0  0  0  0  0
  1  2  1  0  0  0  0
  1 33  1  0  0  0  0
  1 34  1  0  0  0  0
  1 35  1  0  0  0  0
  2  3  1  0  0  0  0
  2 22  1  0  0  0  0
  2 36  1  0  0  0  0
  3  4  1  0  0  0  0
  3 37  1  0  0  0  0
  4  9  1  0  0  0  0
  4  5  2  0  0  0  0
  5  6  1  0  0  0  0
  6  7  2  0  0  0  0
  6 38  1  0  0  0  0
  7  8  1  0  0  0  0
  8 12  1  0  0  0  0
  8  9  2  0  0  0  0
  9 10  1  0  0  0  0
 10 11  2  0  0  0  0
 11 12  1  0  0  0  0
 11 39  1  0  0  0  0
 12 13  1  0  0  0  0
 13 29  1  0  0  0  0
 13 20  1  0  0  0  0
 13 14  1  0  0  0  0
 14 15  1  0  0  0  0
 15 30  1  0  0  0  0
 15 16  1  0  0  0  0
 15 18  1  0  0  0  0
 16 17  1  0  0  0  0
 16 40  1  0  0  0  0
 16 41  1  0  0  0  0
 17 42  1  0  0  0  0
 18 31  1  0  0  0  0
 18 19  1  0  0  0  0
 18 20  1  0  0  0  0
 19 43  1  0  0  0  0
 20 32  1  0  0  0  0
 20 21  1  0  0  0  0
 21 44  1  0  0  0  0
 22 27  1  0  0  0  0
 22 23  2  0  0  0  0
 23 24  1  0  0  0  0
 23 45  1  0  0  0  0
 24 25  2  0  0  0  0
 24 46  1  0  0  0  0
 25 26  1  0  0  0  0
 25 47  1  0  0  0  0
 26 27  2  0  0  0  0
 26 48  1  0  0  0  0
 27 28  1  0  0  0  0
M  END
> <s_m_source_file>
AV-unprocessed.smi

> <i_m_source_file_index>
283

> <i_lp_mmshare_version>
43012

> <i_f3d_flags>
0

> <s_epik_input>
Q2xjMVtjSF1bY0hdW2NIXVtjSF1jMVtDQEhdKFtDSDNdKVtOSF1jKG5bY0hdbjIpYyhjMjMpbltjSF1uM1tDQEBIXTRPW0NASF0oW0NIMl1bT0hdKVtDQEBIXShbT0hdKVtDQEhdNFtPSF0=

> <s_epik_cmdline>
J2VwaWtfcHl0aG9uJywgJy1waCcsICc3LjAnLCAnLXRuJywgJzgnLCAnLW1hJywgJzIwMCcsICctbWV0YWxfYmluZGluZycsICctaW1hZScsICc8aW5maWxlLm1hZT4nLCAnLW9tYWUnLCAnPG91dGZpbGUubWFlPic=

> <r_lp_tautomer_probability>
1

> <r_epik_Ionization_Penalty>
0.000266407

> <r_epik_Ionization_Penalty_Charging>
0

> <r_epik_Ionization_Penalty_Neutral>
0.000266407

> <r_epik_State_Penalty>
-0

> <r_epik_Charging_Adjusted_Penalty>
0

> <i_epik_Tot_Q>
0

> <i_epik_Tot_abs_Q>
0

> <r_epik_Metal_State_Penalty>
-0

> <b_epik_Metal_Only>
0

> <s_epik_Chemistry_Notes>
This compound contains an acetal/aminal-like group ( X-CH(R)-Y where X, Y are N, S, or O) that may be acid/base labile, releasing an aldehyde.

> <s_lp_Force_Field>
OPLS_2005

> <r_lp_Energy>
46.2986

> <b_lp_Chiralities_Consistent>
1

> <s_lp_Variant>
AV-unprocessed.smi:283-11

> <Gold.Version>
5.8.1

> <Gold.Id.Protein>
6NUR|6NUR_protein|mol2

> <Gold.PLP.Fitness>
55.3921

> <Gold.PLP.PLP>
-44.6100

> <Gold.PLP.part.hbond>
-4.0000

> <Gold.PLP.part.metal>
0.0000

> <Gold.PLP.part.buried>
-7.7275

> <Gold.PLP.part.nonpolar>
-32.9965

> <Gold.PLP.part.repulsive>
0.1080

> <Gold.PLP.ligand.clash>
0.0000

> <Gold.PLP.ligand.torsion>
0.2704

> <Gold.PLP.Chemscore.Hbond>
3.7585

> <Gold.PLP.Chemscore.CHOScore>
0.0000

> <Gold.PLP.Chemscore.Metal>
0.0000

> <Gold.Chemscore.Hbonds>
donor molecule, donor type, donor heavy atom, donor atom, acceptor molecule, acceptor atom, score
      L1  H    21    44       P1  7948  0.91
      P1  H  6896  6909       L1    14  0.91
      P1  H  7997  8008       L1     5  1.00
      P1  H 10752 10765       L1     7  0.77

> <Gold.PLP.Chemscore.Internal.Correction>
0.0473

> <Gold.Rescore>
     Score         DG    S(hbond)    S(metal)    S(lipo)     H(rot)  DE(clash)    DE(int)     intcor
     15.45     -15.92       2.34        0.00     112.03       4.10       0.22       0.25       ----

> <Gold.Chemscore.Fitness>
15.4481

> <Gold.Chemscore.DG>
-15.9169

> <Gold.Chemscore.ZeroCoef>
-5.4800

> <Gold.Chemscore.Hbond>
2.3404

> <Gold.Chemscore.Metal>
0.0000

> <Gold.Chemscore.Lipo>
112.0335

> <Gold.Chemscore.Internal_Hbond>
0.0000

> <Gold.Chemscore.DEClash>
0.2231

> <Gold.Chemscore.DEInternal>
0.2457

> <Gold.Chemscore.Rot>
4.0968

> <Gold.Chemscore.Internal.Correction>
   9.000000E+99

> <Gold.Chemscore.Hbonds>
donor molecule, donor type, donor heavy atom, donor atom, acceptor molecule, acceptor atom, score
      L1  H    21    44       P1  7948  0.51
      P1  H  6896  6909       L1    14  0.81
      P1  H  7997  8008       L1     5  0.14
      P1  H 10752 10765       L1     7  0.63

> <Gold.Chemscore.Hbond.Weighted>
-7.8169

> <Gold.Chemscore.Metal.Weighted>
-0.0000

> <Gold.Chemscore.Lipo.Weighted>
-13.1079

> <Gold.Chemscore.Internal_Hbond.Weighted>
0.0000

> <Gold.Chemscore.DEClash.Weighted>
0.2231

> <Gold.Chemscore.DEInternal.Weighted>
0.2457

> <Gold.Chemscore.Rot.Weighted>
10.4879

> <Gold.Chemscore.Internal.Correction.Weighted>
   9.000000E+99

> <Gold.Protein.RotatedTorsions>
[ 6907 6896 6895 6894 ] final   -2.58 input  -60.11 | X-H torsion
[ 7974 7965 7964 7962 ] final  -24.62 input  175.53 | X-H torsion
[ 8008 7997 7996 7995 ] final  -54.19 input   59.86 | X-H torsion
[ 10167 10162 10161 10158 ] final -178.02 input  -65.29 | X-H torsion
[ 10718 10713 10712 10709 ] final   60.29 input   66.30 | X-H torsion
[ 10763 10752 10751 10750 ] final -166.01 input  -60.55 | X-H torsion
[ 11005 11000 10999 10996 ] final -173.18 input  -57.11 | X-H torsion

> <Gold.Protein.ActiveResidues>
 VAL166  LYS551  ARG553  GLY616  TRP617  ASP618  TYR619  PRO620  LYS621  CYS622 
 ASP623  PHE694  ASN695  SER759  ASP760  ASP761  ALA762  ILE779  LEU786  VAL792 
 PHE793  MET794  SER795  GLU796  ALA797  LYS798  CYS799  TRP800  GLU811  SER814 

> <Gold.Protein.RotatedAtoms>
  151.5276  135.1068  159.9894 H   0  0  0  0  0  0  0  0  0  0  0  0  # atno 6907 bound_to 6896
  152.4593  133.7784  159.6847 H   0  0  0  0  0  0  0  0  0  0  0  0  # atno 6908 bound_to 6896
  150.8548  133.7667  159.3037 H   0  0  0  0  0  0  0  0  0  0  0  0  # atno 6909 bound_to 6896
  146.1543  140.4777  142.8598 H   0  0  0  0  0  0  0  0  0  0  0  0  # atno 7974 bound_to 7965
  154.4155  140.1182  156.5275 H   0  0  0  0  0  0  0  0  0  0  0  0  # atno 8008 bound_to 7997
  155.6639  140.3496  155.4774 H   0  0  0  0  0  0  0  0  0  0  0  0  # atno 8009 bound_to 7997
  155.9690  140.1137  157.0819 H   0  0  0  0  0  0  0  0  0  0  0  0  # atno 8010 bound_to 7997
  139.5452  144.2254  152.0974 H   0  0  0  0  0  0  0  0  0  0  0  0  # atno 10167 bound_to 10162
  157.5742  130.8930  149.9318 H   0  0  0  0  0  0  0  0  0  0  0  0  # atno 10718 bound_to 10713
  154.6875  135.2965  154.9526 H   0  0  0  0  0  0  0  0  0  0  0  0  # atno 10763 bound_to 10752
  154.0501  135.6645  153.4803 H   0  0  0  0  0  0  0  0  0  0  0  0  # atno 10764 bound_to 10752
  153.0589  135.5127  154.7950 H   0  0  0  0  0  0  0  0  0  0  0  0  # atno 10765 bound_to 10752
  140.4886  134.6006  157.4946 H   0  0  0  0  0  0  0  0  0  0  0  0  # atno 11005 bound_to 11000
  144.7943  140.6092  143.6520 LP  0  0  0  0  0  0  0  0  0  0  0  0  # atno 17320 bound_to 7965
  145.4747  139.1500  143.3795 LP  0  0  0  0  0  0  0  0  0  0  0  0  # atno 17321 bound_to 7965
  140.1740  144.4908  150.6564 LP  0  0  0  0  0  0  0  0  0  0  0  0  # atno 17342 bound_to 10162
  140.6698  143.2281  151.5654 LP  0  0  0  0  0  0  0  0  0  0  0  0  # atno 17343 bound_to 10162
  156.0786  130.3676  150.0626 LP  0  0  0  0  0  0  0  0  0  0  0  0  # atno 17370 bound_to 10713
  156.8774  130.9545  151.3603 LP  0  0  0  0  0  0  0  0  0  0  0  0  # atno 17371 bound_to 10713
  139.9783  134.7180  155.9908 LP  0  0  0  0  0  0  0  0  0  0  0  0  # atno 17394 bound_to 11000
  141.1495  133.6550  156.3970 LP  0  0  0  0  0  0  0  0  0  0  0  0  # atno 17395 bound_to 11000

$$$$
