AV-unprocessed.smi:1403|AV-procd|sdf|5701|dock7
  -GOLD-   22720 5333D 1   1.00000     0.00000
 Structure written by MMmdl.
 35 36  0  0  0  0  0  0  0  0  2 V2000
  145.5100  135.7547  151.2854 C   0  0  0  0  0  0  0  0  0  0  0  0
  145.7200  134.4410  152.0516 C   0  0  2  0  0  0  0  0  0  0  0  0
  147.1309  134.3060  152.4067 N   0  0  0  0  0  0  0  0  0  0  0  0
  147.6869  133.2707  153.0539 C   0  0  0  0  0  0  0  0  0  0  0  0
  147.0425  132.3336  153.5243 O   0  0  0  0  0  0  0  0  0  0  0  0
  149.2135  133.2925  153.1655 C   0  0  0  0  0  0  0  0  0  0  0  0
  149.6418  132.7833  154.4770 N   0  0  0  0  0  0  0  0  0  0  0  0
  150.3116  133.6836  155.3248 C   0  0  0  0  0  0  0  0  0  0  0  0
  150.7847  133.3109  156.5285 C   0  0  0  0  0  0  0  0  0  0  0  0
  150.5848  131.9303  156.9499 C   0  0  0  0  0  0  0  0  0  0  0  0
  151.0093  131.5718  158.0466 O   0  0  0  0  0  0  0  0  0  0  0  0
  149.9277  131.0943  156.0936 N   0  5  0  0  0  0  0  0  0  0  0  0
  149.4575  131.4861  154.8682 C   0  0  0  0  0  0  0  0  0  0  0  0
  148.8772  130.7108  154.1083 O   0  0  0  0  0  0  0  0  0  0  0  0
  145.2454  133.2143  151.2413 C   0  0  2  0  0  0  0  0  0  0  0  0
  146.2073  132.7261  150.1499 C   0  0  0  0  0  0  0  0  0  0  0  0
  145.2604  132.0784  149.1664 C   0  0  0  0  0  0  0  0  0  0  0  0
  144.0683  133.0260  149.2266 C   0  0  0  0  0  0  0  0  0  0  0  0
  144.0109  133.4828  150.5745 O   0  0  0  0  0  0  0  0  0  0  0  0
  144.4603  135.8927  151.0244 H   0  0  0  0  0  0  0  0  0  0  0  0
  146.0881  135.7742  150.3609 H   0  0  0  0  0  0  0  0  0  0  0  0
  145.8141  136.6120  151.8868 H   0  0  0  0  0  0  0  0  0  0  0  0
  145.1111  134.4990  152.9553 H   0  0  0  0  0  0  0  0  0  0  0  0
  147.7491  135.0268  152.0636 H   0  0  0  0  0  0  0  0  0  0  0  0
  149.6562  132.6938  152.3676 H   0  0  0  0  0  0  0  0  0  0  0  0
  149.5702  134.3090  152.9922 H   0  0  0  0  0  0  0  0  0  0  0  0
  150.4245  134.6840  154.9329 H   0  0  0  0  0  0  0  0  0  0  0  0
  151.3030  134.0142  157.1635 H   0  0  0  0  0  0  0  0  0  0  0  0
  145.0613  132.3823  151.9225 H   0  0  0  0  0  0  0  0  0  0  0  0
  146.7203  133.5530  149.6593 H   0  0  0  0  0  0  0  0  0  0  0  0
  146.9649  132.0403  150.5296 H   0  0  0  0  0  0  0  0  0  0  0  0
  145.6798  131.9846  148.1641 H   0  0  0  0  0  0  0  0  0  0  0  0
  144.9742  131.0859  149.5162 H   0  0  0  0  0  0  0  0  0  0  0  0
  144.2343  133.8850  148.5757 H   0  0  0  0  0  0  0  0  0  0  0  0
  143.1363  132.5477  148.9252 H   0  0  0  0  0  0  0  0  0  0  0  0
  1  2  1  0  0  0  0
  1 20  1  0  0  0  0
  1 21  1  0  0  0  0
  1 22  1  0  0  0  0
  2  3  1  0  0  0  0
  2 15  1  0  0  0  0
  2 23  1  0  0  0  0
  3  4  1  0  0  0  0
  3 24  1  0  0  0  0
  4  5  2  0  0  0  0
  4  6  1  0  0  0  0
  6  7  1  0  0  0  0
  6 25  1  0  0  0  0
  6 26  1  0  0  0  0
  7 13  1  0  0  0  0
  7  8  1  0  0  0  0
  8  9  2  0  0  0  0
  8 27  1  0  0  0  0
  9 10  1  0  0  0  0
  9 28  1  0  0  0  0
 10 11  2  0  0  0  0
 10 12  1  0  0  0  0
 12 13  1  0  0  0  0
 13 14  2  0  0  0  0
 15 19  1  0  0  0  0
 15 16  1  0  0  0  0
 15 29  1  0  0  0  0
 16 17  1  0  0  0  0
 16 30  1  0  0  0  0
 16 31  1  0  0  0  0
 17 18  1  0  0  0  0
 17 32  1  0  0  0  0
 17 33  1  0  0  0  0
 18 19  1  0  0  0  0
 18 34  1  0  0  0  0
 18 35  1  0  0  0  0
M  CHG  1  12  -1
M  END
> <s_m_source_file>
AV-unprocessed.smi

> <i_m_source_file_index>
1403

> <i_lp_mmshare_version>
43012

> <i_f3d_flags>
0

> <s_epik_input>
TzFbQ0gyXVtDSDJdW0NIMl1bQ0BIXTFbQ0BIXShbQ0gzXSlbTkhdQyg9TylbQ0gyXW4yW2NIXVtjSF1jKD1PKVtuSF1jMj1P

> <s_epik_cmdline>
J2VwaWtfcHl0aG9uJywgJy1waCcsICc3LjAnLCAnLXRuJywgJzgnLCAnLW1hJywgJzIwMCcsICctbWV0YWxfYmluZGluZycsICctaW1hZScsICc8aW5maWxlLm1hZT4nLCAnLW9tYWUnLCAnPG91dGZpbGUubWFlPic=

> <r_lp_tautomer_probability>
0.999537

> <r_epik_Ionization_Penalty>
3.07438

> <r_epik_Ionization_Penalty_Charging>
2.82466e-08

> <r_epik_Ionization_Penalty_Neutral>
3.07438

> <r_epik_State_Penalty>
3.07341

> <r_epik_Charging_Adjusted_Penalty>
3.07341

> <i_epik_Tot_Q>
-1

> <i_epik_Tot_abs_Q>
1

> <r_epik_Metal_State_Penalty>
0.45947

> <b_epik_Metal_Only>
1

> <s_lp_Force_Field>
OPLS_2005

> <r_lp_Energy>
29.4252

> <b_lp_Chiralities_Consistent>
1

> <s_lp_Variant>
AV-unprocessed.smi:1403-5

> <Gold.Version>
5.8.1

> <Gold.Id.Protein>
6NUR|6NUR_protein|mol2

> <Gold.PLP.Fitness>
38.0958

> <Gold.PLP.PLP>
-33.3629

> <Gold.PLP.part.hbond>
-2.0000

> <Gold.PLP.part.metal>
0.0000

> <Gold.PLP.part.buried>
-3.7709

> <Gold.PLP.part.nonpolar>
-27.3492

> <Gold.PLP.part.repulsive>
0.3445

> <Gold.PLP.ligand.clash>
0.0000

> <Gold.PLP.ligand.torsion>
0.6440

> <Gold.PLP.Chemscore.Hbond>
2.0000

> <Gold.PLP.Chemscore.CHOScore>
0.0000

> <Gold.PLP.Chemscore.Metal>
0.0000

> <Gold.Chemscore.Hbonds>
donor molecule, donor type, donor heavy atom, donor atom, acceptor molecule, acceptor atom, score
      L1  H     3    24       P1  7948  1.00
      P1  H  6896  6907       L1    11  0.68

> <Gold.PLP.Chemscore.Internal.Correction>
0.0210

> <Gold.Rescore>
     Score         DG    S(hbond)    S(metal)    S(lipo)     H(rot)  DE(clash)    DE(int)     intcor
     12.86     -14.76       1.88        0.00      69.30       1.99       0.35       1.55       ----

> <Gold.Chemscore.Fitness>
12.8611

> <Gold.Chemscore.DG>
-14.7587

> <Gold.Chemscore.ZeroCoef>
-5.4800

> <Gold.Chemscore.Hbond>
1.8790

> <Gold.Chemscore.Metal>
0.0000

> <Gold.Chemscore.Lipo>
69.2960

> <Gold.Chemscore.Internal_Hbond>
0.0000

> <Gold.Chemscore.DEClash>
0.3499

> <Gold.Chemscore.DEInternal>
1.5477

> <Gold.Chemscore.Rot>
1.9940

> <Gold.Chemscore.Internal.Correction>
   9.000000E+99

> <Gold.Chemscore.Hbonds>
donor molecule, donor type, donor heavy atom, donor atom, acceptor molecule, acceptor atom, score
      L1  H     3    24       P1  7948  0.82
      P1  H  6896  6907       L1    11  0.51

> <Gold.Chemscore.Hbond.Weighted>
-6.2758

> <Gold.Chemscore.Metal.Weighted>
-0.0000

> <Gold.Chemscore.Lipo.Weighted>
-8.1076

> <Gold.Chemscore.Internal_Hbond.Weighted>
0.0000

> <Gold.Chemscore.DEClash.Weighted>
0.3499

> <Gold.Chemscore.DEInternal.Weighted>
1.5477

> <Gold.Chemscore.Rot.Weighted>
5.1047

> <Gold.Chemscore.Internal.Correction.Weighted>
   9.000000E+99

> <Gold.Protein.RotatedTorsions>
[ 6907 6896 6895 6894 ] final -170.83 input  -60.11 | X-H torsion
[ 7974 7965 7964 7962 ] final    0.52 input  175.53 | X-H torsion
[ 8008 7997 7996 7995 ] final   69.16 input   59.86 | X-H torsion
[ 10167 10162 10161 10158 ] final -157.84 input  -65.29 | X-H torsion
[ 10718 10713 10712 10709 ] final   20.08 input   66.30 | X-H torsion
[ 10763 10752 10751 10750 ] final  179.67 input  -60.55 | X-H torsion
[ 11005 11000 10999 10996 ] final -178.93 input  -57.11 | X-H torsion

> <Gold.Protein.ActiveResidues>
 VAL166  LYS551  ARG553  GLY616  TRP617  ASP618  TYR619  PRO620  LYS621  CYS622 
 ASP623  PHE694  ASN695  SER759  ASP760  ASP761  ALA762  ILE779  LEU786  VAL792 
 PHE793  MET794  SER795  GLU796  ALA797  LYS798  CYS799  TRP800  GLU811  SER814 

> <Gold.Protein.RotatedAtoms>
  151.5140  133.3479  159.2889 H   0  0  0  0  0  0  0  0  0  0  0  0  # atno 6907 bound_to 6896
  150.8694  134.8067  159.7154 H   0  0  0  0  0  0  0  0  0  0  0  0  # atno 6908 bound_to 6896
  152.4687  134.5022  159.9780 H   0  0  0  0  0  0  0  0  0  0  0  0  # atno 6909 bound_to 6896
  146.2435  140.1126  142.8343 H   0  0  0  0  0  0  0  0  0  0  0  0  # atno 7974 bound_to 7965
  155.7194  140.3493  155.5009 H   0  0  0  0  0  0  0  0  0  0  0  0  # atno 8008 bound_to 7997
  155.9283  140.1079  157.1174 H   0  0  0  0  0  0  0  0  0  0  0  0  # atno 8009 bound_to 7997
  154.4081  140.1236  156.4756 H   0  0  0  0  0  0  0  0  0  0  0  0  # atno 8010 bound_to 7997
  139.6739  143.9698  152.2299 H   0  0  0  0  0  0  0  0  0  0  0  0  # atno 10167 bound_to 10162
  157.1195  130.6543  149.5920 H   0  0  0  0  0  0  0  0  0  0  0  0  # atno 10718 bound_to 10713
  154.5236  135.2795  155.1241 H   0  0  0  0  0  0  0  0  0  0  0  0  # atno 10763 bound_to 10752
  154.2789  135.6289  153.5343 H   0  0  0  0  0  0  0  0  0  0  0  0  # atno 10764 bound_to 10752
  152.9942  135.5646  154.5731 H   0  0  0  0  0  0  0  0  0  0  0  0  # atno 10765 bound_to 10752
  140.4243  134.6577  157.4680 H   0  0  0  0  0  0  0  0  0  0  0  0  # atno 11005 bound_to 11000
  145.0474  140.8992  143.5016 LP  0  0  0  0  0  0  0  0  0  0  0  0  # atno 17320 bound_to 7965
  145.1217  139.2689  143.5585 LP  0  0  0  0  0  0  0  0  0  0  0  0  # atno 17321 bound_to 7965
  139.9469  144.6645  150.8210 LP  0  0  0  0  0  0  0  0  0  0  0  0  # atno 17342 bound_to 10162
  140.7628  143.3207  151.2628 LP  0  0  0  0  0  0  0  0  0  0  0  0  # atno 17343 bound_to 10162
  155.9832  130.4849  150.6919 LP  0  0  0  0  0  0  0  0  0  0  0  0  # atno 17370 bound_to 10713
  157.4489  131.0870  151.0867 LP  0  0  0  0  0  0  0  0  0  0  0  0  # atno 17371 bound_to 10713
  140.0178  134.6593  155.9284 LP  0  0  0  0  0  0  0  0  0  0  0  0  # atno 17394 bound_to 11000
  141.1771  133.6541  156.4872 LP  0  0  0  0  0  0  0  0  0  0  0  0  # atno 17395 bound_to 11000

$$$$
