AV-unprocessed.smi:1209|AV-procd|sdf|5071|dock9
  -GOLD-   22720 4113D 1   1.00000     0.00000
 Structure written by MMmdl.
 49 51  0  0  0  0  0  0  0  0  2 V2000
  147.7201  131.4404  153.2656 C   0  0  0  0  0  0  0  0  0  0  0  0
  148.3636  132.5386  154.0406 C   0  0  0  0  0  0  0  0  0  0  0  0
  149.5397  133.2169  153.8932 C   0  0  0  0  0  0  0  0  0  0  0  0
  149.5356  134.1375  154.9776 C   0  0  0  0  0  0  0  0  0  0  0  0
  150.5783  135.1616  155.3418 C   0  0  0  0  0  0  0  0  0  0  0  0
  150.1446  136.5433  155.1224 N   0  0  0  0  0  0  0  0  0  0  0  0
  148.8339  136.7822  155.7275 C   0  0  0  0  0  0  0  0  0  0  0  0
  151.1538  137.4783  155.6282 C   0  0  0  0  0  0  0  0  0  0  0  0
  150.8475  138.9756  155.4205 C   0  0  2  0  0  0  0  0  0  0  0  0
  150.8064  139.2321  154.0306 O   0  0  0  0  0  0  0  0  0  0  0  0
  151.9230  139.8624  156.0786 C   0  0  0  0  0  0  0  0  0  0  0  0
  151.4031  141.1591  156.5371 N   0  0  0  0  0  0  0  0  0  0  0  0
  150.5449  142.0170  155.9220 C   0  0  0  0  0  0  0  0  0  0  0  0
  150.3585  143.0791  156.7535 N   0  3  0  0  0  0  0  0  0  0  0  0
  151.1110  142.8987  157.9159 C   0  0  0  0  0  0  0  0  0  0  0  0
  151.2481  143.6987  159.0441 C   0  0  0  0  0  0  0  0  0  0  0  0
  152.1037  143.2303  160.0666 C   0  0  0  0  0  0  0  0  0  0  0  0
  152.2772  144.0808  161.3135 C   0  0  0  0  0  0  0  0  0  0  0  0
  152.7899  141.9951  159.9354 C   0  0  0  0  0  0  0  0  0  0  0  0
  153.7131  141.5038  161.0373 C   0  0  0  0  0  0  0  0  0  0  0  0
  152.6346  141.1951  158.7809 C   0  0  0  0  0  0  0  0  0  0  0  0
  151.7861  141.6698  157.7834 C   0  0  0  0  0  0  0  0  0  0  0  0
  148.4457  134.0173  155.7180 N   0  0  0  0  0  0  0  0  0  0  0  0
  147.6907  132.9981  155.1270 O   0  0  0  0  0  0  0  0  0  0  0  0
  148.1187  131.3950  152.2522 H   0  0  0  0  0  0  0  0  0  0  0  0
  146.6425  131.5912  153.1976 H   0  0  0  0  0  0  0  0  0  0  0  0
  147.8984  130.4765  153.7427 H   0  0  0  0  0  0  0  0  0  0  0  0
  150.2881  133.0799  153.1268 H   0  0  0  0  0  0  0  0  0  0  0  0
  150.8898  135.0351  156.3802 H   0  0  0  0  0  0  0  0  0  0  0  0
  151.4666  134.9630  154.7412 H   0  0  0  0  0  0  0  0  0  0  0  0
  148.4613  137.7785  155.4948 H   0  0  0  0  0  0  0  0  0  0  0  0
  148.8760  136.6772  156.8124 H   0  0  0  0  0  0  0  0  0  0  0  0
  148.0905  136.0791  155.3513 H   0  0  0  0  0  0  0  0  0  0  0  0
  151.3112  137.2889  156.6912 H   0  0  0  0  0  0  0  0  0  0  0  0
  152.1116  137.2694  155.1488 H   0  0  0  0  0  0  0  0  0  0  0  0
  149.8807  139.2385  155.8477 H   0  0  0  0  0  0  0  0  0  0  0  0
  150.9532  138.4166  153.5749 H   0  0  0  0  0  0  0  0  0  0  0  0
  152.3301  139.3566  156.9551 H   0  0  0  0  0  0  0  0  0  0  0  0
  152.7658  140.0303  155.4074 H   0  0  0  0  0  0  0  0  0  0  0  0
  150.0902  141.8788  154.9516 H   0  0  0  0  0  0  0  0  0  0  0  0
  150.7242  144.6390  159.1355 H   0  0  0  0  0  0  0  0  0  0  0  0
  151.9769  143.5246  162.2021 H   0  0  0  0  0  0  0  0  0  0  0  0
  151.6708  144.9858  161.2677 H   0  0  0  0  0  0  0  0  0  0  0  0
  153.3187  144.3822  161.4287 H   0  0  0  0  0  0  0  0  0  0  0  0
  154.1501  140.5359  160.7893 H   0  0  0  0  0  0  0  0  0  0  0  0
  153.1671  141.3919  161.9741 H   0  0  0  0  0  0  0  0  0  0  0  0
  154.5307  142.2080  161.1932 H   0  0  0  0  0  0  0  0  0  0  0  0
  153.1623  140.2584  158.6789 H   0  0  0  0  0  0  0  0  0  0  0  0
  149.7609  143.8676  156.5411 H   0  0  0  0  0  0  0  0  0  0  0  0
  1  2  1  0  0  0  0
  1 25  1  0  0  0  0
  1 26  1  0  0  0  0
  1 27  1  0  0  0  0
  2 24  1  0  0  0  0
  2  3  2  0  0  0  0
  3  4  1  0  0  0  0
  3 28  1  0  0  0  0
  4  5  1  0  0  0  0
  4 23  2  0  0  0  0
  5  6  1  0  0  0  0
  5 29  1  0  0  0  0
  5 30  1  0  0  0  0
  6  7  1  0  0  0  0
  6  8  1  0  0  0  0
  7 31  1  0  0  0  0
  7 32  1  0  0  0  0
  7 33  1  0  0  0  0
  8  9  1  0  0  0  0
  8 34  1  0  0  0  0
  8 35  1  0  0  0  0
  9 10  1  0  0  0  0
  9 11  1  0  0  0  0
  9 36  1  0  0  0  0
 10 37  1  0  0  0  0
 11 12  1  0  0  0  0
 11 38  1  0  0  0  0
 11 39  1  0  0  0  0
 12 22  1  0  0  0  0
 12 13  1  0  0  0  0
 13 14  2  0  0  0  0
 13 40  1  0  0  0  0
 14 15  1  0  0  0  0
 14 49  1  0  0  0  0
 15 22  2  0  0  0  0
 15 16  1  0  0  0  0
 16 17  2  0  0  0  0
 16 41  1  0  0  0  0
 17 18  1  0  0  0  0
 17 19  1  0  0  0  0
 18 42  1  0  0  0  0
 18 43  1  0  0  0  0
 18 44  1  0  0  0  0
 19 20  1  0  0  0  0
 19 21  2  0  0  0  0
 20 45  1  0  0  0  0
 20 46  1  0  0  0  0
 20 47  1  0  0  0  0
 21 22  1  0  0  0  0
 21 48  1  0  0  0  0
 23 24  1  0  0  0  0
M  CHG  1  14   1
M  END
> <s_m_source_file>
AV-unprocessed.smi

> <i_m_source_file_index>
1209

> <i_lp_mmshare_version>
43012

> <i_f3d_flags>
0

> <s_epik_input>
W0NIM11jMVtjSF1jKG5vMSlbQ0gyXU4oW0NIM10pW0NIMl1bQ0BIXShbT0hdKVtDSDJdbihbY0hdbjIpYyhjMjMpW2NIXWMoW0NIM10pYyhbY0hdMylbQ0gzXQ==

> <s_epik_cmdline>
J2VwaWtfcHl0aG9uJywgJy1waCcsICc3LjAnLCAnLXRuJywgJzgnLCAnLW1hJywgJzIwMCcsICctbWV0YWxfYmluZGluZycsICctaW1hZScsICc8aW5maWxlLm1hZT4nLCAnLW9tYWUnLCAnPG91dGZpbGUubWFlPic=

> <r_epik_Ionization_Penalty>
1.23608

> <r_epik_Ionization_Penalty_Charging>
1.21624

> <r_epik_Ionization_Penalty_Neutral>
0.0198409

> <r_epik_State_Penalty>
1.27749

> <r_epik_Charging_Adjusted_Penalty>
2.49372

> <i_epik_Tot_Q>
1

> <i_epik_Tot_abs_Q>
1

> <r_epik_Metal_State_Penalty>
1.34809

> <b_epik_Metal_Only>
0

> <s_lp_Force_Field>
OPLS_2005

> <r_lp_Energy>
23.9348

> <b_lp_Chiralities_Consistent>
1

> <s_lp_Variant>
AV-unprocessed.smi:1209-3

> <Gold.Version>
5.8.1

> <Gold.Id.Protein>
6NUR|6NUR_protein|mol2

> <Gold.PLP.Fitness>
54.3685

> <Gold.PLP.PLP>
-46.7848

> <Gold.PLP.part.hbond>
-2.2968

> <Gold.PLP.part.metal>
0.0000

> <Gold.PLP.part.buried>
-4.6166

> <Gold.PLP.part.nonpolar>
-39.4521

> <Gold.PLP.part.repulsive>
0.2184

> <Gold.PLP.ligand.clash>
0.0000

> <Gold.PLP.ligand.torsion>
0.7416

> <Gold.PLP.Chemscore.Hbond>
3.0000

> <Gold.PLP.Chemscore.CHOScore>
0.0000

> <Gold.PLP.Chemscore.Metal>
0.0000

> <Gold.Chemscore.Hbonds>
donor molecule, donor type, donor heavy atom, donor atom, acceptor molecule, acceptor atom, score
      L1  H    14    49       P1  8028  1.82
      P1  H  7989  7998       L1    10  1.00

> <Gold.PLP.Chemscore.Internal.Correction>
0.0669

> <Gold.Rescore>
     Score         DG    S(hbond)    S(metal)    S(lipo)     H(rot)  DE(clash)    DE(int)     intcor
     18.13     -20.30       1.94        0.00     126.58       2.53       0.06       2.11       ----

> <Gold.Chemscore.Fitness>
18.1325

> <Gold.Chemscore.DG>
-20.3048

> <Gold.Chemscore.ZeroCoef>
-5.4800

> <Gold.Chemscore.Hbond>
1.9410

> <Gold.Chemscore.Metal>
0.0000

> <Gold.Chemscore.Lipo>
126.5775

> <Gold.Chemscore.Internal_Hbond>
0.0000

> <Gold.Chemscore.DEClash>
0.0611

> <Gold.Chemscore.DEInternal>
2.1112

> <Gold.Chemscore.Rot>
2.5265

> <Gold.Chemscore.Internal.Correction>
   9.000000E+99

> <Gold.Chemscore.Hbonds>
donor molecule, donor type, donor heavy atom, donor atom, acceptor molecule, acceptor atom, score
      L1  H    14    49       P1  8028  0.87
      P1  H  7989  7998       L1    10  0.90

> <Gold.Chemscore.Hbond.Weighted>
-6.4830

> <Gold.Chemscore.Metal.Weighted>
-0.0000

> <Gold.Chemscore.Lipo.Weighted>
-14.8096

> <Gold.Chemscore.Internal_Hbond.Weighted>
0.0000

> <Gold.Chemscore.DEClash.Weighted>
0.0611

> <Gold.Chemscore.DEInternal.Weighted>
2.1112

> <Gold.Chemscore.Rot.Weighted>
6.4677

> <Gold.Chemscore.Internal.Correction.Weighted>
   9.000000E+99

> <Gold.Protein.RotatedTorsions>
[ 6907 6896 6895 6894 ] final  -57.21 input  -60.11 | X-H torsion
[ 7974 7965 7964 7962 ] final   50.25 input  175.53 | X-H torsion
[ 8008 7997 7996 7995 ] final  122.80 input   59.86 | X-H torsion
[ 10167 10162 10161 10158 ] final   39.43 input  -65.29 | X-H torsion
[ 10718 10713 10712 10709 ] final   54.37 input   66.30 | X-H torsion
[ 10763 10752 10751 10750 ] final -127.50 input  -60.55 | X-H torsion
[ 11005 11000 10999 10996 ] final  -30.05 input  -57.11 | X-H torsion

> <Gold.Protein.ActiveResidues>
 VAL166  LYS551  ARG553  GLY616  TRP617  ASP618  TYR619  PRO620  LYS621  CYS622 
 ASP623  PHE694  ASN695  SER759  ASP760  ASP761  ALA762  ILE779  LEU786  VAL792 
 PHE793  MET794  SER795  GLU796  ALA797  LYS798  CYS799  TRP800  GLU811  SER814 

> <Gold.Protein.RotatedAtoms>
  150.8104  134.7255  159.6682 H   0  0  0  0  0  0  0  0  0  0  0  0  # atno 6907 bound_to 6896
  152.4224  134.5927  159.9988 H   0  0  0  0  0  0  0  0  0  0  0  0  # atno 6908 bound_to 6896
  151.6139  133.3307  159.3109 H   0  0  0  0  0  0  0  0  0  0  0  0  # atno 6909 bound_to 6896
  146.0030  139.4460  143.0003 H   0  0  0  0  0  0  0  0  0  0  0  0  # atno 7974 bound_to 7965
  156.2742  140.2777  156.1526 H   0  0  0  0  0  0  0  0  0  0  0  0  # atno 8008 bound_to 7997
  155.0837  140.0388  157.2665 H   0  0  0  0  0  0  0  0  0  0  0  0  # atno 8009 bound_to 7997
  154.6944  140.2636  155.6787 H   0  0  0  0  0  0  0  0  0  0  0  0  # atno 8010 bound_to 7997
  140.3841  144.1941  150.6130 H   0  0  0  0  0  0  0  0  0  0  0  0  # atno 10167 bound_to 10162
  157.5250  130.8591  149.8610 H   0  0  0  0  0  0  0  0  0  0  0  0  # atno 10718 bound_to 10713
  154.8752  135.3959  154.3605 H   0  0  0  0  0  0  0  0  0  0  0  0  # atno 10763 bound_to 10752
  153.4378  135.7026  153.6194 H   0  0  0  0  0  0  0  0  0  0  0  0  # atno 10764 bound_to 10752
  153.4788  135.3774  155.2400 H   0  0  0  0  0  0  0  0  0  0  0  0  # atno 10765 bound_to 10752
  140.9350  133.7314  156.0991 H   0  0  0  0  0  0  0  0  0  0  0  0  # atno 11005 bound_to 11000
  145.7458  140.9991  143.1277 LP  0  0  0  0  0  0  0  0  0  0  0  0  # atno 17320 bound_to 7965
  144.6926  139.9154  143.7465 LP  0  0  0  0  0  0  0  0  0  0  0  0  # atno 17321 bound_to 7965
  140.4908  143.2348  151.8822 LP  0  0  0  0  0  0  0  0  0  0  0  0  # atno 17342 bound_to 10162
  139.4793  144.5168  151.8857 LP  0  0  0  0  0  0  0  0  0  0  0  0  # atno 17343 bound_to 10162
  156.0381  130.3746  150.1508 LP  0  0  0  0  0  0  0  0  0  0  0  0  # atno 17370 bound_to 10713
  156.9694  130.9830  151.3462 LP  0  0  0  0  0  0  0  0  0  0  0  0  # atno 17371 bound_to 10713
  140.7812  134.3723  157.5487 LP  0  0  0  0  0  0  0  0  0  0  0  0  # atno 17394 bound_to 11000
  139.8805  134.9083  156.2964 LP  0  0  0  0  0  0  0  0  0  0  0  0  # atno 17395 bound_to 11000

$$$$
