AV-unprocessed.smi:2109|AV-procd|sdf|8607|dock7
  -GOLD-   2272011343D 1   1.00000     0.00000
 Structure written by MMmdl.
 46 47  0  0  0  0  0  0  0  0  2 V2000
  151.9210  144.0283  161.5351 C   0  0  0  0  0  0  0  0  0  0  0  0
  151.7918  143.2126  160.2367 C   0  0  0  0  0  0  0  0  0  0  0  0
  152.8128  142.0655  160.2196 C   0  0  0  0  0  0  0  0  0  0  0  0
  151.9295  144.0806  158.9682 C   0  0  0  0  0  0  0  0  0  0  0  0
  151.0618  143.6253  157.8854 N   0  0  0  0  0  0  0  0  0  0  0  0
  151.0567  142.3927  157.3584 C   0  0  0  0  0  0  0  0  0  0  0  0
  151.7948  141.4782  157.7244 O   0  0  0  0  0  0  0  0  0  0  0  0
  150.1427  142.2715  156.3853 N   0  0  0  0  0  0  0  0  0  0  0  0
  149.9218  141.0685  155.5860 C   0  0  0  0  0  0  0  0  0  0  0  0
  148.5651  140.9683  154.8950 C   0  0  0  0  0  0  0  0  0  0  0  0
  148.3180  139.8687  154.0468 C   0  0  0  0  0  0  0  0  0  0  0  0
  147.0718  139.7591  153.4035 C   0  0  0  0  0  0  0  0  0  0  0  0
  146.1264  140.7002  153.6070 N   0  3  0  0  0  0  0  0  0  0  0  0
  146.2945  141.7767  154.4125 C   0  0  0  0  0  0  0  0  0  0  0  0
  145.2150  142.6779  154.5492 N   0  0  0  0  0  0  0  0  0  0  0  0
  144.4906  142.7009  155.8173 C   0  0  0  0  0  0  0  0  0  0  0  0
  143.1805  143.4940  155.6777 C   0  0  0  0  0  0  0  0  0  0  0  0
  143.4590  144.7935  155.1698 O   0  0  0  0  0  0  0  0  0  0  0  0
  144.0375  144.7376  153.8708 C   0  0  0  0  0  0  0  0  0  0  0  0
  145.3820  143.9930  153.9316 C   0  0  0  0  0  0  0  0  0  0  0  0
  147.5381  141.9269  155.0779 C   0  0  0  0  0  0  0  0  0  0  0  0
  152.8786  144.5479  161.5822 H   0  0  0  0  0  0  0  0  0  0  0  0
  151.8495  143.3840  162.4117 H   0  0  0  0  0  0  0  0  0  0  0  0
  151.1320  144.7753  161.6218 H   0  0  0  0  0  0  0  0  0  0  0  0
  150.7985  142.7613  160.2284 H   0  0  0  0  0  0  0  0  0  0  0  0
  153.8352  142.4450  160.2329 H   0  0  0  0  0  0  0  0  0  0  0  0
  152.6984  141.4484  159.3279 H   0  0  0  0  0  0  0  0  0  0  0  0
  152.6881  141.4146  161.0857 H   0  0  0  0  0  0  0  0  0  0  0  0
  151.7467  145.1303  159.2050 H   0  0  0  0  0  0  0  0  0  0  0  0
  152.9549  144.0306  158.6011 H   0  0  0  0  0  0  0  0  0  0  0  0
  150.4168  144.3046  157.5089 H   0  0  0  0  0  0  0  0  0  0  0  0
  149.5799  143.0785  156.1582 H   0  0  0  0  0  0  0  0  0  0  0  0
  150.6988  141.0404  154.8215 H   0  0  0  0  0  0  0  0  0  0  0  0
  150.0694  140.1772  156.1983 H   0  0  0  0  0  0  0  0  0  0  0  0
  149.0764  139.1154  153.8887 H   0  0  0  0  0  0  0  0  0  0  0  0
  146.8025  138.9506  152.7393 H   0  0  0  0  0  0  0  0  0  0  0  0
  144.2520  141.6862  156.1370 H   0  0  0  0  0  0  0  0  0  0  0  0
  145.1215  143.1504  156.5851 H   0  0  0  0  0  0  0  0  0  0  0  0
  142.4798  142.9767  155.0200 H   0  0  0  0  0  0  0  0  0  0  0  0
  142.6941  143.5881  156.6488 H   0  0  0  0  0  0  0  0  0  0  0  0
  143.3528  144.2487  153.1756 H   0  0  0  0  0  0  0  0  0  0  0  0
  144.1884  145.7536  153.5057 H   0  0  0  0  0  0  0  0  0  0  0  0
  146.1009  144.5671  154.5177 H   0  0  0  0  0  0  0  0  0  0  0  0
  145.7832  143.9140  152.9213 H   0  0  0  0  0  0  0  0  0  0  0  0
  147.7103  142.7729  155.7233 H   0  0  0  0  0  0  0  0  0  0  0  0
  145.2306  140.5898  153.1316 H   0  0  0  0  0  0  0  0  0  0  0  0
  1  2  1  0  0  0  0
  1 22  1  0  0  0  0
  1 23  1  0  0  0  0
  1 24  1  0  0  0  0
  2  3  1  0  0  0  0
  2  4  1  0  0  0  0
  2 25  1  0  0  0  0
  3 26  1  0  0  0  0
  3 27  1  0  0  0  0
  3 28  1  0  0  0  0
  4  5  1  0  0  0  0
  4 29  1  0  0  0  0
  4 30  1  0  0  0  0
  5  6  1  0  0  0  0
  5 31  1  0  0  0  0
  6  7  2  0  0  0  0
  6  8  1  0  0  0  0
  8  9  1  0  0  0  0
  8 32  1  0  0  0  0
  9 10  1  0  0  0  0
  9 33  1  0  0  0  0
  9 34  1  0  0  0  0
 10 21  1  0  0  0  0
 10 11  2  0  0  0  0
 11 12  1  0  0  0  0
 11 35  1  0  0  0  0
 12 13  2  0  0  0  0
 12 36  1  0  0  0  0
 13 14  1  0  0  0  0
 13 46  1  0  0  0  0
 14 15  1  0  0  0  0
 14 21  2  0  0  0  0
 15 20  1  0  0  0  0
 15 16  1  0  0  0  0
 16 17  1  0  0  0  0
 16 37  1  0  0  0  0
 16 38  1  0  0  0  0
 17 18  1  0  0  0  0
 17 39  1  0  0  0  0
 17 40  1  0  0  0  0
 18 19  1  0  0  0  0
 19 20  1  0  0  0  0
 19 41  1  0  0  0  0
 19 42  1  0  0  0  0
 20 43  1  0  0  0  0
 20 44  1  0  0  0  0
 21 45  1  0  0  0  0
M  CHG  1  13   1
M  END
> <s_m_source_file>
AV-unprocessed.smi

> <i_m_source_file_index>
2109

> <i_lp_mmshare_version>
43012

> <i_f3d_flags>
0

> <s_epik_input>
W0NIM11bQ0hdKFtDSDNdKVtDSDJdW05IXUMoPU8pW05IXVtDSDJdYzFbY0hdW2NIXW5jKFtjSF0xKU4yW0NIMl1bQ0gyXU9bQ0gyXVtDSDJdMg==

> <s_epik_cmdline>
J2VwaWtfcHl0aG9uJywgJy1waCcsICc3LjAnLCAnLXRuJywgJzgnLCAnLW1hJywgJzIwMCcsICctbWV0YWxfYmluZGluZycsICctaW1hZScsICc8aW5maWxlLm1hZT4nLCAnLW9tYWUnLCAnPG91dGZpbGUubWFlPic=

> <r_lp_tautomer_probability>
0.999994

> <r_epik_Ionization_Penalty>
2.29114

> <r_epik_Ionization_Penalty_Charging>
2.2911

> <r_epik_Ionization_Penalty_Neutral>
4.11828e-05

> <r_epik_State_Penalty>
2.44112

> <r_epik_Charging_Adjusted_Penalty>
4.73222

> <i_epik_Tot_Q>
1

> <i_epik_Tot_abs_Q>
1

> <r_epik_Metal_State_Penalty>
2.45346

> <b_epik_Metal_Only>
0

> <s_lp_Force_Field>
OPLS_2005

> <r_lp_Energy>
19.1618

> <b_lp_Chiralities_Consistent>
1

> <s_lp_Variant>
AV-unprocessed.smi:2109-2

> <Gold.Version>
5.8.1

> <Gold.Id.Protein>
6NUR|6NUR_protein|mol2

> <Gold.PLP.Fitness>
52.1672

> <Gold.PLP.PLP>
-42.1919

> <Gold.PLP.part.hbond>
-3.0000

> <Gold.PLP.part.metal>
0.0000

> <Gold.PLP.part.buried>
-2.6864

> <Gold.PLP.part.nonpolar>
-38.9758

> <Gold.PLP.part.repulsive>
0.4297

> <Gold.PLP.ligand.clash>
0.0000

> <Gold.PLP.ligand.torsion>
0.8265

> <Gold.PLP.Chemscore.Hbond>
3.7114

> <Gold.PLP.Chemscore.CHOScore>
0.0000

> <Gold.PLP.Chemscore.Metal>
0.0000

> <Gold.Chemscore.Hbonds>
donor molecule, donor type, donor heavy atom, donor atom, acceptor molecule, acceptor atom, score
      L1  H     5    31       P1  8028  0.06
      L1  H     8    32       P1  8028  1.00
      L1  H    13    46       P1 10175  2.00

> <Gold.PLP.Chemscore.Internal.Correction>
0.4943

> <Gold.Rescore>
     Score         DG    S(hbond)    S(metal)    S(lipo)     H(rot)  DE(clash)    DE(int)     intcor
     19.57     -21.55       2.55        0.00     104.40       1.82       0.90       1.09       ----

> <Gold.Chemscore.Fitness>
19.5705

> <Gold.Chemscore.DG>
-21.5540

> <Gold.Chemscore.ZeroCoef>
-5.4800

> <Gold.Chemscore.Hbond>
2.5489

> <Gold.Chemscore.Metal>
0.0000

> <Gold.Chemscore.Lipo>
104.4009

> <Gold.Chemscore.Internal_Hbond>
0.0000

> <Gold.Chemscore.DEClash>
0.8978

> <Gold.Chemscore.DEInternal>
1.0857

> <Gold.Chemscore.Rot>
1.8180

> <Gold.Chemscore.Internal.Correction>
   9.000000E+99

> <Gold.Chemscore.Hbonds>
donor molecule, donor type, donor heavy atom, donor atom, acceptor molecule, acceptor atom, score
      L1  H     5    31       P1  8028  0.06
      L1  H     8    32       P1  8028  1.00
      L1  H    13    46       P1 10175  0.88

> <Gold.Chemscore.Hbond.Weighted>
-8.5132

> <Gold.Chemscore.Metal.Weighted>
-0.0000

> <Gold.Chemscore.Lipo.Weighted>
-12.2149

> <Gold.Chemscore.Internal_Hbond.Weighted>
0.0000

> <Gold.Chemscore.DEClash.Weighted>
0.8978

> <Gold.Chemscore.DEInternal.Weighted>
1.0857

> <Gold.Chemscore.Rot.Weighted>
4.6541

> <Gold.Chemscore.Internal.Correction.Weighted>
   9.000000E+99

> <Gold.Protein.RotatedTorsions>
[ 6907 6896 6895 6894 ] final   68.96 input  -60.11 | X-H torsion
[ 7974 7965 7964 7962 ] final  -71.34 input  175.53 | X-H torsion
[ 8008 7997 7996 7995 ] final  -65.23 input   59.86 | X-H torsion
[ 10167 10162 10161 10158 ] final   13.69 input  -65.29 | X-H torsion
[ 10718 10713 10712 10709 ] final   85.14 input   66.30 | X-H torsion
[ 10763 10752 10751 10750 ] final  -60.49 input  -60.55 | X-H torsion
[ 11005 11000 10999 10996 ] final  -17.78 input  -57.11 | X-H torsion

> <Gold.Protein.ActiveResidues>
 VAL166  LYS551  ARG553  GLY616  TRP617  ASP618  TYR619  PRO620  LYS621  CYS622 
 ASP623  PHE694  ASN695  SER759  ASP760  ASP761  ALA762  ILE779  LEU786  VAL792 
 PHE793  MET794  SER795  GLU796  ALA797  LYS798  CYS799  TRP800  GLU811  SER814 

> <Gold.Protein.RotatedAtoms>
  152.4655  134.5086  159.9746 H   0  0  0  0  0  0  0  0  0  0  0  0  # atno 6907 bound_to 6896
  151.5125  133.3476  159.2895 H   0  0  0  0  0  0  0  0  0  0  0  0  # atno 6908 bound_to 6896
  150.8637  134.8024  159.7164 H   0  0  0  0  0  0  0  0  0  0  0  0  # atno 6909 bound_to 6896
  145.6794  140.9193  143.0840 H   0  0  0  0  0  0  0  0  0  0  0  0  # atno 7974 bound_to 7965
  154.4659  140.0937  156.7019 H   0  0  0  0  0  0  0  0  0  0  0  0  # atno 8008 bound_to 7997
  155.4859  140.3469  155.4329 H   0  0  0  0  0  0  0  0  0  0  0  0  # atno 8009 bound_to 7997
  156.0955  140.1408  156.9525 H   0  0  0  0  0  0  0  0  0  0  0  0  # atno 8010 bound_to 7997
  140.5986  143.8652  150.6942 H   0  0  0  0  0  0  0  0  0  0  0  0  # atno 10167 bound_to 10162
  157.6910  131.0162  150.2778 H   0  0  0  0  0  0  0  0  0  0  0  0  # atno 10718 bound_to 10713
  154.2700  135.6292  153.5306 H   0  0  0  0  0  0  0  0  0  0  0  0  # atno 10763 bound_to 10752
  152.9882  135.5608  154.5611 H   0  0  0  0  0  0  0  0  0  0  0  0  # atno 10764 bound_to 10752
  154.5179  135.2880  155.1263 H   0  0  0  0  0  0  0  0  0  0  0  0  # atno 10765 bound_to 10752
  140.8202  133.8074  155.9652 H   0  0  0  0  0  0  0  0  0  0  0  0  # atno 11005 bound_to 11000
  144.7031  139.8676  143.7438 LP  0  0  0  0  0  0  0  0  0  0  0  0  # atno 17320 bound_to 7965
  146.0977  139.3971  143.0366 LP  0  0  0  0  0  0  0  0  0  0  0  0  # atno 17321 bound_to 7965
  140.2192  143.3822  152.1656 LP  0  0  0  0  0  0  0  0  0  0  0  0  # atno 17342 bound_to 10162
  139.5275  144.7120  151.5176 LP  0  0  0  0  0  0  0  0  0  0  0  0  # atno 17343 bound_to 10162
  156.3330  130.3803  149.7475 LP  0  0  0  0  0  0  0  0  0  0  0  0  # atno 17370 bound_to 10713
  156.5008  130.8128  151.3132 LP  0  0  0  0  0  0  0  0  0  0  0  0  # atno 17371 bound_to 10713
  140.9106  134.2265  157.4988 LP  0  0  0  0  0  0  0  0  0  0  0  0  # atno 17394 bound_to 11000
  139.8709  134.9748  156.4861 LP  0  0  0  0  0  0  0  0  0  0  0  0  # atno 17395 bound_to 11000

$$$$
