AV-unprocessed.smi:3046|AV-procd|sdf|11616|dock2
  -GOLD-   2272017 03D 1   1.00000     0.00000
 Structure written by MMmdl.
 38 38  0  0  0  0  0  0  0  0  2 V2000
  152.1836  137.8578  154.3989 C   0  0  0  0  0  0  0  0  0  0  0  0
  150.8786  138.0448  154.6461 C   0  0  0  0  0  0  0  0  0  0  0  0
  150.0495  139.1692  154.0642 C   0  0  0  0  0  0  0  0  0  0  0  0
  148.8670  138.6413  153.4005 N   0  0  0  0  0  0  0  0  0  0  0  0
  147.6279  139.1248  153.5680 C   0  0  0  0  0  0  0  0  0  0  0  0
  147.3670  140.0694  154.3139 O   0  0  0  0  0  0  0  0  0  0  0  0
  146.5068  138.4273  152.7862 C   0  0  1  0  0  0  0  0  0  0  0  0
  146.7360  138.6000  151.2772 C   0  0  0  0  0  0  0  0  0  0  0  0
  146.4216  136.9850  153.1173 N   0  3  0  0  0  0  0  0  0  0  0  0
  145.2087  136.2817  152.6365 C   0  0  1  0  0  0  0  0  0  0  0  0
  143.9669  137.1416  152.9215 C   0  0  0  0  0  0  0  0  0  0  0  0
  145.3526  135.9294  151.1406 C   0  0  0  0  0  0  0  0  0  0  0  0
  145.1804  134.5125  150.8777 N   0  0  0  0  0  0  0  0  0  0  0  0
  144.1402  133.8758  150.2338 C   0  0  0  0  0  0  0  0  0  0  0  0
  144.4278  132.5409  150.2216 C   0  0  0  0  0  0  0  0  0  0  0  0
  145.6841  132.4590  150.8849 C   0  0  0  0  0  0  0  0  0  0  0  0
  146.1325  133.6412  151.2752 N   0  0  0  0  0  0  0  0  0  0  0  0
  152.7342  138.5248  153.7518 H   0  0  0  0  0  0  0  0  0  0  0  0
  152.7192  137.0315  154.8429 H   0  0  0  0  0  0  0  0  0  0  0  0
  150.3618  137.3534  155.2959 H   0  0  0  0  0  0  0  0  0  0  0  0
  149.7547  139.8674  154.8494 H   0  0  0  0  0  0  0  0  0  0  0  0
  150.6606  139.7193  153.3470 H   0  0  0  0  0  0  0  0  0  0  0  0
  149.0011  137.8575  152.7778 H   0  0  0  0  0  0  0  0  0  0  0  0
  145.5498  138.8920  153.0308 H   0  0  0  0  0  0  0  0  0  0  0  0
  146.7688  139.6545  150.9998 H   0  0  0  0  0  0  0  0  0  0  0  0
  145.9315  138.1381  150.7038 H   0  0  0  0  0  0  0  0  0  0  0  0
  147.6737  138.1433  150.9574 H   0  0  0  0  0  0  0  0  0  0  0  0
  147.2168  136.5329  152.6893 H   0  0  0  0  0  0  0  0  0  0  0  0
  145.0917  135.3524  153.1968 H   0  0  0  0  0  0  0  0  0  0  0  0
  143.0485  136.6203  152.6506 H   0  0  0  0  0  0  0  0  0  0  0  0
  143.9954  138.0778  152.3629 H   0  0  0  0  0  0  0  0  0  0  0  0
  143.8970  137.3881  153.9814 H   0  0  0  0  0  0  0  0  0  0  0  0
  144.6223  136.4829  150.5488 H   0  0  0  0  0  0  0  0  0  0  0  0
  146.3357  136.2194  150.7689 H   0  0  0  0  0  0  0  0  0  0  0  0
  143.2908  134.4172  149.8440 H   0  0  0  0  0  0  0  0  0  0  0  0
  143.8329  131.7440  149.8005 H   0  0  0  0  0  0  0  0  0  0  0  0
  146.2795  131.5822  151.0926 H   0  0  0  0  0  0  0  0  0  0  0  0
  146.4945  136.8758  154.1190 H   0  0  0  0  0  0  0  0  0  0  0  0
  1  2  2  0  0  0  0
  1 18  1  0  0  0  0
  1 19  1  0  0  0  0
  2  3  1  0  0  0  0
  2 20  1  0  0  0  0
  3  4  1  0  0  0  0
  3 21  1  0  0  0  0
  3 22  1  0  0  0  0
  4  5  1  0  0  0  0
  4 23  1  0  0  0  0
  5  6  2  0  0  0  0
  5  7  1  0  0  0  0
  7  8  1  0  0  0  0
  7  9  1  0  0  0  0
  7 24  1  0  0  0  0
  8 25  1  0  0  0  0
  8 26  1  0  0  0  0
  8 27  1  0  0  0  0
  9 10  1  0  0  0  0
  9 28  1  0  0  0  0
  9 38  1  0  0  0  0
 10 11  1  0  0  0  0
 10 12  1  0  0  0  0
 10 29  1  0  0  0  0
 11 30  1  0  0  0  0
 11 31  1  0  0  0  0
 11 32  1  0  0  0  0
 12 13  1  0  0  0  0
 12 33  1  0  0  0  0
 12 34  1  0  0  0  0
 13 17  1  0  0  0  0
 13 14  1  0  0  0  0
 14 15  2  0  0  0  0
 14 35  1  0  0  0  0
 15 16  1  0  0  0  0
 15 36  1  0  0  0  0
 16 17  2  0  0  0  0
 16 37  1  0  0  0  0
M  CHG  1   9   1
M  END
> <s_m_source_file>
AV-unprocessed.smi

> <i_m_source_file_index>
3046

> <i_lp_mmshare_version>
43012

> <i_f3d_flags>
0

> <s_epik_input>
W0NIMl09W0NIXVtDSDJdW05IXUMoPU8pW0NASF0oW0NIM10pW05IXVtDQEhdKFtDSDNdKVtDSDJdbjFbY0hdW2NIXVtjSF1uMQ==

> <s_epik_cmdline>
J2VwaWtfcHl0aG9uJywgJy1waCcsICc3LjAnLCAnLXRuJywgJzgnLCAnLW1hJywgJzIwMCcsICctbWV0YWxfYmluZGluZycsICctaW1hZScsICc8aW5maWxlLm1hZT4nLCAnLW9tYWUnLCAnPG91dGZpbGUubWFlPic=

> <r_lp_tautomer_probability>
1

> <r_epik_Ionization_Penalty>
0.132961

> <r_epik_Ionization_Penalty_Charging>
0.132956

> <r_epik_Ionization_Penalty_Neutral>
5.00268e-06

> <r_epik_State_Penalty>
0.122332

> <r_epik_Charging_Adjusted_Penalty>
0.255288

> <i_epik_Tot_Q>
1

> <i_epik_Tot_abs_Q>
1

> <r_epik_Metal_State_Penalty>
0.122338

> <b_epik_Metal_Only>
0

> <s_lp_Force_Field>
OPLS_2005

> <r_lp_Energy>
6.90886

> <b_lp_Chiralities_Consistent>
1

> <s_lp_Variant>
AV-unprocessed.smi:3046-4

> <Gold.Version>
5.8.1

> <Gold.Id.Protein>
6NUR|6NUR_protein|mol2

> <Gold.PLP.Fitness>
48.1059

> <Gold.PLP.PLP>
-35.2479

> <Gold.PLP.part.hbond>
-3.0000

> <Gold.PLP.part.metal>
0.0000

> <Gold.PLP.part.buried>
-1.0258

> <Gold.PLP.part.nonpolar>
-31.4481

> <Gold.PLP.part.repulsive>
0.3739

> <Gold.PLP.ligand.clash>
0.0000

> <Gold.PLP.ligand.torsion>
1.1532

> <Gold.PLP.Chemscore.Hbond>
3.0000

> <Gold.PLP.Chemscore.CHOScore>
2.0000

> <Gold.PLP.Chemscore.Metal>
0.0000

> <Gold.Chemscore.Hbonds>
donor molecule, donor type, donor heavy atom, donor atom, acceptor molecule, acceptor atom, score
      L1  H     4    23       P1  7948  1.00
      L1  H     9    28       P1  7948  2.00
      L1  C    14    35       P1 10186  1.00
      L1  C    16    37       P1 10747  0.06

> <Gold.PLP.Chemscore.Internal.Correction>
0.1642

> <Gold.Rescore>
     Score         DG    S(hbond)    S(metal)    S(lipo)     H(rot)  DE(clash)    DE(int)     intcor
     14.57     -15.68       1.99        0.00      79.97       2.26       0.07       1.03       ----

> <Gold.Chemscore.Fitness>
14.5746

> <Gold.Chemscore.DG>
-15.6779

> <Gold.Chemscore.ZeroCoef>
-5.4800

> <Gold.Chemscore.Hbond>
1.9861

> <Gold.Chemscore.Metal>
0.0000

> <Gold.Chemscore.Lipo>
79.9700

> <Gold.Chemscore.Internal_Hbond>
0.0000

> <Gold.Chemscore.DEClash>
0.0718

> <Gold.Chemscore.DEInternal>
1.0316

> <Gold.Chemscore.Rot>
2.2626

> <Gold.Chemscore.Internal.Correction>
   9.000000E+99

> <Gold.Chemscore.Hbonds>
donor molecule, donor type, donor heavy atom, donor atom, acceptor molecule, acceptor atom, score
      L1  H     4    23       P1  7948  1.00
      L1  H     9    28       P1  7948  0.99

> <Gold.Chemscore.Hbond.Weighted>
-6.6336

> <Gold.Chemscore.Metal.Weighted>
-0.0000

> <Gold.Chemscore.Lipo.Weighted>
-9.3565

> <Gold.Chemscore.Internal_Hbond.Weighted>
0.0000

> <Gold.Chemscore.DEClash.Weighted>
0.0718

> <Gold.Chemscore.DEInternal.Weighted>
1.0316

> <Gold.Chemscore.Rot.Weighted>
5.7922

> <Gold.Chemscore.Internal.Correction.Weighted>
   9.000000E+99

> <Gold.Protein.RotatedTorsions>
[ 6907 6896 6895 6894 ] final  172.78 input  -60.11 | X-H torsion
[ 7974 7965 7964 7962 ] final   60.18 input  175.53 | X-H torsion
[ 8008 7997 7996 7995 ] final  149.31 input   59.86 | X-H torsion
[ 10167 10162 10161 10158 ] final -123.89 input  -65.29 | X-H torsion
[ 10718 10713 10712 10709 ] final -141.24 input   66.30 | X-H torsion
[ 10763 10752 10751 10750 ] final  176.56 input  -60.55 | X-H torsion
[ 11005 11000 10999 10996 ] final  142.10 input  -57.11 | X-H torsion

> <Gold.Protein.ActiveResidues>
 VAL166  LYS551  ARG553  GLY616  TRP617  ASP618  TYR619  PRO620  LYS621  CYS622 
 ASP623  PHE694  ASN695  SER759  ASP760  ASP761  ALA762  ILE779  LEU786  VAL792 
 PHE793  MET794  SER795  GLU796  ALA797  LYS798  CYS799  TRP800  GLU811  SER814 

> <Gold.Protein.RotatedAtoms>
  151.7788  133.3348  159.3465 H   0  0  0  0  0  0  0  0  0  0  0  0  # atno 6907 bound_to 6896
  150.7434  134.5950  159.6016 H   0  0  0  0  0  0  0  0  0  0  0  0  # atno 6908 bound_to 6896
  152.3290  134.7285  160.0346 H   0  0  0  0  0  0  0  0  0  0  0  0  # atno 6909 bound_to 6896
  145.8989  139.3566  143.0604 H   0  0  0  0  0  0  0  0  0  0  0  0  # atno 7974 bound_to 7965
  156.2759  140.2105  156.5838 H   0  0  0  0  0  0  0  0  0  0  0  0  # atno 8008 bound_to 7997
  154.7037  140.0518  157.0506 H   0  0  0  0  0  0  0  0  0  0  0  0  # atno 8009 bound_to 7997
  155.0700  140.3175  155.4636 H   0  0  0  0  0  0  0  0  0  0  0  0  # atno 8010 bound_to 7997
  139.9986  143.5564  152.2312 H   0  0  0  0  0  0  0  0  0  0  0  0  # atno 10167 bound_to 10162
  156.3317  130.7590  151.1709 H   0  0  0  0  0  0  0  0  0  0  0  0  # atno 10718 bound_to 10713
  154.4827  135.2775  155.1558 H   0  0  0  0  0  0  0  0  0  0  0  0  # atno 10763 bound_to 10752
  154.3261  135.6199  153.5533 H   0  0  0  0  0  0  0  0  0  0  0  0  # atno 10764 bound_to 10752
  152.9877  135.5754  154.5231 H   0  0  0  0  0  0  0  0  0  0  0  0  # atno 10765 bound_to 10752
  140.0451  134.9285  157.0915 H   0  0  0  0  0  0  0  0  0  0  0  0  # atno 11005 bound_to 11000
  145.8816  140.9359  143.0598 LP  0  0  0  0  0  0  0  0  0  0  0  0  # atno 17320 bound_to 7965
  144.6734  140.0787  143.7470 LP  0  0  0  0  0  0  0  0  0  0  0  0  # atno 17321 bound_to 7965
  139.6288  144.7641  151.2581 LP  0  0  0  0  0  0  0  0  0  0  0  0  # atno 17342 bound_to 10162
  140.7427  143.6517  150.8243 LP  0  0  0  0  0  0  0  0  0  0  0  0  # atno 17343 bound_to 10162
  157.7431  131.0479  150.4969 LP  0  0  0  0  0  0  0  0  0  0  0  0  # atno 17370 bound_to 10713
  156.5136  130.4145  149.6288 LP  0  0  0  0  0  0  0  0  0  0  0  0  # atno 17371 bound_to 10713
  140.4006  134.2086  155.7163 LP  0  0  0  0  0  0  0  0  0  0  0  0  # atno 17394 bound_to 11000
  141.1903  133.8220  157.0924 LP  0  0  0  0  0  0  0  0  0  0  0  0  # atno 17395 bound_to 11000

$$$$
