AV-unprocessed.smi:3117|AV-procd|sdf|11878|dock9
  -GOLD-   2272017263D 1   1.00000     0.00000
 Structure written by MMmdl.
 37 37  0  0  0  0  0  0  0  0  2 V2000
  151.2069  141.4030  156.1615 C   0  0  0  0  0  0  0  0  0  0  0  0
  150.3109  141.8172  157.3438 C   0  0  2  0  0  0  0  0  0  0  0  0
  148.9635  142.1832  156.8489 N   0  3  0  0  0  0  0  0  0  0  0  0
  148.2394  141.1229  156.1150 C   0  0  0  0  0  0  0  0  0  0  0  0
  147.8492  141.5734  154.6915 C   0  0  0  0  0  0  0  0  0  0  0  0
  147.5506  140.3507  153.8082 C   0  0  0  0  0  0  0  0  0  0  0  0
  146.6476  142.5377  154.6937 C   0  0  0  0  0  0  0  0  0  0  0  0
  148.9570  142.2364  154.1137 O   0  0  0  0  0  0  0  0  0  0  0  0
  150.9015  142.9947  158.1625 C   0  0  2  0  0  0  0  0  0  0  0  0
  151.5737  144.0740  157.2928 C   0  0  0  0  0  0  0  0  0  0  0  0
  151.8448  142.5028  159.1620 N   0  0  0  0  0  0  0  0  0  0  0  0
  152.5332  143.2103  160.1281 C   0  0  0  0  0  0  0  0  0  0  0  0
  153.3318  142.3245  160.7928 C   0  0  0  0  0  0  0  0  0  0  0  0
  153.0699  141.0838  160.1486 C   0  0  0  0  0  0  0  0  0  0  0  0
  152.1889  141.1958  159.1680 N   0  0  0  0  0  0  0  0  0  0  0  0
  152.1785  141.0439  156.4993 H   0  0  0  0  0  0  0  0  0  0  0  0
  151.3771  142.2383  155.4814 H   0  0  0  0  0  0  0  0  0  0  0  0
  150.7611  140.5931  155.5847 H   0  0  0  0  0  0  0  0  0  0  0  0
  150.2081  140.9637  158.0159 H   0  0  0  0  0  0  0  0  0  0  0  0
  148.4028  142.4133  157.6573 H   0  0  0  0  0  0  0  0  0  0  0  0
  148.8579  140.2260  156.0707 H   0  0  0  0  0  0  0  0  0  0  0  0
  147.3379  140.8583  156.6695 H   0  0  0  0  0  0  0  0  0  0  0  0
  146.7033  139.7831  154.1945 H   0  0  0  0  0  0  0  0  0  0  0  0
  148.4046  139.6739  153.7610 H   0  0  0  0  0  0  0  0  0  0  0  0
  147.3086  140.6456  152.7862 H   0  0  0  0  0  0  0  0  0  0  0  0
  145.7726  142.0742  155.1507 H   0  0  0  0  0  0  0  0  0  0  0  0
  146.3719  142.8285  153.6792 H   0  0  0  0  0  0  0  0  0  0  0  0
  146.8598  143.4540  155.2456 H   0  0  0  0  0  0  0  0  0  0  0  0
  149.1000  143.0474  154.5785 H   0  0  0  0  0  0  0  0  0  0  0  0
  150.0830  143.4812  158.6970 H   0  0  0  0  0  0  0  0  0  0  0  0
  150.8511  144.5879  156.6595 H   0  0  0  0  0  0  0  0  0  0  0  0
  152.3409  143.6490  156.6450 H   0  0  0  0  0  0  0  0  0  0  0  0
  152.0470  144.8360  157.9132 H   0  0  0  0  0  0  0  0  0  0  0  0
  152.4017  144.2740  160.2605 H   0  0  0  0  0  0  0  0  0  0  0  0
  154.0036  142.5320  161.6126 H   0  0  0  0  0  0  0  0  0  0  0  0
  153.4955  140.1135  160.3585 H   0  0  0  0  0  0  0  0  0  0  0  0
  149.0302  143.0070  156.2680 H   0  0  0  0  0  0  0  0  0  0  0  0
  1  2  1  0  0  0  0
  1 16  1  0  0  0  0
  1 17  1  0  0  0  0
  1 18  1  0  0  0  0
  2  3  1  0  0  0  0
  2  9  1  0  0  0  0
  2 19  1  0  0  0  0
  3  4  1  0  0  0  0
  3 20  1  0  0  0  0
  3 37  1  0  0  0  0
  4  5  1  0  0  0  0
  4 21  1  0  0  0  0
  4 22  1  0  0  0  0
  5  6  1  0  0  0  0
  5  7  1  0  0  0  0
  5  8  1  0  0  0  0
  6 23  1  0  0  0  0
  6 24  1  0  0  0  0
  6 25  1  0  0  0  0
  7 26  1  0  0  0  0
  7 27  1  0  0  0  0
  7 28  1  0  0  0  0
  8 29  1  0  0  0  0
  9 10  1  0  0  0  0
  9 11  1  0  0  0  0
  9 30  1  0  0  0  0
 10 31  1  0  0  0  0
 10 32  1  0  0  0  0
 10 33  1  0  0  0  0
 11 15  1  0  0  0  0
 11 12  1  0  0  0  0
 12 13  2  0  0  0  0
 12 34  1  0  0  0  0
 13 14  1  0  0  0  0
 13 35  1  0  0  0  0
 14 15  2  0  0  0  0
 14 36  1  0  0  0  0
M  CHG  1   3   1
M  END
> <s_m_source_file>
AV-unprocessed.smi

> <i_m_source_file_index>
3117

> <i_lp_mmshare_version>
43012

> <i_f3d_flags>
0

> <s_epik_input>
W0NIM11DKFtDSDNdKShbT0hdKVtDSDJdW05IXVtDQEBIXShbQ0gzXSlbQ0BIXShbQ0gzXSluMVtjSF1bY0hdW2NIXW4x

> <s_epik_cmdline>
J2VwaWtfcHl0aG9uJywgJy1waCcsICc3LjAnLCAnLXRuJywgJzgnLCAnLW1hJywgJzIwMCcsICctbWV0YWxfYmluZGluZycsICctaW1hZScsICc8aW5maWxlLm1hZT4nLCAnLW9tYWUnLCAnPG91dGZpbGUubWFlPic=

> <r_lp_tautomer_probability>
1

> <r_epik_Ionization_Penalty>
0.0164263

> <r_epik_Ionization_Penalty_Charging>
0.0164138

> <r_epik_Ionization_Penalty_Neutral>
1.24697e-05

> <r_epik_State_Penalty>
0.0129543

> <r_epik_Charging_Adjusted_Penalty>
0.0293681

> <i_epik_Tot_Q>
1

> <i_epik_Tot_abs_Q>
1

> <r_epik_Metal_State_Penalty>
0.0129806

> <b_epik_Metal_Only>
0

> <s_lp_Force_Field>
OPLS_2005

> <r_lp_Energy>
12.2787

> <b_lp_Chiralities_Consistent>
1

> <s_lp_Variant>
AV-unprocessed.smi:3117-1

> <Gold.Version>
5.8.1

> <Gold.Id.Protein>
6NUR|6NUR_protein|mol2

> <Gold.PLP.Fitness>
42.7943

> <Gold.PLP.PLP>
-35.2636

> <Gold.PLP.part.hbond>
-3.0000

> <Gold.PLP.part.metal>
0.0000

> <Gold.PLP.part.buried>
-3.4193

> <Gold.PLP.part.nonpolar>
-28.4174

> <Gold.PLP.part.repulsive>
0.0063

> <Gold.PLP.ligand.clash>
0.0000

> <Gold.PLP.ligand.torsion>
1.1508

> <Gold.PLP.Chemscore.Hbond>
3.2400

> <Gold.PLP.Chemscore.CHOScore>
0.0000

> <Gold.PLP.Chemscore.Metal>
0.0000

> <Gold.Chemscore.Hbonds>
donor molecule, donor type, donor heavy atom, donor atom, acceptor molecule, acceptor atom, score
      L1  H     3    37       P1  8028  2.00
      L1  H     8    29       P1  8028  1.00
      P1  H  8011  8017       L1     8  0.27

> <Gold.PLP.Chemscore.Internal.Correction>
0.1123

> <Gold.Rescore>
     Score         DG    S(hbond)    S(metal)    S(lipo)     H(rot)  DE(clash)    DE(int)     intcor
     16.09     -17.33       2.21        0.00      87.87       2.27       0.09       1.16       ----

> <Gold.Chemscore.Fitness>
16.0872

> <Gold.Chemscore.DG>
-17.3323

> <Gold.Chemscore.ZeroCoef>
-5.4800

> <Gold.Chemscore.Hbond>
2.2122

> <Gold.Chemscore.Metal>
0.0000

> <Gold.Chemscore.Lipo>
87.8747

> <Gold.Chemscore.Internal_Hbond>
0.0000

> <Gold.Chemscore.DEClash>
0.0884

> <Gold.Chemscore.DEInternal>
1.1567

> <Gold.Chemscore.Rot>
2.2725

> <Gold.Chemscore.Internal.Correction>
   9.000000E+99

> <Gold.Chemscore.Hbonds>
donor molecule, donor type, donor heavy atom, donor atom, acceptor molecule, acceptor atom, score
      L1  H     3    37       P1  8028  1.00
      L1  H     8    29       P1  8028  0.97
      P1  H  8011  8017       L1     8  0.15

> <Gold.Chemscore.Hbond.Weighted>
-7.3886

> <Gold.Chemscore.Metal.Weighted>
-0.0000

> <Gold.Chemscore.Lipo.Weighted>
-10.2813

> <Gold.Chemscore.Internal_Hbond.Weighted>
0.0000

> <Gold.Chemscore.DEClash.Weighted>
0.0884

> <Gold.Chemscore.DEInternal.Weighted>
1.1567

> <Gold.Chemscore.Rot.Weighted>
5.8176

> <Gold.Chemscore.Internal.Correction.Weighted>
   9.000000E+99

> <Gold.Protein.RotatedTorsions>
[ 6907 6896 6895 6894 ] final  143.69 input  -60.11 | X-H torsion
[ 7974 7965 7964 7962 ] final  168.30 input  175.53 | X-H torsion
[ 8008 7997 7996 7995 ] final -154.94 input   59.86 | X-H torsion
[ 10167 10162 10161 10158 ] final  -33.07 input  -65.29 | X-H torsion
[ 10718 10713 10712 10709 ] final  147.37 input   66.30 | X-H torsion
[ 10763 10752 10751 10750 ] final -142.27 input  -60.55 | X-H torsion
[ 11005 11000 10999 10996 ] final   11.43 input  -57.11 | X-H torsion

> <Gold.Protein.ActiveResidues>
 VAL166  LYS551  ARG553  GLY616  TRP617  ASP618  TYR619  PRO620  LYS621  CYS622 
 ASP623  PHE694  ASN695  SER759  ASP760  ASP761  ALA762  ILE779  LEU786  VAL792 
 PHE793  MET794  SER795  GLU796  ALA797  LYS798  CYS799  TRP800  GLU811  SER814 

> <Gold.Protein.RotatedAtoms>
  152.2031  133.4855  159.5068 H   0  0  0  0  0  0  0  0  0  0  0  0  # atno 6907 bound_to 6896
  150.6974  134.1565  159.4169 H   0  0  0  0  0  0  0  0  0  0  0  0  # atno 6908 bound_to 6896
  151.9482  135.0181  160.0591 H   0  0  0  0  0  0  0  0  0  0  0  0  # atno 6909 bound_to 6896
  144.7393  139.8888  143.6401 H   0  0  0  0  0  0  0  0  0  0  0  0  # atno 7974 bound_to 7965
  155.6941  140.0759  157.2436 H   0  0  0  0  0  0  0  0  0  0  0  0  # atno 8008 bound_to 7997
  154.4084  140.1659  156.2171 H   0  0  0  0  0  0  0  0  0  0  0  0  # atno 8009 bound_to 7997
  155.9426  140.3383  155.6343 H   0  0  0  0  0  0  0  0  0  0  0  0  # atno 8010 bound_to 7997
  140.7211  143.3648  151.1893 H   0  0  0  0  0  0  0  0  0  0  0  0  # atno 10167 bound_to 10162
  157.3219  131.0905  151.1234 H   0  0  0  0  0  0  0  0  0  0  0  0  # atno 10718 bound_to 10713
  154.8515  135.3500  154.6001 H   0  0  0  0  0  0  0  0  0  0  0  0  # atno 10763 bound_to 10752
  153.6610  135.6989  153.5182 H   0  0  0  0  0  0  0  0  0  0  0  0  # atno 10764 bound_to 10752
  153.2818  135.4261  155.1043 H   0  0  0  0  0  0  0  0  0  0  0  0  # atno 10765 bound_to 10752
  140.5033  134.0724  155.7799 H   0  0  0  0  0  0  0  0  0  0  0  0  # atno 11005 bound_to 11000
  146.1157  139.4168  143.0259 LP  0  0  0  0  0  0  0  0  0  0  0  0  # atno 17320 bound_to 7965
  145.7378  141.0019  143.1317 LP  0  0  0  0  0  0  0  0  0  0  0  0  # atno 17321 bound_to 7965
  139.7207  143.9228  152.2984 LP  0  0  0  0  0  0  0  0  0  0  0  0  # atno 17342 bound_to 10162
  139.8984  144.6926  150.8693 LP  0  0  0  0  0  0  0  0  0  0  0  0  # atno 17343 bound_to 10162
  157.2516  130.6616  149.5934 LP  0  0  0  0  0  0  0  0  0  0  0  0  # atno 17370 bound_to 10713
  155.9686  130.4537  150.5820 LP  0  0  0  0  0  0  0  0  0  0  0  0  # atno 17371 bound_to 10713
  141.1424  133.9115  157.2295 LP  0  0  0  0  0  0  0  0  0  0  0  0  # atno 17394 bound_to 11000
  139.9701  135.0131  156.9489 LP  0  0  0  0  0  0  0  0  0  0  0  0  # atno 17395 bound_to 11000

$$$$
