#       Name:                AV-unprocessed.smi:3311
#       Creating user name   scv26
#       Creation time:       Fri Mar 27 19:06:55 2020


#       File generated by GOLD software.
#

@<TRIPOS>MOLECULE
AV-unprocessed.smi:3311
    47    48     1
SMALL
NO_CHARGES


@<TRIPOS>ATOM
      1 ****        -2.7685  -1.1308   1.5951 C.3            1 S1                 0.0000
      2 ****        -2.2585  -0.2629   0.4319 C.3            1 S1                 0.0000
      3 ****        -0.7968  -0.1703   0.5293 N.3            1 S1                 0.0000
      4 ****        -0.1990   1.0716   0.0308 C.3            1 S1                 0.0000
      5 ****         1.3389   1.0939   0.1865 C.3            1 S1                 0.0000
      6 ****         1.8615   0.1439  -0.7252 O.3            1 S1                 0.0000
      7 ****         1.8762   2.4838  -0.2313 C.3            1 S1                 0.0000
      8 ****         3.3943   2.6343  -0.0243 C.3            1 S1                 0.0000
      9 ****         3.7929   2.3161   1.4232 C.3            1 S1                 0.0000
     10 ****         3.3186   0.9131   1.8258 C.3            1 S1                 0.0000
     11 ****         1.8009   0.7514   1.6262 C.3            1 S1                 0.0000
     12 ****        -2.7648  -0.8065  -0.9380 C.3            1 S1                 0.0000
     13 ****        -2.5267   0.1103  -2.1498 C.3            1 S1                 0.0000
     14 ****        -2.3175  -2.1689  -1.2134 N.pl3          1 S1                 0.0000
     15 ****        -1.0575  -2.6149  -1.5626 C.2            1 S1                 0.0000
     16 ****        -1.1260  -3.9711  -1.7033 C.2            1 S1                 0.0000
     17 ****        -2.4861  -4.2712  -1.4152 C.2            1 S1                 0.0000
     18 ****        -3.1950  -3.1936  -1.1220 N.2            1 S1                 0.0000
     19 ****        -3.8554  -1.2133   1.5766 H              1 S1                 0.0000
     20 ****        -2.4916  -0.6976   2.5568 H              1 S1                 0.0000
     21 ****        -2.3582  -2.1405   1.5594 H              1 S1                 0.0000
     22 ****        -2.6863   0.7296   0.5795 H              1 S1                 0.0000
     23 ****        -0.5132  -0.3099   1.4937 H              1 S1                 0.0000
     24 ****        -0.4560   1.2480  -1.0102 H              1 S1                 0.0000
     25 ****        -0.6191   1.9102   0.5873 H              1 S1                 0.0000
     26 ****         2.8041   0.1568  -0.6617 H              1 S1                 0.0000
     27 ****         1.6268   2.6880  -1.2736 H              1 S1                 0.0000
     28 ****         1.3711   3.2539   0.3535 H              1 S1                 0.0000
     29 ****         3.9298   1.9734  -0.7067 H              1 S1                 0.0000
     30 ****         3.7025   3.6492  -0.2778 H              1 S1                 0.0000
     31 ****         4.8750   2.3903   1.5367 H              1 S1                 0.0000
     32 ****         3.3589   3.0575   2.0956 H              1 S1                 0.0000
     33 ****         3.8502   0.1640   1.2377 H              1 S1                 0.0000
     34 ****         3.5750   0.7216   2.8680 H              1 S1                 0.0000
     35 ****         1.2835   1.4028   2.3319 H              1 S1                 0.0000
     36 ****         1.5168  -0.2678   1.8907 H              1 S1                 0.0000
     37 ****        -3.8516  -0.8500  -0.8419 H              1 S1                 0.0000
     38 ****        -2.8042   1.1407  -1.9269 H              1 S1                 0.0000
     39 ****        -3.1288  -0.2143  -2.9989 H              1 S1                 0.0000
     40 ****        -1.4879   0.0974  -2.4775 H              1 S1                 0.0000
     41 ****        -0.2244  -1.9370  -1.6783 H              1 S1                 0.0000
     42 ****        -0.3260  -4.6455  -1.9697 H              1 S1                 0.0000
     43 ****        -2.9759  -5.2338  -1.4094 H              1 S1                 0.0000
     44 ****        -0.4539  -0.8893  -0.0752 LP             1 S1                 0.0000
     45 ****         1.5824   0.3800  -1.6560 LP             1 S1                 0.0000
     46 ****         1.5200  -0.7676  -0.4959 LP             1 S1                 0.0000
     47 ****        -4.1655  -3.1471  -0.8851 LP             1 S1                 0.0000
@<TRIPOS>BOND
    1    1    2 1     
    2    1   19 1     
    3    1   20 1     
    4    1   21 1     
    5    2    3 1     
    6    2   12 1     
    7    2   22 1     
    8    3    4 1     
    9    3   23 1     
   10    4    5 1     
   11    4   24 1     
   12    4   25 1     
   13    5   11 1     
   14    5    6 1     
   15    5    7 1     
   16    6   26 1     
   17    7    8 1     
   18    7   27 1     
   19    7   28 1     
   20    8    9 1     
   21    8   29 1     
   22    8   30 1     
   23    9   10 1     
   24    9   31 1     
   25    9   32 1     
   26   10   11 1     
   27   10   33 1     
   28   10   34 1     
   29   11   35 1     
   30   11   36 1     
   31   12   13 1     
   32   12   14 1     
   33   12   37 1     
   34   13   38 1     
   35   13   39 1     
   36   13   40 1     
   37   14   18 1     
   38   14   15 1     
   39   15   16 2     
   40   15   41 1     
   41   16   17 1     
   42   16   42 1     
   43   17   18 2     
   44   17   43 1     
   45    3   44 1     
   46    6   45 1     
   47    6   46 1     
   48   18   47 1     
@<TRIPOS>SUBSTRUCTURE
      1 S1             1
@<TRIPOS>SET
LONE_PAIRS      STATIC     ATOMS    <user>   **** ""
4 44 45 46 47
DONOR_HYDROGENS      STATIC     ATOMS    <user>   **** ""
2 23 26
ATOM$BLUE        STATIC     ATOMS    COLORGROUP SYSTEM
4 44 45 46 47
ATOM$RED        STATIC     ATOMS    COLORGROUP SYSTEM
2 23 26
