AV-unprocessed.smi:1287|AV-procd|sdf|5380|dock5
  -GOLD-   22720 4523D 1   1.00000     0.00000
 Structure written by MMmdl.
 44 45  0  0  0  0  0  0  0  0  1 V2000
  146.1620  138.1081  151.9621 C   0  0  0  0  0  0  0  0  0  0  0  0
  146.4954  137.8750  153.4316 C   0  0  0  0  0  0  0  0  0  0  0  0
  145.9568  138.5560  154.3039 O   0  0  0  0  0  0  0  0  0  0  0  0
  147.3881  136.9065  153.6911 N   0  0  0  0  0  0  0  0  0  0  0  0
  147.8627  136.5309  155.0224 C   0  0  1  0  0  0  0  0  0  0  0  0
  148.1135  135.0137  155.0285 C   0  0  0  0  0  0  0  0  0  0  0  0
  149.1932  137.2302  155.3443 C   0  0  0  0  0  0  0  0  0  0  0  0
  149.4350  137.6285  156.4850 O   0  0  0  0  0  0  0  0  0  0  0  0
  150.0384  137.3946  154.3153 N   0  0  0  0  0  0  0  0  0  0  0  0
  151.3362  138.0562  154.3987 C   0  0  0  0  0  0  0  0  0  0  0  0
  151.3756  139.2323  155.3641 C   0  0  0  0  0  0  0  0  0  0  0  0
  150.4894  140.3236  155.2495 C   0  0  0  0  0  0  0  0  0  0  0  0
  150.5819  141.3798  156.1758 C   0  0  0  0  0  0  0  0  0  0  0  0
  151.5639  141.3226  157.1934 C   0  0  0  0  0  0  0  0  0  0  0  0
  151.6737  142.3692  158.1348 N   0  0  0  0  0  0  0  0  0  0  0  0
  151.6063  143.7231  157.5898 C   0  0  0  0  0  0  0  0  0  0  0  0
  151.4233  144.7483  158.7223 C   0  0  0  0  0  0  0  0  0  0  0  0
  152.4577  144.5914  159.6881 O   0  0  0  0  0  0  0  0  0  0  0  0
  152.4312  143.2999  160.2865 C   0  0  0  0  0  0  0  0  0  0  0  0
  152.6546  142.2255  159.2089 C   0  0  0  0  0  0  0  0  0  0  0  0
  152.4148  140.2718  157.2983 N   0  0  0  0  0  0  0  0  0  0  0  0
  152.3222  139.2625  156.4074 C   0  0  0  0  0  0  0  0  0  0  0  0
  147.0729  138.2634  151.3831 H   0  0  0  0  0  0  0  0  0  0  0  0
  145.5290  138.9881  151.8431 H   0  0  0  0  0  0  0  0  0  0  0  0
  145.6330  137.2476  151.5513 H   0  0  0  0  0  0  0  0  0  0  0  0
  147.7842  136.4051  152.9092 H   0  0  0  0  0  0  0  0  0  0  0  0
  147.1108  136.7818  155.7732 H   0  0  0  0  0  0  0  0  0  0  0  0
  148.4682  134.6747  156.0029 H   0  0  0  0  0  0  0  0  0  0  0  0
  148.8557  134.7205  154.2842 H   0  0  0  0  0  0  0  0  0  0  0  0
  147.1953  134.4671  154.8108 H   0  0  0  0  0  0  0  0  0  0  0  0
  149.7626  137.0387  153.4116 H   0  0  0  0  0  0  0  0  0  0  0  0
  152.1018  137.3268  154.6692 H   0  0  0  0  0  0  0  0  0  0  0  0
  151.5962  138.4216  153.4051 H   0  0  0  0  0  0  0  0  0  0  0  0
  149.7445  140.3568  154.4681 H   0  0  0  0  0  0  0  0  0  0  0  0
  149.8926  142.2075  156.1037 H   0  0  0  0  0  0  0  0  0  0  0  0
  152.5297  143.9288  157.0467 H   0  0  0  0  0  0  0  0  0  0  0  0
  150.7893  143.8335  156.8784 H   0  0  0  0  0  0  0  0  0  0  0  0
  151.4638  145.7611  158.3211 H   0  0  0  0  0  0  0  0  0  0  0  0
  150.4473  144.6330  159.1966 H   0  0  0  0  0  0  0  0  0  0  0  0
  153.2149  143.2420  161.0417 H   0  0  0  0  0  0  0  0  0  0  0  0
  151.4813  143.1441  160.8003 H   0  0  0  0  0  0  0  0  0  0  0  0
  152.5760  141.2371  159.6635 H   0  0  0  0  0  0  0  0  0  0  0  0
  153.6597  142.3160  158.7948 H   0  0  0  0  0  0  0  0  0  0  0  0
  153.0252  138.4525  156.5355 H   0  0  0  0  0  0  0  0  0  0  0  0
  1  2  1  0  0  0  0
  1 23  1  0  0  0  0
  1 24  1  0  0  0  0
  1 25  1  0  0  0  0
  2  3  2  0  0  0  0
  2  4  1  0  0  0  0
  4  5  1  0  0  0  0
  4 26  1  0  0  0  0
  5  6  1  0  0  0  0
  5  7  1  0  0  0  0
  5 27  1  0  0  0  0
  6 28  1  0  0  0  0
  6 29  1  0  0  0  0
  6 30  1  0  0  0  0
  7  8  2  0  0  0  0
  7  9  1  0  0  0  0
  9 10  1  0  0  0  0
  9 31  1  0  0  0  0
 10 11  1  0  0  0  0
 10 32  1  0  0  0  0
 10 33  1  0  0  0  0
 11 22  1  0  0  0  0
 11 12  2  0  0  0  0
 12 13  1  0  0  0  0
 12 34  1  0  0  0  0
 13 14  2  0  0  0  0
 13 35  1  0  0  0  0
 14 15  1  0  0  0  0
 14 21  1  0  0  0  0
 15 20  1  0  0  0  0
 15 16  1  0  0  0  0
 16 17  1  0  0  0  0
 16 36  1  0  0  0  0
 16 37  1  0  0  0  0
 17 18  1  0  0  0  0
 17 38  1  0  0  0  0
 17 39  1  0  0  0  0
 18 19  1  0  0  0  0
 19 20  1  0  0  0  0
 19 40  1  0  0  0  0
 19 41  1  0  0  0  0
 20 42  1  0  0  0  0
 20 43  1  0  0  0  0
 21 22  2  0  0  0  0
 22 44  1  0  0  0  0
M  END
> <s_m_source_file>
AV-unprocessed.smi

> <i_m_source_file_index>
1287

> <i_lp_mmshare_version>
43012

> <i_f3d_flags>
0

> <s_epik_input>
W0NIM11DKD1PKVtOSF1bQ0BIXShbQ0gzXSlDKD1PKVtOSF1bQ0gyXWMxW2NIXVtjSF1jKG5bY0hdMSlOMltDSDJdW0NIMl1PW0NIMl1bQ0gyXTI=

> <s_epik_cmdline>
J2VwaWtfcHl0aG9uJywgJy1waCcsICc3LjAnLCAnLXRuJywgJzgnLCAnLW1hJywgJzIwMCcsICctbWV0YWxfYmluZGluZycsICctaW1hZScsICc8aW5maWxlLm1hZT4nLCAnLW9tYWUnLCAnPG91dGZpbGUubWFlPic=

> <r_lp_tautomer_probability>
1

> <r_epik_Ionization_Penalty>
0.00481935

> <r_epik_Ionization_Penalty_Charging>
0

> <r_epik_Ionization_Penalty_Neutral>
0.00481935

> <r_epik_State_Penalty>
0.00349439

> <r_epik_Charging_Adjusted_Penalty>
0.00349439

> <i_epik_Tot_Q>
0

> <i_epik_Tot_abs_Q>
0

> <r_epik_Metal_State_Penalty>
-0

> <b_epik_Metal_Only>
0

> <s_lp_Force_Field>
OPLS_2005

> <r_lp_Energy>
13.9902

> <b_lp_Chiralities_Consistent>
1

> <s_lp_Variant>
AV-unprocessed.smi:1287-2

> <Gold.Version>
5.8.1

> <Gold.Id.Protein>
6NUR|6NUR_protein|mol2

> <Gold.PLP.Fitness>
42.2522

> <Gold.PLP.PLP>
-38.3506

> <Gold.PLP.part.hbond>
-2.7980

> <Gold.PLP.part.metal>
0.0000

> <Gold.PLP.part.buried>
-2.0029

> <Gold.PLP.part.nonpolar>
-33.6141

> <Gold.PLP.part.repulsive>
0.2140

> <Gold.PLP.ligand.clash>
0.0000

> <Gold.PLP.ligand.torsion>
1.3941

> <Gold.PLP.Chemscore.Hbond>
2.1051

> <Gold.PLP.Chemscore.CHOScore>
0.0000

> <Gold.PLP.Chemscore.Metal>
0.0000

> <Gold.Chemscore.Hbonds>
donor molecule, donor type, donor heavy atom, donor atom, acceptor molecule, acceptor atom, score
      L1  H     4    26       P1  7948  0.99
      L1  H     9    31       P1  7948  1.00
      P1  H  7997  8010       L1    21  0.10

> <Gold.PLP.Chemscore.Internal.Correction>
0.3745

> <Gold.Rescore>
     Score         DG    S(hbond)    S(metal)    S(lipo)     H(rot)  DE(clash)    DE(int)     intcor
     14.21     -16.86       1.77        0.00      94.10       2.16       0.09       2.56       ----

> <Gold.Chemscore.Fitness>
14.2103

> <Gold.Chemscore.DG>
-16.8559

> <Gold.Chemscore.ZeroCoef>
-5.4800

> <Gold.Chemscore.Hbond>
1.7665

> <Gold.Chemscore.Metal>
0.0000

> <Gold.Chemscore.Lipo>
94.0974

> <Gold.Chemscore.Internal_Hbond>
0.0000

> <Gold.Chemscore.DEClash>
0.0905

> <Gold.Chemscore.DEInternal>
2.5551

> <Gold.Chemscore.Rot>
2.1616

> <Gold.Chemscore.Internal.Correction>
   9.000000E+99

> <Gold.Chemscore.Hbonds>
donor molecule, donor type, donor heavy atom, donor atom, acceptor molecule, acceptor atom, score
      L1  H     4    26       P1  7948  0.92
      L1  H     9    31       P1  7948  0.55

> <Gold.Chemscore.Hbond.Weighted>
-5.9001

> <Gold.Chemscore.Metal.Weighted>
-0.0000

> <Gold.Chemscore.Lipo.Weighted>
-11.0094

> <Gold.Chemscore.Internal_Hbond.Weighted>
0.0000

> <Gold.Chemscore.DEClash.Weighted>
0.0905

> <Gold.Chemscore.DEInternal.Weighted>
2.5551

> <Gold.Chemscore.Rot.Weighted>
5.5336

> <Gold.Chemscore.Internal.Correction.Weighted>
   9.000000E+99

> <Gold.Protein.RotatedTorsions>
[ 6907 6896 6895 6894 ] final  -17.48 input  -60.11 | X-H torsion
[ 7974 7965 7964 7962 ] final   61.05 input  175.53 | X-H torsion
[ 8008 7997 7996 7995 ] final   37.87 input   59.86 | X-H torsion
[ 10167 10162 10161 10158 ] final   50.01 input  -65.29 | X-H torsion
[ 10718 10713 10712 10709 ] final  -79.31 input   66.30 | X-H torsion
[ 10763 10752 10751 10750 ] final  -53.26 input  -60.55 | X-H torsion
[ 11005 11000 10999 10996 ] final  -41.76 input  -57.11 | X-H torsion

> <Gold.Protein.ActiveResidues>
 VAL166  LYS551  ARG553  GLY616  TRP617  ASP618  TYR619  PRO620  LYS621  CYS622 
 ASP623  PHE694  ASN695  SER759  ASP760  ASP761  ALA762  ILE779  LEU786  VAL792 
 PHE793  MET794  SER795  GLU796  ALA797  LYS798  CYS799  TRP800  GLU811  SER814 

> <Gold.Protein.RotatedAtoms>
  151.2927  135.0746  159.9209 H   0  0  0  0  0  0  0  0  0  0  0  0  # atno 6907 bound_to 6896
  152.5313  133.9915  159.7863 H   0  0  0  0  0  0  0  0  0  0  0  0  # atno 6908 bound_to 6896
  151.0188  133.5845  159.2704 H   0  0  0  0  0  0  0  0  0  0  0  0  # atno 6909 bound_to 6896
  145.8892  139.3498  143.0660 H   0  0  0  0  0  0  0  0  0  0  0  0  # atno 7974 bound_to 7965
  155.2109  140.3323  155.4329 H   0  0  0  0  0  0  0  0  0  0  0  0  # atno 8008 bound_to 7997
  156.2371  140.1877  156.7139 H   0  0  0  0  0  0  0  0  0  0  0  0  # atno 8009 bound_to 7997
  154.6078  140.0613  156.9440 H   0  0  0  0  0  0  0  0  0  0  0  0  # atno 8010 bound_to 7997
  140.2769  144.3201  150.6274 H   0  0  0  0  0  0  0  0  0  0  0  0  # atno 10167 bound_to 10162
  156.0096  130.4542  150.3628 H   0  0  0  0  0  0  0  0  0  0  0  0  # atno 10718 bound_to 10713
  154.1559  135.6482  153.4974 H   0  0  0  0  0  0  0  0  0  0  0  0  # atno 10763 bound_to 10752
  153.0124  135.5349  154.6760 H   0  0  0  0  0  0  0  0  0  0  0  0  # atno 10764 bound_to 10752
  154.6061  135.2949  155.0455 H   0  0  0  0  0  0  0  0  0  0  0  0  # atno 10765 bound_to 10752
  141.0268  133.6838  156.2501 H   0  0  0  0  0  0  0  0  0  0  0  0  # atno 11005 bound_to 11000
  145.8930  140.9292  143.0542 LP  0  0  0  0  0  0  0  0  0  0  0  0  # atno 17320 bound_to 7965
  144.6730  140.0930  143.7464 LP  0  0  0  0  0  0  0  0  0  0  0  0  # atno 17321 bound_to 7965
  140.5844  143.2171  151.7369 LP  0  0  0  0  0  0  0  0  0  0  0  0  # atno 17342 bound_to 10162
  139.4973  144.4033  152.0158 LP  0  0  0  0  0  0  0  0  0  0  0  0  # atno 17343 bound_to 10162
  157.1716  131.0370  151.2792 LP  0  0  0  0  0  0  0  0  0  0  0  0  # atno 17370 bound_to 10713
  157.4224  130.7445  149.6924 LP  0  0  0  0  0  0  0  0  0  0  0  0  # atno 17371 bound_to 10713
  140.6477  134.5100  157.5575 LP  0  0  0  0  0  0  0  0  0  0  0  0  # atno 17394 bound_to 11000
  139.9181  134.8204  156.1299 LP  0  0  0  0  0  0  0  0  0  0  0  0  # atno 17395 bound_to 11000

$$$$
