AV-unprocessed.smi:3202|AV-procd|sdf|12243|dock2
  -GOLD-   2272018 73D 1   1.00000     0.00000
 Structure written by MMmdl.
 43 44  0  0  0  0  0  0  0  0  2 V2000
  146.5898  138.3581  152.9772 C   0  0  0  0  0  0  0  0  0  0  0  0
  147.7087  139.1877  153.5089 C   0  0  0  0  0  0  0  0  0  0  0  0
  147.7227  140.4300  154.0775 C   0  0  0  0  0  0  0  0  0  0  0  0
  149.0977  140.6671  154.3719 C   0  0  0  0  0  0  0  0  0  0  0  0
  149.7162  141.8834  155.0040 C   0  0  0  0  0  0  0  0  0  0  0  0
  150.1402  141.6558  156.4710 C   0  0  2  0  0  0  0  0  0  0  0  0
  148.9722  141.1716  157.3459 C   0  0  0  0  0  0  0  0  0  0  0  0
  150.6938  142.9023  157.0484 N   0  3  0  0  0  0  0  0  0  0  0  0
  151.0616  142.8437  158.4834 C   0  0  1  0  0  0  0  0  0  0  0  0
  152.0652  141.7369  158.8272 C   0  0  0  0  0  0  0  0  0  0  0  0
  152.7214  142.1863  160.1378 C   0  0  0  0  0  0  0  0  0  0  0  0
  152.3339  143.6610  160.3336 C   0  0  0  0  0  0  0  0  0  0  0  0
  151.7160  144.1404  159.0058 C   0  0  0  0  0  0  0  0  0  0  0  0
  152.8302  144.6699  158.0728 C   0  0  0  0  0  0  0  0  0  0  0  0
  150.6752  145.2507  159.2442 C   0  0  0  0  0  0  0  0  0  0  0  0
  149.8736  139.6547  154.0131 N   0  0  0  0  0  0  0  0  0  0  0  0
  149.0159  138.7592  153.4896 N   0  0  0  0  0  0  0  0  0  0  0  0
  149.3332  137.8727  153.1234 H   0  0  0  0  0  0  0  0  0  0  0  0
  145.6368  138.8783  153.0776 H   0  0  0  0  0  0  0  0  0  0  0  0
  146.5165  137.4138  153.5169 H   0  0  0  0  0  0  0  0  0  0  0  0
  146.7407  138.1347  151.9209 H   0  0  0  0  0  0  0  0  0  0  0  0
  146.8756  141.0759  154.2561 H   0  0  0  0  0  0  0  0  0  0  0  0
  150.5745  142.1927  154.4083 H   0  0  0  0  0  0  0  0  0  0  0  0
  149.0128  142.7156  154.9548 H   0  0  0  0  0  0  0  0  0  0  0  0
  150.9096  140.8822  156.4997 H   0  0  0  0  0  0  0  0  0  0  0  0
  148.5852  140.2115  157.0035 H   0  0  0  0  0  0  0  0  0  0  0  0
  148.1473  141.8845  157.3387 H   0  0  0  0  0  0  0  0  0  0  0  0
  149.2877  141.0388  158.3813 H   0  0  0  0  0  0  0  0  0  0  0  0
  151.4920  143.1972  156.5043 H   0  0  0  0  0  0  0  0  0  0  0  0
  150.1517  142.6680  159.0607 H   0  0  0  0  0  0  0  0  0  0  0  0
  151.5893  140.7597  158.9181 H   0  0  0  0  0  0  0  0  0  0  0  0
  152.8286  141.6596  158.0521 H   0  0  0  0  0  0  0  0  0  0  0  0
  152.3699  141.5871  160.9784 H   0  0  0  0  0  0  0  0  0  0  0  0
  153.8040  142.0663  160.0830 H   0  0  0  0  0  0  0  0  0  0  0  0
  151.5934  143.7205  161.1330 H   0  0  0  0  0  0  0  0  0  0  0  0
  153.1821  144.2705  160.6483 H   0  0  0  0  0  0  0  0  0  0  0  0
  153.3290  145.5338  158.5134 H   0  0  0  0  0  0  0  0  0  0  0  0
  152.4325  144.9890  157.1091 H   0  0  0  0  0  0  0  0  0  0  0  0
  153.5979  143.9199  157.8809 H   0  0  0  0  0  0  0  0  0  0  0  0
  151.1351  146.1309  159.6953 H   0  0  0  0  0  0  0  0  0  0  0  0
  149.8785  144.9200  159.9115 H   0  0  0  0  0  0  0  0  0  0  0  0
  150.2099  145.5647  158.3093 H   0  0  0  0  0  0  0  0  0  0  0  0
  149.9770  143.6088  156.9656 H   0  0  0  0  0  0  0  0  0  0  0  0
  1  2  1  0  0  0  0
  1 19  1  0  0  0  0
  1 20  1  0  0  0  0
  1 21  1  0  0  0  0
  2 17  1  0  0  0  0
  2  3  2  0  0  0  0
  3  4  1  0  0  0  0
  3 22  1  0  0  0  0
  4  5  1  0  0  0  0
  4 16  2  0  0  0  0
  5  6  1  0  0  0  0
  5 23  1  0  0  0  0
  5 24  1  0  0  0  0
  6  7  1  0  0  0  0
  6  8  1  0  0  0  0
  6 25  1  0  0  0  0
  7 26  1  0  0  0  0
  7 27  1  0  0  0  0
  7 28  1  0  0  0  0
  8  9  1  0  0  0  0
  8 29  1  0  0  0  0
  8 43  1  0  0  0  0
  9 13  1  0  0  0  0
  9 10  1  0  0  0  0
  9 30  1  0  0  0  0
 10 11  1  0  0  0  0
 10 31  1  0  0  0  0
 10 32  1  0  0  0  0
 11 12  1  0  0  0  0
 11 33  1  0  0  0  0
 11 34  1  0  0  0  0
 12 13  1  0  0  0  0
 12 35  1  0  0  0  0
 12 36  1  0  0  0  0
 13 14  1  0  0  0  0
 13 15  1  0  0  0  0
 14 37  1  0  0  0  0
 14 38  1  0  0  0  0
 14 39  1  0  0  0  0
 15 40  1  0  0  0  0
 15 41  1  0  0  0  0
 15 42  1  0  0  0  0
 16 17  1  0  0  0  0
 17 18  1  0  0  0  0
M  CHG  1   8   1
M  END
> <s_m_source_file>
AV-unprocessed.smi

> <i_m_source_file_index>
3202

> <i_lp_mmshare_version>
43012

> <i_f3d_flags>
0

> <s_epik_input>
W0NIM11jMVtjSF1jKG5bbkhdMSlbQ0gyXVtDQEhdKFtDSDNdKVtOSF1bQ0BASF0oQzIoW0NIM10pW0NIM10pW0NIMl1bQ0gyXVtDSDJdMg==

> <s_epik_cmdline>
J2VwaWtfcHl0aG9uJywgJy1waCcsICc3LjAnLCAnLXRuJywgJzgnLCAnLW1hJywgJzIwMCcsICctbWV0YWxfYmluZGluZycsICctaW1hZScsICc8aW5maWxlLm1hZT4nLCAnLW9tYWUnLCAnPG91dGZpbGUubWFlPic=

> <r_lp_tautomer_probability>
0.5

> <r_epik_Ionization_Penalty>
0.000341671

> <r_epik_Ionization_Penalty_Charging>
0.000281809

> <r_epik_Ionization_Penalty_Neutral>
5.9862e-05

> <r_epik_State_Penalty>
0.41068

> <r_epik_Charging_Adjusted_Penalty>
0.410962

> <i_epik_Tot_Q>
1

> <i_epik_Tot_abs_Q>
1

> <r_epik_Metal_State_Penalty>
0.410672

> <b_epik_Metal_Only>
0

> <s_lp_Force_Field>
OPLS_2005

> <r_lp_Energy>
29.113

> <b_lp_Chiralities_Consistent>
1

> <s_lp_Variant>
AV-unprocessed.smi:3202-3

> <Gold.Version>
5.8.1

> <Gold.Id.Protein>
6NUR|6NUR_protein|mol2

> <Gold.PLP.Fitness>
49.1124

> <Gold.PLP.PLP>
-39.8502

> <Gold.PLP.part.hbond>
-3.8527

> <Gold.PLP.part.metal>
0.0000

> <Gold.PLP.part.buried>
-2.8231

> <Gold.PLP.part.nonpolar>
-33.9156

> <Gold.PLP.part.repulsive>
1.6684

> <Gold.PLP.ligand.clash>
0.0000

> <Gold.PLP.ligand.torsion>
0.2098

> <Gold.PLP.Chemscore.Hbond>
3.2207

> <Gold.PLP.Chemscore.CHOScore>
0.0000

> <Gold.PLP.Chemscore.Metal>
0.0000

> <Gold.Chemscore.Hbonds>
donor molecule, donor type, donor heavy atom, donor atom, acceptor molecule, acceptor atom, score
      L1  H     8    43       P1  8028  1.82
      L1  H    17    18       P1  7948  0.87
      P1  H  7989  7998       L1    16  0.47

> <Gold.PLP.Chemscore.Internal.Correction>
0.0198

> <Gold.Rescore>
     Score         DG    S(hbond)    S(metal)    S(lipo)     H(rot)  DE(clash)    DE(int)     intcor
     21.21     -21.76       1.86        0.00     118.05       1.46       0.23       0.32       ----

> <Gold.Chemscore.Fitness>
21.2125

> <Gold.Chemscore.DG>
-21.7584

> <Gold.Chemscore.ZeroCoef>
-5.4800

> <Gold.Chemscore.Hbond>
1.8572

> <Gold.Chemscore.Metal>
0.0000

> <Gold.Chemscore.Lipo>
118.0500

> <Gold.Chemscore.Internal_Hbond>
0.0000

> <Gold.Chemscore.DEClash>
0.2251

> <Gold.Chemscore.DEInternal>
0.3208

> <Gold.Chemscore.Rot>
1.4596

> <Gold.Chemscore.Internal.Correction>
   9.000000E+99

> <Gold.Chemscore.Hbonds>
donor molecule, donor type, donor heavy atom, donor atom, acceptor molecule, acceptor atom, score
      L1  H     8    43       P1  8028  0.83
      L1  H    17    18       P1  7948  0.78
      P1  H  7989  7998       L1    16  0.07

> <Gold.Chemscore.Hbond.Weighted>
-6.2031

> <Gold.Chemscore.Metal.Weighted>
-0.0000

> <Gold.Chemscore.Lipo.Weighted>
-13.8118

> <Gold.Chemscore.Internal_Hbond.Weighted>
0.0000

> <Gold.Chemscore.DEClash.Weighted>
0.2251

> <Gold.Chemscore.DEInternal.Weighted>
0.3208

> <Gold.Chemscore.Rot.Weighted>
3.7365

> <Gold.Chemscore.Internal.Correction.Weighted>
   9.000000E+99

> <Gold.Protein.RotatedTorsions>
[ 6907 6896 6895 6894 ] final  165.89 input  -60.11 | X-H torsion
[ 7974 7965 7964 7962 ] final  118.50 input  175.53 | X-H torsion
[ 8008 7997 7996 7995 ] final -102.43 input   59.86 | X-H torsion
[ 10167 10162 10161 10158 ] final  124.28 input  -65.29 | X-H torsion
[ 10718 10713 10712 10709 ] final   50.31 input   66.30 | X-H torsion
[ 10763 10752 10751 10750 ] final  -53.59 input  -60.55 | X-H torsion
[ 11005 11000 10999 10996 ] final -128.87 input  -57.11 | X-H torsion

> <Gold.Protein.ActiveResidues>
 VAL166  LYS551  ARG553  GLY616  TRP617  ASP618  TYR619  PRO620  LYS621  CYS622 
 ASP623  PHE694  ASN695  SER759  ASP760  ASP761  ALA762  ILE779  LEU786  VAL792 
 PHE793  MET794  SER795  GLU796  ALA797  LYS798  CYS799  TRP800  GLU811  SER814 

> <Gold.Protein.RotatedAtoms>
  151.8874  133.3508  159.3786 H   0  0  0  0  0  0  0  0  0  0  0  0  # atno 6907 bound_to 6896
  150.7112  134.4957  159.5546 H   0  0  0  0  0  0  0  0  0  0  0  0  # atno 6908 bound_to 6896
  152.2521  134.8122  160.0495 H   0  0  0  0  0  0  0  0  0  0  0  0  # atno 6909 bound_to 6896
  145.1545  139.3191  143.4549 H   0  0  0  0  0  0  0  0  0  0  0  0  # atno 7974 bound_to 7965
  154.8566  140.0428  157.1638 H   0  0  0  0  0  0  0  0  0  0  0  0  # atno 8008 bound_to 7997
  154.8885  140.2983  155.5363 H   0  0  0  0  0  0  0  0  0  0  0  0  # atno 8009 bound_to 7997
  156.2997  140.2398  156.3898 H   0  0  0  0  0  0  0  0  0  0  0  0  # atno 8010 bound_to 7997
  139.5751  144.6959  151.3676 H   0  0  0  0  0  0  0  0  0  0  0  0  # atno 10167 bound_to 10162
  157.4872  130.8353  149.8160 H   0  0  0  0  0  0  0  0  0  0  0  0  # atno 10718 bound_to 10713
  154.1613  135.6474  153.4986 H   0  0  0  0  0  0  0  0  0  0  0  0  # atno 10763 bound_to 10752
  153.0110  135.5361  154.6708 H   0  0  0  0  0  0  0  0  0  0  0  0  # atno 10764 bound_to 10752
  154.6022  135.2945  155.0494 H   0  0  0  0  0  0  0  0  0  0  0  0  # atno 10765 bound_to 10752
  140.9479  134.1105  157.4090 H   0  0  0  0  0  0  0  0  0  0  0  0  # atno 11005 bound_to 11000
  146.3490  140.1632  142.8590 LP  0  0  0  0  0  0  0  0  0  0  0  0  # atno 17320 bound_to 7965
  145.0396  140.8935  143.5060 LP  0  0  0  0  0  0  0  0  0  0  0  0  # atno 17321 bound_to 7965
  140.7033  143.7576  150.7440 LP  0  0  0  0  0  0  0  0  0  0  0  0  # atno 17342 bound_to 10162
  140.1093  143.4714  152.2379 LP  0  0  0  0  0  0  0  0  0  0  0  0  # atno 17343 bound_to 10162
  156.0153  130.3816  150.2130 LP  0  0  0  0  0  0  0  0  0  0  0  0  # atno 17370 bound_to 10713
  157.0318  131.0009  151.3310 LP  0  0  0  0  0  0  0  0  0  0  0  0  # atno 17371 bound_to 10713
  139.8839  135.0057  156.6331 LP  0  0  0  0  0  0  0  0  0  0  0  0  # atno 17394 bound_to 11000
  140.7643  133.8791  155.8442 LP  0  0  0  0  0  0  0  0  0  0  0  0  # atno 17395 bound_to 11000

$$$$
