AV-unprocessed.smi:2296|AV-procd|sdf|9220|dock8
  -GOLD-   2272012443D 1   1.00000     0.00000
 Structure written by MMmdl.
 24 24  0  0  0  0  0  0  0  0  2 V2000
  142.6851  132.4304  150.3538 N   0  3  0  0  0  0  0  0  0  0  0  0
  143.9723  132.7444  149.7037 C   0  0  2  0  0  0  0  0  0  0  0  0
  143.8268  132.6752  148.1739 C   0  0  0  0  0  0  0  0  0  0  0  0
  142.6214  133.2902  147.7699 O   0  0  0  0  0  0  0  0  0  0  0  0
  145.0791  131.7966  150.2057 C   0  0  0  0  0  0  0  0  0  0  0  0
  145.7359  132.2726  151.4899 C   0  0  0  0  0  0  0  0  0  0  0  0
  145.8259  131.4241  152.6130 C   0  0  0  0  0  0  0  0  0  0  0  0
  146.4413  131.9185  153.7809 C   0  0  0  0  0  0  0  0  0  0  0  0
  146.9472  133.1663  153.8806 N   0  0  0  0  0  0  0  0  0  0  0  0
  146.8599  133.9727  152.8010 C   0  0  0  0  0  0  0  0  0  0  0  0
  146.2651  133.5761  151.5861 C   0  0  0  0  0  0  0  0  0  0  0  0
  142.8160  132.3698  151.3532 H   0  0  0  0  0  0  0  0  0  0  0  0
  142.3455  131.5453  150.0048 H   0  0  0  0  0  0  0  0  0  0  0  0
  144.2431  133.7650  149.9793 H   0  0  0  0  0  0  0  0  0  0  0  0
  144.6508  133.2001  147.6894 H   0  0  0  0  0  0  0  0  0  0  0  0
  143.8493  131.6438  147.8199 H   0  0  0  0  0  0  0  0  0  0  0  0
  142.0115  133.2639  148.4922 H   0  0  0  0  0  0  0  0  0  0  0  0
  144.6772  130.7930  150.3527 H   0  0  0  0  0  0  0  0  0  0  0  0
  145.8566  131.7019  149.4463 H   0  0  0  0  0  0  0  0  0  0  0  0
  145.4365  130.4168  152.5857 H   0  0  0  0  0  0  0  0  0  0  0  0
  146.5267  131.2955  154.6588 H   0  0  0  0  0  0  0  0  0  0  0  0
  147.2746  134.9640  152.9086 H   0  0  0  0  0  0  0  0  0  0  0  0
  146.2188  134.2595  150.7506 H   0  0  0  0  0  0  0  0  0  0  0  0
  142.0148  133.1562  150.1434 H   0  0  0  0  0  0  0  0  0  0  0  0
  1  2  1  0  0  0  0
  1 12  1  0  0  0  0
  1 13  1  0  0  0  0
  1 24  1  0  0  0  0
  2  3  1  0  0  0  0
  2  5  1  0  0  0  0
  2 14  1  0  0  0  0
  3  4  1  0  0  0  0
  3 15  1  0  0  0  0
  3 16  1  0  0  0  0
  4 17  1  0  0  0  0
  5  6  1  0  0  0  0
  5 18  1  0  0  0  0
  5 19  1  0  0  0  0
  6 11  1  0  0  0  0
  6  7  2  0  0  0  0
  7  8  1  0  0  0  0
  7 20  1  0  0  0  0
  8  9  2  0  0  0  0
  8 21  1  0  0  0  0
  9 10  1  0  0  0  0
 10 11  2  0  0  0  0
 10 22  1  0  0  0  0
 11 23  1  0  0  0  0
M  CHG  1   1   1
M  END
> <s_m_source_file>
AV-unprocessed.smi

> <i_m_source_file_index>
2296

> <i_lp_mmshare_version>
43012

> <i_f3d_flags>
0

> <s_epik_input>
W09IXVtDSDJdW0NAQEhdKFtOSDJdKVtDSDJdYzFbY0hdW2NIXW5bY0hdW2NIXTE=

> <s_epik_cmdline>
J2VwaWtfcHl0aG9uJywgJy1waCcsICc3LjAnLCAnLXRuJywgJzgnLCAnLW1hJywgJzIwMCcsICctbWV0YWxfYmluZGluZycsICctaW1hZScsICc8aW5maWxlLm1hZT4nLCAnLW9tYWUnLCAnPG91dGZpbGUubWFlPic=

> <r_epik_Ionization_Penalty>
0.0199414

> <r_epik_Ionization_Penalty_Charging>
0.0188044

> <r_epik_Ionization_Penalty_Neutral>
0.00113699

> <r_epik_State_Penalty>
0.00788343

> <r_epik_Charging_Adjusted_Penalty>
0.0266878

> <i_epik_Tot_Q>
1

> <i_epik_Tot_abs_Q>
1

> <r_epik_Metal_State_Penalty>
-0

> <b_epik_Metal_Only>
0

> <s_lp_Force_Field>
OPLS_2005

> <r_lp_Energy>
8.03463

> <b_lp_Chiralities_Consistent>
1

> <s_lp_Variant>
AV-unprocessed.smi:2296-1

> <Gold.Version>
5.8.1

> <Gold.Id.Protein>
6NUR|6NUR_protein|mol2

> <Gold.PLP.Fitness>
41.3657

> <Gold.PLP.PLP>
-25.5423

> <Gold.PLP.part.hbond>
-4.6370

> <Gold.PLP.part.metal>
0.0000

> <Gold.PLP.part.buried>
-2.5070

> <Gold.PLP.part.nonpolar>
-17.0961

> <Gold.PLP.part.repulsive>
0.1717

> <Gold.PLP.ligand.clash>
0.0000

> <Gold.PLP.ligand.torsion>
0.4817

> <Gold.PLP.Chemscore.Hbond>
4.5936

> <Gold.PLP.Chemscore.CHOScore>
1.0000

> <Gold.PLP.Chemscore.Metal>
0.0000

> <Gold.Chemscore.Hbonds>
donor molecule, donor type, donor heavy atom, donor atom, acceptor molecule, acceptor atom, score
      L1  H     1    13       P1 10952  0.98
      L1  H     1    24       P1 10186  2.00
      L1  H     4    17       P1 10186  0.78
      P1  H 10192 10197       L1     4  0.67
      L1  C    10    22       P1  7948  1.00

> <Gold.PLP.Chemscore.Internal.Correction>
0.0060

> <Gold.Rescore>
     Score         DG    S(hbond)    S(metal)    S(lipo)     H(rot)  DE(clash)    DE(int)     intcor
     17.77     -18.39       3.19        0.00      66.22       2.14       0.05       0.57       ----

> <Gold.Chemscore.Fitness>
17.7656

> <Gold.Chemscore.DG>
-18.3864

> <Gold.Chemscore.ZeroCoef>
-5.4800

> <Gold.Chemscore.Hbond>
3.1852

> <Gold.Chemscore.Metal>
0.0000

> <Gold.Chemscore.Lipo>
66.2181

> <Gold.Chemscore.Internal_Hbond>
0.0000

> <Gold.Chemscore.DEClash>
0.0534

> <Gold.Chemscore.DEInternal>
0.5675

> <Gold.Chemscore.Rot>
2.1405

> <Gold.Chemscore.Internal.Correction>
   9.000000E+99

> <Gold.Chemscore.Hbonds>
donor molecule, donor type, donor heavy atom, donor atom, acceptor molecule, acceptor atom, score
      L1  H     1    13       P1 10952  0.84
      L1  H     1    24       P1 10186  1.00
      L1  H     4    17       P1 10186  0.80
      P1  H 10192 10197       L1     4  0.06

> <Gold.Chemscore.Hbond.Weighted>
-10.6386

> <Gold.Chemscore.Metal.Weighted>
-0.0000

> <Gold.Chemscore.Lipo.Weighted>
-7.7475

> <Gold.Chemscore.Internal_Hbond.Weighted>
0.0000

> <Gold.Chemscore.DEClash.Weighted>
0.0534

> <Gold.Chemscore.DEInternal.Weighted>
0.5675

> <Gold.Chemscore.Rot.Weighted>
5.4797

> <Gold.Chemscore.Internal.Correction.Weighted>
   9.000000E+99

> <Gold.Protein.RotatedTorsions>
[ 6907 6896 6895 6894 ] final  171.55 input  -60.11 | X-H torsion
[ 7974 7965 7964 7962 ] final   71.77 input  175.53 | X-H torsion
[ 8008 7997 7996 7995 ] final  149.67 input   59.86 | X-H torsion
[ 10167 10162 10161 10158 ] final  -39.29 input  -65.29 | X-H torsion
[ 10718 10713 10712 10709 ] final  -85.87 input   66.30 | X-H torsion
[ 10763 10752 10751 10750 ] final  -43.77 input  -60.55 | X-H torsion
[ 11005 11000 10999 10996 ] final  108.88 input  -57.11 | X-H torsion

> <Gold.Protein.ActiveResidues>
 VAL166  LYS551  ARG553  GLY616  TRP617  ASP618  TYR619  PRO620  LYS621  CYS622 
 ASP623  PHE694  ASN695  SER759  ASP760  ASP761  ALA762  ILE779  LEU786  VAL792 
 PHE793  MET794  SER795  GLU796  ALA797  LYS798  CYS799  TRP800  GLU811  SER814 

> <Gold.Protein.RotatedAtoms>
  151.7985  133.3367  159.3519 H   0  0  0  0  0  0  0  0  0  0  0  0  # atno 6907 bound_to 6896
  150.7367  134.5776  159.5931 H   0  0  0  0  0  0  0  0  0  0  0  0  # atno 6908 bound_to 6896
  152.3160  134.7441  160.0376 H   0  0  0  0  0  0  0  0  0  0  0  0  # atno 6909 bound_to 6896
  145.7616  139.2803  143.1373 H   0  0  0  0  0  0  0  0  0  0  0  0  # atno 7974 bound_to 7965
  156.2746  140.2095  156.5896 H   0  0  0  0  0  0  0  0  0  0  0  0  # atno 8008 bound_to 7997
  154.6993  140.0522  157.0465 H   0  0  0  0  0  0  0  0  0  0  0  0  # atno 8009 bound_to 7997
  155.0757  140.3181  155.4620 H   0  0  0  0  0  0  0  0  0  0  0  0  # atno 8010 bound_to 7997
  140.7068  143.3224  151.2761 H   0  0  0  0  0  0  0  0  0  0  0  0  # atno 10167 bound_to 10162
  155.9993  130.4746  150.4628 H   0  0  0  0  0  0  0  0  0  0  0  0  # atno 10718 bound_to 10713
  154.0010  135.6693  153.4759 H   0  0  0  0  0  0  0  0  0  0  0  0  # atno 10763 bound_to 10752
  153.0662  135.4999  154.8202 H   0  0  0  0  0  0  0  0  0  0  0  0  # atno 10764 bound_to 10752
  154.7053  135.3086  154.9243 H   0  0  0  0  0  0  0  0  0  0  0  0  # atno 10765 bound_to 10752
  139.8852  134.9443  156.6041 H   0  0  0  0  0  0  0  0  0  0  0  0  # atno 11005 bound_to 11000
  146.0258  140.8305  142.9900 LP  0  0  0  0  0  0  0  0  0  0  0  0  # atno 17320 bound_to 7965
  144.6829  140.2695  143.7308 LP  0  0  0  0  0  0  0  0  0  0  0  0  # atno 17321 bound_to 7965
  139.6682  144.0068  152.2736 LP  0  0  0  0  0  0  0  0  0  0  0  0  # atno 17342 bound_to 10162
  139.9657  144.6527  150.8036 LP  0  0  0  0  0  0  0  0  0  0  0  0  # atno 17343 bound_to 10162
  157.2651  131.0575  151.2296 LP  0  0  0  0  0  0  0  0  0  0  0  0  # atno 17370 bound_to 10713
  157.3396  130.7026  149.6373 LP  0  0  0  0  0  0  0  0  0  0  0  0  # atno 17371 bound_to 10713
  140.7861  133.8620  155.8608 LP  0  0  0  0  0  0  0  0  0  0  0  0  # atno 17394 bound_to 11000
  140.9718  134.1521  157.4570 LP  0  0  0  0  0  0  0  0  0  0  0  0  # atno 17395 bound_to 11000

$$$$
