AV-unprocessed.smi:54|AV-procd|sdf|547|dock10
  -GOLD-   2262016443D 1   1.00000     0.00000
 Structure written by MMmdl.
 43 45  0  0  0  0  0  0  0  0  2 V2000
  152.9066  143.5471  159.9674 C   0  0  0  0  0  0  0  0  0  0  0  0
  152.8275  142.1955  160.6963 C   0  0  0  0  0  0  0  0  0  0  0  0
  153.7908  142.1500  161.8940 C   0  0  0  0  0  0  0  0  0  0  0  0
  153.1100  141.0366  159.7295 C   0  0  0  0  0  0  0  0  0  0  0  0
  154.1118  140.3400  159.9059 O   0  0  0  0  0  0  0  0  0  0  0  0
  152.1970  140.8708  158.7465 N   0  0  0  0  0  0  0  0  0  0  0  0
  152.1516  139.9086  157.7304 C   0  0  0  0  0  0  0  0  0  0  0  0
  151.0215  139.9194  157.0657 N   0  0  0  0  0  0  0  0  0  0  0  0
  150.9903  138.9767  156.0559 C   0  0  0  0  0  0  0  0  0  0  0  0
  151.9710  138.0903  155.7058 C   0  0  0  0  0  0  0  0  0  0  0  0
  151.5739  137.2887  154.6425 N   0  0  0  0  0  0  0  0  0  0  0  0
  150.3454  137.7411  154.3954 C   0  0  0  0  0  0  0  0  0  0  0  0
  149.9306  138.7556  155.1836 N   0  0  0  0  0  0  0  0  0  0  0  0
  148.6146  139.4746  155.1710 C   0  0  2  0  0  0  0  0  0  0  0  0
  147.6924  138.6999  154.4629 O   0  0  0  0  0  0  0  0  0  0  0  0
  147.6430  139.1423  153.1106 C   0  0  1  0  0  0  0  0  0  0  0  0
  146.3852  138.6192  152.3945 C   0  0  0  0  0  0  0  0  0  0  0  0
  146.5874  138.6219  150.9974 O   0  0  0  0  0  0  0  0  0  0  0  0
  147.7316  140.6641  153.2788 C   0  0  1  0  0  0  0  0  0  0  0  0
  146.4612  141.2024  153.6119 O   0  0  0  0  0  0  0  0  0  0  0  0
  148.7529  140.8070  154.4087 C   0  0  1  0  0  0  0  0  0  0  0  0
  148.5235  141.9425  155.2217 O   0  0  0  0  0  0  0  0  0  0  0  0
  153.2271  138.1383  156.4906 C   0  0  0  0  0  0  0  0  0  0  0  0
  154.1391  137.3629  156.2100 O   0  0  0  0  0  0  0  0  0  0  0  0
  153.2605  139.0731  157.4873 N   0  5  0  0  0  0  0  0  0  0  0  0
  148.3376  139.5686  156.2219 H   0  0  0  0  0  0  0  0  0  0  0  0
  148.5384  138.8033  152.5858 H   0  0  0  0  0  0  0  0  0  0  0  0
  148.0752  141.1498  152.3650 H   0  0  0  0  0  0  0  0  0  0  0  0
  149.7540  140.8794  153.9802 H   0  0  0  0  0  0  0  0  0  0  0  0
  152.2252  143.5785  159.1162 H   0  0  0  0  0  0  0  0  0  0  0  0
  153.9131  143.7462  159.5967 H   0  0  0  0  0  0  0  0  0  0  0  0
  152.6336  144.3652  160.6345 H   0  0  0  0  0  0  0  0  0  0  0  0
  151.8122  142.0844  161.0805 H   0  0  0  0  0  0  0  0  0  0  0  0
  153.7453  141.1861  162.4025 H   0  0  0  0  0  0  0  0  0  0  0  0
  153.5386  142.9176  162.6260 H   0  0  0  0  0  0  0  0  0  0  0  0
  154.8239  142.3154  161.5853 H   0  0  0  0  0  0  0  0  0  0  0  0
  151.4111  141.5020  158.7926 H   0  0  0  0  0  0  0  0  0  0  0  0
  149.7326  137.3189  153.6127 H   0  0  0  0  0  0  0  0  0  0  0  0
  146.1190  137.6179  152.7356 H   0  0  0  0  0  0  0  0  0  0  0  0
  145.5365  139.2718  152.6013 H   0  0  0  0  0  0  0  0  0  0  0  0
  145.7439  138.6234  150.5717 H   0  0  0  0  0  0  0  0  0  0  0  0
  145.8171  140.8423  153.0221 H   0  0  0  0  0  0  0  0  0  0  0  0
  148.9089  142.6938  154.7972 H   0  0  0  0  0  0  0  0  0  0  0  0
  1  2  1  0  0  0  0
  1 30  1  0  0  0  0
  1 31  1  0  0  0  0
  1 32  1  0  0  0  0
  2  3  1  0  0  0  0
  2  4  1  0  0  0  0
  2 33  1  0  0  0  0
  3 34  1  0  0  0  0
  3 35  1  0  0  0  0
  3 36  1  0  0  0  0
  4  5  2  0  0  0  0
  4  6  1  0  0  0  0
  6 37  1  0  0  0  0
  6  7  1  0  0  0  0
  7 25  1  0  0  0  0
  7  8  2  0  0  0  0
  8  9  1  0  0  0  0
  9 13  1  0  0  0  0
  9 10  2  0  0  0  0
 10 11  1  0  0  0  0
 10 23  1  0  0  0  0
 11 12  2  0  0  0  0
 12 13  1  0  0  0  0
 12 38  1  0  0  0  0
 13 14  1  0  0  0  0
 14 26  1  0  0  0  0
 14 21  1  0  0  0  0
 14 15  1  0  0  0  0
 15 16  1  0  0  0  0
 16 27  1  0  0  0  0
 16 17  1  0  0  0  0
 16 19  1  0  0  0  0
 17 18  1  0  0  0  0
 17 39  1  0  0  0  0
 17 40  1  0  0  0  0
 18 41  1  0  0  0  0
 19 28  1  0  0  0  0
 19 20  1  0  0  0  0
 19 21  1  0  0  0  0
 20 42  1  0  0  0  0
 21 29  1  0  0  0  0
 21 22  1  0  0  0  0
 22 43  1  0  0  0  0
 23 24  2  0  0  0  0
 23 25  1  0  0  0  0
M  CHG  1  25  -1
M  END
> <s_m_source_file>
AV-unprocessed.smi

> <i_m_source_file_index>
54

> <i_lp_mmshare_version>
43012

> <i_f3d_flags>
0

> <s_epik_input>
W0NIM11bQ0hdKFtDSDNdKUMoPU8pW05IXWMobjEpW25IXWMoPU8pYyhjMTIpbltjSF1uMltDQEBIXTNPW0NASF0oW0NIMl1bT0hdKVtDQEBIXShbT0hdKVtDQEhdM1tPSF0=

> <s_epik_cmdline>
J2VwaWtfcHl0aG9uJywgJy1waCcsICc3LjAnLCAnLXRuJywgJzgnLCAnLW1hJywgJzIwMCcsICctbWV0YWxfYmluZGluZycsICctaW1hZScsICc8aW5maWxlLm1hZT4nLCAnLW9tYWUnLCAnPG91dGZpbGUubWFlPic=

> <r_lp_tautomer_probability>
0.85571

> <r_epik_Ionization_Penalty>
1.75936

> <r_epik_Ionization_Penalty_Charging>
4.55893e-11

> <r_epik_Ionization_Penalty_Neutral>
1.75936

> <r_epik_State_Penalty>
1.72072

> <r_epik_Charging_Adjusted_Penalty>
1.72072

> <i_epik_Tot_Q>
-1

> <i_epik_Tot_abs_Q>
1

> <r_epik_Metal_State_Penalty>
0.400338

> <b_epik_Metal_Only>
1

> <s_epik_Chemistry_Notes>
This compound contains an acetal/aminal-like group ( X-CH(R)-Y where X, Y are N, S, or O) that may be acid/base labile, releasing an aldehyde.

> <s_lp_Force_Field>
OPLS_2005

> <r_lp_Energy>
64.1359

> <b_lp_Chiralities_Consistent>
1

> <s_lp_Variant>
AV-unprocessed.smi:54-19

> <Gold.Version>
5.8.1

> <Gold.Id.Protein>
6NUR|6NUR_protein|mol2

> <Gold.PLP.Fitness>
59.3307

> <Gold.PLP.PLP>
-40.7919

> <Gold.PLP.part.hbond>
-7.6969

> <Gold.PLP.part.metal>
0.0000

> <Gold.PLP.part.buried>
-0.7213

> <Gold.PLP.part.nonpolar>
-34.7830

> <Gold.PLP.part.repulsive>
0.4071

> <Gold.PLP.ligand.clash>
0.0000

> <Gold.PLP.ligand.torsion>
0.9330

> <Gold.PLP.Chemscore.Hbond>
5.7875

> <Gold.PLP.Chemscore.CHOScore>
1.0000

> <Gold.PLP.Chemscore.Metal>
0.0000

> <Gold.Chemscore.Hbonds>
donor molecule, donor type, donor heavy atom, donor atom, acceptor molecule, acceptor atom, score
      L1  H    18    41       P1 10171  1.00
      L1  H    20    42       P1 10175  0.52
      L1  H    22    43       P1  8028  0.30
      P1  H  7954  7966       L1    18  0.90
      P1  H  7997  8008       L1    25  2.00
      P1  H 10752 10764       L1    11  0.67
      P1  H 10752 10765       L1    24  0.21
      L1  C    12    38       P1  7948  1.00

> <Gold.PLP.Chemscore.Internal.Correction>
0.0422

> <Gold.Rescore>
     Score         DG    S(hbond)    S(metal)    S(lipo)     H(rot)  DE(clash)    DE(int)     intcor
     13.66     -16.56       4.00        0.00      68.53       4.02       0.71       2.19       ----

> <Gold.Chemscore.Fitness>
13.6584

> <Gold.Chemscore.DG>
-16.5612

> <Gold.Chemscore.ZeroCoef>
-5.4800

> <Gold.Chemscore.Hbond>
3.9976

> <Gold.Chemscore.Metal>
0.0000

> <Gold.Chemscore.Lipo>
68.5340

> <Gold.Chemscore.Internal_Hbond>
0.0000

> <Gold.Chemscore.DEClash>
0.7130

> <Gold.Chemscore.DEInternal>
2.1898

> <Gold.Chemscore.Rot>
4.0192

> <Gold.Chemscore.Internal.Correction>
   9.000000E+99

> <Gold.Chemscore.Hbonds>
donor molecule, donor type, donor heavy atom, donor atom, acceptor molecule, acceptor atom, score
      L1  H    18    41       P1 10171  0.96
      L1  H    20    42       P1 10175  0.25
      L1  H    22    43       P1  8028  0.29
      P1  H  7954  7966       L1    18  0.76
      P1  H  7997  8008       L1    25  0.27
      P1  H 10752 10764       L1    11  0.55
      P1  H 10752 10765       L1    24  0.21

> <Gold.Chemscore.Hbond.Weighted>
-13.3520

> <Gold.Chemscore.Metal.Weighted>
-0.0000

> <Gold.Chemscore.Lipo.Weighted>
-8.0185

> <Gold.Chemscore.Internal_Hbond.Weighted>
0.0000

> <Gold.Chemscore.DEClash.Weighted>
0.7130

> <Gold.Chemscore.DEInternal.Weighted>
2.1898

> <Gold.Chemscore.Rot.Weighted>
10.2893

> <Gold.Chemscore.Internal.Correction.Weighted>
   9.000000E+99

> <Gold.Protein.RotatedTorsions>
[ 6907 6896 6895 6894 ] final  -79.82 input  -60.11 | X-H torsion
[ 7974 7965 7964 7962 ] final  -25.11 input  175.53 | X-H torsion
[ 8008 7997 7996 7995 ] final  -91.23 input   59.86 | X-H torsion
[ 10167 10162 10161 10158 ] final   35.31 input  -65.29 | X-H torsion
[ 10718 10713 10712 10709 ] final  -90.58 input   66.30 | X-H torsion
[ 10763 10752 10751 10750 ] final  -81.29 input  -60.55 | X-H torsion
[ 11005 11000 10999 10996 ] final -127.06 input  -57.11 | X-H torsion

> <Gold.Protein.ActiveResidues>
 VAL166  LYS551  ARG553  GLY616  TRP617  ASP618  TYR619  PRO620  LYS621  CYS622 
 ASP623  PHE694  ASN695  SER759  ASP760  ASP761  ALA762  ILE779  LEU786  VAL792 
 PHE793  MET794  SER795  GLU796  ALA797  LYS798  CYS799  TRP800  GLU811  SER814 

> <Gold.Protein.RotatedAtoms>
  150.6942  134.4064  159.5141 H   0  0  0  0  0  0  0  0  0  0  0  0  # atno 6907 bound_to 6896
  152.1829  134.8735  160.0534 H   0  0  0  0  0  0  0  0  0  0  0  0  # atno 6908 bound_to 6896
  151.9719  133.3694  159.4111 H   0  0  0  0  0  0  0  0  0  0  0  0  # atno 6909 bound_to 6896
  146.1512  140.4842  142.8610 H   0  0  0  0  0  0  0  0  0  0  0  0  # atno 7974 bound_to 7965
  154.7082  140.0522  157.0524 H   0  0  0  0  0  0  0  0  0  0  0  0  # atno 8008 bound_to 7997
  155.0591  140.3187  155.4647 H   0  0  0  0  0  0  0  0  0  0  0  0  # atno 8009 bound_to 7997
  156.2781  140.2102  156.5718 H   0  0  0  0  0  0  0  0  0  0  0  0  # atno 8010 bound_to 7997
  140.4233  144.1428  150.6150 H   0  0  0  0  0  0  0  0  0  0  0  0  # atno 10167 bound_to 10162
  155.9988  130.4915  150.5345 H   0  0  0  0  0  0  0  0  0  0  0  0  # atno 10718 bound_to 10713
  154.5618  135.5631  153.7014 H   0  0  0  0  0  0  0  0  0  0  0  0  # atno 10763 bound_to 10752
  153.0020  135.6276  154.2234 H   0  0  0  0  0  0  0  0  0  0  0  0  # atno 10764 bound_to 10752
  154.2172  135.2871  155.2917 H   0  0  0  0  0  0  0  0  0  0  0  0  # atno 10765 bound_to 10752
  140.9630  134.0910  157.3948 H   0  0  0  0  0  0  0  0  0  0  0  0  # atno 11005 bound_to 11000
  144.7906  140.6024  143.6544 LP  0  0  0  0  0  0  0  0  0  0  0  0  # atno 17320 bound_to 7965
  145.4819  139.1495  143.3757 LP  0  0  0  0  0  0  0  0  0  0  0  0  # atno 17321 bound_to 7965
  140.4509  143.2487  151.9349 LP  0  0  0  0  0  0  0  0  0  0  0  0  # atno 17342 bound_to 10162
  139.4783  144.5563  151.8308 LP  0  0  0  0  0  0  0  0  0  0  0  0  # atno 17343 bound_to 10162
  157.3289  131.0696  151.1876 LP  0  0  0  0  0  0  0  0  0  0  0  0  # atno 17370 bound_to 10713
  157.2763  130.6728  149.6044 LP  0  0  0  0  0  0  0  0  0  0  0  0  # atno 17371 bound_to 10713
  139.8885  135.0098  156.6623 LP  0  0  0  0  0  0  0  0  0  0  0  0  # atno 17394 bound_to 11000
  140.7439  133.8954  155.8298 LP  0  0  0  0  0  0  0  0  0  0  0  0  # atno 17395 bound_to 11000

$$$$
