AV-unprocessed.smi:1978|AV-procd|sdf|7993|dock5
  -GOLD-   2272010173D 1   1.00000     0.00000
 Structure written by MMmdl.
 45 46  0  0  0  0  0  0  0  0  2 V2000
  153.5977  142.0065  161.2194 C   0  0  0  0  0  0  0  0  0  0  0  0
  152.5095  142.4774  160.3165 C   0  0  0  0  0  0  0  0  0  0  0  0
  151.6824  141.8320  159.4407 C   0  0  0  0  0  0  0  0  0  0  0  0
  150.8907  142.8862  158.9124 C   0  0  0  0  0  0  0  0  0  0  0  0
  149.8909  142.6298  157.9395 N   0  0  0  0  0  0  0  0  0  0  0  0
  149.6431  141.4693  157.3090 C   0  0  0  0  0  0  0  0  0  0  0  0
  150.2847  140.4287  157.4573 O   0  0  0  0  0  0  0  0  0  0  0  0
  148.5923  141.5741  156.4824 N   0  0  0  0  0  0  0  0  0  0  0  0
  148.0709  140.4860  155.6587 C   0  0  0  0  0  0  0  0  0  0  0  0
  146.5873  140.6913  155.2332 C   0  0  1  0  0  0  0  0  0  0  0  0
  146.3883  142.1630  154.7855 C   0  0  0  0  0  0  0  0  0  0  0  0
  146.1707  139.6994  154.1810 N   0  3  1  0  0  0  0  0  0  0  0  0
  147.0197  139.7292  152.9502 C   0  0  0  0  0  0  0  0  0  0  0  0
  146.4099  138.8868  151.8176 C   0  0  0  0  0  0  0  0  0  0  0  0
  146.1763  137.4410  152.2591 C   0  0  0  0  0  0  0  0  0  0  0  0
  145.3319  137.4259  153.5381 C   0  0  0  0  0  0  0  0  0  0  0  0
  145.9512  138.2912  154.6560 C   0  0  1  0  0  0  0  0  0  0  0  0
  147.2176  137.6375  155.2560 C   0  0  0  0  0  0  0  0  0  0  0  0
  151.2049  144.0679  159.4210 N   0  0  0  0  0  0  0  0  0  0  0  0
  152.2440  143.8119  160.3234 O   0  0  0  0  0  0  0  0  0  0  0  0
  153.6696  140.9188  161.2090 H   0  0  0  0  0  0  0  0  0  0  0  0
  153.4130  142.3229  162.2460 H   0  0  0  0  0  0  0  0  0  0  0  0
  154.5603  142.4120  160.9077 H   0  0  0  0  0  0  0  0  0  0  0  0
  151.6532  140.7763  159.2156 H   0  0  0  0  0  0  0  0  0  0  0  0
  149.2937  143.4104  157.7102 H   0  0  0  0  0  0  0  0  0  0  0  0
  148.1208  142.4646  156.4172 H   0  0  0  0  0  0  0  0  0  0  0  0
  148.7014  140.4029  154.7729 H   0  0  0  0  0  0  0  0  0  0  0  0
  148.2243  139.5711  156.2269 H   0  0  0  0  0  0  0  0  0  0  0  0
  145.9525  140.5228  156.1040 H   0  0  0  0  0  0  0  0  0  0  0  0
  146.7362  142.8700  155.5379 H   0  0  0  0  0  0  0  0  0  0  0  0
  145.3420  142.4169  154.6234 H   0  0  0  0  0  0  0  0  0  0  0  0
  146.9336  142.3733  153.8649 H   0  0  0  0  0  0  0  0  0  0  0  0
  147.1280  140.7359  152.5574 H   0  0  0  0  0  0  0  0  0  0  0  0
  148.0289  139.3872  153.1812 H   0  0  0  0  0  0  0  0  0  0  0  0
  145.4638  139.3299  151.5039 H   0  0  0  0  0  0  0  0  0  0  0  0
  147.0638  138.9064  150.9451 H   0  0  0  0  0  0  0  0  0  0  0  0
  145.6722  136.8833  151.4693 H   0  0  0  0  0  0  0  0  0  0  0  0
  147.1315  136.9430  152.4278 H   0  0  0  0  0  0  0  0  0  0  0  0
  144.3327  137.7990  153.3086 H   0  0  0  0  0  0  0  0  0  0  0  0
  145.1978  136.4001  153.8834 H   0  0  0  0  0  0  0  0  0  0  0  0
  145.1914  138.3050  155.4357 H   0  0  0  0  0  0  0  0  0  0  0  0
  146.9929  136.6359  155.6236 H   0  0  0  0  0  0  0  0  0  0  0  0
  147.6138  138.2016  156.0991 H   0  0  0  0  0  0  0  0  0  0  0  0
  148.0209  137.5376  154.5274 H   0  0  0  0  0  0  0  0  0  0  0  0
  145.2579  140.0115  153.8817 H   0  0  0  0  0  0  0  0  0  0  0  0
  1  2  1  0  0  0  0
  1 21  1  0  0  0  0
  1 22  1  0  0  0  0
  1 23  1  0  0  0  0
  2 20  1  0  0  0  0
  2  3  2  0  0  0  0
  3  4  1  0  0  0  0
  3 24  1  0  0  0  0
  4  5  1  0  0  0  0
  4 19  2  0  0  0  0
  5  6  1  0  0  0  0
  5 25  1  0  0  0  0
  6  7  2  0  0  0  0
  6  8  1  0  0  0  0
  8  9  1  0  0  0  0
  8 26  1  0  0  0  0
  9 10  1  0  0  0  0
  9 27  1  0  0  0  0
  9 28  1  0  0  0  0
 10 11  1  0  0  0  0
 10 12  1  0  0  0  0
 10 29  1  0  0  0  0
 11 30  1  0  0  0  0
 11 31  1  0  0  0  0
 11 32  1  0  0  0  0
 12 17  1  0  0  0  0
 12 13  1  0  0  0  0
 12 45  1  0  0  0  0
 13 14  1  0  0  0  0
 13 33  1  0  0  0  0
 13 34  1  0  0  0  0
 14 15  1  0  0  0  0
 14 35  1  0  0  0  0
 14 36  1  0  0  0  0
 15 16  1  0  0  0  0
 15 37  1  0  0  0  0
 15 38  1  0  0  0  0
 16 17  1  0  0  0  0
 16 39  1  0  0  0  0
 16 40  1  0  0  0  0
 17 18  1  0  0  0  0
 17 41  1  0  0  0  0
 18 42  1  0  0  0  0
 18 43  1  0  0  0  0
 18 44  1  0  0  0  0
 19 20  1  0  0  0  0
M  CHG  1  12   1
M  END
> <s_m_source_file>
AV-unprocessed.smi

> <i_m_source_file_index>
1978

> <i_lp_mmshare_version>
43012

> <i_f3d_flags>
0

> <s_epik_input>
W0NIM11jMVtjSF1jKG5vMSlbTkhdQyg9TylbTkhdW0NIMl1bQ0BIXShbQ0gzXSlOMltDSDJdW0NIMl1bQ0gyXVtDSDJdW0NASF0yW0NIM10=

> <s_epik_cmdline>
J2VwaWtfcHl0aG9uJywgJy1waCcsICc3LjAnLCAnLXRuJywgJzgnLCAnLW1hJywgJzIwMCcsICctbWV0YWxfYmluZGluZycsICctaW1hZScsICc8aW5maWxlLm1hZT4nLCAnLW9tYWUnLCAnPG91dGZpbGUubWFlPic=

> <r_epik_Ionization_Penalty>
0.00265971

> <r_epik_Ionization_Penalty_Charging>
0.00262393

> <r_epik_Ionization_Penalty_Neutral>
3.57846e-05

> <r_epik_State_Penalty>
0.00182566

> <r_epik_Charging_Adjusted_Penalty>
0.00444959

> <i_epik_Tot_Q>
1

> <i_epik_Tot_abs_Q>
1

> <r_epik_Metal_State_Penalty>
0.0216344

> <b_epik_Metal_Only>
0

> <s_lp_Force_Field>
OPLS_2005

> <r_lp_Energy>
22.9601

> <b_lp_Chiralities_Consistent>
1

> <s_lp_Variant>
AV-unprocessed.smi:1978-2

> <Gold.Version>
5.8.1

> <Gold.Id.Protein>
6NUR|6NUR_protein|mol2

> <Gold.PLP.Fitness>
44.1180

> <Gold.PLP.PLP>
-32.8030

> <Gold.PLP.part.hbond>
-3.0000

> <Gold.PLP.part.metal>
0.0000

> <Gold.PLP.part.buried>
-3.0249

> <Gold.PLP.part.nonpolar>
-27.7598

> <Gold.PLP.part.repulsive>
0.1932

> <Gold.PLP.ligand.clash>
0.0000

> <Gold.PLP.ligand.torsion>
0.3892

> <Gold.PLP.Chemscore.Hbond>
4.0000

> <Gold.PLP.Chemscore.CHOScore>
0.0000

> <Gold.PLP.Chemscore.Metal>
0.0000

> <Gold.Chemscore.Hbonds>
donor molecule, donor type, donor heavy atom, donor atom, acceptor molecule, acceptor atom, score
      L1  H    12    45       P1 10175  1.33

> <Gold.PLP.Chemscore.Internal.Correction>
0.0933

> <Gold.Rescore>
     Score         DG    S(hbond)    S(metal)    S(lipo)     H(rot)  DE(clash)    DE(int)     intcor
     16.02     -18.63       2.85        0.00      64.78       1.55       0.81       1.80       ----

> <Gold.Chemscore.Fitness>
16.0224

> <Gold.Chemscore.DG>
-18.6319

> <Gold.Chemscore.ZeroCoef>
-5.4800

> <Gold.Chemscore.Hbond>
2.8546

> <Gold.Chemscore.Metal>
0.0000

> <Gold.Chemscore.Lipo>
64.7761

> <Gold.Chemscore.Internal_Hbond>
0.0000

> <Gold.Chemscore.DEClash>
0.8094

> <Gold.Chemscore.DEInternal>
1.8001

> <Gold.Chemscore.Rot>
1.5474

> <Gold.Chemscore.Internal.Correction>
   9.000000E+99

> <Gold.Chemscore.Hbonds>
donor molecule, donor type, donor heavy atom, donor atom, acceptor molecule, acceptor atom, score
      L1  H     5    25       P1  8028  0.01
      L1  H     8    26       P1  8028  0.01
      L1  H    12    45       P1 10175  0.66

> <Gold.Chemscore.Hbond.Weighted>
-9.5344

> <Gold.Chemscore.Metal.Weighted>
-0.0000

> <Gold.Chemscore.Lipo.Weighted>
-7.5788

> <Gold.Chemscore.Internal_Hbond.Weighted>
0.0000

> <Gold.Chemscore.DEClash.Weighted>
0.8094

> <Gold.Chemscore.DEInternal.Weighted>
1.8001

> <Gold.Chemscore.Rot.Weighted>
3.9612

> <Gold.Chemscore.Internal.Correction.Weighted>
   9.000000E+99

> <Gold.Protein.RotatedTorsions>
[ 6907 6896 6895 6894 ] final  -89.97 input  -60.11 | X-H torsion
[ 7974 7965 7964 7962 ] final  142.66 input  175.53 | X-H torsion
[ 8008 7997 7996 7995 ] final  177.65 input   59.86 | X-H torsion
[ 10167 10162 10161 10158 ] final  -17.91 input  -65.29 | X-H torsion
[ 10718 10713 10712 10709 ] final   39.69 input   66.30 | X-H torsion
[ 10763 10752 10751 10750 ] final   28.94 input  -60.55 | X-H torsion
[ 11005 11000 10999 10996 ] final  157.63 input  -57.11 | X-H torsion

> <Gold.Protein.ActiveResidues>
 VAL166  LYS551  ARG553  GLY616  TRP617  ASP618  TYR619  PRO620  LYS621  CYS622 
 ASP623  PHE694  ASN695  SER759  ASP760  ASP761  ALA762  ILE779  LEU786  VAL792 
 PHE793  MET794  SER795  GLU796  ALA797  LYS798  CYS799  TRP800  GLU811  SER814 

> <Gold.Protein.RotatedAtoms>
  150.6878  134.2505  159.4508 H   0  0  0  0  0  0  0  0  0  0  0  0  # atno 6907 bound_to 6896
  152.0442  134.9690  160.0583 H   0  0  0  0  0  0  0  0  0  0  0  0  # atno 6908 bound_to 6896
  152.1180  133.4302  159.4699 H   0  0  0  0  0  0  0  0  0  0  0  0  # atno 6909 bound_to 6896
  144.8988  139.5452  143.5763 H   0  0  0  0  0  0  0  0  0  0  0  0  # atno 7974 bound_to 7965
  156.0633  140.1353  156.9916 H   0  0  0  0  0  0  0  0  0  0  0  0  # atno 8008 bound_to 7997
  154.4493  140.0987  156.6620 H   0  0  0  0  0  0  0  0  0  0  0  0  # atno 8009 bound_to 7997
  155.5343  140.3459  155.4435 H   0  0  0  0  0  0  0  0  0  0  0  0  # atno 8010 bound_to 7997
  140.7253  143.4968  150.9920 H   0  0  0  0  0  0  0  0  0  0  0  0  # atno 10167 bound_to 10162
  157.3735  130.7714  149.7137 H   0  0  0  0  0  0  0  0  0  0  0  0  # atno 10718 bound_to 10713
  153.0461  135.6501  154.0815 H   0  0  0  0  0  0  0  0  0  0  0  0  # atno 10763 bound_to 10752
  154.0512  135.2895  155.3341 H   0  0  0  0  0  0  0  0  0  0  0  0  # atno 10764 bound_to 10752
  154.6719  135.5353  153.8214 H   0  0  0  0  0  0  0  0  0  0  0  0  # atno 10765 bound_to 10752
  140.1787  134.8491  157.2777 H   0  0  0  0  0  0  0  0  0  0  0  0  # atno 11005 bound_to 11000
  146.3097  139.7702  142.9029 LP  0  0  0  0  0  0  0  0  0  0  0  0  # atno 17320 bound_to 7965
  145.3652  141.0333  143.3262 LP  0  0  0  0  0  0  0  0  0  0  0  0  # atno 17321 bound_to 7965
  139.8676  143.7234  152.3169 LP  0  0  0  0  0  0  0  0  0  0  0  0  # atno 17342 bound_to 10162
  139.7472  144.7544  151.0562 LP  0  0  0  0  0  0  0  0  0  0  0  0  # atno 17343 bound_to 10162
  155.9760  130.4081  150.3807 LP  0  0  0  0  0  0  0  0  0  0  0  0  # atno 17370 bound_to 10713
  157.1901  131.0413  151.2704 LP  0  0  0  0  0  0  0  0  0  0  0  0  # atno 17371 bound_to 10713
  140.2292  134.3929  155.7529 LP  0  0  0  0  0  0  0  0  0  0  0  0  # atno 17394 bound_to 11000
  141.2222  133.7206  156.8614 LP  0  0  0  0  0  0  0  0  0  0  0  0  # atno 17395 bound_to 11000

$$$$
