AV-unprocessed.smi:55|AV-procd|sdf|561|dock1
  -GOLD-   2262016463D 1   1.00000     0.00000
 Structure written by MMmdl.
 31 32  0  0  0  0  0  0  0  0  1 V2000
  152.3212  138.1184  154.2348 C   0  0  0  0  0  0  0  0  0  0  0  0
  151.4677  139.1813  154.9063 C   0  0  0  0  0  0  0  0  0  0  0  0
  150.2913  139.6085  154.3810 C   0  0  0  0  0  0  0  0  0  0  0  0
  149.4899  140.5777  154.9672 N   0  0  0  0  0  0  0  0  0  0  0  0
  148.2048  141.0122  154.2994 C   0  0  2  0  0  0  0  0  0  0  0  0
  146.9935  140.7597  155.2044 C   0  0  0  0  0  0  0  0  0  0  0  0
  146.2870  139.6167  154.4976 C   0  0  1  0  0  0  0  0  0  0  0  0
  144.8885  139.6911  154.6858 O   0  0  0  0  0  0  0  0  0  0  0  0
  146.6913  139.8237  153.0353 C   0  0  2  0  0  0  0  0  0  0  0  0
  146.6183  138.5419  152.1917 C   0  0  0  0  0  0  0  0  0  0  0  0
  146.6112  138.8660  150.8179 O   0  0  0  0  0  0  0  0  0  0  0  0
  148.0429  140.2591  153.1364 O   0  0  0  0  0  0  0  0  0  0  0  0
  149.9057  141.1794  156.1745 C   0  0  0  0  0  0  0  0  0  0  0  0
  149.2545  142.0450  156.7580 O   0  0  0  0  0  0  0  0  0  0  0  0
  151.1137  140.7410  156.7146 N   0  0  0  0  0  0  0  0  0  0  0  0
  151.9460  139.7638  156.1629 C   0  0  0  0  0  0  0  0  0  0  0  0
  152.9899  139.4597  156.7378 O   0  0  0  0  0  0  0  0  0  0  0  0
  148.3008  142.0614  154.0186 H   0  0  0  0  0  0  0  0  0  0  0  0
  146.6574  138.6605  154.8686 H   0  0  0  0  0  0  0  0  0  0  0  0
  146.0911  140.6241  152.5974 H   0  0  0  0  0  0  0  0  0  0  0  0
  151.4133  141.1669  157.5795 H   0  0  0  0  0  0  0  0  0  0  0  0
  151.8629  137.7526  153.3157 H   0  0  0  0  0  0  0  0  0  0  0  0
  152.4619  137.2655  154.8997 H   0  0  0  0  0  0  0  0  0  0  0  0
  153.3023  138.5220  153.9819 H   0  0  0  0  0  0  0  0  0  0  0  0
  149.9627  139.1717  153.4499 H   0  0  0  0  0  0  0  0  0  0  0  0
  147.2826  140.5265  156.2300 H   0  0  0  0  0  0  0  0  0  0  0  0
  146.3815  141.6631  155.2108 H   0  0  0  0  0  0  0  0  0  0  0  0
  144.5052  140.1197  153.9357 H   0  0  0  0  0  0  0  0  0  0  0  0
  147.4449  137.8685  152.4207 H   0  0  0  0  0  0  0  0  0  0  0  0
  145.6937  138.0043  152.4043 H   0  0  0  0  0  0  0  0  0  0  0  0
  145.7461  138.7016  150.4748 H   0  0  0  0  0  0  0  0  0  0  0  0
  1  2  1  0  0  0  0
  1 22  1  0  0  0  0
  1 23  1  0  0  0  0
  1 24  1  0  0  0  0
  2 16  1  0  0  0  0
  2  3  2  0  0  0  0
  3  4  1  0  0  0  0
  3 25  1  0  0  0  0
  4  5  1  0  0  0  0
  4 13  1  0  0  0  0
  5 18  1  0  0  0  0
  5 12  1  0  0  0  0
  5  6  1  0  0  0  0
  6  7  1  0  0  0  0
  6 26  1  0  0  0  0
  6 27  1  0  0  0  0
  7 19  1  0  0  0  0
  7  8  1  0  0  0  0
  7  9  1  0  0  0  0
  8 28  1  0  0  0  0
  9 20  1  0  0  0  0
  9 10  1  0  0  0  0
  9 12  1  0  0  0  0
 10 11  1  0  0  0  0
 10 29  1  0  0  0  0
 10 30  1  0  0  0  0
 11 31  1  0  0  0  0
 13 14  2  0  0  0  0
 13 15  1  0  0  0  0
 15 21  1  0  0  0  0
 15 16  1  0  0  0  0
 16 17  2  0  0  0  0
M  END
> <s_m_source_file>
AV-unprocessed.smi

> <i_m_source_file_index>
55

> <i_lp_mmshare_version>
43012

> <i_f3d_flags>
0

> <s_epik_input>
Tz1jMVtuSF1jKD1PKW4oW2NIXWMxW0NIM10pW0NAQEhdMltDSDJdW0NAQEhdKFtPSF0pW0NAQEhdKE8yKVtDSDJdW09IXQ==

> <s_epik_cmdline>
J2VwaWtfcHl0aG9uJywgJy1waCcsICc3LjAnLCAnLXRuJywgJzgnLCAnLW1hJywgJzIwMCcsICctbWV0YWxfYmluZGluZycsICctaW1hZScsICc8aW5maWxlLm1hZT4nLCAnLW9tYWUnLCAnPG91dGZpbGUubWFlPic=

> <r_lp_tautomer_probability>
0.999537

> <r_epik_Ionization_Penalty>
0.00121888

> <r_epik_Ionization_Penalty_Charging>
0.00121876

> <r_epik_Ionization_Penalty_Neutral>
1.19946e-07

> <r_epik_State_Penalty>
0.000805124

> <r_epik_Charging_Adjusted_Penalty>
0.00202389

> <i_epik_Tot_Q>
0

> <i_epik_Tot_abs_Q>
0

> <r_epik_Metal_State_Penalty>
0.662472

> <b_epik_Metal_Only>
0

> <s_epik_Chemistry_Notes>
This compound contains an acetal/aminal-like group ( X-CH(R)-Y where X, Y are N, S, or O) that may be acid/base labile, releasing an aldehyde.

> <s_lp_Force_Field>
OPLS_2005

> <r_lp_Energy>
24.9707

> <b_lp_Chiralities_Consistent>
1

> <s_lp_Variant>
AV-unprocessed.smi:55-1

> <Gold.Version>
5.8.1

> <Gold.Id.Protein>
6NUR|6NUR_protein|mol2

> <Gold.PLP.Fitness>
40.0127

> <Gold.PLP.PLP>
-25.9416

> <Gold.PLP.part.hbond>
-4.7085

> <Gold.PLP.part.metal>
0.0000

> <Gold.PLP.part.buried>
-2.1184

> <Gold.PLP.part.nonpolar>
-24.4509

> <Gold.PLP.part.repulsive>
5.1454

> <Gold.PLP.ligand.clash>
0.0000

> <Gold.PLP.ligand.torsion>
0.1921

> <Gold.PLP.Chemscore.Hbond>
3.8160

> <Gold.PLP.Chemscore.CHOScore>
0.9982

> <Gold.PLP.Chemscore.Metal>
0.0000

> <Gold.Chemscore.Hbonds>
donor molecule, donor type, donor heavy atom, donor atom, acceptor molecule, acceptor atom, score
      L1  H     8    28       P1 10175  1.00
      L1  H    11    31       P1 10171  1.00
      P1  H  7954  7966       L1    11  0.77
      P1  H  7997  8008       L1    17  0.98
      L1  C     3    25       P1  7957  1.00

> <Gold.PLP.Chemscore.Internal.Correction>
0.0128

> <Gold.Rescore>
     Score         DG    S(hbond)    S(metal)    S(lipo)     H(rot)  DE(clash)    DE(int)     intcor
     12.75     -14.61       3.26        0.00      44.56       2.73       1.62       0.24       ----

> <Gold.Chemscore.Fitness>
12.7467

> <Gold.Chemscore.DG>
-14.6108

> <Gold.Chemscore.ZeroCoef>
-5.4800

> <Gold.Chemscore.Hbond>
3.2616

> <Gold.Chemscore.Metal>
0.0000

> <Gold.Chemscore.Lipo>
44.5631

> <Gold.Chemscore.Internal_Hbond>
0.0000

> <Gold.Chemscore.DEClash>
1.6229

> <Gold.Chemscore.DEInternal>
0.2412

> <Gold.Chemscore.Rot>
2.7253

> <Gold.Chemscore.Internal.Correction>
   9.000000E+99

> <Gold.Chemscore.Hbonds>
donor molecule, donor type, donor heavy atom, donor atom, acceptor molecule, acceptor atom, score
      L1  H     8    28       P1 10175  1.00
      L1  H    11    31       P1 10171  0.98
      P1  H  7954  7966       L1    11  0.49
      P1  H  7997  8008       L1    17  0.92

> <Gold.Chemscore.Hbond.Weighted>
-10.8938

> <Gold.Chemscore.Metal.Weighted>
-0.0000

> <Gold.Chemscore.Lipo.Weighted>
-5.2139

> <Gold.Chemscore.Internal_Hbond.Weighted>
0.0000

> <Gold.Chemscore.DEClash.Weighted>
1.6229

> <Gold.Chemscore.DEInternal.Weighted>
0.2412

> <Gold.Chemscore.Rot.Weighted>
6.9769

> <Gold.Chemscore.Internal.Correction.Weighted>
   9.000000E+99

> <Gold.Protein.RotatedTorsions>
[ 6907 6896 6895 6894 ] final  -32.52 input  -60.11 | X-H torsion
[ 7974 7965 7964 7962 ] final  106.49 input  175.53 | X-H torsion
[ 8008 7997 7996 7995 ] final  -49.65 input   59.86 | X-H torsion
[ 10167 10162 10161 10158 ] final    0.06 input  -65.29 | X-H torsion
[ 10718 10713 10712 10709 ] final  111.23 input   66.30 | X-H torsion
[ 10763 10752 10751 10750 ] final  -38.75 input  -60.55 | X-H torsion
[ 11005 11000 10999 10996 ] final  165.76 input  -57.11 | X-H torsion

> <Gold.Protein.ActiveResidues>
 VAL166  LYS551  ARG553  GLY616  TRP617  ASP618  TYR619  PRO620  LYS621  CYS622 
 ASP623  PHE694  ASN695  SER759  ASP760  ASP761  ALA762  ILE779  LEU786  VAL792 
 PHE793  MET794  SER795  GLU796  ALA797  LYS798  CYS799  TRP800  GLU811  SER814 

> <Gold.Protein.RotatedAtoms>
  151.0777  134.9838  159.8340 H   0  0  0  0  0  0  0  0  0  0  0  0  # atno 6907 bound_to 6896
  152.5416  134.2221  159.8801 H   0  0  0  0  0  0  0  0  0  0  0  0  # atno 6908 bound_to 6896
  151.2249  133.4438  159.2635 H   0  0  0  0  0  0  0  0  0  0  0  0  # atno 6909 bound_to 6896
  145.3059  139.2555  143.3789 H   0  0  0  0  0  0  0  0  0  0  0  0  # atno 7974 bound_to 7965
  154.4048  140.1291  156.4538 H   0  0  0  0  0  0  0  0  0  0  0  0  # atno 8008 bound_to 7997
  155.7340  140.3491  155.5053 H   0  0  0  0  0  0  0  0  0  0  0  0  # atno 8009 bound_to 7997
  155.9100  140.1034  157.1276 H   0  0  0  0  0  0  0  0  0  0  0  0  # atno 8010 bound_to 7997
  140.6746  143.6953  150.7994 H   0  0  0  0  0  0  0  0  0  0  0  0  # atno 10167 bound_to 10162
  157.6455  131.0947  150.6719 H   0  0  0  0  0  0  0  0  0  0  0  0  # atno 10718 bound_to 10713
  153.9180  135.6785  153.4748 H   0  0  0  0  0  0  0  0  0  0  0  0  # atno 10763 bound_to 10752
  153.1044  135.4813  154.8921 H   0  0  0  0  0  0  0  0  0  0  0  0  # atno 10764 bound_to 10752
  154.7493  135.3180  154.8543 H   0  0  0  0  0  0  0  0  0  0  0  0  # atno 10765 bound_to 10752
  140.2594  134.7914  157.3576 H   0  0  0  0  0  0  0  0  0  0  0  0  # atno 11005 bound_to 11000
  146.3135  140.3584  142.8662 LP  0  0  0  0  0  0  0  0  0  0  0  0  # atno 17320 bound_to 7965
  144.9055  140.7694  143.5840 LP  0  0  0  0  0  0  0  0  0  0  0  0  # atno 17321 bound_to 7965
  140.0644  143.5122  152.2611 LP  0  0  0  0  0  0  0  0  0  0  0  0  # atno 17342 bound_to 10162
  139.6031  144.7588  151.3125 LP  0  0  0  0  0  0  0  0  0  0  0  0  # atno 17343 bound_to 10162
  156.7036  130.4631  149.5566 LP  0  0  0  0  0  0  0  0  0  0  0  0  # atno 17370 bound_to 10713
  156.1778  130.6479  151.0915 LP  0  0  0  0  0  0  0  0  0  0  0  0  # atno 17371 bound_to 10713
  140.1479  134.4887  155.7982 LP  0  0  0  0  0  0  0  0  0  0  0  0  # atno 17394 bound_to 11000
  141.2192  133.6851  156.7327 LP  0  0  0  0  0  0  0  0  0  0  0  0  # atno 17395 bound_to 11000

$$$$
