AV-unprocessed.smi:39|AV-procd|sdf|354|dock10
  -GOLD-   2262016193D 1   1.00000     0.00000
 Structure written by MMmdl.
 32 33  0  0  0  0  0  0  0  0  3 V2000
  150.2922  144.1873  159.4637 C   0  0  0  0  0  0  0  0  0  0  0  0
  151.1408  142.9521  159.2093 C   0  0  0  0  0  0  0  0  0  0  0  0
  150.7612  141.9727  158.3484 C   0  0  0  0  0  0  0  0  0  0  0  0
  151.5165  140.8326  158.0958 N   0  0  0  0  0  0  0  0  0  0  0  0
  151.0681  139.7433  157.1402 C   0  0  2  0  0  0  0  0  0  0  0  0
  152.0741  139.5815  155.9834 C   0  0  0  0  0  0  0  0  0  0  0  0
  151.1893  139.6555  154.7467 C   0  0  1  0  0  0  0  0  0  0  0  0
  150.6766  138.3280  154.3791 N   0  0  0  0  0  0  0  0  0  0  0  0
  151.2035  137.3558  154.9361 N   0  3  0  0  0  0  0  0  0  0  0  0
  151.7260  136.5426  155.5368 N   0  5  0  0  0  0  0  0  0  0  0  0
  150.0781  140.5859  155.2462 C   0  0  1  0  0  0  0  0  0  0  0  0
  148.7849  140.5738  154.4136 C   0  0  0  0  0  0  0  0  0  0  0  0
  149.0153  141.1782  153.1589 O   0  0  0  0  0  0  0  0  0  0  0  0
  149.8448  140.0882  156.5583 O   0  0  0  0  0  0  0  0  0  0  0  0
  152.7380  140.6531  158.7775 C   0  0  0  0  0  0  0  0  0  0  0  0
  153.4485  139.6610  158.6186 O   0  0  0  0  0  0  0  0  0  0  0  0
  153.1289  141.6589  159.6587 N   0  0  0  0  0  0  0  0  0  0  0  0
  152.4094  142.8244  159.9314 C   0  0  0  0  0  0  0  0  0  0  0  0
  152.8604  143.6433  160.7307 O   0  0  0  0  0  0  0  0  0  0  0  0
  150.9388  138.8475  157.7507 H   0  0  0  0  0  0  0  0  0  0  0  0
  151.7175  140.1141  153.9084 H   0  0  0  0  0  0  0  0  0  0  0  0
  150.4773  141.6007  155.3027 H   0  0  0  0  0  0  0  0  0  0  0  0
  154.0053  141.5334  160.1439 H   0  0  0  0  0  0  0  0  0  0  0  0
  149.3777  144.1807  158.8698 H   0  0  0  0  0  0  0  0  0  0  0  0
  150.8480  145.0907  159.2103 H   0  0  0  0  0  0  0  0  0  0  0  0
  150.0072  144.2434  160.5147 H   0  0  0  0  0  0  0  0  0  0  0  0
  149.8161  142.1045  157.8438 H   0  0  0  0  0  0  0  0  0  0  0  0
  152.7820  140.4121  155.9845 H   0  0  0  0  0  0  0  0  0  0  0  0
  152.6342  138.6501  156.0775 H   0  0  0  0  0  0  0  0  0  0  0  0
  148.4668  139.5472  154.2296 H   0  0  0  0  0  0  0  0  0  0  0  0
  147.9703  141.0794  154.9327 H   0  0  0  0  0  0  0  0  0  0  0  0
  149.0335  140.5022  152.4989 H   0  0  0  0  0  0  0  0  0  0  0  0
  1  2  1  0  0  0  0
  1 24  1  0  0  0  0
  1 25  1  0  0  0  0
  1 26  1  0  0  0  0
  2 18  1  0  0  0  0
  2  3  2  0  0  0  0
  3  4  1  0  0  0  0
  3 27  1  0  0  0  0
  4  5  1  0  0  0  0
  4 15  1  0  0  0  0
  5 20  1  0  0  0  0
  5 14  1  0  0  0  0
  5  6  1  0  0  0  0
  6  7  1  0  0  0  0
  6 28  1  0  0  0  0
  6 29  1  0  0  0  0
  7 21  1  0  0  0  0
  7  8  1  0  0  0  0
  7 11  1  0  0  0  0
  8  9  2  0  0  0  0
  9 10  2  0  0  0  0
 11 22  1  0  0  0  0
 11 12  1  0  0  0  0
 11 14  1  0  0  0  0
 12 13  1  0  0  0  0
 12 30  1  0  0  0  0
 12 31  1  0  0  0  0
 13 32  1  0  0  0  0
 15 16  2  0  0  0  0
 15 17  1  0  0  0  0
 17 23  1  0  0  0  0
 17 18  1  0  0  0  0
 18 19  2  0  0  0  0
M  CHG  1   9   1
M  CHG  1  10  -1
M  END
> <s_m_source_file>
AV-unprocessed.smi

> <i_m_source_file_index>
39

> <i_lp_mmshare_version>
43012

> <i_f3d_flags>
0

> <s_epik_input>
Tz1jMVtuSF1jKD1PKW4oW2NIXWMxW0NIM10pW0NASF0yW0NIMl1bQ0BIXShOPVtOK109W04tXSlbQ0BIXShPMilbQ0gyXVtPSF0=

> <s_epik_cmdline>
J2VwaWtfcHl0aG9uJywgJy1waCcsICc3LjAnLCAnLXRuJywgJzgnLCAnLW1hJywgJzIwMCcsICctbWV0YWxfYmluZGluZycsICctaW1hZScsICc8aW5maWxlLm1hZT4nLCAnLW9tYWUnLCAnPG91dGZpbGUubWFlPic=

> <r_lp_tautomer_probability>
0.999537

> <r_epik_Ionization_Penalty>
0.00127512

> <r_epik_Ionization_Penalty_Charging>
0.00127507

> <r_epik_Ionization_Penalty_Neutral>
5.43433e-08

> <r_epik_State_Penalty>
0.000844892

> <r_epik_Charging_Adjusted_Penalty>
0.00211996

> <i_epik_Tot_Q>
0

> <i_epik_Tot_abs_Q>
2

> <r_epik_Metal_State_Penalty>
0.680636

> <b_epik_Metal_Only>
0

> <s_epik_Chemistry_Notes>
This compound contains an acetal/aminal-like group ( X-CH(R)-Y where X, Y are N, S, or O) that may be acid/base labile, releasing an aldehyde.

> <s_lp_Force_Field>
OPLS_2005

> <r_lp_Energy>
25.8418

> <b_lp_Chiralities_Consistent>
1

> <s_lp_Variant>
AV-unprocessed.smi:39-4

> <Gold.Version>
5.8.1

> <Gold.Id.Protein>
6NUR|6NUR_protein|mol2

> <Gold.PLP.Fitness>
40.9619

> <Gold.PLP.PLP>
-29.4122

> <Gold.PLP.part.hbond>
-4.4355

> <Gold.PLP.part.metal>
0.0000

> <Gold.PLP.part.buried>
-1.4716

> <Gold.PLP.part.nonpolar>
-23.9076

> <Gold.PLP.part.repulsive>
0.5209

> <Gold.PLP.ligand.clash>
0.0000

> <Gold.PLP.ligand.torsion>
0.1177

> <Gold.PLP.Chemscore.Hbond>
3.9119

> <Gold.PLP.Chemscore.CHOScore>
0.0000

> <Gold.PLP.Chemscore.Metal>
0.0000

> <Gold.Chemscore.Hbonds>
donor molecule, donor type, donor heavy atom, donor atom, acceptor molecule, acceptor atom, score
      L1  H    13    32       P1  7957  0.92
      P1  H  7997  8008       L1    16  1.00
      P1  H  8011  8017       L1    13  1.00
      P1  H 10752 10764       L1    10  0.99

> <Gold.PLP.Chemscore.Internal.Correction>
0.0495

> <Gold.Rescore>
     Score         DG    S(hbond)    S(metal)    S(lipo)     H(rot)  DE(clash)    DE(int)     intcor
     12.50     -15.11       3.23        0.00      50.28       2.75       1.31       1.30       ----

> <Gold.Chemscore.Fitness>
12.5035

> <Gold.Chemscore.DG>
-15.1117

> <Gold.Chemscore.ZeroCoef>
-5.4800

> <Gold.Chemscore.Hbond>
3.2320

> <Gold.Chemscore.Metal>
0.0000

> <Gold.Chemscore.Lipo>
50.2818

> <Gold.Chemscore.Internal_Hbond>
0.0000

> <Gold.Chemscore.DEClash>
1.3063

> <Gold.Chemscore.DEInternal>
1.3020

> <Gold.Chemscore.Rot>
2.7524

> <Gold.Chemscore.Internal.Correction>
   9.000000E+99

> <Gold.Chemscore.Hbonds>
donor molecule, donor type, donor heavy atom, donor atom, acceptor molecule, acceptor atom, score
      L1  H    13    32       P1  7957  0.83
      P1  H  7997  8008       L1    16  0.45
      P1  H  8011  8017       L1    13  0.25
      P1  H 10752 10764       L1    10  0.73

> <Gold.Chemscore.Hbond.Weighted>
-10.7949

> <Gold.Chemscore.Metal.Weighted>
-0.0000

> <Gold.Chemscore.Lipo.Weighted>
-5.8830

> <Gold.Chemscore.Internal_Hbond.Weighted>
0.0000

> <Gold.Chemscore.DEClash.Weighted>
1.3063

> <Gold.Chemscore.DEInternal.Weighted>
1.3020

> <Gold.Chemscore.Rot.Weighted>
7.0461

> <Gold.Chemscore.Internal.Correction.Weighted>
   9.000000E+99

> <Gold.Protein.RotatedTorsions>
[ 6907 6896 6895 6894 ] final  -10.93 input  -60.11 | X-H torsion
[ 7974 7965 7964 7962 ] final  173.04 input  175.53 | X-H torsion
[ 8008 7997 7996 7995 ] final  -78.48 input   59.86 | X-H torsion
[ 10167 10162 10161 10158 ] final -134.60 input  -65.29 | X-H torsion
[ 10718 10713 10712 10709 ] final   91.87 input   66.30 | X-H torsion
[ 10763 10752 10751 10750 ] final  -67.19 input  -60.55 | X-H torsion
[ 11005 11000 10999 10996 ] final   85.60 input  -57.11 | X-H torsion

> <Gold.Protein.ActiveResidues>
 VAL166  LYS551  ARG553  GLY616  TRP617  ASP618  TYR619  PRO620  LYS621  CYS622 
 ASP623  PHE694  ASN695  SER759  ASP760  ASP761  ALA762  ILE779  LEU786  VAL792 
 PHE793  MET794  SER795  GLU796  ALA797  LYS798  CYS799  TRP800  GLU811  SER814 

> <Gold.Protein.RotatedAtoms>
  151.3942  135.0961  159.9535 H   0  0  0  0  0  0  0  0  0  0  0  0  # atno 6907 bound_to 6896
  152.5070  133.8951  159.7423 H   0  0  0  0  0  0  0  0  0  0  0  0  # atno 6908 bound_to 6896
  150.9411  133.6600  159.2819 H   0  0  0  0  0  0  0  0  0  0  0  0  # atno 6909 bound_to 6896
  144.7253  139.9589  143.6434 H   0  0  0  0  0  0  0  0  0  0  0  0  # atno 7974 bound_to 7965
  154.5694  140.0693  156.8941 H   0  0  0  0  0  0  0  0  0  0  0  0  # atno 8008 bound_to 7997
  155.2663  140.3362  155.4250 H   0  0  0  0  0  0  0  0  0  0  0  0  # atno 8009 bound_to 7997
  156.2106  140.1757  156.7689 H   0  0  0  0  0  0  0  0  0  0  0  0  # atno 8010 bound_to 7997
  139.8864  143.6776  152.2619 H   0  0  0  0  0  0  0  0  0  0  0  0  # atno 10167 bound_to 10162
  157.6959  131.0423  150.3795 H   0  0  0  0  0  0  0  0  0  0  0  0  # atno 10718 bound_to 10713
  154.3708  135.6095  153.5739 H   0  0  0  0  0  0  0  0  0  0  0  0  # atno 10763 bound_to 10752
  152.9790  135.5837  154.4524 H   0  0  0  0  0  0  0  0  0  0  0  0  # atno 10764 bound_to 10752
  154.4277  135.2847  155.1911 H   0  0  0  0  0  0  0  0  0  0  0  0  # atno 10765 bound_to 10752
  139.8967  134.8297  156.2604 H   0  0  0  0  0  0  0  0  0  0  0  0  # atno 11005 bound_to 11000
  146.0653  139.3644  143.0556 LP  0  0  0  0  0  0  0  0  0  0  0  0  # atno 17320 bound_to 7965
  145.8039  140.9758  143.0984 LP  0  0  0  0  0  0  0  0  0  0  0  0  # atno 17321 bound_to 7965
  139.7149  144.7613  151.1050 LP  0  0  0  0  0  0  0  0  0  0  0  0  # atno 17342 bound_to 10162
  140.7735  143.5282  150.9454 LP  0  0  0  0  0  0  0  0  0  0  0  0  # atno 17343 bound_to 10162
  156.4211  130.3953  149.6824 LP  0  0  0  0  0  0  0  0  0  0  0  0  # atno 17370 bound_to 10713
  156.4075  130.7705  151.2717 LP  0  0  0  0  0  0  0  0  0  0  0  0  # atno 17371 bound_to 10713
  141.0166  133.7065  156.1199 LP  0  0  0  0  0  0  0  0  0  0  0  0  # atno 17394 bound_to 11000
  140.7293  134.4272  157.5567 LP  0  0  0  0  0  0  0  0  0  0  0  0  # atno 17395 bound_to 11000

$$$$
