#       Name:                AV-unprocessed.smi:1815
#       Creating user name   scv26
#       Creation time:       Fri Mar 27 09:01:32 2020


#       File generated by GOLD software.
#

@<TRIPOS>MOLECULE
AV-unprocessed.smi:1815
    45    46     1
SMALL
NO_CHARGES


@<TRIPOS>ATOM
      1 ****        -1.6101  -0.6861   4.2833 C.3            1 S1                 0.0000
      2 ****        -1.1086   0.1312   3.0879 C.3            1 S1                 0.0000
      3 ****        -2.0088  -0.0421   1.8478 C.3            1 S1                 0.0000
      4 ****        -1.5540   0.8181   0.7280 N.4            1 S1                 1.0000
      5 ****        -0.3629   0.2854   0.0145 C.3            1 S1                 0.0000
      6 ****        -0.2393   0.8404  -1.4177 C.3            1 S1                 0.0000
      7 ****         0.9014   0.2607  -2.1184 N.am           1 S1                 0.0000
      8 ****         0.9147  -0.9551  -2.6843 C.2            1 S1                 0.0000
      9 ****        -0.0524  -1.7172  -2.6682 O.2            1 S1                 0.0000
     10 ****         2.1056  -1.2194  -3.2499 N.am           1 S1                 0.0000
     11 ****         2.5098  -2.3967  -3.9334 C.2            1 S1                 0.0000
     12 ****         1.7169  -3.4524  -4.1522 N.2            1 S1                 0.0000
     13 ****         2.3770  -4.4692  -4.8471 C.2            1 S1                 0.0000
     14 ****         3.6815  -4.1688  -5.1511 C.2            1 S1                 0.0000
     15 ****         4.1348  -2.5868  -4.5754 S.3            1 S1                 0.0000
     16 ****        -1.4359   2.2294   1.1761 C.3            1 S1                 0.0000
     17 ****        -0.5729   2.3539   2.4507 C.3            1 S1                 0.0000
     18 ****        -0.5575   3.7868   2.9945 C.3            1 S1                 0.0000
     19 ****        -1.1030   1.5045   3.4630 O.3            1 S1                 0.0000
     20 ****        -1.6339  -1.7507   4.0492 H              1 S1                 0.0000
     21 ****        -2.6165  -0.3842   4.5749 H              1 S1                 0.0000
     22 ****        -0.9592  -0.5510   5.1475 H              1 S1                 0.0000
     23 ****        -0.0895  -0.1853   2.8596 H              1 S1                 0.0000
     24 ****        -2.0485  -1.0869   1.5371 H              1 S1                 0.0000
     25 ****        -3.0325   0.2393   2.0993 H              1 S1                 0.0000
     26 ****         0.5474   0.4825   0.5806 H              1 S1                 0.0000
     27 ****        -0.4525  -0.7999  -0.0471 H              1 S1                 0.0000
     28 ****        -1.1558   0.6553  -1.9808 H              1 S1                 0.0000
     29 ****        -0.0954   1.9200  -1.4056 H              1 S1                 0.0000
     30 ****         1.7367   0.8249  -2.1787 H              1 S1                 0.0000
     31 ****         2.8085  -0.4986  -3.1783 H              1 S1                 0.0000
     32 ****         1.8411  -5.3763  -5.0848 H              1 S1                 0.0000
     33 ****         4.3999  -4.7799  -5.6770 H              1 S1                 0.0000
     34 ****        -1.0441   2.8632   0.3816 H              1 S1                 0.0000
     35 ****        -2.4416   2.5972   1.3855 H              1 S1                 0.0000
     36 ****         0.4563   2.0600   2.2410 H              1 S1                 0.0000
     37 ****        -0.1495   4.4814   2.2598 H              1 S1                 0.0000
     38 ****         0.0558   3.8564   3.8932 H              1 S1                 0.0000
     39 ****        -1.5627   4.1230   3.2506 H              1 S1                 0.0000
     40 ****        -2.2984   0.7933   0.0455 H              1 S1                 0.0000
     41 ****        -0.9007  -1.4392  -2.2175 LP             1 S1                 0.0000
     42 ****         0.0104  -2.6141  -3.1059 LP             1 S1                 0.0000
     43 ****         0.7641  -3.5071  -3.8535 LP             1 S1                 0.0000
     44 ****        -0.5482   1.6074   4.2885 LP             1 S1                 0.0000
     45 ****        -2.0429   1.7863   3.6559 LP             1 S1                 0.0000
@<TRIPOS>BOND
    1    1    2 1     
    2    1   20 1     
    3    1   21 1     
    4    1   22 1     
    5    2   19 1     
    6    2    3 1     
    7    2   23 1     
    8    3    4 1     
    9    3   24 1     
   10    3   25 1     
   11    4    5 1     
   12    4   16 1     
   13    4   40 1     
   14    5    6 1     
   15    5   26 1     
   16    5   27 1     
   17    6    7 1     
   18    6   28 1     
   19    6   29 1     
   20    7    8 am    
   21    7   30 1     
   22    8    9 2     
   23    8   10 am    
   24   10   11 1     
   25   10   31 1     
   26   11   15 1     
   27   11   12 2     
   28   12   13 1     
   29   13   14 2     
   30   13   32 1     
   31   14   15 1     
   32   14   33 1     
   33   16   17 1     
   34   16   34 1     
   35   16   35 1     
   36   17   18 1     
   37   17   19 1     
   38   17   36 1     
   39   18   37 1     
   40   18   38 1     
   41   18   39 1     
   42    9   41 1     
   43    9   42 1     
   44   12   43 1     
   45   19   44 1     
   46   19   45 1     
@<TRIPOS>SUBSTRUCTURE
      1 S1             1
@<TRIPOS>SET
LONE_PAIRS      STATIC     ATOMS    <user>   **** ""
5 41 42 43 44 45
DONOR_HYDROGENS      STATIC     ATOMS    <user>   **** ""
3 40 30 31
ATOM$BLUE        STATIC     ATOMS    COLORGROUP SYSTEM
5 41 42 43 44 45
ATOM$RED        STATIC     ATOMS    COLORGROUP SYSTEM
3 40 30 31
