AV-unprocessed.smi:2775|AV-procd|sdf|10700|dock6
  -GOLD-   2272015143D 1   1.00000     0.00000
 Structure written by MMmdl.
 43 46  0  0  0  0  0  0  0  0  2 V2000
  150.0176  135.3845  155.3192 C   0  0  0  0  0  0  0  0  0  0  0  0
  149.8833  136.8950  155.2880 C   0  0  0  0  0  0  0  0  0  0  0  0
  149.2487  137.4484  154.2307 N   0  3  0  0  0  0  0  0  0  0  0  0
  149.0745  138.7793  154.0908 C   0  0  0  0  0  0  0  0  0  0  0  0
  149.5609  139.6590  155.0774 C   0  0  0  0  0  0  0  0  0  0  0  0
  150.2202  139.1303  156.2153 C   0  0  0  0  0  0  0  0  0  0  0  0
  150.7562  139.9465  157.2472 N   0  0  0  0  0  0  0  0  0  0  0  0
  151.3431  141.1541  157.1420 C   0  0  0  0  0  0  0  0  0  0  0  0
  151.5755  141.7294  156.0811 O   0  0  0  0  0  0  0  0  0  0  0  0
  151.6193  141.7259  158.3268 N   0  0  0  0  0  0  0  0  0  0  0  0
  152.2522  143.0292  158.5584 C   0  0  2  0  0  0  0  0  0  0  0  0
  153.4345  142.9931  159.5632 C   0  0  2  0  0  0  0  0  0  0  0  0
  154.0609  141.7171  160.0755 C   0  0  0  0  0  0  0  0  0  0  0  0
  153.3987  141.5362  161.4437 C   0  0  0  0  0  0  0  0  0  0  0  0
  152.1969  142.2986  161.3688 O   0  0  0  0  0  0  0  0  0  0  0  0
  152.4833  143.4909  160.6449 C   0  0  2  0  0  0  0  0  0  0  0  0
  151.4564  143.8711  159.5701 C   0  0  0  0  0  0  0  0  0  0  0  0
  149.9468  143.7074  159.8153 C   0  0  0  0  0  0  0  0  0  0  0  0
  149.8797  145.2125  160.0881 C   0  0  0  0  0  0  0  0  0  0  0  0
  151.1826  145.3578  159.2966 C   0  0  0  0  0  0  0  0  0  0  0  0
  150.3938  137.7277  156.3116 C   0  0  0  0  0  0  0  0  0  0  0  0
  151.2118  137.0348  157.6726 Cl  0  0  0  0  0  0  0  0  0  0  0  0
  149.5625  134.9811  156.2243 H   0  0  0  0  0  0  0  0  0  0  0  0
  151.0694  135.0972  155.3046 H   0  0  0  0  0  0  0  0  0  0  0  0
  149.5285  134.9228  154.4606 H   0  0  0  0  0  0  0  0  0  0  0  0
  148.5600  139.0991  153.1961 H   0  0  0  0  0  0  0  0  0  0  0  0
  149.4306  140.7217  154.9398 H   0  0  0  0  0  0  0  0  0  0  0  0
  150.5555  139.6402  158.1883 H   0  0  0  0  0  0  0  0  0  0  0  0
  151.2990  141.2409  159.1529 H   0  0  0  0  0  0  0  0  0  0  0  0
  152.4776  143.5861  157.6472 H   0  0  0  0  0  0  0  0  0  0  0  0
  154.1661  143.7629  159.3130 H   0  0  0  0  0  0  0  0  0  0  0  0
  153.8614  140.8637  159.4304 H   0  0  0  0  0  0  0  0  0  0  0  0
  155.1438  141.8002  160.1720 H   0  0  0  0  0  0  0  0  0  0  0  0
  153.1956  140.4911  161.6778 H   0  0  0  0  0  0  0  0  0  0  0  0
  154.0307  141.9474  162.2323 H   0  0  0  0  0  0  0  0  0  0  0  0
  152.8802  144.3040  161.2543 H   0  0  0  0  0  0  0  0  0  0  0  0
  149.3979  143.4225  158.9165 H   0  0  0  0  0  0  0  0  0  0  0  0
  149.6818  143.0784  160.6656 H   0  0  0  0  0  0  0  0  0  0  0  0
  149.0189  145.7183  159.6501 H   0  0  0  0  0  0  0  0  0  0  0  0
  149.9991  145.4554  161.1451 H   0  0  0  0  0  0  0  0  0  0  0  0
  151.9055  146.0491  159.7308 H   0  0  0  0  0  0  0  0  0  0  0  0
  151.0091  145.5684  158.2401 H   0  0  0  0  0  0  0  0  0  0  0  0
  148.8890  136.8315  153.5018 H   0  0  0  0  0  0  0  0  0  0  0  0
  1  2  1  0  0  0  0
  1 23  1  0  0  0  0
  1 24  1  0  0  0  0
  1 25  1  0  0  0  0
  2 21  1  0  0  0  0
  2  3  2  0  0  0  0
  3  4  1  0  0  0  0
  3 43  1  0  0  0  0
  4  5  2  0  0  0  0
  4 26  1  0  0  0  0
  5  6  1  0  0  0  0
  5 27  1  0  0  0  0
  6  7  1  0  0  0  0
  6 21  2  0  0  0  0
  7  8  1  0  0  0  0
  7 28  1  0  0  0  0
  8  9  2  0  0  0  0
  8 10  1  0  0  0  0
 10 11  1  0  0  0  0
 10 29  1  0  0  0  0
 11 17  1  0  0  0  0
 11 12  1  0  0  0  0
 11 30  1  0  0  0  0
 12 16  1  0  0  0  0
 12 13  1  0  0  0  0
 12 31  1  0  0  0  0
 13 14  1  0  0  0  0
 13 32  1  0  0  0  0
 13 33  1  0  0  0  0
 14 15  1  0  0  0  0
 14 34  1  0  0  0  0
 14 35  1  0  0  0  0
 15 16  1  0  0  0  0
 16 17  1  0  0  0  0
 16 36  1  0  0  0  0
 17 20  1  0  0  0  0
 17 18  1  0  0  0  0
 18 19  1  0  0  0  0
 18 37  1  0  0  0  0
 18 38  1  0  0  0  0
 19 20  1  0  0  0  0
 19 39  1  0  0  0  0
 19 40  1  0  0  0  0
 20 41  1  0  0  0  0
 20 42  1  0  0  0  0
 21 22  1  0  0  0  0
M  CHG  1   3   1
M  END
> <s_m_source_file>
AV-unprocessed.smi

> <i_m_source_file_index>
2775

> <i_lp_mmshare_version>
43012

> <i_f3d_flags>
0

> <s_epik_input>
W0NIM11jMW5bY0hdW2NIXWMoYzFDbClbTkhdQyg9TylbTkhdW0NAQEhdMltDQEhdKFtDSDJdW0NIMl1PMylbQ0BASF0zQzI0W0NIMl1bQ0gyXVtDSDJdNA==

> <s_epik_cmdline>
J2VwaWtfcHl0aG9uJywgJy1waCcsICc3LjAnLCAnLXRuJywgJzgnLCAnLW1hJywgJzIwMCcsICctbWV0YWxfYmluZGluZycsICctaW1hZScsICc8aW5maWxlLm1hZT4nLCAnLW9tYWUnLCAnPG91dGZpbGUubWFlPic=

> <r_epik_Ionization_Penalty>
2.4104

> <r_epik_Ionization_Penalty_Charging>
2.41038

> <r_epik_Ionization_Penalty_Neutral>
1.9872e-05

> <r_epik_State_Penalty>
2.56896

> <r_epik_Charging_Adjusted_Penalty>
4.97934

> <i_epik_Tot_Q>
1

> <i_epik_Tot_abs_Q>
1

> <r_epik_Metal_State_Penalty>
2.57906

> <b_epik_Metal_Only>
0

> <s_lp_Force_Field>
OPLS_2005

> <r_lp_Energy>
62.9708

> <b_lp_Chiralities_Consistent>
1

> <s_lp_Variant>
AV-unprocessed.smi:2775-13

> <Gold.Version>
5.8.1

> <Gold.Id.Protein>
6NUR|6NUR_protein|mol2

> <Gold.PLP.Fitness>
39.5727

> <Gold.PLP.PLP>
-33.8730

> <Gold.PLP.part.hbond>
-1.9233

> <Gold.PLP.part.metal>
0.0000

> <Gold.PLP.part.buried>
0.4015

> <Gold.PLP.part.nonpolar>
-33.4437

> <Gold.PLP.part.repulsive>
0.2138

> <Gold.PLP.ligand.clash>
0.0000

> <Gold.PLP.ligand.torsion>
0.3700

> <Gold.PLP.Chemscore.Hbond>
2.0776

> <Gold.PLP.Chemscore.CHOScore>
0.0000

> <Gold.PLP.Chemscore.Metal>
0.0000

> <Gold.Chemscore.Hbonds>
donor molecule, donor type, donor heavy atom, donor atom, acceptor molecule, acceptor atom, score
      L1  H     3    43       P1  7948  1.95
      P1  H  6933  6945       L1    15  0.08

> <Gold.PLP.Chemscore.Internal.Correction>
0.2068

> <Gold.Rescore>
     Score         DG    S(hbond)    S(metal)    S(lipo)     H(rot)  DE(clash)    DE(int)     intcor
     19.20     -21.63       1.50        0.00     117.13       1.00       1.13       1.31       ----

> <Gold.Chemscore.Fitness>
19.1978

> <Gold.Chemscore.DG>
-21.6321

> <Gold.Chemscore.ZeroCoef>
-5.4800

> <Gold.Chemscore.Hbond>
1.4993

> <Gold.Chemscore.Metal>
0.0000

> <Gold.Chemscore.Lipo>
117.1335

> <Gold.Chemscore.Internal_Hbond>
0.0000

> <Gold.Chemscore.DEClash>
1.1253

> <Gold.Chemscore.DEInternal>
1.3090

> <Gold.Chemscore.Rot>
1.0000

> <Gold.Chemscore.Internal.Correction>
   9.000000E+99

> <Gold.Chemscore.Hbonds>
donor molecule, donor type, donor heavy atom, donor atom, acceptor molecule, acceptor atom, score
      L1  H     3    43       P1  7948  0.93
      P1  H  6933  6945       L1    15  0.10

> <Gold.Chemscore.Hbond.Weighted>
-5.0075

> <Gold.Chemscore.Metal.Weighted>
-0.0000

> <Gold.Chemscore.Lipo.Weighted>
-13.7046

> <Gold.Chemscore.Internal_Hbond.Weighted>
0.0000

> <Gold.Chemscore.DEClash.Weighted>
1.1253

> <Gold.Chemscore.DEInternal.Weighted>
1.3090

> <Gold.Chemscore.Rot.Weighted>
2.5600

> <Gold.Chemscore.Internal.Correction.Weighted>
   9.000000E+99

> <Gold.Protein.RotatedTorsions>
[ 6907 6896 6895 6894 ] final  174.84 input  -60.11 | X-H torsion
[ 7974 7965 7964 7962 ] final   13.49 input  175.53 | X-H torsion
[ 8008 7997 7996 7995 ] final -146.31 input   59.86 | X-H torsion
[ 10167 10162 10161 10158 ] final  -91.58 input  -65.29 | X-H torsion
[ 10718 10713 10712 10709 ] final  151.96 input   66.30 | X-H torsion
[ 10763 10752 10751 10750 ] final -107.08 input  -60.55 | X-H torsion
[ 11005 11000 10999 10996 ] final  114.16 input  -57.11 | X-H torsion

> <Gold.Protein.ActiveResidues>
 VAL166  LYS551  ARG553  GLY616  TRP617  ASP618  TYR619  PRO620  LYS621  CYS622 
 ASP623  PHE694  ASN695  SER759  ASP760  ASP761  ALA762  ILE779  LEU786  VAL792 
 PHE793  MET794  SER795  GLU796  ALA797  LYS798  CYS799  TRP800  GLU811  SER814 

> <Gold.Protein.RotatedAtoms>
  151.7458  133.3324  159.3377 H   0  0  0  0  0  0  0  0  0  0  0  0  # atno 6907 bound_to 6896
  150.7555  134.6237  159.6159 H   0  0  0  0  0  0  0  0  0  0  0  0  # atno 6908 bound_to 6896
  152.3501  134.7019  160.0290 H   0  0  0  0  0  0  0  0  0  0  0  0  # atno 6909 bound_to 6896
  146.2328  139.9181  142.8514 H   0  0  0  0  0  0  0  0  0  0  0  0  # atno 7974 bound_to 7965
  155.5573  140.0622  157.2836 H   0  0  0  0  0  0  0  0  0  0  0  0  # atno 8008 bound_to 7997
  154.4401  140.1892  156.0792 H   0  0  0  0  0  0  0  0  0  0  0  0  # atno 8009 bound_to 7997
  156.0472  140.3288  155.7314 H   0  0  0  0  0  0  0  0  0  0  0  0  # atno 8010 bound_to 7997
  140.3434  143.2930  151.9809 H   0  0  0  0  0  0  0  0  0  0  0  0  # atno 10167 bound_to 10162
  157.2639  131.0803  151.1646 H   0  0  0  0  0  0  0  0  0  0  0  0  # atno 10718 bound_to 10713
  154.8053  135.4688  154.0376 H   0  0  0  0  0  0  0  0  0  0  0  0  # atno 10763 bound_to 10752
  153.1850  135.6846  153.8434 H   0  0  0  0  0  0  0  0  0  0  0  0  # atno 10764 bound_to 10752
  153.7972  135.3235  155.3363 H   0  0  0  0  0  0  0  0  0  0  0  0  # atno 10765 bound_to 10752
  139.8973  134.9563  156.6849 H   0  0  0  0  0  0  0  0  0  0  0  0  # atno 11005 bound_to 11000
  145.2164  140.9917  143.4071 LP  0  0  0  0  0  0  0  0  0  0  0  0  # atno 17320 bound_to 7965
  144.9648  139.3942  143.6338 LP  0  0  0  0  0  0  0  0  0  0  0  0  # atno 17321 bound_to 7965
  139.4837  144.6137  151.7386 LP  0  0  0  0  0  0  0  0  0  0  0  0  # atno 17342 bound_to 10162
  140.5287  144.0764  150.6046 LP  0  0  0  0  0  0  0  0  0  0  0  0  # atno 17343 bound_to 10162
  157.3145  130.6906  149.6234 LP  0  0  0  0  0  0  0  0  0  0  0  0  # atno 17370 bound_to 10713
  155.9663  130.4353  150.5088 LP  0  0  0  0  0  0  0  0  0  0  0  0  # atno 17371 bound_to 10713
  140.7270  133.9092  155.8185 LP  0  0  0  0  0  0  0  0  0  0  0  0  # atno 17394 bound_to 11000
  141.0183  134.0924  157.4148 LP  0  0  0  0  0  0  0  0  0  0  0  0  # atno 17395 bound_to 11000

$$$$
