AV-unprocessed.smi:3329|AV-procd|sdf|12797|dock7
  -GOLD-   2272019153D 1   1.00000     0.00000
 Structure written by MMmdl.
 41 42  0  0  0  0  0  0  0  0  1 V2000
  152.2844  144.9438  159.0949 C   0  0  0  0  0  0  0  0  0  0  0  0
  151.6277  143.6240  158.8091 C   0  0  0  0  0  0  0  0  0  0  0  0
  150.3146  143.3888  158.3105 C   0  0  0  0  0  0  0  0  0  0  0  0
  150.0414  142.1020  158.1665 N   0  0  0  0  0  0  0  0  0  0  0  0
  151.1657  141.4727  158.5686 N   0  0  0  0  0  0  0  0  0  0  0  0
  151.2306  140.0248  158.5412 C   0  0  0  0  0  0  0  0  0  0  0  0
  149.9702  139.4137  157.9119 C   0  0  0  0  0  0  0  0  0  0  0  0
  149.3095  138.5608  158.8875 N   0  0  0  0  0  0  0  0  0  0  0  0
  149.5052  137.1466  158.5571 C   0  0  0  0  0  0  0  0  0  0  0  0
  148.7869  136.2417  159.5558 C   0  0  0  0  0  0  0  0  0  0  0  0
  148.8633  135.0196  159.4376 O   0  0  0  0  0  0  0  0  0  0  0  0
  148.1059  136.8593  160.5362 N   0  0  0  0  0  0  0  0  0  0  0  0
  147.3448  136.2506  161.6306 C   0  0  1  0  0  0  0  0  0  0  0  0
  148.1967  136.2551  162.9158 C   0  0  0  0  0  0  0  0  0  0  0  0
  146.1702  137.1084  161.8745 C   0  0  0  0  0  0  0  0  0  0  0  0
  145.2500  137.7831  162.0688 N   0  0  0  0  0  0  0  0  0  0  0  0
  146.8787  134.8219  161.3281 C   0  0  0  0  0  0  0  0  0  0  0  0
  146.4880  133.8417  162.4113 C   0  0  0  0  0  0  0  0  0  0  0  0
  147.7450  133.6123  161.6009 C   0  0  0  0  0  0  0  0  0  0  0  0
  152.1385  142.3662  158.9626 C   0  0  0  0  0  0  0  0  0  0  0  0
  151.7070  145.7789  158.6977 H   0  0  0  0  0  0  0  0  0  0  0  0
  153.2790  145.0030  158.6524 H   0  0  0  0  0  0  0  0  0  0  0  0
  152.3978  145.1121  160.1659 H   0  0  0  0  0  0  0  0  0  0  0  0
  149.5563  144.1122  158.0488 H   0  0  0  0  0  0  0  0  0  0  0  0
  152.1177  139.7306  157.9784 H   0  0  0  0  0  0  0  0  0  0  0  0
  151.3676  139.6620  159.5612 H   0  0  0  0  0  0  0  0  0  0  0  0
  149.2896  140.2037  157.5902 H   0  0  0  0  0  0  0  0  0  0  0  0
  150.2385  138.8305  157.0296 H   0  0  0  0  0  0  0  0  0  0  0  0
  148.3284  138.7985  158.9243 H   0  0  0  0  0  0  0  0  0  0  0  0
  149.1458  136.9493  157.5454 H   0  0  0  0  0  0  0  0  0  0  0  0
  150.5690  136.9046  158.5743 H   0  0  0  0  0  0  0  0  0  0  0  0
  148.1170  137.8691  160.5266 H   0  0  0  0  0  0  0  0  0  0  0  0
  147.6170  135.9031  163.7697 H   0  0  0  0  0  0  0  0  0  0  0  0
  148.5497  137.2591  163.1543 H   0  0  0  0  0  0  0  0  0  0  0  0
  149.0701  135.6079  162.8320 H   0  0  0  0  0  0  0  0  0  0  0  0
  146.2977  134.7479  160.4113 H   0  0  0  0  0  0  0  0  0  0  0  0
  146.6067  134.1437  163.4497 H   0  0  0  0  0  0  0  0  0  0  0  0
  145.6377  133.1923  162.2133 H   0  0  0  0  0  0  0  0  0  0  0  0
  147.7291  132.8119  160.8640 H   0  0  0  0  0  0  0  0  0  0  0  0
  148.6999  133.7604  162.1008 H   0  0  0  0  0  0  0  0  0  0  0  0
  153.1048  142.0363  159.3143 H   0  0  0  0  0  0  0  0  0  0  0  0
  1  2  1  0  0  0  0
  1 21  1  0  0  0  0
  1 22  1  0  0  0  0
  1 23  1  0  0  0  0
  2 20  2  0  0  0  0
  2  3  1  0  0  0  0
  3  4  2  0  0  0  0
  3 24  1  0  0  0  0
  4  5  1  0  0  0  0
  5  6  1  0  0  0  0
  5 20  1  0  0  0  0
  6  7  1  0  0  0  0
  6 25  1  0  0  0  0
  6 26  1  0  0  0  0
  7  8  1  0  0  0  0
  7 27  1  0  0  0  0
  7 28  1  0  0  0  0
  8  9  1  0  0  0  0
  8 29  1  0  0  0  0
  9 10  1  0  0  0  0
  9 30  1  0  0  0  0
  9 31  1  0  0  0  0
 10 11  2  0  0  0  0
 10 12  1  0  0  0  0
 12 13  1  0  0  0  0
 12 32  1  0  0  0  0
 13 14  1  0  0  0  0
 13 15  1  0  0  0  0
 13 17  1  0  0  0  0
 14 33  1  0  0  0  0
 14 34  1  0  0  0  0
 14 35  1  0  0  0  0
 15 16  3  0  0  0  0
 17 19  1  0  0  0  0
 17 18  1  0  0  0  0
 17 36  1  0  0  0  0
 18 19  1  0  0  0  0
 18 37  1  0  0  0  0
 18 38  1  0  0  0  0
 19 39  1  0  0  0  0
 19 40  1  0  0  0  0
 20 41  1  0  0  0  0
M  END
> <s_m_source_file>
AV-unprocessed.smi

> <i_m_source_file_index>
3329

> <i_lp_mmshare_version>
43012

> <i_f3d_flags>
0

> <s_epik_input>
W0NIM11jMVtjSF1ubihbY0hdMSlbQ0gyXVtDSDJdW05IXVtDSDJdQyg9TylbTkhdW0NAQF0oW0NIM10pKEMjTilbQ0hdMltDSDJdW0NIMl0y

> <s_epik_cmdline>
J2VwaWtfcHl0aG9uJywgJy1waCcsICc3LjAnLCAnLXRuJywgJzgnLCAnLW1hJywgJzIwMCcsICctbWV0YWxfYmluZGluZycsICctaW1hZScsICc8aW5maWxlLm1hZT4nLCAnLW9tYWUnLCAnPG91dGZpbGUubWFlPic=

> <r_lp_tautomer_probability>
1

> <r_epik_Ionization_Penalty>
0.481866

> <r_epik_Ionization_Penalty_Charging>
0

> <r_epik_Ionization_Penalty_Neutral>
0.481866

> <r_epik_State_Penalty>
0.48398

> <r_epik_Charging_Adjusted_Penalty>
0.48398

> <i_epik_Tot_Q>
0

> <i_epik_Tot_abs_Q>
0

> <r_epik_Metal_State_Penalty>
0.5042

> <b_epik_Metal_Only>
0

> <s_lp_Force_Field>
OPLS_2005

> <r_lp_Energy>
12.8497

> <b_lp_Chiralities_Consistent>
1

> <s_lp_Variant>
AV-unprocessed.smi:3329-3

> <Gold.Version>
5.8.1

> <Gold.Id.Protein>
6NUR|6NUR_protein|mol2

> <Gold.PLP.Fitness>
42.6445

> <Gold.PLP.PLP>
-38.6033

> <Gold.PLP.part.hbond>
-2.3604

> <Gold.PLP.part.metal>
0.0000

> <Gold.PLP.part.buried>
-4.1774

> <Gold.PLP.part.nonpolar>
-32.5219

> <Gold.PLP.part.repulsive>
0.5016

> <Gold.PLP.ligand.clash>
0.0703

> <Gold.PLP.ligand.torsion>
1.9691

> <Gold.PLP.Chemscore.Hbond>
1.0000

> <Gold.PLP.Chemscore.CHOScore>
1.1420

> <Gold.PLP.Chemscore.Metal>
0.0000

> <Gold.Chemscore.Hbonds>
donor molecule, donor type, donor heavy atom, donor atom, acceptor molecule, acceptor atom, score
      P1  H  6896  6909       L1    11  1.00
      L1  C     3    24       P1  8028  0.63
      L1  C     3    24       P1  8029  0.48

> <Gold.PLP.Chemscore.Internal.Correction>
1.6238

> <Gold.Rescore>
     Score         DG    S(hbond)    S(metal)    S(lipo)     H(rot)  DE(clash)    DE(int)     intcor
     11.10     -14.42       0.92        0.00     100.86       2.31       0.16       3.16       ----

> <Gold.Chemscore.Fitness>
11.1001

> <Gold.Chemscore.DG>
-14.4228

> <Gold.Chemscore.ZeroCoef>
-5.4800

> <Gold.Chemscore.Hbond>
0.9173

> <Gold.Chemscore.Metal>
0.0000

> <Gold.Chemscore.Lipo>
100.8566

> <Gold.Chemscore.Internal_Hbond>
0.0000

> <Gold.Chemscore.DEClash>
0.1609

> <Gold.Chemscore.DEInternal>
3.1618

> <Gold.Chemscore.Rot>
2.3129

> <Gold.Chemscore.Internal.Correction>
   9.000000E+99

> <Gold.Chemscore.Hbonds>
donor molecule, donor type, donor heavy atom, donor atom, acceptor molecule, acceptor atom, score
      P1  H  6896  6909       L1    11  0.60

> <Gold.Chemscore.Hbond.Weighted>
-3.0638

> <Gold.Chemscore.Metal.Weighted>
-0.0000

> <Gold.Chemscore.Lipo.Weighted>
-11.8002

> <Gold.Chemscore.Internal_Hbond.Weighted>
0.0000

> <Gold.Chemscore.DEClash.Weighted>
0.1609

> <Gold.Chemscore.DEInternal.Weighted>
3.1618

> <Gold.Chemscore.Rot.Weighted>
5.9211

> <Gold.Chemscore.Internal.Correction.Weighted>
   9.000000E+99

> <Gold.Protein.RotatedTorsions>
[ 6907 6896 6895 6894 ] final   50.89 input  -60.11 | X-H torsion
[ 7974 7965 7964 7962 ] final -125.96 input  175.53 | X-H torsion
[ 8008 7997 7996 7995 ] final   -4.44 input   59.86 | X-H torsion
[ 10167 10162 10161 10158 ] final -143.86 input  -65.29 | X-H torsion
[ 10718 10713 10712 10709 ] final   -4.81 input   66.30 | X-H torsion
[ 10763 10752 10751 10750 ] final  -69.50 input  -60.55 | X-H torsion
[ 11005 11000 10999 10996 ] final   72.31 input  -57.11 | X-H torsion

> <Gold.Protein.ActiveResidues>
 VAL166  LYS551  ARG553  GLY616  TRP617  ASP618  TYR619  PRO620  LYS621  CYS622 
 ASP623  PHE694  ASN695  SER759  ASP760  ASP761  ALA762  ILE779  LEU786  VAL792 
 PHE793  MET794  SER795  GLU796  ALA797  LYS798  CYS799  TRP800  GLU811  SER814 

> <Gold.Protein.RotatedAtoms>
  152.3067  134.7547  160.0345 H   0  0  0  0  0  0  0  0  0  0  0  0  # atno 6907 bound_to 6896
  151.8041  133.3368  159.3544 H   0  0  0  0  0  0  0  0  0  0  0  0  # atno 6908 bound_to 6896
  150.7300  134.5655  159.5908 H   0  0  0  0  0  0  0  0  0  0  0  0  # atno 6909 bound_to 6896
  144.9921  140.7742  143.4547 H   0  0  0  0  0  0  0  0  0  0  0  0  # atno 7974 bound_to 7965
  154.6143  140.2484  155.7629 H   0  0  0  0  0  0  0  0  0  0  0  0  # atno 8008 bound_to 7997
  156.2389  140.2940  156.0339 H   0  0  0  0  0  0  0  0  0  0  0  0  # atno 8009 bound_to 7997
  155.2001  140.0394  157.2906 H   0  0  0  0  0  0  0  0  0  0  0  0  # atno 8010 bound_to 7997
  139.7953  143.7909  152.2654 H   0  0  0  0  0  0  0  0  0  0  0  0  # atno 10167 bound_to 10162
  156.7557  130.5254  149.5795 H   0  0  0  0  0  0  0  0  0  0  0  0  # atno 10718 bound_to 10713
  154.4043  135.6023  153.5915 H   0  0  0  0  0  0  0  0  0  0  0  0  # atno 10763 bound_to 10752
  152.9789  135.5914  154.4146 H   0  0  0  0  0  0  0  0  0  0  0  0  # atno 10764 bound_to 10752
  154.3949  135.2842  155.2110 H   0  0  0  0  0  0  0  0  0  0  0  0  # atno 10765 bound_to 10752
  139.9497  134.7248  156.0891 H   0  0  0  0  0  0  0  0  0  0  0  0  # atno 11005 bound_to 11000
  145.2270  139.2132  143.5063 LP  0  0  0  0  0  0  0  0  0  0  0  0  # atno 17320 bound_to 7965
  146.3434  140.2140  142.8590 LP  0  0  0  0  0  0  0  0  0  0  0  0  # atno 17321 bound_to 7965
  139.8012  144.7373  150.9822 LP  0  0  0  0  0  0  0  0  0  0  0  0  # atno 17342 bound_to 10162
  140.7820  143.4343  151.0647 LP  0  0  0  0  0  0  0  0  0  0  0  0  # atno 17343 bound_to 10162
  156.1372  130.6219  151.0416 LP  0  0  0  0  0  0  0  0  0  0  0  0  # atno 17370 bound_to 10713
  157.6757  131.0851  150.7500 LP  0  0  0  0  0  0  0  0  0  0  0  0  # atno 17371 bound_to 10713
  141.1157  133.6628  156.3089 LP  0  0  0  0  0  0  0  0  0  0  0  0  # atno 17394 bound_to 11000
  140.5748  134.5805  157.5466 LP  0  0  0  0  0  0  0  0  0  0  0  0  # atno 17395 bound_to 11000

$$$$
