AV-unprocessed.smi:3058|AV-procd|sdf|11676|dock9
  -GOLD-   2272017 83D 1   1.00000     0.00000
 Structure written by MMmdl.
 39 41  0  0  0  0  0  0  0  0  2 V2000
  152.8933  139.9675  157.9761 O   0  0  0  0  0  0  0  0  0  0  0  0
  152.0837  140.8462  157.6778 C   0  0  0  0  0  0  0  0  0  0  0  0
  151.5418  140.9550  156.4538 N   0  0  0  0  0  0  0  0  0  0  0  0
  151.7789  140.0434  155.3361 C   0  0  0  0  0  0  0  0  0  0  0  0
  150.5999  139.0757  155.1088 C   0  0  0  0  0  0  0  0  0  0  0  0
  149.3765  139.7372  154.4966 C   0  0  0  0  0  0  0  0  0  0  0  0
  149.1709  141.1295  154.6214 C   0  0  0  0  0  0  0  0  0  0  0  0
  148.0060  141.7085  154.0773 C   0  0  0  0  0  0  0  0  0  0  0  0
  147.0731  140.8826  153.4176 C   0  0  0  0  0  0  0  0  0  0  0  0
  147.3053  139.5557  153.3134 N   0  3  0  0  0  0  0  0  0  0  0  0
  148.4088  138.9631  153.8202 C   0  0  0  0  0  0  0  0  0  0  0  0
  151.6095  141.8697  158.7236 C   0  0  1  0  0  0  0  0  0  0  0  0
  152.3161  141.7052  160.0925 C   0  0  0  0  0  0  0  0  0  0  0  0
  152.9013  143.1062  160.3586 C   0  0  2  0  0  0  0  0  0  0  0  0
  151.7539  144.0977  160.6317 C   0  0  0  0  0  0  0  0  0  0  0  0
  151.1219  144.2788  159.2376 C   0  0  0  0  0  0  0  0  0  0  0  0
  151.9659  143.3338  158.3604 C   0  0  1  0  0  0  0  0  0  0  0  0
  153.3547  143.5304  158.9686 C   0  0  0  0  0  0  0  0  0  0  0  0
  150.8916  141.7110  156.2922 H   0  0  0  0  0  0  0  0  0  0  0  0
  151.9389  140.6395  154.4376 H   0  0  0  0  0  0  0  0  0  0  0  0
  152.7010  139.4805  155.4912 H   0  0  0  0  0  0  0  0  0  0  0  0
  150.9203  138.2548  154.4658 H   0  0  0  0  0  0  0  0  0  0  0  0
  150.3131  138.6208  156.0576 H   0  0  0  0  0  0  0  0  0  0  0  0
  149.8898  141.7469  155.1402 H   0  0  0  0  0  0  0  0  0  0  0  0
  147.8283  142.7700  154.1696 H   0  0  0  0  0  0  0  0  0  0  0  0
  146.1547  141.2402  152.9750 H   0  0  0  0  0  0  0  0  0  0  0  0
  148.4752  137.8935  153.6846 H   0  0  0  0  0  0  0  0  0  0  0  0
  150.5292  141.7691  158.8436 H   0  0  0  0  0  0  0  0  0  0  0  0
  151.6227  141.3979  160.8762 H   0  0  0  0  0  0  0  0  0  0  0  0
  153.1155  140.9626  160.0597 H   0  0  0  0  0  0  0  0  0  0  0  0
  153.6805  143.1180  161.1213 H   0  0  0  0  0  0  0  0  0  0  0  0
  151.0434  143.7144  161.3653 H   0  0  0  0  0  0  0  0  0  0  0  0
  152.1394  145.0479  161.0034 H   0  0  0  0  0  0  0  0  0  0  0  0
  150.0602  144.0299  159.2234 H   0  0  0  0  0  0  0  0  0  0  0  0
  151.2253  145.3117  158.9028 H   0  0  0  0  0  0  0  0  0  0  0  0
  151.9002  143.5587  157.2950 H   0  0  0  0  0  0  0  0  0  0  0  0
  153.7026  144.5643  158.9252 H   0  0  0  0  0  0  0  0  0  0  0  0
  154.1264  142.8844  158.5498 H   0  0  0  0  0  0  0  0  0  0  0  0
  146.6153  138.9752  152.8360 H   0  0  0  0  0  0  0  0  0  0  0  0
  1  2  2  0  0  0  0
  2  3  1  0  0  0  0
  2 12  1  0  0  0  0
  3  4  1  0  0  0  0
  3 19  1  0  0  0  0
  4  5  1  0  0  0  0
  4 20  1  0  0  0  0
  4 21  1  0  0  0  0
  5  6  1  0  0  0  0
  5 22  1  0  0  0  0
  5 23  1  0  0  0  0
  6 11  1  0  0  0  0
  6  7  2  0  0  0  0
  7  8  1  0  0  0  0
  7 24  1  0  0  0  0
  8  9  2  0  0  0  0
  8 25  1  0  0  0  0
  9 10  1  0  0  0  0
  9 26  1  0  0  0  0
 10 11  2  0  0  0  0
 10 39  1  0  0  0  0
 11 27  1  0  0  0  0
 12 17  1  0  0  0  0
 12 13  1  0  0  0  0
 12 28  1  0  0  0  0
 13 14  1  0  0  0  0
 13 29  1  0  0  0  0
 13 30  1  0  0  0  0
 14 18  1  0  0  0  0
 14 15  1  0  0  0  0
 14 31  1  0  0  0  0
 15 16  1  0  0  0  0
 15 32  1  0  0  0  0
 15 33  1  0  0  0  0
 16 17  1  0  0  0  0
 16 34  1  0  0  0  0
 16 35  1  0  0  0  0
 17 18  1  0  0  0  0
 17 36  1  0  0  0  0
 18 37  1  0  0  0  0
 18 38  1  0  0  0  0
M  CHG  1  10   1
M  END
> <s_m_source_file>
AV-unprocessed.smi

> <i_m_source_file_index>
3058

> <i_lp_mmshare_version>
43012

> <i_f3d_flags>
0

> <s_epik_input>
W0NIMl0xW0NIMl1bQ0BIXShbQ0gyXTIpW0NAQEhdKFtDSDJdW0NAQEhdMTIpQyg9TylbTkhdW0NIMl1bQ0gyXWMzW2NIXVtjSF1bY0hdbltjSF0z

> <s_epik_cmdline>
J2VwaWtfcHl0aG9uJywgJy1waCcsICc3LjAnLCAnLXRuJywgJzgnLCAnLW1hJywgJzIwMCcsICctbWV0YWxfYmluZGluZycsICctaW1hZScsICc8aW5maWxlLm1hZT4nLCAnLW9tYWUnLCAnPG91dGZpbGUubWFlPic=

> <r_epik_Ionization_Penalty>
2.24375

> <r_epik_Ionization_Penalty_Charging>
2.24375

> <r_epik_Ionization_Penalty_Neutral>
1.89995e-08

> <r_epik_State_Penalty>
2.39035

> <r_epik_Charging_Adjusted_Penalty>
4.63411

> <i_epik_Tot_Q>
1

> <i_epik_Tot_abs_Q>
1

> <r_epik_Metal_State_Penalty>
2.40369

> <b_epik_Metal_Only>
0

> <s_lp_Force_Field>
OPLS_2005

> <r_lp_Energy>
53.8629

> <b_lp_Chiralities_Consistent>
1

> <s_lp_Variant>
AV-unprocessed.smi:3058-8

> <Gold.Version>
5.8.1

> <Gold.Id.Protein>
6NUR|6NUR_protein|mol2

> <Gold.PLP.Fitness>
43.9276

> <Gold.PLP.PLP>
-41.8609

> <Gold.PLP.part.hbond>
-1.6571

> <Gold.PLP.part.metal>
0.0000

> <Gold.PLP.part.buried>
-1.3392

> <Gold.PLP.part.nonpolar>
-38.5600

> <Gold.PLP.part.repulsive>
0.1559

> <Gold.PLP.ligand.clash>
0.0000

> <Gold.PLP.ligand.torsion>
0.4834

> <Gold.PLP.Chemscore.Hbond>
1.0000

> <Gold.PLP.Chemscore.CHOScore>
0.0000

> <Gold.PLP.Chemscore.Metal>
0.0000

> <Gold.Chemscore.Hbonds>
donor molecule, donor type, donor heavy atom, donor atom, acceptor molecule, acceptor atom, score
      P1  H  7997  8008       L1     1  1.00

> <Gold.PLP.Chemscore.Internal.Correction>
0.0336

> <Gold.Rescore>
     Score         DG    S(hbond)    S(metal)    S(lipo)     H(rot)  DE(clash)    DE(int)     intcor
     18.41     -19.73       0.88        0.00     128.56       1.45       0.28       1.04       ----

> <Gold.Chemscore.Fitness>
18.4100

> <Gold.Chemscore.DG>
-19.7313

> <Gold.Chemscore.ZeroCoef>
-5.4800

> <Gold.Chemscore.Hbond>
0.8783

> <Gold.Chemscore.Metal>
0.0000

> <Gold.Chemscore.Lipo>
128.5644

> <Gold.Chemscore.Internal_Hbond>
0.0000

> <Gold.Chemscore.DEClash>
0.2836

> <Gold.Chemscore.DEInternal>
1.0378

> <Gold.Chemscore.Rot>
1.4548

> <Gold.Chemscore.Internal.Correction>
   9.000000E+99

> <Gold.Chemscore.Hbonds>
donor molecule, donor type, donor heavy atom, donor atom, acceptor molecule, acceptor atom, score
      P1  H  7997  8008       L1     1  0.86

> <Gold.Chemscore.Hbond.Weighted>
-2.9335

> <Gold.Chemscore.Metal.Weighted>
-0.0000

> <Gold.Chemscore.Lipo.Weighted>
-15.0420

> <Gold.Chemscore.Internal_Hbond.Weighted>
0.0000

> <Gold.Chemscore.DEClash.Weighted>
0.2836

> <Gold.Chemscore.DEInternal.Weighted>
1.0378

> <Gold.Chemscore.Rot.Weighted>
3.7242

> <Gold.Chemscore.Internal.Correction.Weighted>
   9.000000E+99

> <Gold.Protein.RotatedTorsions>
[ 6907 6896 6895 6894 ] final -107.77 input  -60.11 | X-H torsion
[ 7974 7965 7964 7962 ] final  119.90 input  175.53 | X-H torsion
[ 8008 7997 7996 7995 ] final  -87.32 input   59.86 | X-H torsion
[ 10167 10162 10161 10158 ] final  167.16 input  -65.29 | X-H torsion
[ 10718 10713 10712 10709 ] final -178.63 input   66.30 | X-H torsion
[ 10763 10752 10751 10750 ] final -113.73 input  -60.55 | X-H torsion
[ 11005 11000 10999 10996 ] final -111.16 input  -57.11 | X-H torsion

> <Gold.Protein.ActiveResidues>
 VAL166  LYS551  ARG553  GLY616  TRP617  ASP618  TYR619  PRO620  LYS621  CYS622 
 ASP623  PHE694  ASN695  SER759  ASP760  ASP761  ALA762  ILE779  LEU786  VAL792 
 PHE793  MET794  SER795  GLU796  ALA797  LYS798  CYS799  TRP800  GLU811  SER814 

> <Gold.Protein.RotatedAtoms>
  150.7463  133.9777  159.3565 H   0  0  0  0  0  0  0  0  0  0  0  0  # atno 6907 bound_to 6896
  151.7715  135.0783  160.0370 H   0  0  0  0  0  0  0  0  0  0  0  0  # atno 6908 bound_to 6896
  152.3335  133.5949  159.5862 H   0  0  0  0  0  0  0  0  0  0  0  0  # atno 6909 bound_to 6896
  145.1376  139.3288  143.4633 H   0  0  0  0  0  0  0  0  0  0  0  0  # atno 7974 bound_to 7965
  154.6619  140.0567  157.0072 H   0  0  0  0  0  0  0  0  0  0  0  0  # atno 8008 bound_to 7997
  155.1215  140.3248  155.4477 H   0  0  0  0  0  0  0  0  0  0  0  0  # atno 8009 bound_to 7997
  156.2622  140.1996  156.6337 H   0  0  0  0  0  0  0  0  0  0  0  0  # atno 8010 bound_to 7997
  139.4939  144.3951  151.9473 H   0  0  0  0  0  0  0  0  0  0  0  0  # atno 10167 bound_to 10162
  156.8471  130.9706  151.3095 H   0  0  0  0  0  0  0  0  0  0  0  0  # atno 10718 bound_to 10713
  154.8409  135.4443  154.1395 H   0  0  0  0  0  0  0  0  0  0  0  0  # atno 10763 bound_to 10752
  153.2584  135.6933  153.7610 H   0  0  0  0  0  0  0  0  0  0  0  0  # atno 10764 bound_to 10752
  153.6896  135.3389  155.3174 H   0  0  0  0  0  0  0  0  0  0  0  0  # atno 10765 bound_to 10752
  141.0750  133.9316  157.2408 H   0  0  0  0  0  0  0  0  0  0  0  0  # atno 11005 bound_to 11000
  146.3508  140.1400  142.8595 LP  0  0  0  0  0  0  0  0  0  0  0  0  # atno 17320 bound_to 7965
  145.0567  140.9058  143.4963 LP  0  0  0  0  0  0  0  0  0  0  0  0  # atno 17321 bound_to 7965
  140.3390  144.3226  150.5971 LP  0  0  0  0  0  0  0  0  0  0  0  0  # atno 17342 bound_to 10162
  140.5582  143.2196  151.7811 LP  0  0  0  0  0  0  0  0  0  0  0  0  # atno 17343 bound_to 10162
  157.6324  130.8739  149.9297 LP  0  0  0  0  0  0  0  0  0  0  0  0  # atno 17370 bound_to 10713
  156.0848  130.3669  150.0508 LP  0  0  0  0  0  0  0  0  0  0  0  0  # atno 17371 bound_to 10713
  139.9562  135.0165  156.9135 LP  0  0  0  0  0  0  0  0  0  0  0  0  # atno 17394 bound_to 11000
  140.5592  134.0551  155.7393 LP  0  0  0  0  0  0  0  0  0  0  0  0  # atno 17395 bound_to 11000

$$$$
