AV-unprocessed.smi:287|AV-procd|sdf|2187|dock8
  -GOLD-   2262021573D 1   1.00000     0.00000
 Structure written by MMmdl.
 55 58  0  0  0  0  0  0  0  0  1 V2000
  151.9241  143.1692  158.4386 C   0  0  0  0  0  0  0  0  0  0  0  0
  151.4072  142.2499  157.3857 C   0  0  0  0  0  0  0  0  0  0  0  0
  150.2820  142.2350  156.6142 C   0  0  0  0  0  0  0  0  0  0  0  0
  150.3501  141.0770  155.7828 C   0  0  0  0  0  0  0  0  0  0  0  0
  149.3159  140.6513  154.7497 C   0  0  1  0  0  0  0  0  0  0  0  0
  148.1972  141.7033  154.6737 C   0  0  0  0  0  0  0  0  0  0  0  0
  149.8489  140.5709  153.4415 O   0  0  0  0  0  0  0  0  0  0  0  0
  148.7143  139.2603  155.0531 C   0  0  0  0  0  0  0  0  0  0  0  0
  147.8071  138.7945  154.0120 N   0  0  0  0  0  0  0  0  0  0  0  0
  147.3388  137.5289  154.0115 C   0  0  0  0  0  0  0  0  0  0  0  0
  147.7299  136.7625  155.0578 N   0  0  0  0  0  0  0  0  0  0  0  0
  147.3186  135.4950  155.1544 C   0  0  0  0  0  0  0  0  0  0  0  0
  146.5262  134.8098  154.3282 N   0  0  0  0  0  0  0  0  0  0  0  0
  146.1281  135.5759  153.2720 C   0  0  0  0  0  0  0  0  0  0  0  0
  146.4858  136.9337  153.0349 C   0  0  0  0  0  0  0  0  0  0  0  0
  145.8855  137.3627  151.8556 N   0  0  0  0  0  0  0  0  0  0  0  0
  145.2170  136.3247  151.4321 C   0  0  0  0  0  0  0  0  0  0  0  0
  145.3167  135.2013  152.2239 N   0  0  0  0  0  0  0  0  0  0  0  0
  144.6894  133.8502  152.0487 C   0  0  1  0  0  0  0  0  0  0  0  0
  143.9416  133.8605  150.8701 O   0  0  0  0  0  0  0  0  0  0  0  0
  144.6796  133.2276  149.8310 C   0  0  2  0  0  0  0  0  0  0  0  0
  143.7660  132.8138  148.6650 C   0  0  0  0  0  0  0  0  0  0  0  0
  143.5193  133.9252  147.8302 O   0  0  0  0  0  0  0  0  0  0  0  0
  145.3667  132.0787  150.5785 C   0  0  2  0  0  0  0  0  0  0  0  0
  144.4730  130.9975  150.7734 O   0  0  0  0  0  0  0  0  0  0  0  0
  145.7374  132.7165  151.9131 C   0  0  1  0  0  0  0  0  0  0  0  0
  147.0800  133.1696  151.8682 O   0  0  0  0  0  0  0  0  0  0  0  0
  151.5425  140.4789  156.1128 C   0  0  0  0  0  0  0  0  0  0  0  0
  152.2580  139.2590  155.6338 C   0  0  0  0  0  0  0  0  0  0  0  0
  152.1863  141.1802  157.0873 O   0  0  0  0  0  0  0  0  0  0  0  0
  144.0317  133.7401  152.9119 H   0  0  0  0  0  0  0  0  0  0  0  0
  145.4544  133.9081  149.4724 H   0  0  0  0  0  0  0  0  0  0  0  0
  146.2352  131.7030  150.0353 H   0  0  0  0  0  0  0  0  0  0  0  0
  145.6350  132.0203  152.7467 H   0  0  0  0  0  0  0  0  0  0  0  0
  151.1807  143.9238  158.6961 H   0  0  0  0  0  0  0  0  0  0  0  0
  152.8224  143.6827  158.0955 H   0  0  0  0  0  0  0  0  0  0  0  0
  152.1736  142.6180  159.3453 H   0  0  0  0  0  0  0  0  0  0  0  0
  149.4925  142.9715  156.6454 H   0  0  0  0  0  0  0  0  0  0  0  0
  147.6946  141.8145  155.6351 H   0  0  0  0  0  0  0  0  0  0  0  0
  147.4391  141.4298  153.9386 H   0  0  0  0  0  0  0  0  0  0  0  0
  148.5912  142.6815  154.3947 H   0  0  0  0  0  0  0  0  0  0  0  0
  149.2797  140.0270  152.9188 H   0  0  0  0  0  0  0  0  0  0  0  0
  149.5324  138.5421  155.1178 H   0  0  0  0  0  0  0  0  0  0  0  0
  148.2108  139.2574  156.0211 H   0  0  0  0  0  0  0  0  0  0  0  0
  147.5735  139.4727  153.3009 H   0  0  0  0  0  0  0  0  0  0  0  0
  147.6761  134.9525  156.0173 H   0  0  0  0  0  0  0  0  0  0  0  0
  144.6305  136.3594  150.5256 H   0  0  0  0  0  0  0  0  0  0  0  0
  144.2550  132.0510  148.0582 H   0  0  0  0  0  0  0  0  0  0  0  0
  142.8257  132.3934  149.0229 H   0  0  0  0  0  0  0  0  0  0  0  0
  144.3114  134.4369  147.7690 H   0  0  0  0  0  0  0  0  0  0  0  0
  143.6124  131.3480  150.9451 H   0  0  0  0  0  0  0  0  0  0  0  0
  147.3439  133.2287  150.9624 H   0  0  0  0  0  0  0  0  0  0  0  0
  152.3282  139.2537  154.5460 H   0  0  0  0  0  0  0  0  0  0  0  0
  151.7315  138.3565  155.9447 H   0  0  0  0  0  0  0  0  0  0  0  0
  153.2712  139.2124  156.0339 H   0  0  0  0  0  0  0  0  0  0  0  0
  1  2  1  0  0  0  0
  1 35  1  0  0  0  0
  1 36  1  0  0  0  0
  1 37  1  0  0  0  0
  2 30  1  0  0  0  0
  2  3  2  0  0  0  0
  3  4  1  0  0  0  0
  3 38  1  0  0  0  0
  4  5  1  0  0  0  0
  4 28  2  0  0  0  0
  5  6  1  0  0  0  0
  5  7  1  0  0  0  0
  5  8  1  0  0  0  0
  6 39  1  0  0  0  0
  6 40  1  0  0  0  0
  6 41  1  0  0  0  0
  7 42  1  0  0  0  0
  8  9  1  0  0  0  0
  8 43  1  0  0  0  0
  8 44  1  0  0  0  0
  9 10  1  0  0  0  0
  9 45  1  0  0  0  0
 10 15  1  0  0  0  0
 10 11  2  0  0  0  0
 11 12  1  0  0  0  0
 12 13  2  0  0  0  0
 12 46  1  0  0  0  0
 13 14  1  0  0  0  0
 14 18  1  0  0  0  0
 14 15  2  0  0  0  0
 15 16  1  0  0  0  0
 16 17  2  0  0  0  0
 17 18  1  0  0  0  0
 17 47  1  0  0  0  0
 18 19  1  0  0  0  0
 19 31  1  0  0  0  0
 19 26  1  0  0  0  0
 19 20  1  0  0  0  0
 20 21  1  0  0  0  0
 21 32  1  0  0  0  0
 21 22  1  0  0  0  0
 21 24  1  0  0  0  0
 22 23  1  0  0  0  0
 22 48  1  0  0  0  0
 22 49  1  0  0  0  0
 23 50  1  0  0  0  0
 24 33  1  0  0  0  0
 24 25  1  0  0  0  0
 24 26  1  0  0  0  0
 25 51  1  0  0  0  0
 26 34  1  0  0  0  0
 26 27  1  0  0  0  0
 27 52  1  0  0  0  0
 28 29  1  0  0  0  0
 28 30  1  0  0  0  0
 29 53  1  0  0  0  0
 29 54  1  0  0  0  0
 29 55  1  0  0  0  0
M  END
> <s_m_source_file>
AV-unprocessed.smi

> <i_m_source_file_index>
287

> <i_lp_mmshare_version>
43012

> <i_f3d_flags>
0

> <s_epik_input>
W0NIM11jMVtjSF1jKGMobzEpW0NIM10pW0NAQF0oW0NIM10pKFtPSF0pW0NIMl1bTkhdYyhuW2NIXW4yKWMoYzIzKW5bY0hdbjNbQ0BASF00T1tDQEhdKFtDSDJdW09IXSlbQ0BASF0oW09IXSlbQ0BIXTRbT0hd

> <s_epik_cmdline>
J2VwaWtfcHl0aG9uJywgJy1waCcsICc3LjAnLCAnLXRuJywgJzgnLCAnLW1hJywgJzIwMCcsICctbWV0YWxfYmluZGluZycsICctaW1hZScsICc8aW5maWxlLm1hZT4nLCAnLW9tYWUnLCAnPG91dGZpbGUubWFlPic=

> <r_lp_tautomer_probability>
1

> <r_epik_Ionization_Penalty>
0.000992612

> <r_epik_Ionization_Penalty_Charging>
0

> <r_epik_Ionization_Penalty_Neutral>
0.000992612

> <r_epik_State_Penalty>
-0

> <r_epik_Charging_Adjusted_Penalty>
0

> <i_epik_Tot_Q>
0

> <i_epik_Tot_abs_Q>
0

> <r_epik_Metal_State_Penalty>
-0

> <b_epik_Metal_Only>
0

> <s_epik_Chemistry_Notes>
This compound contains an acetal/aminal-like group ( X-CH(R)-Y where X, Y are N, S, or O) that may be acid/base labile, releasing an aldehyde.

> <s_lp_Force_Field>
OPLS_2005

> <r_lp_Energy>
42.7121

> <b_lp_Chiralities_Consistent>
1

> <s_lp_Variant>
AV-unprocessed.smi:287-11

> <Gold.Version>
5.8.1

> <Gold.Id.Protein>
6NUR|6NUR_protein|mol2

> <Gold.PLP.Fitness>
51.3141

> <Gold.PLP.PLP>
-40.6834

> <Gold.PLP.part.hbond>
-7.2691

> <Gold.PLP.part.metal>
0.0000

> <Gold.PLP.part.buried>
2.8000

> <Gold.PLP.part.nonpolar>
-36.8379

> <Gold.PLP.part.repulsive>
1.1445

> <Gold.PLP.ligand.clash>
1.8526

> <Gold.PLP.ligand.torsion>
0.2641

> <Gold.PLP.Chemscore.Hbond>
3.5648

> <Gold.PLP.Chemscore.CHOScore>
0.7156

> <Gold.PLP.Chemscore.Metal>
0.0000

> <Gold.Chemscore.Hbonds>
donor molecule, donor type, donor heavy atom, donor atom, acceptor molecule, acceptor atom, score
      L1  H     7    42       P1  7957  0.30
      L1  H    23    50       P1  7921  1.00
      P1  H  7989  7998       L1     7  0.43
      P1  H  8011  8017       L1     7  0.71
      P1  H 10192 10197       L1    23  0.93
      L1  C    17    47       P1 10171  0.74

> <Gold.PLP.Chemscore.Internal.Correction>
0.1703

> <Gold.Rescore>
     Score         DG    S(hbond)    S(metal)    S(lipo)     H(rot)  DE(clash)    DE(int)     intcor
     10.78     -13.59       3.00        0.00      98.97       5.27       1.01       1.80       ----

> <Gold.Chemscore.Fitness>
10.7830

> <Gold.Chemscore.DG>
-13.5906

> <Gold.Chemscore.ZeroCoef>
-5.4800

> <Gold.Chemscore.Hbond>
2.9984

> <Gold.Chemscore.Metal>
0.0000

> <Gold.Chemscore.Lipo>
98.9727

> <Gold.Chemscore.Internal_Hbond>
0.0000

> <Gold.Chemscore.DEClash>
1.0093

> <Gold.Chemscore.DEInternal>
1.7984

> <Gold.Chemscore.Rot>
5.2672

> <Gold.Chemscore.Internal.Correction>
   9.000000E+99

> <Gold.Chemscore.Hbonds>
donor molecule, donor type, donor heavy atom, donor atom, acceptor molecule, acceptor atom, score
      L1  H     7    42       P1  7957  0.30
      L1  H    23    50       P1  7921  0.99
      P1  H  7989  7998       L1     7  0.33
      P1  H  8011  8017       L1     7  0.19
      P1  H 10192 10197       L1    23  0.44

> <Gold.Chemscore.Hbond.Weighted>
-10.0147

> <Gold.Chemscore.Metal.Weighted>
-0.0000

> <Gold.Chemscore.Lipo.Weighted>
-11.5798

> <Gold.Chemscore.Internal_Hbond.Weighted>
0.0000

> <Gold.Chemscore.DEClash.Weighted>
1.0093

> <Gold.Chemscore.DEInternal.Weighted>
1.7984

> <Gold.Chemscore.Rot.Weighted>
13.4839

> <Gold.Chemscore.Internal.Correction.Weighted>
   9.000000E+99

> <Gold.Protein.RotatedTorsions>
[ 6907 6896 6895 6894 ] final   42.18 input  -60.11 | X-H torsion
[ 7974 7965 7964 7962 ] final -131.22 input  175.53 | X-H torsion
[ 8008 7997 7996 7995 ] final -164.16 input   59.86 | X-H torsion
[ 10167 10162 10161 10158 ] final  117.35 input  -65.29 | X-H torsion
[ 10718 10713 10712 10709 ] final  -27.92 input   66.30 | X-H torsion
[ 10763 10752 10751 10750 ] final   68.45 input  -60.55 | X-H torsion
[ 11005 11000 10999 10996 ] final -135.48 input  -57.11 | X-H torsion

> <Gold.Protein.ActiveResidues>
 VAL166  LYS551  ARG553  GLY616  TRP617  ASP618  TYR619  PRO620  LYS621  CYS622 
 ASP623  PHE694  ASN695  SER759  ASP760  ASP761  ALA762  ILE779  LEU786  VAL792 
 PHE793  MET794  SER795  GLU796  ALA797  LYS798  CYS799  TRP800  GLU811  SER814 

> <Gold.Protein.RotatedAtoms>
  152.2046  134.8557  160.0503 H   0  0  0  0  0  0  0  0  0  0  0  0  # atno 6907 bound_to 6896
  151.9398  133.3629  159.3969 H   0  0  0  0  0  0  0  0  0  0  0  0  # atno 6908 bound_to 6896
  150.6962  134.4376  159.5321 H   0  0  0  0  0  0  0  0  0  0  0  0  # atno 6909 bound_to 6896
  144.9400  140.7227  143.4853 H   0  0  0  0  0  0  0  0  0  0  0  0  # atno 7974 bound_to 7965
  155.8316  140.0935  157.1789 H   0  0  0  0  0  0  0  0  0  0  0  0  # atno 8008 bound_to 7997
  154.3980  140.1418  156.3682 H   0  0  0  0  0  0  0  0  0  0  0  0  # atno 8009 bound_to 7997
  155.8159  140.3448  155.5488 H   0  0  0  0  0  0  0  0  0  0  0  0  # atno 8010 bound_to 7997
  139.6185  144.7096  151.2687 H   0  0  0  0  0  0  0  0  0  0  0  0  # atno 10167 bound_to 10162
  156.4319  130.4447  149.7111 H   0  0  0  0  0  0  0  0  0  0  0  0  # atno 10718 bound_to 10713
  153.0236  135.5247  154.7136 H   0  0  0  0  0  0  0  0  0  0  0  0  # atno 10763 bound_to 10752
  154.6211  135.2889  155.0327 H   0  0  0  0  0  0  0  0  0  0  0  0  # atno 10764 bound_to 10752
  154.1313  135.6592  153.4975 H   0  0  0  0  0  0  0  0  0  0  0  0  # atno 10765 bound_to 10752
  140.8894  134.1831  157.4538 H   0  0  0  0  0  0  0  0  0  0  0  0  # atno 11005 bound_to 11000
  145.3007  139.1851  143.4691 LP  0  0  0  0  0  0  0  0  0  0  0  0  # atno 17320 bound_to 7965
  146.3282  140.2997  142.8620 LP  0  0  0  0  0  0  0  0  0  0  0  0  # atno 17321 bound_to 7965
  140.7366  143.6701  150.8089 LP  0  0  0  0  0  0  0  0  0  0  0  0  # atno 17342 bound_to 10162
  140.0308  143.5445  152.2761 LP  0  0  0  0  0  0  0  0  0  0  0  0  # atno 17343 bound_to 10162
  156.4011  130.7675  151.2683 LP  0  0  0  0  0  0  0  0  0  0  0  0  # atno 17370 bound_to 10713
  157.7508  131.0239  150.3856 LP  0  0  0  0  0  0  0  0  0  0  0  0  # atno 17371 bound_to 10713
  139.8728  134.9852  156.5270 LP  0  0  0  0  0  0  0  0  0  0  0  0  # atno 17394 bound_to 11000
  140.8365  133.8238  155.9034 LP  0  0  0  0  0  0  0  0  0  0  0  0  # atno 17395 bound_to 11000

$$$$
