AV-unprocessed.smi:2241|AV-procd|sdf|9058|dock8
  -GOLD-   2272012263D 1   1.00000     0.00000
 Structure written by MMmdl.
 45 47  0  0  0  0  0  0  0  0  1 V2000
  147.8101  132.2018  161.3841 C   0  0  0  0  0  0  0  0  0  0  0  0
  147.2903  133.6001  161.6490 C   0  0  0  0  0  0  0  0  0  0  0  0
  146.1912  133.7973  162.5076 C   0  0  0  0  0  0  0  0  0  0  0  0
  145.7144  135.0983  162.7498 C   0  0  0  0  0  0  0  0  0  0  0  0
  146.3332  136.2051  162.1369 C   0  0  0  0  0  0  0  0  0  0  0  0
  145.7266  137.7914  162.4526 Cl  0  0  0  0  0  0  0  0  0  0  0  0
  147.4380  136.0249  161.2753 C   0  0  0  0  0  0  0  0  0  0  0  0
  147.9936  137.1553  160.7121 O   0  0  0  0  0  0  0  0  0  0  0  0
  148.8665  137.0000  159.6018 C   0  0  0  0  0  0  0  0  0  0  0  0
  148.0886  137.3264  158.3143 C   0  0  2  0  0  0  0  0  0  0  0  0
  147.6197  136.1137  157.7623 O   0  0  0  0  0  0  0  0  0  0  0  0
  148.9419  138.0217  157.2275 C   0  0  0  0  0  0  0  0  0  0  0  0
  149.6135  139.2413  157.7115 N   0  0  0  0  0  0  0  0  0  0  0  0
  148.9815  140.4686  157.4294 C   0  0  0  0  0  0  0  0  0  0  0  0
  149.4914  141.5998  157.7998 N   0  0  0  0  0  0  0  0  0  0  0  0
  150.7004  141.6209  158.5045 C   0  0  0  0  0  0  0  0  0  0  0  0
  151.2742  142.9803  158.8796 C   0  0  0  0  0  0  0  0  0  0  0  0
  151.8358  143.8240  157.7223 C   0  0  0  0  0  0  0  0  0  0  0  0
  152.9609  144.2561  158.6694 C   0  0  0  0  0  0  0  0  0  0  0  0
  152.6972  142.9708  159.4618 C   0  0  0  0  0  0  0  0  0  0  0  0
  151.3407  140.4667  158.8078 C   0  0  0  0  0  0  0  0  0  0  0  0
  150.7829  139.1735  158.4127 C   0  0  0  0  0  0  0  0  0  0  0  0
  151.3291  138.1050  158.6879 O   0  0  0  0  0  0  0  0  0  0  0  0
  147.9114  134.7087  161.0379 C   0  0  0  0  0  0  0  0  0  0  0  0
  147.0646  131.4483  161.6407 H   0  0  0  0  0  0  0  0  0  0  0  0
  148.7055  132.0148  161.9772 H   0  0  0  0  0  0  0  0  0  0  0  0
  148.0636  132.0797  160.3306 H   0  0  0  0  0  0  0  0  0  0  0  0
  145.7109  132.9542  162.9824 H   0  0  0  0  0  0  0  0  0  0  0  0
  144.8713  135.2469  163.4083 H   0  0  0  0  0  0  0  0  0  0  0  0
  149.6894  137.7035  159.7264 H   0  0  0  0  0  0  0  0  0  0  0  0
  149.2894  135.9948  159.5556 H   0  0  0  0  0  0  0  0  0  0  0  0
  147.2242  137.9461  158.5546 H   0  0  0  0  0  0  0  0  0  0  0  0
  147.9620  136.0338  156.8848 H   0  0  0  0  0  0  0  0  0  0  0  0
  149.6552  137.3069  156.8119 H   0  0  0  0  0  0  0  0  0  0  0  0
  148.3038  138.2936  156.3841 H   0  0  0  0  0  0  0  0  0  0  0  0
  148.0437  140.3993  156.8756 H   0  0  0  0  0  0  0  0  0  0  0  0
  150.5842  143.5526  159.5023 H   0  0  0  0  0  0  0  0  0  0  0  0
  152.2057  143.2292  156.8849 H   0  0  0  0  0  0  0  0  0  0  0  0
  151.1839  144.6313  157.3873 H   0  0  0  0  0  0  0  0  0  0  0  0
  153.9484  144.3164  158.2104 H   0  0  0  0  0  0  0  0  0  0  0  0
  152.7185  145.1589  159.2326 H   0  0  0  0  0  0  0  0  0  0  0  0
  152.7487  143.0827  160.5452 H   0  0  0  0  0  0  0  0  0  0  0  0
  153.3058  142.1344  159.1120 H   0  0  0  0  0  0  0  0  0  0  0  0
  152.2771  140.4913  159.3460 H   0  0  0  0  0  0  0  0  0  0  0  0
  148.7528  134.5235  160.3877 H   0  0  0  0  0  0  0  0  0  0  0  0
  1  2  1  0  0  0  0
  1 25  1  0  0  0  0
  1 26  1  0  0  0  0
  1 27  1  0  0  0  0
  2 24  1  0  0  0  0
  2  3  2  0  0  0  0
  3  4  1  0  0  0  0
  3 28  1  0  0  0  0
  4  5  2  0  0  0  0
  4 29  1  0  0  0  0
  5  6  1  0  0  0  0
  5  7  1  0  0  0  0
  7  8  1  0  0  0  0
  7 24  2  0  0  0  0
  8  9  1  0  0  0  0
  9 10  1  0  0  0  0
  9 30  1  0  0  0  0
  9 31  1  0  0  0  0
 10 11  1  0  0  0  0
 10 12  1  0  0  0  0
 10 32  1  0  0  0  0
 11 33  1  0  0  0  0
 12 13  1  0  0  0  0
 12 34  1  0  0  0  0
 12 35  1  0  0  0  0
 13 22  1  0  0  0  0
 13 14  1  0  0  0  0
 14 15  2  0  0  0  0
 14 36  1  0  0  0  0
 15 16  1  0  0  0  0
 16 17  1  0  0  0  0
 16 21  2  0  0  0  0
 17 20  1  0  0  0  0
 17 18  1  0  0  0  0
 17 37  1  0  0  0  0
 18 19  1  0  0  0  0
 18 38  1  0  0  0  0
 18 39  1  0  0  0  0
 19 20  1  0  0  0  0
 19 40  1  0  0  0  0
 19 41  1  0  0  0  0
 20 42  1  0  0  0  0
 20 43  1  0  0  0  0
 21 22  1  0  0  0  0
 21 44  1  0  0  0  0
 22 23  2  0  0  0  0
 24 45  1  0  0  0  0
M  END
> <s_m_source_file>
AV-unprocessed.smi

> <i_m_source_file_index>
2241

> <i_lp_mmshare_version>
43012

> <i_f3d_flags>
0

> <s_epik_input>
W0NIM11jMVtjSF1bY0hdYyhDbCljKFtjSF0xKU9bQ0gyXVtDQEhdKFtPSF0pW0NIMl1uMltjSF1uYyhbY0hdYzI9TylbQ0hdM1tDSDJdW0NIMl1bQ0gyXTM=

> <s_epik_cmdline>
J2VwaWtfcHl0aG9uJywgJy1waCcsICc3LjAnLCAnLXRuJywgJzgnLCAnLW1hJywgJzIwMCcsICctbWV0YWxfYmluZGluZycsICctaW1hZScsICc8aW5maWxlLm1hZT4nLCAnLW9tYWUnLCAnPG91dGZpbGUubWFlPic=

> <r_lp_tautomer_probability>
1

> <r_epik_Ionization_Penalty>
1.78212e-05

> <r_epik_Ionization_Penalty_Charging>
5.61663e-08

> <r_epik_Ionization_Penalty_Neutral>
1.7765e-05

> <r_epik_State_Penalty>
-0

> <r_epik_Charging_Adjusted_Penalty>
5.61663e-08

> <i_epik_Tot_Q>
0

> <i_epik_Tot_abs_Q>
0

> <r_epik_Metal_State_Penalty>
-0

> <b_epik_Metal_Only>
0

> <s_lp_Force_Field>
OPLS_2005

> <r_lp_Energy>
31.1581

> <b_lp_Chiralities_Consistent>
1

> <s_lp_Variant>
AV-unprocessed.smi:2241-1

> <Gold.Version>
5.8.1

> <Gold.Id.Protein>
6NUR|6NUR_protein|mol2

> <Gold.PLP.Fitness>
46.9104

> <Gold.PLP.PLP>
-44.6472

> <Gold.PLP.part.hbond>
-2.0000

> <Gold.PLP.part.metal>
0.0000

> <Gold.PLP.part.buried>
-4.9373

> <Gold.PLP.part.nonpolar>
-38.2242

> <Gold.PLP.part.repulsive>
0.0910

> <Gold.PLP.ligand.clash>
0.0000

> <Gold.PLP.ligand.torsion>
1.4891

> <Gold.PLP.Chemscore.Hbond>
1.6160

> <Gold.PLP.Chemscore.CHOScore>
0.0000

> <Gold.PLP.Chemscore.Metal>
0.0000

> <Gold.Chemscore.Hbonds>
donor molecule, donor type, donor heavy atom, donor atom, acceptor molecule, acceptor atom, score
      P1  H  6931  6943       L1     8  0.85
      P1  H  6934  6947       L1     8  0.75

> <Gold.PLP.Chemscore.Internal.Correction>
0.3934

> <Gold.Rescore>
     Score         DG    S(hbond)    S(metal)    S(lipo)     H(rot)  DE(clash)    DE(int)     intcor
     16.18     -17.82       1.05        0.00     127.42       2.38       0.08       1.56       ----

> <Gold.Chemscore.Fitness>
16.1829

> <Gold.Chemscore.DG>
-17.8180

> <Gold.Chemscore.ZeroCoef>
-5.4800

> <Gold.Chemscore.Hbond>
1.0547

> <Gold.Chemscore.Metal>
0.0000

> <Gold.Chemscore.Lipo>
127.4211

> <Gold.Chemscore.Internal_Hbond>
0.0000

> <Gold.Chemscore.DEClash>
0.0760

> <Gold.Chemscore.DEInternal>
1.5591

> <Gold.Chemscore.Rot>
2.3801

> <Gold.Chemscore.Internal.Correction>
   9.000000E+99

> <Gold.Chemscore.Hbonds>
donor molecule, donor type, donor heavy atom, donor atom, acceptor molecule, acceptor atom, score
      P1  H  6931  6943       L1     8  0.27
      P1  H  6934  6947       L1     8  0.62

> <Gold.Chemscore.Hbond.Weighted>
-3.5228

> <Gold.Chemscore.Metal.Weighted>
-0.0000

> <Gold.Chemscore.Lipo.Weighted>
-14.9083

> <Gold.Chemscore.Internal_Hbond.Weighted>
0.0000

> <Gold.Chemscore.DEClash.Weighted>
0.0760

> <Gold.Chemscore.DEInternal.Weighted>
1.5591

> <Gold.Chemscore.Rot.Weighted>
6.0931

> <Gold.Chemscore.Internal.Correction.Weighted>
   9.000000E+99

> <Gold.Protein.RotatedTorsions>
[ 6907 6896 6895 6894 ] final  103.76 input  -60.11 | X-H torsion
[ 7974 7965 7964 7962 ] final  145.60 input  175.53 | X-H torsion
[ 8008 7997 7996 7995 ] final  143.48 input   59.86 | X-H torsion
[ 10167 10162 10161 10158 ] final  -40.57 input  -65.29 | X-H torsion
[ 10718 10713 10712 10709 ] final   14.90 input   66.30 | X-H torsion
[ 10763 10752 10751 10750 ] final   -2.37 input  -60.55 | X-H torsion
[ 11005 11000 10999 10996 ] final  147.54 input  -57.11 | X-H torsion

> <Gold.Protein.ActiveResidues>
 VAL166  LYS551  ARG553  GLY616  TRP617  ASP618  TYR619  PRO620  LYS621  CYS622 
 ASP623  PHE694  ASN695  SER759  ASP760  ASP761  ALA762  ILE779  LEU786  VAL792 
 PHE793  MET794  SER795  GLU796  ALA797  LYS798  CYS799  TRP800  GLU811  SER814 

> <Gold.Protein.RotatedAtoms>
  152.5285  133.9778  159.7791 H   0  0  0  0  0  0  0  0  0  0  0  0  # atno 6907 bound_to 6896
  151.0037  133.6023  159.2698 H   0  0  0  0  0  0  0  0  0  0  0  0  # atno 6908 bound_to 6896
  151.3123  135.0804  159.9330 H   0  0  0  0  0  0  0  0  0  0  0  0  # atno 6909 bound_to 6896
  144.8739  139.5803  143.5874 H   0  0  0  0  0  0  0  0  0  0  0  0  # atno 7974 bound_to 7965
  156.2929  140.2261  156.4898 H   0  0  0  0  0  0  0  0  0  0  0  0  # atno 8008 bound_to 7997
  154.7781  140.0462  157.1126 H   0  0  0  0  0  0  0  0  0  0  0  0  # atno 8009 bound_to 7997
  154.9792  140.3076  155.4957 H   0  0  0  0  0  0  0  0  0  0  0  0  # atno 8010 bound_to 7997
  140.7030  143.3145  151.2943 H   0  0  0  0  0  0  0  0  0  0  0  0  # atno 10167 bound_to 10162
  157.0457  130.6249  149.5759 H   0  0  0  0  0  0  0  0  0  0  0  0  # atno 10718 bound_to 10713
  153.3572  135.6988  153.6741 H   0  0  0  0  0  0  0  0  0  0  0  0  # atno 10763 bound_to 10752
  153.5444  135.3566  155.2733 H   0  0  0  0  0  0  0  0  0  0  0  0  # atno 10764 bound_to 10752
  154.8662  135.4211  154.2821 H   0  0  0  0  0  0  0  0  0  0  0  0  # atno 10765 bound_to 10752
  140.0884  134.9055  157.1612 H   0  0  0  0  0  0  0  0  0  0  0  0  # atno 11005 bound_to 11000
  146.2949  139.7249  142.9134 LP  0  0  0  0  0  0  0  0  0  0  0  0  # atno 17320 bound_to 7965
  145.4079  141.0393  143.3034 LP  0  0  0  0  0  0  0  0  0  0  0  0  # atno 17321 bound_to 7965
  139.6579  144.0242  152.2672 LP  0  0  0  0  0  0  0  0  0  0  0  0  # atno 17342 bound_to 10162
  139.9800  144.6435  150.7910 LP  0  0  0  0  0  0  0  0  0  0  0  0  # atno 17343 bound_to 10162
  156.0023  130.5105  150.7709 LP  0  0  0  0  0  0  0  0  0  0  0  0  # atno 17370 bound_to 10713
  157.5069  131.0923  151.0246 LP  0  0  0  0  0  0  0  0  0  0  0  0  # atno 17371 bound_to 10713
  140.3387  134.2728  155.7215 LP  0  0  0  0  0  0  0  0  0  0  0  0  # atno 17394 bound_to 11000
  141.2070  133.7817  157.0144 LP  0  0  0  0  0  0  0  0  0  0  0  0  # atno 17395 bound_to 11000

$$$$
