AV-unprocessed.smi:808|AV-procd|sdf|3804|dock9
  -GOLD-   22720 1243D 1   1.00000     0.00000
 Structure written by MMmdl.
 34 35  0  0  0  0  0  0  0  0  2 V2000
  152.3502  139.8466  156.3385 O   0  0  0  0  0  0  0  0  0  0  0  0
  151.1953  140.2155  156.5516 C   0  0  0  0  0  0  0  0  0  0  0  0
  150.0204  139.4105  155.9879 C   0  0  0  0  0  0  0  0  0  0  0  0
  149.1881  138.8564  157.0424 N   0  0  0  0  0  0  0  0  0  0  0  0
  149.5658  138.0152  158.0723 C   0  0  0  0  0  0  0  0  0  0  0  0
  148.4236  137.7678  158.7717 C   0  0  0  0  0  0  0  0  0  0  0  0
  148.2891  136.8997  159.9823 C   0  0  0  0  0  0  0  0  0  0  0  0
  147.5058  137.2592  160.8883 O   0  0  0  0  0  0  0  0  0  0  0  0
  148.9645  135.8482  160.0385 O   0  5  0  0  0  0  0  0  0  0  0  0
  147.3874  138.4902  158.1252 C   0  0  0  0  0  0  0  0  0  0  0  0
  147.8611  139.1487  157.0760 N   0  0  0  0  0  0  0  0  0  0  0  0
  150.8903  141.3180  157.2551 N   0  0  0  0  0  0  0  0  0  0  0  0
  151.8505  142.2063  157.9006 C   0  0  0  0  0  0  0  0  0  0  0  0
  151.8521  141.9408  159.4181 C   0  0  0  0  0  0  0  0  0  0  0  0
  152.8036  142.8965  160.1558 C   0  0  0  0  0  0  0  0  0  0  0  0
  152.4616  144.3644  159.8560 C   0  0  0  0  0  0  0  0  0  0  0  0
  152.4636  144.6362  158.3434 C   0  0  0  0  0  0  0  0  0  0  0  0
  151.5136  143.6817  157.6019 C   0  0  0  0  0  0  0  0  0  0  0  0
  149.4084  140.0551  155.3560 H   0  0  0  0  0  0  0  0  0  0  0  0
  150.3873  138.5982  155.3586 H   0  0  0  0  0  0  0  0  0  0  0  0
  150.5807  137.6714  158.2077 H   0  0  0  0  0  0  0  0  0  0  0  0
  146.3377  138.5560  158.3713 H   0  0  0  0  0  0  0  0  0  0  0  0
  149.9133  141.5429  157.3759 H   0  0  0  0  0  0  0  0  0  0  0  0
  152.8498  141.9878  157.5188 H   0  0  0  0  0  0  0  0  0  0  0  0
  150.8431  142.0588  159.8158 H   0  0  0  0  0  0  0  0  0  0  0  0
  152.1425  140.9083  159.6166 H   0  0  0  0  0  0  0  0  0  0  0  0
  152.7534  142.7145  161.2297 H   0  0  0  0  0  0  0  0  0  0  0  0
  153.8322  142.6921  159.8555 H   0  0  0  0  0  0  0  0  0  0  0  0
  151.4810  144.6035  160.2695 H   0  0  0  0  0  0  0  0  0  0  0  0
  153.1758  145.0216  160.3529 H   0  0  0  0  0  0  0  0  0  0  0  0
  152.1758  145.6700  158.1505 H   0  0  0  0  0  0  0  0  0  0  0  0
  153.4752  144.5191  157.9529 H   0  0  0  0  0  0  0  0  0  0  0  0
  151.5698  143.8721  156.5296 H   0  0  0  0  0  0  0  0  0  0  0  0
  150.4855  143.8932  157.8995 H   0  0  0  0  0  0  0  0  0  0  0  0
  1  2  2  0  0  0  0
  2  3  1  0  0  0  0
  2 12  1  0  0  0  0
  3  4  1  0  0  0  0
  3 19  1  0  0  0  0
  3 20  1  0  0  0  0
  4 11  1  0  0  0  0
  4  5  1  0  0  0  0
  5  6  2  0  0  0  0
  5 21  1  0  0  0  0
  6  7  1  0  0  0  0
  6 10  1  0  0  0  0
  7  8  2  0  0  0  0
  7  9  1  0  0  0  0
 10 11  2  0  0  0  0
 10 22  1  0  0  0  0
 12 13  1  0  0  0  0
 12 23  1  0  0  0  0
 13 18  1  0  0  0  0
 13 14  1  0  0  0  0
 13 24  1  0  0  0  0
 14 15  1  0  0  0  0
 14 25  1  0  0  0  0
 14 26  1  0  0  0  0
 15 16  1  0  0  0  0
 15 27  1  0  0  0  0
 15 28  1  0  0  0  0
 16 17  1  0  0  0  0
 16 29  1  0  0  0  0
 16 30  1  0  0  0  0
 17 18  1  0  0  0  0
 17 31  1  0  0  0  0
 17 32  1  0  0  0  0
 18 33  1  0  0  0  0
 18 34  1  0  0  0  0
M  CHG  1   9  -1
M  END
> <s_m_source_file>
AV-unprocessed.smi

> <i_m_source_file_index>
808

> <i_lp_mmshare_version>
43012

> <i_f3d_flags>
0

> <s_epik_input>
Tz1DKFtPSF0pYyhbY0hdbjEpW2NIXW4xW0NIMl1DKD1PKVtOSF1bQ0hdMltDSDJdW0NIMl1bQ0gyXVtDSDJdW0NIMl0y

> <s_epik_cmdline>
J2VwaWtfcHl0aG9uJywgJy1waCcsICc3LjAnLCAnLXRuJywgJzgnLCAnLW1hJywgJzIwMCcsICctbWV0YWxfYmluZGluZycsICctaW1hZScsICc8aW5maWxlLm1hZT4nLCAnLW9tYWUnLCAnPG91dGZpbGUubWFlPic=

> <r_epik_Ionization_Penalty>
0.00097052

> <r_epik_Ionization_Penalty_Charging>
0.000938868

> <r_epik_Ionization_Penalty_Neutral>
3.16514e-05

> <r_epik_State_Penalty>
0.000609423

> <r_epik_Charging_Adjusted_Penalty>
0.00154829

> <i_epik_Tot_Q>
-1

> <i_epik_Tot_abs_Q>
1

> <r_epik_Metal_State_Penalty>
-0

> <b_epik_Metal_Only>
0

> <s_lp_Force_Field>
OPLS_2005

> <r_lp_Energy>
12.0504

> <b_lp_Chiralities_Consistent>
1

> <s_lp_Variant>
AV-unprocessed.smi:808-1

> <Gold.Version>
5.8.1

> <Gold.Id.Protein>
6NUR|6NUR_protein|mol2

> <Gold.PLP.Fitness>
47.7102

> <Gold.PLP.PLP>
-30.2911

> <Gold.PLP.part.hbond>
-4.0000

> <Gold.PLP.part.metal>
0.0000

> <Gold.PLP.part.buried>
-2.6105

> <Gold.PLP.part.nonpolar>
-22.7525

> <Gold.PLP.part.repulsive>
0.0607

> <Gold.PLP.ligand.clash>
0.0000

> <Gold.PLP.ligand.torsion>
0.7663

> <Gold.PLP.Chemscore.Hbond>
6.3104

> <Gold.PLP.Chemscore.CHOScore>
0.0000

> <Gold.PLP.Chemscore.Metal>
0.0000

> <Gold.Chemscore.Hbonds>
donor molecule, donor type, donor heavy atom, donor atom, acceptor molecule, acceptor atom, score
      P1  H  6896  6908       L1     9  1.53
      P1  H  6931  6943       L1     8  0.84
      P1  H  6934  6947       L1     8  2.00
      P1  H  7997  8008       L1     1  0.86

> <Gold.PLP.Chemscore.Internal.Correction>
0.0204

> <Gold.Rescore>
     Score         DG    S(hbond)    S(metal)    S(lipo)     H(rot)  DE(clash)    DE(int)     intcor
     18.58     -20.32       2.92        0.00      78.43       1.59       0.78       0.96       ----

> <Gold.Chemscore.Fitness>
18.5846

> <Gold.Chemscore.DG>
-20.3245

> <Gold.Chemscore.ZeroCoef>
-5.4800

> <Gold.Chemscore.Hbond>
2.9159

> <Gold.Chemscore.Metal>
0.0000

> <Gold.Chemscore.Lipo>
78.4331

> <Gold.Chemscore.Internal_Hbond>
0.0000

> <Gold.Chemscore.DEClash>
0.7825

> <Gold.Chemscore.DEInternal>
0.9574

> <Gold.Chemscore.Rot>
1.5904

> <Gold.Chemscore.Internal.Correction>
   9.000000E+99

> <Gold.Chemscore.Hbonds>
donor molecule, donor type, donor heavy atom, donor atom, acceptor molecule, acceptor atom, score
      P1  H  6896  6908       L1     9  0.71
      P1  H  6931  6943       L1     8  0.03
      P1  H  6934  6947       L1     8  0.83
      P1  H  7997  8008       L1     1  0.80

> <Gold.Chemscore.Hbond.Weighted>
-9.7393

> <Gold.Chemscore.Metal.Weighted>
-0.0000

> <Gold.Chemscore.Lipo.Weighted>
-9.1767

> <Gold.Chemscore.Internal_Hbond.Weighted>
0.0000

> <Gold.Chemscore.DEClash.Weighted>
0.7825

> <Gold.Chemscore.DEInternal.Weighted>
0.9574

> <Gold.Chemscore.Rot.Weighted>
4.0714

> <Gold.Chemscore.Internal.Correction.Weighted>
   9.000000E+99

> <Gold.Protein.RotatedTorsions>
[ 6907 6896 6895 6894 ] final -170.38 input  -60.11 | X-H torsion
[ 7974 7965 7964 7962 ] final   61.38 input  175.53 | X-H torsion
[ 8008 7997 7996 7995 ] final  -24.41 input   59.86 | X-H torsion
[ 10167 10162 10161 10158 ] final   62.98 input  -65.29 | X-H torsion
[ 10718 10713 10712 10709 ] final   -6.97 input   66.30 | X-H torsion
[ 10763 10752 10751 10750 ] final   96.88 input  -60.55 | X-H torsion
[ 11005 11000 10999 10996 ] final   77.36 input  -57.11 | X-H torsion

> <Gold.Protein.ActiveResidues>
 VAL166  LYS551  ARG553  GLY616  TRP617  ASP618  TYR619  PRO620  LYS621  CYS622 
 ASP623  PHE694  ASN695  SER759  ASP760  ASP761  ALA762  ILE779  LEU786  VAL792 
 PHE793  MET794  SER795  GLU796  ALA797  LYS798  CYS799  TRP800  GLU811  SER814 

> <Gold.Protein.RotatedAtoms>
  151.5068  133.3493  159.2877 H   0  0  0  0  0  0  0  0  0  0  0  0  # atno 6907 bound_to 6896
  150.8738  134.8119  159.7185 H   0  0  0  0  0  0  0  0  0  0  0  0  # atno 6908 bound_to 6896
  152.4716  134.4956  159.9760 H   0  0  0  0  0  0  0  0  0  0  0  0  # atno 6909 bound_to 6896
  145.8854  139.3473  143.0681 H   0  0  0  0  0  0  0  0  0  0  0  0  # atno 7974 bound_to 7965
  154.4531  140.1954  156.0460 H   0  0  0  0  0  0  0  0  0  0  0  0  # atno 8008 bound_to 7997
  156.0689  140.3287  155.7524 H   0  0  0  0  0  0  0  0  0  0  0  0  # atno 8009 bound_to 7997
  155.5294  140.0576  157.2882 H   0  0  0  0  0  0  0  0  0  0  0  0  # atno 8010 bound_to 7997
  140.1380  144.4580  150.6827 H   0  0  0  0  0  0  0  0  0  0  0  0  # atno 10167 bound_to 10162
  156.7241  130.5160  149.5861 H   0  0  0  0  0  0  0  0  0  0  0  0  # atno 10718 bound_to 10713
  153.2702  135.4203  155.0980 H   0  0  0  0  0  0  0  0  0  0  0  0  # atno 10763 bound_to 10752
  154.8453  135.3470  154.6255 H   0  0  0  0  0  0  0  0  0  0  0  0  # atno 10764 bound_to 10752
  153.6675  135.7045  153.5215 H   0  0  0  0  0  0  0  0  0  0  0  0  # atno 10765 bound_to 10752
  139.9258  134.7676  156.1512 H   0  0  0  0  0  0  0  0  0  0  0  0  # atno 11005 bound_to 11000
  145.8973  140.9266  143.0521 LP  0  0  0  0  0  0  0  0  0  0  0  0  # atno 17320 bound_to 7965
  144.6728  140.0985  143.7461 LP  0  0  0  0  0  0  0  0  0  0  0  0  # atno 17321 bound_to 7965
  140.6777  143.2312  151.5464 LP  0  0  0  0  0  0  0  0  0  0  0  0  # atno 17342 bound_to 10162
  139.5486  144.2455  152.1489 LP  0  0  0  0  0  0  0  0  0  0  0  0  # atno 17343 bound_to 10162
  156.1574  130.6351  151.0675 LP  0  0  0  0  0  0  0  0  0  0  0  0  # atno 17370 bound_to 10713
  157.6886  131.0817  150.7173 LP  0  0  0  0  0  0  0  0  0  0  0  0  # atno 17371 bound_to 10713
  141.0814  133.6753  156.2344 LP  0  0  0  0  0  0  0  0  0  0  0  0  # atno 17394 bound_to 11000
  140.6341  134.5233  157.5563 LP  0  0  0  0  0  0  0  0  0  0  0  0  # atno 17395 bound_to 11000

$$$$
