AV-unprocessed.smi:7|AV-procd|sdf|44|dock3
  -GOLD-   2262015163D 1   1.00000     0.00000
 Structure written by MMmdl.
 45 48  0  0  0  0  0  0  0  0  1 V2000
  150.3061  140.5740  154.8809 O   0  0  0  0  0  0  0  0  0  0  0  0
  151.1040  140.4355  155.8086 C   0  0  0  0  0  0  0  0  0  0  0  0
  151.0948  141.3139  157.0015 C   0  0  0  0  0  0  0  0  0  0  0  0
  150.2861  142.4051  157.3168 N   0  0  0  0  0  0  0  0  0  0  0  0
  150.7528  142.7847  158.5057 C   0  0  0  0  0  0  0  0  0  0  0  0
  151.7743  142.0318  158.9555 N   0  0  0  0  0  0  0  0  0  0  0  0
  152.3714  142.3004  160.2091 C   0  0  0  0  0  0  0  0  0  0  0  0
  153.4303  141.4980  160.6909 C   0  0  0  0  0  0  0  0  0  0  0  0
  154.0138  141.7729  161.9433 C   0  0  0  0  0  0  0  0  0  0  0  0
  153.5420  142.8484  162.7204 C   0  0  0  0  0  0  0  0  0  0  0  0
  152.4854  143.6488  162.2455 C   0  0  0  0  0  0  0  0  0  0  0  0
  151.9006  143.3754  160.9935 C   0  0  0  0  0  0  0  0  0  0  0  0
  152.0086  141.0644  157.9885 C   0  0  0  0  0  0  0  0  0  0  0  0
  152.9720  140.0828  158.0382 N   0  0  0  0  0  0  0  0  0  0  0  0
  152.9607  139.3300  156.9690 C   0  0  0  0  0  0  0  0  0  0  0  0
  152.0787  139.4795  155.8556 N   0  0  0  0  0  0  0  0  0  0  0  0
  152.2554  138.5306  154.7464 C   0  0  0  0  0  0  0  0  0  0  0  0
  151.1769  137.4169  154.7588 C   0  0  1  0  0  0  0  0  0  0  0  0
  151.4955  136.5007  153.7277 O   0  0  0  0  0  0  0  0  0  0  0  0
  151.0873  136.6611  156.1131 C   0  0  0  0  0  0  0  0  0  0  0  0
  152.3971  136.2381  156.4544 O   0  0  0  0  0  0  0  0  0  0  0  0
  150.5748  137.5055  157.2915 C   0  0  0  0  0  0  0  0  0  0  0  0
  150.1399  136.4884  158.3521 C   0  0  0  0  0  0  0  0  0  0  0  0
  149.7587  135.2107  157.5888 C   0  0  0  0  0  0  0  0  0  0  0  0
  150.1621  135.4316  156.1229 C   0  0  0  0  0  0  0  0  0  0  0  0
  150.3346  143.6178  159.0522 H   0  0  0  0  0  0  0  0  0  0  0  0
  153.7962  140.6661  160.1070 H   0  0  0  0  0  0  0  0  0  0  0  0
  154.8225  141.1571  162.3085 H   0  0  0  0  0  0  0  0  0  0  0  0
  153.9896  143.0585  163.6809 H   0  0  0  0  0  0  0  0  0  0  0  0
  152.1231  144.4736  162.8414 H   0  0  0  0  0  0  0  0  0  0  0  0
  151.0929  143.9970  160.6360 H   0  0  0  0  0  0  0  0  0  0  0  0
  153.6602  138.4988  156.8637 H   0  0  0  0  0  0  0  0  0  0  0  0
  152.2742  139.0440  153.7826 H   0  0  0  0  0  0  0  0  0  0  0  0
  153.2533  138.0950  154.8196 H   0  0  0  0  0  0  0  0  0  0  0  0
  150.1949  137.8374  154.5348 H   0  0  0  0  0  0  0  0  0  0  0  0
  151.1604  136.8389  152.9108 H   0  0  0  0  0  0  0  0  0  0  0  0
  152.3574  135.7872  157.2838 H   0  0  0  0  0  0  0  0  0  0  0  0
  151.3164  138.2124  157.6665 H   0  0  0  0  0  0  0  0  0  0  0  0
  149.7008  138.0865  156.9957 H   0  0  0  0  0  0  0  0  0  0  0  0
  150.9738  136.2773  159.0230 H   0  0  0  0  0  0  0  0  0  0  0  0
  149.3191  136.8643  158.9638 H   0  0  0  0  0  0  0  0  0  0  0  0
  150.2842  134.3522  158.0085 H   0  0  0  0  0  0  0  0  0  0  0  0
  148.6903  135.0059  157.6663 H   0  0  0  0  0  0  0  0  0  0  0  0
  149.2614  135.6371  155.5433 H   0  0  0  0  0  0  0  0  0  0  0  0
  150.6258  134.5478  155.6825 H   0  0  0  0  0  0  0  0  0  0  0  0
  1  2  2  0  0  0  0
  2 16  1  0  0  0  0
  2  3  1  0  0  0  0
  3 13  2  0  0  0  0
  3  4  1  0  0  0  0
  4  5  2  0  0  0  0
  5  6  1  0  0  0  0
  5 26  1  0  0  0  0
  6  7  1  0  0  0  0
  6 13  1  0  0  0  0
  7 12  1  0  0  0  0
  7  8  2  0  0  0  0
  8  9  1  0  0  0  0
  8 27  1  0  0  0  0
  9 10  2  0  0  0  0
  9 28  1  0  0  0  0
 10 11  1  0  0  0  0
 10 29  1  0  0  0  0
 11 12  2  0  0  0  0
 11 30  1  0  0  0  0
 12 31  1  0  0  0  0
 13 14  1  0  0  0  0
 14 15  2  0  0  0  0
 15 16  1  0  0  0  0
 15 32  1  0  0  0  0
 16 17  1  0  0  0  0
 17 18  1  0  0  0  0
 17 33  1  0  0  0  0
 17 34  1  0  0  0  0
 18 19  1  0  0  0  0
 18 20  1  0  0  0  0
 18 35  1  0  0  0  0
 19 36  1  0  0  0  0
 20 25  1  0  0  0  0
 20 21  1  0  0  0  0
 20 22  1  0  0  0  0
 21 37  1  0  0  0  0
 22 23  1  0  0  0  0
 22 38  1  0  0  0  0
 22 39  1  0  0  0  0
 23 24  1  0  0  0  0
 23 40  1  0  0  0  0
 23 41  1  0  0  0  0
 24 25  1  0  0  0  0
 24 42  1  0  0  0  0
 24 43  1  0  0  0  0
 25 44  1  0  0  0  0
 25 45  1  0  0  0  0
M  END
> <s_m_source_file>
AV-unprocessed.smi

> <i_m_source_file_index>
7

> <i_lp_mmshare_version>
43012

> <i_f3d_flags>
0

> <s_epik_input>
W0NIMl0xW0NIMl1bQ0gyXVtDSDJdQzEoW09IXSlbQ0BASF0oW09IXSlbQ0gyXW4oYzI9TylbY0hdbmMoYzIzKW4oW2NIXW4zKS1jNFtjSF1bY0hdW2NIXVtjSF1bY0hdNA==

> <s_epik_cmdline>
J2VwaWtfcHl0aG9uJywgJy1waCcsICc3LjAnLCAnLXRuJywgJzgnLCAnLW1hJywgJzIwMCcsICctbWV0YWxfYmluZGluZycsICctaW1hZScsICc8aW5maWxlLm1hZT4nLCAnLW9tYWUnLCAnPG91dGZpbGUubWFlPic=

> <r_lp_tautomer_probability>
1

> <r_epik_Ionization_Penalty>
0.000116694

> <r_epik_Ionization_Penalty_Charging>
6.60428e-09

> <r_epik_Ionization_Penalty_Neutral>
0.000116688

> <r_epik_State_Penalty>
-0

> <r_epik_Charging_Adjusted_Penalty>
6.60428e-09

> <i_epik_Tot_Q>
0

> <i_epik_Tot_abs_Q>
0

> <r_epik_Metal_State_Penalty>
-0

> <b_epik_Metal_Only>
0

> <s_lp_Force_Field>
OPLS_2005

> <r_lp_Energy>
52.8935

> <b_lp_Chiralities_Consistent>
1

> <s_lp_Variant>
AV-unprocessed.smi:7-2

> <Gold.Version>
5.8.1

> <Gold.Id.Protein>
6NUR|6NUR_protein|mol2

> <Gold.PLP.Fitness>
56.0743

> <Gold.PLP.PLP>
-47.3454

> <Gold.PLP.part.hbond>
-5.1382

> <Gold.PLP.part.metal>
0.0000

> <Gold.PLP.part.buried>
0.8815

> <Gold.PLP.part.nonpolar>
-42.4351

> <Gold.PLP.part.repulsive>
0.2476

> <Gold.PLP.ligand.clash>
0.0000

> <Gold.PLP.ligand.torsion>
0.3337

> <Gold.PLP.Chemscore.Hbond>
3.1280

> <Gold.PLP.Chemscore.CHOScore>
0.0000

> <Gold.PLP.Chemscore.Metal>
0.0000

> <Gold.Chemscore.Hbonds>
donor molecule, donor type, donor heavy atom, donor atom, acceptor molecule, acceptor atom, score
      L1  H    19    36       P1  7949  0.48
      P1  H  7989  7998       L1     1  0.80
      P1  H 10752 10763       L1    21  0.91
      P1  H 10752 10765       L1    19  0.75

> <Gold.PLP.Chemscore.Internal.Correction>
0.0123

> <Gold.Rescore>
     Score         DG    S(hbond)    S(metal)    S(lipo)     H(rot)  DE(clash)    DE(int)     intcor
     15.36     -19.88       2.68        0.00     107.46       2.79       2.04       2.48       ----

> <Gold.Chemscore.Fitness>
15.3634

> <Gold.Chemscore.DG>
-19.8820

> <Gold.Chemscore.ZeroCoef>
-5.4800

> <Gold.Chemscore.Hbond>
2.6830

> <Gold.Chemscore.Metal>
0.0000

> <Gold.Chemscore.Lipo>
107.4621

> <Gold.Chemscore.Internal_Hbond>
0.0000

> <Gold.Chemscore.DEClash>
2.0370

> <Gold.Chemscore.DEInternal>
2.4817

> <Gold.Chemscore.Rot>
2.7860

> <Gold.Chemscore.Internal.Correction>
   9.000000E+99

> <Gold.Chemscore.Hbonds>
donor molecule, donor type, donor heavy atom, donor atom, acceptor molecule, acceptor atom, score
      L1  H    19    36       P1  7949  0.24
      P1  H  7989  7998       L1     1  0.13
      P1  H 10752 10763       L1    21  0.63
      P1  H 10752 10765       L1    19  0.69

> <Gold.Chemscore.Hbond.Weighted>
-8.9611

> <Gold.Chemscore.Metal.Weighted>
-0.0000

> <Gold.Chemscore.Lipo.Weighted>
-12.5731

> <Gold.Chemscore.Internal_Hbond.Weighted>
0.0000

> <Gold.Chemscore.DEClash.Weighted>
2.0370

> <Gold.Chemscore.DEInternal.Weighted>
2.4817

> <Gold.Chemscore.Rot.Weighted>
7.1322

> <Gold.Chemscore.Internal.Correction.Weighted>
   9.000000E+99

> <Gold.Protein.RotatedTorsions>
[ 6907 6896 6895 6894 ] final  -42.28 input  -60.11 | X-H torsion
[ 7974 7965 7964 7962 ] final  143.74 input  175.53 | X-H torsion
[ 8008 7997 7996 7995 ] final  -31.64 input   59.86 | X-H torsion
[ 10167 10162 10161 10158 ] final  -52.31 input  -65.29 | X-H torsion
[ 10718 10713 10712 10709 ] final -167.90 input   66.30 | X-H torsion
[ 10763 10752 10751 10750 ] final  121.91 input  -60.55 | X-H torsion
[ 11005 11000 10999 10996 ] final   83.78 input  -57.11 | X-H torsion

> <Gold.Protein.ActiveResidues>
 VAL166  LYS551  ARG553  GLY616  TRP617  ASP618  TYR619  PRO620  LYS621  CYS622 
 ASP623  PHE694  ASN695  SER759  ASP760  ASP761  ALA762  ILE779  LEU786  VAL792 
 PHE793  MET794  SER795  GLU796  ALA797  LYS798  CYS799  TRP800  GLU811  SER814 

> <Gold.Protein.RotatedAtoms>
  150.9570  134.8963  159.7707 H   0  0  0  0  0  0  0  0  0  0  0  0  # atno 6907 bound_to 6896
  152.5142  134.3726  159.9333 H   0  0  0  0  0  0  0  0  0  0  0  0  # atno 6908 bound_to 6896
  151.3739  133.3804  159.2737 H   0  0  0  0  0  0  0  0  0  0  0  0  # atno 6909 bound_to 6896
  144.8895  139.5579  143.5805 H   0  0  0  0  0  0  0  0  0  0  0  0  # atno 7974 bound_to 7965
  154.4207  140.1759  156.1598 H   0  0  0  0  0  0  0  0  0  0  0  0  # atno 8008 bound_to 7997
  155.9847  140.3374  155.6672 H   0  0  0  0  0  0  0  0  0  0  0  0  # atno 8009 bound_to 7997
  155.6453  140.0684  157.2596 H   0  0  0  0  0  0  0  0  0  0  0  0  # atno 8010 bound_to 7997
  140.6544  143.2588  151.4629 H   0  0  0  0  0  0  0  0  0  0  0  0  # atno 10167 bound_to 10162
  156.6890  130.9152  151.3067 H   0  0  0  0  0  0  0  0  0  0  0  0  # atno 10718 bound_to 10713
  153.6215  135.3412  155.3012 H   0  0  0  0  0  0  0  0  0  0  0  0  # atno 10763 bound_to 10752
  154.8599  135.4274  154.2203 H   0  0  0  0  0  0  0  0  0  0  0  0  # atno 10764 bound_to 10752
  153.3077  135.7029  153.7217 H   0  0  0  0  0  0  0  0  0  0  0  0  # atno 10765 bound_to 10752
  139.9020  134.8169  156.2356 H   0  0  0  0  0  0  0  0  0  0  0  0  # atno 11005 bound_to 11000
  146.3045  139.7534  142.9066 LP  0  0  0  0  0  0  0  0  0  0  0  0  # atno 17320 bound_to 7965
  145.3809  141.0358  143.3178 LP  0  0  0  0  0  0  0  0  0  0  0  0  # atno 17321 bound_to 7965
  139.5764  144.1810  152.1909 LP  0  0  0  0  0  0  0  0  0  0  0  0  # atno 17342 bound_to 10162
  140.1121  144.5447  150.6918 LP  0  0  0  0  0  0  0  0  0  0  0  0  # atno 17343 bound_to 10162
  157.7016  130.9339  150.0801 LP  0  0  0  0  0  0  0  0  0  0  0  0  # atno 17370 bound_to 10713
  156.1811  130.3650  149.9034 LP  0  0  0  0  0  0  0  0  0  0  0  0  # atno 17371 bound_to 10713
  141.0317  133.6985  156.1442 LP  0  0  0  0  0  0  0  0  0  0  0  0  # atno 17394 bound_to 11000
  140.7086  134.4486  157.5583 LP  0  0  0  0  0  0  0  0  0  0  0  0  # atno 17395 bound_to 11000

$$$$
