AV-unprocessed.smi:1403|AV-procd|sdf|5699|dock8
  -GOLD-   22720 5333D 1   1.00000     0.00000
 Structure written by MMmdl.
 36 37  0  0  0  0  0  0  0  0  1 V2000
  145.5690  135.6600  151.5489 C   0  0  0  0  0  0  0  0  0  0  0  0
  145.8494  134.3814  152.3517 C   0  0  2  0  0  0  0  0  0  0  0  0
  147.2943  134.2468  152.5297 N   0  0  0  0  0  0  0  0  0  0  0  0
  147.9284  133.2014  153.0836 C   0  0  0  0  0  0  0  0  0  0  0  0
  147.3467  132.1987  153.4995 O   0  0  0  0  0  0  0  0  0  0  0  0
  149.4593  133.2998  153.1455 C   0  0  0  0  0  0  0  0  0  0  0  0
  150.0101  132.8776  154.4415 N   0  0  0  0  0  0  0  0  0  0  0  0
  150.5961  133.8060  155.2902 C   0  0  0  0  0  0  0  0  0  0  0  0
  151.1303  133.4841  156.4922 C   0  0  0  0  0  0  0  0  0  0  0  0
  151.1127  132.1032  156.9625 C   0  0  0  0  0  0  0  0  0  0  0  0
  151.5686  131.7131  158.0349 O   0  0  0  0  0  0  0  0  0  0  0  0
  150.5172  131.1988  156.0794 N   0  0  0  0  0  0  0  0  0  0  0  0
  149.9666  131.5233  154.8385 C   0  0  0  0  0  0  0  0  0  0  0  0
  149.4679  130.6460  154.1345 O   0  0  0  0  0  0  0  0  0  0  0  0
  145.2736  133.1292  151.6587 C   0  0  1  0  0  0  0  0  0  0  0  0
  143.7504  133.1038  151.5306 C   0  0  0  0  0  0  0  0  0  0  0  0
  143.5549  132.1007  150.4165 C   0  0  0  0  0  0  0  0  0  0  0  0
  144.7505  132.3800  149.5066 C   0  0  0  0  0  0  0  0  0  0  0  0
  145.7208  133.0496  150.3092 O   0  0  0  0  0  0  0  0  0  0  0  0
  150.4840  130.2300  156.3612 H   0  0  0  0  0  0  0  0  0  0  0  0
  144.4978  135.8211  151.4256 H   0  0  0  0  0  0  0  0  0  0  0  0
  146.0145  135.6119  150.5546 H   0  0  0  0  0  0  0  0  0  0  0  0
  145.9746  136.5371  152.0542 H   0  0  0  0  0  0  0  0  0  0  0  0
  145.3644  134.4921  153.3233 H   0  0  0  0  0  0  0  0  0  0  0  0
  147.8596  135.0193  152.2086 H   0  0  0  0  0  0  0  0  0  0  0  0
  149.8686  132.6857  152.3423 H   0  0  0  0  0  0  0  0  0  0  0  0
  149.7766  134.3195  152.9176 H   0  0  0  0  0  0  0  0  0  0  0  0
  150.6356  134.8408  154.9814 H   0  0  0  0  0  0  0  0  0  0  0  0
  151.5738  134.2524  157.1088 H   0  0  0  0  0  0  0  0  0  0  0  0
  145.6034  132.2266  152.1767 H   0  0  0  0  0  0  0  0  0  0  0  0
  143.2475  132.8165  152.4543 H   0  0  0  0  0  0  0  0  0  0  0  0
  143.3749  134.0814  151.2244 H   0  0  0  0  0  0  0  0  0  0  0  0
  143.6179  131.0875  150.8152 H   0  0  0  0  0  0  0  0  0  0  0  0
  142.5969  132.2074  149.9070 H   0  0  0  0  0  0  0  0  0  0  0  0
  145.1590  131.4617  149.0839 H   0  0  0  0  0  0  0  0  0  0  0  0
  144.4684  133.0356  148.6822 H   0  0  0  0  0  0  0  0  0  0  0  0
  1  2  1  0  0  0  0
  1 21  1  0  0  0  0
  1 22  1  0  0  0  0
  1 23  1  0  0  0  0
  2  3  1  0  0  0  0
  2 15  1  0  0  0  0
  2 24  1  0  0  0  0
  3  4  1  0  0  0  0
  3 25  1  0  0  0  0
  4  5  2  0  0  0  0
  4  6  1  0  0  0  0
  6  7  1  0  0  0  0
  6 26  1  0  0  0  0
  6 27  1  0  0  0  0
  7 13  1  0  0  0  0
  7  8  1  0  0  0  0
  8  9  2  0  0  0  0
  8 28  1  0  0  0  0
  9 10  1  0  0  0  0
  9 29  1  0  0  0  0
 10 11  2  0  0  0  0
 10 12  1  0  0  0  0
 12 20  1  0  0  0  0
 12 13  1  0  0  0  0
 13 14  2  0  0  0  0
 15 19  1  0  0  0  0
 15 16  1  0  0  0  0
 15 30  1  0  0  0  0
 16 17  1  0  0  0  0
 16 31  1  0  0  0  0
 16 32  1  0  0  0  0
 17 18  1  0  0  0  0
 17 33  1  0  0  0  0
 17 34  1  0  0  0  0
 18 19  1  0  0  0  0
 18 35  1  0  0  0  0
 18 36  1  0  0  0  0
M  END
> <s_m_source_file>
AV-unprocessed.smi

> <i_m_source_file_index>
1403

> <i_lp_mmshare_version>
43012

> <i_f3d_flags>
0

> <s_epik_input>
TzFbQ0gyXVtDSDJdW0NIMl1bQ0BIXTFbQ0BIXShbQ0gzXSlbTkhdQyg9TylbQ0gyXW4yW2NIXVtjSF1jKD1PKVtuSF1jMj1P

> <s_epik_cmdline>
J2VwaWtfcHl0aG9uJywgJy1waCcsICc3LjAnLCAnLXRuJywgJzgnLCAnLW1hJywgJzIwMCcsICctbWV0YWxfYmluZGluZycsICctaW1hZScsICc8aW5maWxlLm1hZT4nLCAnLW9tYWUnLCAnPG91dGZpbGUubWFlPic=

> <r_lp_tautomer_probability>
0.999537

> <r_epik_Ionization_Penalty>
0.00331407

> <r_epik_Ionization_Penalty_Charging>
0.00331405

> <r_epik_Ionization_Penalty_Neutral>
2.30132e-08

> <r_epik_State_Penalty>
0.00234266

> <r_epik_Charging_Adjusted_Penalty>
0.00565671

> <i_epik_Tot_Q>
0

> <i_epik_Tot_abs_Q>
0

> <r_epik_Metal_State_Penalty>
0.365604

> <b_epik_Metal_Only>
0

> <s_lp_Force_Field>
OPLS_2005

> <r_lp_Energy>
18.4227

> <b_lp_Chiralities_Consistent>
1

> <s_lp_Variant>
AV-unprocessed.smi:1403-3

> <Gold.Version>
5.8.1

> <Gold.Id.Protein>
6NUR|6NUR_protein|mol2

> <Gold.PLP.Fitness>
38.2435

> <Gold.PLP.PLP>
-32.9455

> <Gold.PLP.part.hbond>
-2.0000

> <Gold.PLP.part.metal>
0.0000

> <Gold.PLP.part.buried>
-4.9603

> <Gold.PLP.part.nonpolar>
-25.8947

> <Gold.PLP.part.repulsive>
0.4420

> <Gold.PLP.ligand.clash>
0.0000

> <Gold.PLP.ligand.torsion>
0.3590

> <Gold.PLP.Chemscore.Hbond>
2.0000

> <Gold.PLP.Chemscore.CHOScore>
0.0000

> <Gold.PLP.Chemscore.Metal>
0.0000

> <Gold.Chemscore.Hbonds>
donor molecule, donor type, donor heavy atom, donor atom, acceptor molecule, acceptor atom, score
      L1  H     3    25       P1  7948  1.00
      P1  H  6896  6908       L1    11  1.00

> <Gold.PLP.Chemscore.Internal.Correction>
0.0160

> <Gold.Rescore>
     Score         DG    S(hbond)    S(metal)    S(lipo)     H(rot)  DE(clash)    DE(int)     intcor
     11.61     -13.97       1.91        0.00      62.63       2.04       0.51       1.85       ----

> <Gold.Chemscore.Fitness>
11.6054

> <Gold.Chemscore.DG>
-13.9739

> <Gold.Chemscore.ZeroCoef>
-5.4800

> <Gold.Chemscore.Hbond>
1.9123

> <Gold.Chemscore.Metal>
0.0000

> <Gold.Chemscore.Lipo>
62.6313

> <Gold.Chemscore.Internal_Hbond>
0.0000

> <Gold.Chemscore.DEClash>
0.5141

> <Gold.Chemscore.DEInternal>
1.8544

> <Gold.Chemscore.Rot>
2.0395

> <Gold.Chemscore.Internal.Correction>
   9.000000E+99

> <Gold.Chemscore.Hbonds>
donor molecule, donor type, donor heavy atom, donor atom, acceptor molecule, acceptor atom, score
      L1  H     3    25       P1  7948  0.85
      P1  H  6896  6908       L1    11  0.63

> <Gold.Chemscore.Hbond.Weighted>
-6.3871

> <Gold.Chemscore.Metal.Weighted>
-0.0000

> <Gold.Chemscore.Lipo.Weighted>
-7.3279

> <Gold.Chemscore.Internal_Hbond.Weighted>
0.0000

> <Gold.Chemscore.DEClash.Weighted>
0.5141

> <Gold.Chemscore.DEInternal.Weighted>
1.8544

> <Gold.Chemscore.Rot.Weighted>
5.2211

> <Gold.Chemscore.Internal.Correction.Weighted>
   9.000000E+99

> <Gold.Protein.RotatedTorsions>
[ 6907 6896 6895 6894 ] final   58.85 input  -60.11 | X-H torsion
[ 7974 7965 7964 7962 ] final  114.36 input  175.53 | X-H torsion
[ 8008 7997 7996 7995 ] final -110.31 input   59.86 | X-H torsion
[ 10167 10162 10161 10158 ] final  -59.86 input  -65.29 | X-H torsion
[ 10718 10713 10712 10709 ] final  -83.97 input   66.30 | X-H torsion
[ 10763 10752 10751 10750 ] final  -58.79 input  -60.55 | X-H torsion
[ 11005 11000 10999 10996 ] final   97.85 input  -57.11 | X-H torsion

> <Gold.Protein.ActiveResidues>
 VAL166  LYS551  ARG553  GLY616  TRP617  ASP618  TYR619  PRO620  LYS621  CYS622 
 ASP623  PHE694  ASN695  SER759  ASP760  ASP761  ALA762  ILE779  LEU786  VAL792 
 PHE793  MET794  SER795  GLU796  ALA797  LYS798  CYS799  TRP800  GLU811  SER814 

> <Gold.Protein.RotatedAtoms>
  152.3862  134.6514  160.0124 H   0  0  0  0  0  0  0  0  0  0  0  0  # atno 6907 bound_to 6896
  151.6762  133.3307  159.3216 H   0  0  0  0  0  0  0  0  0  0  0  0  # atno 6908 bound_to 6896
  150.7787  134.6757  159.6460 H   0  0  0  0  0  0  0  0  0  0  0  0  # atno 6909 bound_to 6896
  145.2054  139.2932  143.4296 H   0  0  0  0  0  0  0  0  0  0  0  0  # atno 7974 bound_to 7965
  154.9726  140.0397  157.2241 H   0  0  0  0  0  0  0  0  0  0  0  0  # atno 8008 bound_to 7997
  154.7787  140.2815  155.6058 H   0  0  0  0  0  0  0  0  0  0  0  0  # atno 8009 bound_to 7997
  156.2933  140.2596  156.2607 H   0  0  0  0  0  0  0  0  0  0  0  0  # atno 8010 bound_to 7997
  140.6108  143.2387  151.5713 H   0  0  0  0  0  0  0  0  0  0  0  0  # atno 10167 bound_to 10162
  156.0012  130.4683  150.4338 H   0  0  0  0  0  0  0  0  0  0  0  0  # atno 10718 bound_to 10713
  154.2436  135.6339  153.5215 H   0  0  0  0  0  0  0  0  0  0  0  0  # atno 10763 bound_to 10752
  152.9925  135.5548  154.5884 H   0  0  0  0  0  0  0  0  0  0  0  0  # atno 10764 bound_to 10752
  154.5395  135.2894  155.1083 H   0  0  0  0  0  0  0  0  0  0  0  0  # atno 10765 bound_to 10752
  139.8774  134.9021  156.4369 H   0  0  0  0  0  0  0  0  0  0  0  0  # atno 11005 bound_to 11000
  146.3409  140.2312  142.8593 LP  0  0  0  0  0  0  0  0  0  0  0  0  # atno 17320 bound_to 7965
  144.9907  140.8544  143.5341 LP  0  0  0  0  0  0  0  0  0  0  0  0  # atno 17321 bound_to 7965
  139.5360  144.2780  152.1252 LP  0  0  0  0  0  0  0  0  0  0  0  0  # atno 17342 bound_to 10162
  140.1979  144.4687  150.6446 LP  0  0  0  0  0  0  0  0  0  0  0  0  # atno 17343 bound_to 10162
  157.2385  131.0520  151.2450 LP  0  0  0  0  0  0  0  0  0  0  0  0  # atno 17370 bound_to 10713
  157.3643  130.7147  149.6522 LP  0  0  0  0  0  0  0  0  0  0  0  0  # atno 17371 bound_to 10713
  140.9027  133.7768  155.9699 LP  0  0  0  0  0  0  0  0  0  0  0  0  # atno 17394 bound_to 11000
  140.8633  134.2814  157.5224 LP  0  0  0  0  0  0  0  0  0  0  0  0  # atno 17395 bound_to 11000

$$$$
