AV-unprocessed.smi:2453|AV-procd|sdf|9689|dock7
  -GOLD-   2272013323D 1   1.00000     0.00000
 Structure written by MMmdl.
 40 41  0  0  0  0  0  0  0  0  1 V2000
  150.9655  137.4432  154.4243 C   0  0  0  0  0  0  0  0  0  0  0  0
  150.5323  138.8515  154.7923 C   0  0  0  0  0  0  0  0  0  0  0  0
  151.4076  139.6902  155.5158 C   0  0  0  0  0  0  0  0  0  0  0  0
  151.1022  140.9529  155.8783 N   0  0  0  0  0  0  0  0  0  0  0  0
  149.8944  141.4342  155.5196 C   0  0  0  0  0  0  0  0  0  0  0  0
  148.9443  140.6865  154.7971 C   0  0  0  0  0  0  0  0  0  0  0  0
  149.2583  139.3548  154.4312 C   0  0  0  0  0  0  0  0  0  0  0  0
  148.3789  138.5143  153.6903 N   0  0  0  0  0  0  0  0  0  0  0  0
  147.0361  138.5374  153.6268 C   0  0  0  0  0  0  0  0  0  0  0  0
  146.3045  139.3244  154.2267 O   0  0  0  0  0  0  0  0  0  0  0  0
  146.5759  137.5650  152.8267 N   0  0  0  0  0  0  0  0  0  0  0  0
  145.1664  137.3033  152.5285 C   0  0  2  0  0  0  0  0  0  0  0  0
  144.3326  137.2221  153.8261 C   0  0  0  0  0  0  0  0  0  0  0  0
  144.6538  135.9608  154.6450 C   0  0  0  0  0  0  0  0  0  0  0  0
  144.4831  134.6917  153.7981 C   0  0  0  0  0  0  0  0  0  0  0  0
  145.3257  134.7582  152.5144 C   0  0  0  0  0  0  0  0  0  0  0  0
  144.9987  136.0147  151.6790 C   0  0  2  0  0  0  0  0  0  0  0  0
  145.8037  136.0299  150.3621 C   0  0  0  0  0  0  0  0  0  0  0  0
  146.0011  137.3528  149.9088 O   0  0  0  0  0  0  0  0  0  0  0  0
  151.9636  137.2230  154.8040 H   0  0  0  0  0  0  0  0  0  0  0  0
  150.9831  137.3214  153.3409 H   0  0  0  0  0  0  0  0  0  0  0  0
  150.2765  136.7099  154.8445 H   0  0  0  0  0  0  0  0  0  0  0  0
  152.3851  139.3398  155.8134 H   0  0  0  0  0  0  0  0  0  0  0  0
  149.6798  142.4514  155.8119 H   0  0  0  0  0  0  0  0  0  0  0  0
  148.0084  141.1530  154.5323 H   0  0  0  0  0  0  0  0  0  0  0  0
  148.8282  137.7588  153.1941 H   0  0  0  0  0  0  0  0  0  0  0  0
  147.2499  136.9588  152.3826 H   0  0  0  0  0  0  0  0  0  0  0  0
  144.7865  138.1416  151.9419 H   0  0  0  0  0  0  0  0  0  0  0  0
  144.4861  138.1122  154.4371 H   0  0  0  0  0  0  0  0  0  0  0  0
  143.2730  137.2164  153.5676 H   0  0  0  0  0  0  0  0  0  0  0  0
  145.6752  136.0153  155.0238 H   0  0  0  0  0  0  0  0  0  0  0  0
  144.0040  135.9118  155.5192 H   0  0  0  0  0  0  0  0  0  0  0  0
  144.7642  133.8153  154.3827 H   0  0  0  0  0  0  0  0  0  0  0  0
  143.4312  134.5649  153.5386 H   0  0  0  0  0  0  0  0  0  0  0  0
  146.3854  134.7471  152.7726 H   0  0  0  0  0  0  0  0  0  0  0  0
  145.1467  133.8604  151.9219 H   0  0  0  0  0  0  0  0  0  0  0  0
  143.9448  135.9435  151.4048 H   0  0  0  0  0  0  0  0  0  0  0  0
  146.7694  135.5371  150.4760 H   0  0  0  0  0  0  0  0  0  0  0  0
  145.2628  135.4883  149.5856 H   0  0  0  0  0  0  0  0  0  0  0  0
  145.1608  137.7249  149.6882 H   0  0  0  0  0  0  0  0  0  0  0  0
  1  2  1  0  0  0  0
  1 20  1  0  0  0  0
  1 21  1  0  0  0  0
  1 22  1  0  0  0  0
  2  7  1  0  0  0  0
  2  3  2  0  0  0  0
  3  4  1  0  0  0  0
  3 23  1  0  0  0  0
  4  5  2  0  0  0  0
  5  6  1  0  0  0  0
  5 24  1  0  0  0  0
  6  7  2  0  0  0  0
  6 25  1  0  0  0  0
  7  8  1  0  0  0  0
  8  9  1  0  0  0  0
  8 26  1  0  0  0  0
  9 10  2  0  0  0  0
  9 11  1  0  0  0  0
 11 12  1  0  0  0  0
 11 27  1  0  0  0  0
 12 17  1  0  0  0  0
 12 13  1  0  0  0  0
 12 28  1  0  0  0  0
 13 14  1  0  0  0  0
 13 29  1  0  0  0  0
 13 30  1  0  0  0  0
 14 15  1  0  0  0  0
 14 31  1  0  0  0  0
 14 32  1  0  0  0  0
 15 16  1  0  0  0  0
 15 33  1  0  0  0  0
 15 34  1  0  0  0  0
 16 17  1  0  0  0  0
 16 35  1  0  0  0  0
 16 36  1  0  0  0  0
 17 18  1  0  0  0  0
 17 37  1  0  0  0  0
 18 19  1  0  0  0  0
 18 38  1  0  0  0  0
 18 39  1  0  0  0  0
 19 40  1  0  0  0  0
M  END
> <s_m_source_file>
AV-unprocessed.smi

> <i_m_source_file_index>
2453

> <i_lp_mmshare_version>
43012

> <i_f3d_flags>
0

> <s_epik_input>
W0NIM11jMVtjSF1uW2NIXVtjSF1jMVtOSF1DKD1PKVtOSF1bQ0BASF0yW0NIMl1bQ0gyXVtDSDJdW0NIMl1bQ0BIXTJbQ0gyXVtPSF0=

> <s_epik_cmdline>
J2VwaWtfcHl0aG9uJywgJy1waCcsICc3LjAnLCAnLXRuJywgJzgnLCAnLW1hJywgJzIwMCcsICctbWV0YWxfYmluZGluZycsICctaW1hZScsICc8aW5maWxlLm1hZT4nLCAnLW9tYWUnLCAnPG91dGZpbGUubWFlPic=

> <r_epik_Ionization_Penalty>
0.210691

> <r_epik_Ionization_Penalty_Charging>
0

> <r_epik_Ionization_Penalty_Neutral>
0.210691

> <r_epik_State_Penalty>
0.200732

> <r_epik_Charging_Adjusted_Penalty>
0.200732

> <i_epik_Tot_Q>
0

> <i_epik_Tot_abs_Q>
0

> <r_epik_Metal_State_Penalty>
0.147519

> <b_epik_Metal_Only>
0

> <s_lp_Force_Field>
OPLS_2005

> <r_lp_Energy>
18.5766

> <b_lp_Chiralities_Consistent>
1

> <s_lp_Variant>
AV-unprocessed.smi:2453-3

> <Gold.Version>
5.8.1

> <Gold.Id.Protein>
6NUR|6NUR_protein|mol2

> <Gold.PLP.Fitness>
41.4443

> <Gold.PLP.PLP>
-29.9214

> <Gold.PLP.part.hbond>
-5.4716

> <Gold.PLP.part.metal>
0.0000

> <Gold.PLP.part.buried>
-0.7224

> <Gold.PLP.part.nonpolar>
-23.5669

> <Gold.PLP.part.repulsive>
0.2247

> <Gold.PLP.ligand.clash>
0.0013

> <Gold.PLP.ligand.torsion>
0.5793

> <Gold.PLP.Chemscore.Hbond>
3.2213

> <Gold.PLP.Chemscore.CHOScore>
1.0000

> <Gold.PLP.Chemscore.Metal>
0.0000

> <Gold.Chemscore.Hbonds>
donor molecule, donor type, donor heavy atom, donor atom, acceptor molecule, acceptor atom, score
      L1  H     8    26       P1  7948  1.00
      L1  H    11    27       P1  7948  1.00
      L1  H    19    40       P1 10171  1.00
      P1  H  7954  7966       L1    19  0.32
      L1  C     5    24       P1  8028  1.00

> <Gold.PLP.Chemscore.Internal.Correction>
0.0191

> <Gold.Rescore>
     Score         DG    S(hbond)    S(metal)    S(lipo)     H(rot)  DE(clash)    DE(int)     intcor
     16.47     -21.13       3.59        0.00      69.66       1.75       0.39       4.27       ----

> <Gold.Chemscore.Fitness>
16.4665

> <Gold.Chemscore.DG>
-21.1282

> <Gold.Chemscore.ZeroCoef>
-5.4800

> <Gold.Chemscore.Hbond>
3.5856

> <Gold.Chemscore.Metal>
0.0000

> <Gold.Chemscore.Lipo>
69.6618

> <Gold.Chemscore.Internal_Hbond>
0.0000

> <Gold.Chemscore.DEClash>
0.3907

> <Gold.Chemscore.DEInternal>
4.2709

> <Gold.Chemscore.Rot>
1.7493

> <Gold.Chemscore.Internal.Correction>
   9.000000E+99

> <Gold.Chemscore.Hbonds>
donor molecule, donor type, donor heavy atom, donor atom, acceptor molecule, acceptor atom, score
      L1  H     8    26       P1  7948  0.94
      L1  H    11    27       P1  7948  0.99
      L1  H    19    40       P1 10171  0.93
      P1  H  7954  7966       L1    19  0.25

> <Gold.Chemscore.Hbond.Weighted>
-11.9759

> <Gold.Chemscore.Metal.Weighted>
-0.0000

> <Gold.Chemscore.Lipo.Weighted>
-8.1504

> <Gold.Chemscore.Internal_Hbond.Weighted>
0.0000

> <Gold.Chemscore.DEClash.Weighted>
0.3907

> <Gold.Chemscore.DEInternal.Weighted>
4.2709

> <Gold.Chemscore.Rot.Weighted>
4.4782

> <Gold.Chemscore.Internal.Correction.Weighted>
   9.000000E+99

> <Gold.Protein.RotatedTorsions>
[ 6907 6896 6895 6894 ] final -137.23 input  -60.11 | X-H torsion
[ 7974 7965 7964 7962 ] final   41.57 input  175.53 | X-H torsion
[ 8008 7997 7996 7995 ] final -112.50 input   59.86 | X-H torsion
[ 10167 10162 10161 10158 ] final  108.79 input  -65.29 | X-H torsion
[ 10718 10713 10712 10709 ] final -105.36 input   66.30 | X-H torsion
[ 10763 10752 10751 10750 ] final -173.61 input  -60.55 | X-H torsion
[ 11005 11000 10999 10996 ] final   74.67 input  -57.11 | X-H torsion

> <Gold.Protein.ActiveResidues>
 VAL166  LYS551  ARG553  GLY616  TRP617  ASP618  TYR619  PRO620  LYS621  CYS622 
 ASP623  PHE694  ASN695  SER759  ASP760  ASP761  ALA762  ILE779  LEU786  VAL792 
 PHE793  MET794  SER795  GLU796  ALA797  LYS798  CYS799  TRP800  GLU811  SER814 

> <Gold.Protein.RotatedAtoms>
  151.0199  133.5886  159.2672 H   0  0  0  0  0  0  0  0  0  0  0  0  # atno 6907 bound_to 6896
  151.3007  135.0767  159.9247 H   0  0  0  0  0  0  0  0  0  0  0  0  # atno 6908 bound_to 6896
  152.5320  133.9881  159.7892 H   0  0  0  0  0  0  0  0  0  0  0  0  # atno 6909 bound_to 6896
  146.0813  139.5401  142.9535 H   0  0  0  0  0  0  0  0  0  0  0  0  # atno 7974 bound_to 7965
  155.0061  140.0394  157.2380 H   0  0  0  0  0  0  0  0  0  0  0  0  # atno 8008 bound_to 7997
  154.7501  140.2765  155.6277 H   0  0  0  0  0  0  0  0  0  0  0  0  # atno 8009 bound_to 7997
  156.2883  140.2648  156.2252 H   0  0  0  0  0  0  0  0  0  0  0  0  # atno 8010 bound_to 7997
  139.6818  144.7117  151.1502 H   0  0  0  0  0  0  0  0  0  0  0  0  # atno 10167 bound_to 10162
  156.0343  130.5560  150.7528 H   0  0  0  0  0  0  0  0  0  0  0  0  # atno 10718 bound_to 10713
  154.6058  135.2859  155.0486 H   0  0  0  0  0  0  0  0  0  0  0  0  # atno 10763 bound_to 10752
  154.1734  135.6469  153.5019 H   0  0  0  0  0  0  0  0  0  0  0  0  # atno 10764 bound_to 10752
  153.0175  135.5406  154.6794 H   0  0  0  0  0  0  0  0  0  0  0  0  # atno 10765 bound_to 10752
  139.9380  134.7452  156.1176 H   0  0  0  0  0  0  0  0  0  0  0  0  # atno 11005 bound_to 11000
  145.6213  141.0322  143.1913 LP  0  0  0  0  0  0  0  0  0  0  0  0  # atno 17320 bound_to 7965
  144.7295  139.7770  143.7352 LP  0  0  0  0  0  0  0  0  0  0  0  0  # atno 17321 bound_to 7965
  140.7655  143.5687  150.9019 LP  0  0  0  0  0  0  0  0  0  0  0  0  # atno 17342 bound_to 10162
  139.9360  143.6437  152.3065 LP  0  0  0  0  0  0  0  0  0  0  0  0  # atno 17343 bound_to 10162
  157.5068  131.0922  151.0248 LP  0  0  0  0  0  0  0  0  0  0  0  0  # atno 17370 bound_to 10713
  157.0614  130.5827  149.5386 LP  0  0  0  0  0  0  0  0  0  0  0  0  # atno 17371 bound_to 10713
  141.1002  133.6680  156.2738 LP  0  0  0  0  0  0  0  0  0  0  0  0  # atno 17394 bound_to 11000
  140.6025  134.5540  157.5520 LP  0  0  0  0  0  0  0  0  0  0  0  0  # atno 17395 bound_to 11000

$$$$
