AV-unprocessed.smi:525|AV-procd|sdf|2807|dock7
  -GOLD-   2262023283D 1   1.00000     0.00000
 Structure written by MMmdl.
 43 45  0  0  0  0  0  0  0  0  1 V2000
  150.4676  144.8863  159.6142 C   0  0  0  0  0  0  0  0  0  0  0  0
  151.6048  144.7184  160.4428 O   0  0  0  0  0  0  0  0  0  0  0  0
  151.9647  143.3566  160.5945 C   0  0  0  0  0  0  0  0  0  0  0  0
  152.4298  142.8046  159.2417 C   0  0  0  0  0  0  0  0  0  0  0  0
  152.5102  141.3525  159.2562 N   0  0  0  0  0  0  0  0  0  0  0  0
  151.8127  140.4722  158.4980 C   0  0  0  0  0  0  0  0  0  0  0  0
  150.6347  141.0008  157.2993 S   0  0  0  0  0  0  0  0  0  0  0  0
  150.3124  139.3952  156.4937 C   0  0  2  0  0  0  0  0  0  0  0  0
  151.5286  138.8795  155.7071 C   0  0  0  0  0  0  0  0  0  0  0  0
  151.4726  137.6138  155.2837 N   0  0  0  0  0  0  0  0  0  0  0  0
  152.4960  139.5997  155.4630 O   0  0  0  0  0  0  0  0  0  0  0  0
  149.0562  139.4969  155.6300 C   0  0  0  0  0  0  0  0  0  0  0  0
  148.3909  140.7321  155.4517 C   0  0  0  0  0  0  0  0  0  0  0  0
  147.2220  140.8055  154.6701 C   0  0  0  0  0  0  0  0  0  0  0  0
  146.7091  139.6458  154.0587 C   0  0  0  0  0  0  0  0  0  0  0  0
  147.3665  138.4128  154.2298 C   0  0  0  0  0  0  0  0  0  0  0  0
  148.5355  138.3387  155.0116 C   0  0  0  0  0  0  0  0  0  0  0  0
  152.0785  139.1837  158.7140 N   0  0  0  0  0  0  0  0  0  0  0  0
  153.0319  139.2332  159.7123 C   0  0  0  0  0  0  0  0  0  0  0  0
  153.7155  138.1930  160.3818 C   0  0  0  0  0  0  0  0  0  0  0  0
  154.6599  138.4909  161.3861 C   0  0  0  0  0  0  0  0  0  0  0  0
  154.9329  139.8294  161.7352 C   0  0  0  0  0  0  0  0  0  0  0  0
  154.2633  140.8807  161.0801 C   0  0  0  0  0  0  0  0  0  0  0  0
  153.3231  140.5782  160.0770 C   0  0  0  0  0  0  0  0  0  0  0  0
  150.2250  145.9458  159.5339 H   0  0  0  0  0  0  0  0  0  0  0  0
  149.5989  144.3720  160.0273 H   0  0  0  0  0  0  0  0  0  0  0  0
  150.6531  144.5073  158.6086 H   0  0  0  0  0  0  0  0  0  0  0  0
  152.7595  143.2595  161.3359 H   0  0  0  0  0  0  0  0  0  0  0  0
  151.1080  142.7883  160.9547 H   0  0  0  0  0  0  0  0  0  0  0  0
  151.7543  143.1191  158.4459 H   0  0  0  0  0  0  0  0  0  0  0  0
  153.4106  143.2084  158.9887 H   0  0  0  0  0  0  0  0  0  0  0  0
  150.1182  138.6538  157.2695 H   0  0  0  0  0  0  0  0  0  0  0  0
  152.2426  137.2240  154.7587 H   0  0  0  0  0  0  0  0  0  0  0  0
  150.6584  137.0525  155.4870 H   0  0  0  0  0  0  0  0  0  0  0  0
  148.7755  141.6291  155.9148 H   0  0  0  0  0  0  0  0  0  0  0  0
  146.7192  141.7524  154.5396 H   0  0  0  0  0  0  0  0  0  0  0  0
  145.8124  139.7027  153.4595 H   0  0  0  0  0  0  0  0  0  0  0  0
  146.9732  137.5224  153.7618 H   0  0  0  0  0  0  0  0  0  0  0  0
  149.0282  137.3857  155.1373 H   0  0  0  0  0  0  0  0  0  0  0  0
  153.5130  137.1643  160.1226 H   0  0  0  0  0  0  0  0  0  0  0  0
  155.1773  137.6884  161.8913 H   0  0  0  0  0  0  0  0  0  0  0  0
  155.6569  140.0490  162.5061 H   0  0  0  0  0  0  0  0  0  0  0  0
  154.4702  141.9067  161.3457 H   0  0  0  0  0  0  0  0  0  0  0  0
  1  2  1  0  0  0  0
  1 25  1  0  0  0  0
  1 26  1  0  0  0  0
  1 27  1  0  0  0  0
  2  3  1  0  0  0  0
  3  4  1  0  0  0  0
  3 28  1  0  0  0  0
  3 29  1  0  0  0  0
  4  5  1  0  0  0  0
  4 30  1  0  0  0  0
  4 31  1  0  0  0  0
  5 24  1  0  0  0  0
  5  6  1  0  0  0  0
  6  7  1  0  0  0  0
  6 18  2  0  0  0  0
  7  8  1  0  0  0  0
  8  9  1  0  0  0  0
  8 12  1  0  0  0  0
  8 32  1  0  0  0  0
  9 10  1  0  0  0  0
  9 11  2  0  0  0  0
 10 33  1  0  0  0  0
 10 34  1  0  0  0  0
 12 17  1  0  0  0  0
 12 13  2  0  0  0  0
 13 14  1  0  0  0  0
 13 35  1  0  0  0  0
 14 15  2  0  0  0  0
 14 36  1  0  0  0  0
 15 16  1  0  0  0  0
 15 37  1  0  0  0  0
 16 17  2  0  0  0  0
 16 38  1  0  0  0  0
 17 39  1  0  0  0  0
 18 19  1  0  0  0  0
 19 24  2  0  0  0  0
 19 20  1  0  0  0  0
 20 21  2  0  0  0  0
 20 40  1  0  0  0  0
 21 22  1  0  0  0  0
 21 41  1  0  0  0  0
 22 23  2  0  0  0  0
 22 42  1  0  0  0  0
 23 24  1  0  0  0  0
 23 43  1  0  0  0  0
M  END
> <s_m_source_file>
AV-unprocessed.smi

> <i_m_source_file_index>
525

> <i_lp_mmshare_version>
43012

> <i_f3d_flags>
0

> <s_epik_input>
W2NIXTFbY0hdW2NIXVtjSF1jKGMxMiluKFtDSDJdW0NIMl1PW0NIM10pYyhuMilTW0NASF0oQyg9TylbTkgyXSljM1tjSF1bY0hdW2NIXVtjSF1bY0hdMw==

> <s_epik_cmdline>
J2VwaWtfcHl0aG9uJywgJy1waCcsICc3LjAnLCAnLXRuJywgJzgnLCAnLW1hJywgJzIwMCcsICctbWV0YWxfYmluZGluZycsICctaW1hZScsICc8aW5maWxlLm1hZT4nLCAnLW9tYWUnLCAnPG91dGZpbGUubWFlPic=

> <r_epik_Ionization_Penalty>
0.0706634

> <r_epik_Ionization_Penalty_Charging>
0

> <r_epik_Ionization_Penalty_Neutral>
0.0706634

> <r_epik_State_Penalty>
0.0619781

> <r_epik_Charging_Adjusted_Penalty>
0.0619781

> <i_epik_Tot_Q>
0

> <i_epik_Tot_abs_Q>
0

> <r_epik_Metal_State_Penalty>
0.0552401

> <b_epik_Metal_Only>
0

> <s_lp_Force_Field>
OPLS_2005

> <r_lp_Energy>
11.715

> <b_lp_Chiralities_Consistent>
1

> <s_lp_Variant>
AV-unprocessed.smi:525-1

> <Gold.Version>
5.8.1

> <Gold.Id.Protein>
6NUR|6NUR_protein|mol2

> <Gold.PLP.Fitness>
53.8408

> <Gold.PLP.PLP>
-51.1955

> <Gold.PLP.part.hbond>
-2.0000

> <Gold.PLP.part.metal>
0.0000

> <Gold.PLP.part.buried>
-5.6688

> <Gold.PLP.part.nonpolar>
-44.3764

> <Gold.PLP.part.repulsive>
0.2299

> <Gold.PLP.ligand.clash>
0.0000

> <Gold.PLP.ligand.torsion>
0.4184

> <Gold.PLP.Chemscore.Hbond>
1.0978

> <Gold.PLP.Chemscore.CHOScore>
0.0000

> <Gold.PLP.Chemscore.Metal>
0.0000

> <Gold.Chemscore.Hbonds>
donor molecule, donor type, donor heavy atom, donor atom, acceptor molecule, acceptor atom, score
      P1  H  7997  8008       L1    11  0.91

> <Gold.PLP.Chemscore.Internal.Correction>
0.1887

> <Gold.Rescore>
     Score         DG    S(hbond)    S(metal)    S(lipo)     H(rot)  DE(clash)    DE(int)     intcor
     16.42     -18.36       1.00        0.00     134.92       2.44       0.10       1.84       ----

> <Gold.Chemscore.Fitness>
16.4245

> <Gold.Chemscore.DG>
-18.3571

> <Gold.Chemscore.ZeroCoef>
-5.4800

> <Gold.Chemscore.Hbond>
0.9991

> <Gold.Chemscore.Metal>
0.0000

> <Gold.Chemscore.Lipo>
134.9201

> <Gold.Chemscore.Internal_Hbond>
0.0000

> <Gold.Chemscore.DEClash>
0.0952

> <Gold.Chemscore.DEInternal>
1.8374

> <Gold.Chemscore.Rot>
2.4396

> <Gold.Chemscore.Internal.Correction>
   9.000000E+99

> <Gold.Chemscore.Hbonds>
donor molecule, donor type, donor heavy atom, donor atom, acceptor molecule, acceptor atom, score
      P1  H  7989  7998       L1    11  0.01
      P1  H  7997  8008       L1    11  0.87

> <Gold.Chemscore.Hbond.Weighted>
-3.3369

> <Gold.Chemscore.Metal.Weighted>
-0.0000

> <Gold.Chemscore.Lipo.Weighted>
-15.7856

> <Gold.Chemscore.Internal_Hbond.Weighted>
0.0000

> <Gold.Chemscore.DEClash.Weighted>
0.0952

> <Gold.Chemscore.DEInternal.Weighted>
1.8374

> <Gold.Chemscore.Rot.Weighted>
6.2454

> <Gold.Chemscore.Internal.Correction.Weighted>
   9.000000E+99

> <Gold.Protein.RotatedTorsions>
[ 6907 6896 6895 6894 ] final  109.05 input  -60.11 | X-H torsion
[ 7974 7965 7964 7962 ] final   58.05 input  175.53 | X-H torsion
[ 8008 7997 7996 7995 ] final  -36.44 input   59.86 | X-H torsion
[ 10167 10162 10161 10158 ] final   34.77 input  -65.29 | X-H torsion
[ 10718 10713 10712 10709 ] final  -70.81 input   66.30 | X-H torsion
[ 10763 10752 10751 10750 ] final  -43.81 input  -60.55 | X-H torsion
[ 11005 11000 10999 10996 ] final   -1.11 input  -57.11 | X-H torsion

> <Gold.Protein.ActiveResidues>
 VAL166  LYS551  ARG553  GLY616  TRP617  ASP618  TYR619  PRO620  LYS621  CYS622 
 ASP623  PHE694  ASN695  SER759  ASP760  ASP761  ALA762  ILE779  LEU786  VAL792 
 PHE793  MET794  SER795  GLU796  ALA797  LYS798  CYS799  TRP800  GLU811  SER814 

> <Gold.Protein.RotatedAtoms>
  152.5085  133.9000  159.7436 H   0  0  0  0  0  0  0  0  0  0  0  0  # atno 6907 bound_to 6896
  150.9418  133.6639  159.2796 H   0  0  0  0  0  0  0  0  0  0  0  0  # atno 6908 bound_to 6896
  151.3948  135.0966  159.9590 H   0  0  0  0  0  0  0  0  0  0  0  0  # atno 6909 bound_to 6896
  145.9224  139.3740  143.0470 H   0  0  0  0  0  0  0  0  0  0  0  0  # atno 7974 bound_to 7965
  154.4073  140.1631  156.2374 H   0  0  0  0  0  0  0  0  0  0  0  0  # atno 8008 bound_to 7997
  155.9231  140.3420  155.6166 H   0  0  0  0  0  0  0  0  0  0  0  0  # atno 8009 bound_to 7997
  155.7198  140.0767  157.2326 H   0  0  0  0  0  0  0  0  0  0  0  0  # atno 8010 bound_to 7997
  140.4284  144.1360  150.6156 H   0  0  0  0  0  0  0  0  0  0  0  0  # atno 10167 bound_to 10162
  156.0391  130.4339  150.2351 H   0  0  0  0  0  0  0  0  0  0  0  0  # atno 10718 bound_to 10713
  154.0017  135.6692  153.4759 H   0  0  0  0  0  0  0  0  0  0  0  0  # atno 10763 bound_to 10752
  153.0659  135.5001  154.8195 H   0  0  0  0  0  0  0  0  0  0  0  0  # atno 10764 bound_to 10752
  154.7048  135.3086  154.9249 H   0  0  0  0  0  0  0  0  0  0  0  0  # atno 10765 bound_to 10752
  140.6437  133.9466  155.8340 H   0  0  0  0  0  0  0  0  0  0  0  0  # atno 11005 bound_to 11000
  145.8532  140.9517  143.0738 LP  0  0  0  0  0  0  0  0  0  0  0  0  # atno 17320 bound_to 7965
  144.6754  140.0434  143.7480 LP  0  0  0  0  0  0  0  0  0  0  0  0  # atno 17321 bound_to 7965
  140.4455  143.2508  151.9417 LP  0  0  0  0  0  0  0  0  0  0  0  0  # atno 17342 bound_to 10162
  139.4784  144.5613  151.8234 LP  0  0  0  0  0  0  0  0  0  0  0  0  # atno 17343 bound_to 10162
  157.0448  131.0045  151.3272 LP  0  0  0  0  0  0  0  0  0  0  0  0  # atno 17370 bound_to 10713
  157.5183  130.7982  149.7781 LP  0  0  0  0  0  0  0  0  0  0  0  0  # atno 17371 bound_to 10713
  141.0588  134.0377  157.3686 LP  0  0  0  0  0  0  0  0  0  0  0  0  # atno 17394 bound_to 11000
  139.9071  135.0182  156.7532 LP  0  0  0  0  0  0  0  0  0  0  0  0  # atno 17395 bound_to 11000

$$$$
