AV-unprocessed.smi:1897|AV-procd|sdf|7688|dock9
  -GOLD-   22720 9423D 1   1.00000     0.00000
 Structure written by MMmdl.
 39 41  0  0  0  0  0  0  0  0  2 V2000
  152.1380  140.1557  157.0980 C   0  0  0  0  0  0  0  0  0  0  0  0
  151.4496  139.2962  156.0937 C   0  0  0  0  0  0  0  0  0  0  0  0
  151.1129  139.7346  154.8746 N   0  0  0  0  0  0  0  0  0  0  0  0
  150.4761  138.7584  154.1231 N   0  0  0  0  0  0  0  0  0  0  0  0
  150.3610  137.6021  154.7928 C   0  0  0  0  0  0  0  0  0  0  0  0
  149.7271  136.4341  154.2777 N   0  0  0  0  0  0  0  0  0  0  0  0
  149.4615  135.2428  154.8536 C   0  0  0  0  0  0  0  0  0  0  0  0
  149.7760  135.0152  156.0202 O   0  0  0  0  0  0  0  0  0  0  0  0
  148.8403  134.3386  154.0777 N   0  0  0  0  0  0  0  0  0  0  0  0
  148.3965  133.0107  154.4949 C   0  0  2  0  0  0  0  0  0  0  0  0
  149.5083  131.9494  154.3800 C   0  0  0  0  0  0  0  0  0  0  0  0
  148.8189  130.7233  153.7721 C   0  0  0  0  0  0  0  0  0  0  0  0
  147.7909  131.3172  152.9097 N   0  3  1  0  0  0  0  0  0  0  0  0
  146.7523  130.4336  152.3420 C   0  0  0  0  0  0  0  0  0  0  0  0
  145.9066  131.2517  151.3428 C   0  0  0  0  0  0  0  0  0  0  0  0
  145.3618  132.5560  151.9678 C   0  0  0  0  0  0  0  0  0  0  0  0
  146.4785  133.3719  152.6541 C   0  0  0  0  0  0  0  0  0  0  0  0
  147.2265  132.4617  153.6455 C   0  0  2  0  0  0  0  0  0  0  0  0
  151.0052  137.6266  156.4258 S   0  0  0  0  0  0  0  0  0  0  0  0
  152.7209  140.9320  156.6015 H   0  0  0  0  0  0  0  0  0  0  0  0
  152.8104  139.5542  157.7099 H   0  0  0  0  0  0  0  0  0  0  0  0
  151.4020  140.6301  157.7475 H   0  0  0  0  0  0  0  0  0  0  0  0
  149.5173  136.4782  153.2908 H   0  0  0  0  0  0  0  0  0  0  0  0
  148.6280  134.6100  153.1280 H   0  0  0  0  0  0  0  0  0  0  0  0
  148.0752  133.0496  155.5378 H   0  0  0  0  0  0  0  0  0  0  0  0
  150.2918  132.2928  153.7023 H   0  0  0  0  0  0  0  0  0  0  0  0
  149.9783  131.7288  155.3390 H   0  0  0  0  0  0  0  0  0  0  0  0
  149.5053  130.0875  153.2120 H   0  0  0  0  0  0  0  0  0  0  0  0
  148.3451  130.1224  154.5501 H   0  0  0  0  0  0  0  0  0  0  0  0
  147.2231  129.5903  151.8351 H   0  0  0  0  0  0  0  0  0  0  0  0
  146.1285  130.0267  153.1392 H   0  0  0  0  0  0  0  0  0  0  0  0
  146.5215  131.5030  150.4773 H   0  0  0  0  0  0  0  0  0  0  0  0
  145.0825  130.6450  150.9661 H   0  0  0  0  0  0  0  0  0  0  0  0
  144.8706  133.1605  151.2047 H   0  0  0  0  0  0  0  0  0  0  0  0
  144.5946  132.3078  152.7026 H   0  0  0  0  0  0  0  0  0  0  0  0
  147.1660  133.7666  151.9045 H   0  0  0  0  0  0  0  0  0  0  0  0
  146.0456  134.2283  153.1720 H   0  0  0  0  0  0  0  0  0  0  0  0
  146.4942  132.0665  154.3532 H   0  0  0  0  0  0  0  0  0  0  0  0
  148.2923  131.7108  152.1263 H   0  0  0  0  0  0  0  0  0  0  0  0
  1  2  1  0  0  0  0
  1 20  1  0  0  0  0
  1 21  1  0  0  0  0
  1 22  1  0  0  0  0
  2 19  1  0  0  0  0
  2  3  2  0  0  0  0
  3  4  1  0  0  0  0
  4  5  2  0  0  0  0
  5  6  1  0  0  0  0
  5 19  1  0  0  0  0
  6  7  1  0  0  0  0
  6 23  1  0  0  0  0
  7  8  2  0  0  0  0
  7  9  1  0  0  0  0
  9 10  1  0  0  0  0
  9 24  1  0  0  0  0
 10 18  1  0  0  0  0
 10 11  1  0  0  0  0
 10 25  1  0  0  0  0
 11 12  1  0  0  0  0
 11 26  1  0  0  0  0
 11 27  1  0  0  0  0
 12 13  1  0  0  0  0
 12 28  1  0  0  0  0
 12 29  1  0  0  0  0
 13 18  1  0  0  0  0
 13 14  1  0  0  0  0
 13 39  1  0  0  0  0
 14 15  1  0  0  0  0
 14 30  1  0  0  0  0
 14 31  1  0  0  0  0
 15 16  1  0  0  0  0
 15 32  1  0  0  0  0
 15 33  1  0  0  0  0
 16 17  1  0  0  0  0
 16 34  1  0  0  0  0
 16 35  1  0  0  0  0
 17 18  1  0  0  0  0
 17 36  1  0  0  0  0
 17 37  1  0  0  0  0
 18 38  1  0  0  0  0
M  CHG  1  13   1
M  END
> <s_m_source_file>
AV-unprocessed.smi

> <i_m_source_file_index>
1897

> <i_lp_mmshare_version>
43012

> <i_f3d_flags>
0

> <s_epik_input>
W0NIM11jMW5uYyhzMSlbTkhdQyg9TylbTkhdW0NASF0oW0NIMl1bQ0gyXTIpW0NAQEhdKE4yMylbQ0gyXVtDSDJdW0NIMl1bQ0gyXTM=

> <s_epik_cmdline>
J2VwaWtfcHl0aG9uJywgJy1waCcsICc3LjAnLCAnLXRuJywgJzgnLCAnLW1hJywgJzIwMCcsICctbWV0YWxfYmluZGluZycsICctaW1hZScsICc8aW5maWxlLm1hZT4nLCAnLW9tYWUnLCAnPG91dGZpbGUubWFlPic=

> <r_lp_tautomer_probability>
1

> <r_epik_Ionization_Penalty>
0.00228891

> <r_epik_Ionization_Penalty_Charging>
0.00107044

> <r_epik_Ionization_Penalty_Neutral>
0.00121847

> <r_epik_State_Penalty>
-0

> <r_epik_Charging_Adjusted_Penalty>
0.00107044

> <i_epik_Tot_Q>
1

> <i_epik_Tot_abs_Q>
1

> <r_epik_Metal_State_Penalty>
0.304057

> <b_epik_Metal_Only>
0

> <s_lp_Force_Field>
OPLS_2005

> <r_lp_Energy>
42.5593

> <b_lp_Chiralities_Consistent>
1

> <s_lp_Variant>
AV-unprocessed.smi:1897-5

> <Gold.Version>
5.8.1

> <Gold.Id.Protein>
6NUR|6NUR_protein|mol2

> <Gold.PLP.Fitness>
35.1207

> <Gold.PLP.PLP>
-26.1223

> <Gold.PLP.part.hbond>
-4.5990

> <Gold.PLP.part.metal>
0.0000

> <Gold.PLP.part.buried>
-0.9111

> <Gold.PLP.part.nonpolar>
-20.5949

> <Gold.PLP.part.repulsive>
0.3521

> <Gold.PLP.ligand.clash>
0.0000

> <Gold.PLP.ligand.torsion>
0.3567

> <Gold.PLP.Chemscore.Hbond>
3.2369

> <Gold.PLP.Chemscore.CHOScore>
0.0000

> <Gold.PLP.Chemscore.Metal>
0.0000

> <Gold.Chemscore.Hbonds>
donor molecule, donor type, donor heavy atom, donor atom, acceptor molecule, acceptor atom, score
      L1  H     6    23       P1  7948  0.98
      L1  H     9    24       P1  7948  0.76
      L1  H    13    39       P1 10747  0.47
      P1  H  7989  7998       L1     3  0.95

> <Gold.PLP.Chemscore.Internal.Correction>
0.0011

> <Gold.Rescore>
     Score         DG    S(hbond)    S(metal)    S(lipo)     H(rot)  DE(clash)    DE(int)     intcor
     14.41     -16.01       1.77        0.00      61.35       1.00       0.01       1.59       ----

> <Gold.Chemscore.Fitness>
14.4064

> <Gold.Chemscore.DG>
-16.0096

> <Gold.Chemscore.ZeroCoef>
-5.4800

> <Gold.Chemscore.Hbond>
1.7700

> <Gold.Chemscore.Metal>
0.0000

> <Gold.Chemscore.Lipo>
61.3488

> <Gold.Chemscore.Internal_Hbond>
0.0000

> <Gold.Chemscore.DEClash>
0.0141

> <Gold.Chemscore.DEInternal>
1.5891

> <Gold.Chemscore.Rot>
1.0000

> <Gold.Chemscore.Internal.Correction>
   9.000000E+99

> <Gold.Chemscore.Hbonds>
donor molecule, donor type, donor heavy atom, donor atom, acceptor molecule, acceptor atom, score
      L1  H     6    23       P1  7948  0.56
      L1  H     9    24       P1  7948  0.18
      L1  H    13    39       P1 10747  0.47
      P1  H  7989  7998       L1     3  0.22

> <Gold.Chemscore.Hbond.Weighted>
-5.9118

> <Gold.Chemscore.Metal.Weighted>
-0.0000

> <Gold.Chemscore.Lipo.Weighted>
-7.1778

> <Gold.Chemscore.Internal_Hbond.Weighted>
0.0000

> <Gold.Chemscore.DEClash.Weighted>
0.0141

> <Gold.Chemscore.DEInternal.Weighted>
1.5891

> <Gold.Chemscore.Rot.Weighted>
2.5600

> <Gold.Chemscore.Internal.Correction.Weighted>
   9.000000E+99

> <Gold.Protein.RotatedTorsions>
[ 6907 6896 6895 6894 ] final    0.03 input  -60.11 | X-H torsion
[ 7974 7965 7964 7962 ] final -159.03 input  175.53 | X-H torsion
[ 8008 7997 7996 7995 ] final  -65.52 input   59.86 | X-H torsion
[ 10167 10162 10161 10158 ] final   -5.75 input  -65.29 | X-H torsion
[ 10718 10713 10712 10709 ] final  150.53 input   66.30 | X-H torsion
[ 10763 10752 10751 10750 ] final  -52.58 input  -60.55 | X-H torsion
[ 11005 11000 10999 10996 ] final   34.27 input  -57.11 | X-H torsion

> <Gold.Protein.ActiveResidues>
 VAL166  LYS551  ARG553  GLY616  TRP617  ASP618  TYR619  PRO620  LYS621  CYS622 
 ASP623  PHE694  ASN695  SER759  ASP760  ASP761  ALA762  ILE779  LEU786  VAL792 
 PHE793  MET794  SER795  GLU796  ALA797  LYS798  CYS799  TRP800  GLU811  SER814 

> <Gold.Protein.RotatedAtoms>
  151.5698  135.1063  159.9992 H   0  0  0  0  0  0  0  0  0  0  0  0  # atno 6907 bound_to 6896
  152.4406  133.7437  159.6666 H   0  0  0  0  0  0  0  0  0  0  0  0  # atno 6908 bound_to 6896
  150.8311  133.8021  159.3122 H   0  0  0  0  0  0  0  0  0  0  0  0  # atno 6909 bound_to 6896
  144.7481  140.3743  143.6069 H   0  0  0  0  0  0  0  0  0  0  0  0  # atno 7974 bound_to 7965
  154.4677  140.0931  156.7063 H   0  0  0  0  0  0  0  0  0  0  0  0  # atno 8008 bound_to 7997
  155.4812  140.3467  155.4322 H   0  0  0  0  0  0  0  0  0  0  0  0  # atno 8009 bound_to 7997
  156.0984  140.1416  156.9488 H   0  0  0  0  0  0  0  0  0  0  0  0  # atno 8010 bound_to 7997
  140.6973  143.6273  150.8556 H   0  0  0  0  0  0  0  0  0  0  0  0  # atno 10167 bound_to 10162
  157.2823  131.0838  151.1522 H   0  0  0  0  0  0  0  0  0  0  0  0  # atno 10718 bound_to 10713
  154.1449  135.6499  153.4950 H   0  0  0  0  0  0  0  0  0  0  0  0  # atno 10763 bound_to 10752
  153.0155  135.5324  154.6867 H   0  0  0  0  0  0  0  0  0  0  0  0  # atno 10764 bound_to 10752
  154.6138  135.2957  155.0373 H   0  0  0  0  0  0  0  0  0  0  0  0  # atno 10765 bound_to 10752
  140.2546  134.3264  155.7878 H   0  0  0  0  0  0  0  0  0  0  0  0  # atno 11005 bound_to 11000
  145.7045  139.1669  143.2574 LP  0  0  0  0  0  0  0  0  0  0  0  0  # atno 17320 bound_to 7965
  146.1392  140.7081  142.9375 LP  0  0  0  0  0  0  0  0  0  0  0  0  # atno 17321 bound_to 7965
  139.9992  143.5762  152.2882 LP  0  0  0  0  0  0  0  0  0  0  0  0  # atno 17342 bound_to 10162
  139.6446  144.7657  151.2270 LP  0  0  0  0  0  0  0  0  0  0  0  0  # atno 17343 bound_to 10162
  157.2952  130.6815  149.6134 LP  0  0  0  0  0  0  0  0  0  0  0  0  # atno 17370 bound_to 10713
  155.9664  130.4409  150.5317 LP  0  0  0  0  0  0  0  0  0  0  0  0  # atno 17371 bound_to 10713
  141.2197  133.7373  156.9090 LP  0  0  0  0  0  0  0  0  0  0  0  0  # atno 17394 bound_to 11000
  140.1525  134.9221  157.2610 LP  0  0  0  0  0  0  0  0  0  0  0  0  # atno 17395 bound_to 11000

$$$$
