#       Name:                AV-unprocessed.smi:552
#       Creating user name   scv26
#       Creation time:       Thu Mar 26 23:39:38 2020


#       File generated by GOLD software.
#

@<TRIPOS>MOLECULE
AV-unprocessed.smi:552
    48    49     1
SMALL
NO_CHARGES


@<TRIPOS>ATOM
      1 ****        -4.9194  -2.5477   2.5975 C.3            1 S1                 0.0000
      2 ****        -5.0655  -3.0998   1.1720 C.3            1 S1                 0.0000
      3 ****        -4.4481  -2.1929   0.0908 C.3            1 S1                 0.0000
      4 ****        -4.7204  -2.7317  -1.3225 C.3            1 S1                 0.0000
      5 ****        -3.0082  -2.0603   0.3042 N.am           1 S1                 0.0000
      6 ****        -2.2715  -0.9837  -0.0054 C.2            1 S1                 0.0000
      7 ****        -2.7351   0.0336  -0.5205 O.2            1 S1                 0.0000
      8 ****        -0.9769  -1.1780   0.2992 N.am           1 S1                 0.0000
      9 ****         0.1096  -0.2777   0.1347 C.ar           1 S1                 0.0000
     10 ****        -0.0244   1.1290   0.0918 C.ar           1 S1                 0.0000
     11 ****         1.1309   1.9199  -0.0567 C.ar           1 S1                 0.0000
     12 ****         2.3949   1.2911  -0.1550 C.ar           1 S1                 0.0000
     13 ****         3.5661   2.0651  -0.3117 N.3            1 S1                 0.0000
     14 ****         4.8568   1.3894  -0.1851 C.3            1 S1                 0.0000
     15 ****         5.9963   2.4184  -0.0952 C.3            1 S1                 0.0000
     16 ****         5.9423   3.2929  -1.2170 O.3            1 S1                 0.0000
     17 ****         4.7223   4.0252  -1.2574 C.3            1 S1                 0.0000
     18 ****         3.5349   3.0553  -1.3859 C.3            1 S1                 0.0000
     19 ****         2.5196  -0.0576  -0.0908 N.ar           1 S1                 0.0000
     20 ****         1.4103  -0.8121   0.0531 C.ar           1 S1                 0.0000
     21 ****        -5.4091  -3.2036   3.3175 H              1 S1                 0.0000
     22 ****        -5.3756  -1.5612   2.6845 H              1 S1                 0.0000
     23 ****        -3.8729  -2.4605   2.8904 H              1 S1                 0.0000
     24 ****        -4.6180  -4.0933   1.1219 H              1 S1                 0.0000
     25 ****        -6.1269  -3.2358   0.9612 H              1 S1                 0.0000
     26 ****        -4.9161  -1.2103   0.1754 H              1 S1                 0.0000
     27 ****        -5.7911  -2.8207  -1.5085 H              1 S1                 0.0000
     28 ****        -4.2751  -3.7168  -1.4650 H              1 S1                 0.0000
     29 ****        -4.3111  -2.0678  -2.0848 H              1 S1                 0.0000
     30 ****        -2.5389  -2.8511   0.7207 H              1 S1                 0.0000
     31 ****        -0.7306  -2.0993   0.6304 H              1 S1                 0.0000
     32 ****        -0.9827   1.6156   0.1870 H              1 S1                 0.0000
     33 ****         1.0334   2.9949  -0.0743 H              1 S1                 0.0000
     34 ****         4.8696   0.7605   0.7060 H              1 S1                 0.0000
     35 ****         5.0089   0.7383  -1.0471 H              1 S1                 0.0000
     36 ****         5.9308   2.9920   0.8309 H              1 S1                 0.0000
     37 ****         6.9607   1.9102  -0.0871 H              1 S1                 0.0000
     38 ****         4.6255   4.6415  -0.3620 H              1 S1                 0.0000
     39 ****         4.7452   4.7046  -2.1096 H              1 S1                 0.0000
     40 ****         3.5807   2.5351  -2.3436 H              1 S1                 0.0000
     41 ****         2.6101   3.6299  -1.3823 H              1 S1                 0.0000
     42 ****         1.5688  -1.8797   0.0984 H              1 S1                 0.0000
     43 ****        -3.7113   0.0874  -0.7304 LP             1 S1                 0.0000
     44 ****        -2.1355   0.8062  -0.7291 LP             1 S1                 0.0000
     45 ****         3.5153   2.5903   0.5378 LP             1 S1                 0.0000
     46 ****         6.0228   2.7514  -2.0539 LP             1 S1                 0.0000
     47 ****         6.7051   3.9372  -1.1623 LP             1 S1                 0.0000
     48 ****         3.4209  -0.4869  -0.1493 LP             1 S1                 0.0000
@<TRIPOS>BOND
    1    1    2 1     
    2    1   21 1     
    3    1   22 1     
    4    1   23 1     
    5    2    3 1     
    6    2   24 1     
    7    2   25 1     
    8    3    4 1     
    9    3    5 1     
   10    3   26 1     
   11    4   27 1     
   12    4   28 1     
   13    4   29 1     
   14    5    6 am    
   15    5   30 1     
   16    6    7 2     
   17    6    8 am    
   18    8    9 1     
   19    8   31 1     
   20    9   20 ar    
   21    9   10 ar    
   22   10   11 ar    
   23   10   32 1     
   24   11   12 ar    
   25   11   33 1     
   26   12   13 1     
   27   12   19 ar    
   28   13   18 1     
   29   13   14 1     
   30   14   15 1     
   31   14   34 1     
   32   14   35 1     
   33   15   16 1     
   34   15   36 1     
   35   15   37 1     
   36   16   17 1     
   37   17   18 1     
   38   17   38 1     
   39   17   39 1     
   40   18   40 1     
   41   18   41 1     
   42   19   20 ar    
   43   20   42 1     
   44    7   43 1     
   45    7   44 1     
   46   13   45 1     
   47   16   46 1     
   48   16   47 1     
   49   19   48 1     
@<TRIPOS>SUBSTRUCTURE
      1 S1             1
@<TRIPOS>SET
LONE_PAIRS      STATIC     ATOMS    <user>   **** ""
6 43 44 45 46 47 48
DONOR_HYDROGENS      STATIC     ATOMS    <user>   **** ""
2 30 31
ATOM$BLUE        STATIC     ATOMS    COLORGROUP SYSTEM
6 43 44 45 46 47 48
ATOM$RED        STATIC     ATOMS    COLORGROUP SYSTEM
2 30 31
