#       Name:                AV-unprocessed.smi:1856
#       Creating user name   scv26
#       Creation time:       Fri Mar 27 09:25:13 2020


#       File generated by GOLD software.
#

@<TRIPOS>MOLECULE
AV-unprocessed.smi:1856
    49    50     1
SMALL
NO_CHARGES


@<TRIPOS>ATOM
      1 ****        -4.6735   3.9314   1.6000 C.3            1 S1                 0.0000
      2 ****        -4.3400   2.5634   0.9942 C.3            1 S1                 0.0000
      3 ****        -2.8254   2.2923   0.9524 C.3            1 S1                 0.0000
      4 ****        -2.4811   0.9141   0.3796 C.2            1 S1                 0.0000
      5 ****        -3.1119   0.4603  -0.5752 O.2            1 S1                 0.0000
      6 ****        -1.4693   0.2616   0.9727 N.am           1 S1                 0.0000
      7 ****        -0.9600  -1.0507   0.5863 C.3            1 S1                 0.0000
      8 ****        -1.5532  -2.1353   1.5007 C.3            1 S1                 0.0000
      9 ****         0.5390  -1.0519   0.6031 C.2            1 S1                 0.0000
     10 ****         1.3385  -1.4594   1.6313 N.pl3          1 S1                 1.0000
     11 ****         2.6795  -1.2821   1.2903 C.ar           1 S1                 0.0000
     12 ****         3.8446  -1.5569   1.9995 C.ar           1 S1                 0.0000
     13 ****         5.0627  -1.2504   1.3580 C.ar           1 S1                 0.0000
     14 ****         5.0907  -0.6917   0.0635 C.ar           1 S1                 0.0000
     15 ****         3.9023  -0.4163  -0.6448 C.ar           1 S1                 0.0000
     16 ****         2.7028  -0.7248  -0.0039 C.ar           1 S1                 0.0000
     17 ****         1.3631  -0.5954  -0.3855 N.pl3          1 S1                 0.0000
     18 ****         1.0475  -0.0210  -1.7031 C.3            1 S1                 0.0000
     19 ****         1.1915  -1.0369  -2.8527 C.3            1 S1                 0.0000
     20 ****         0.8004  -0.4348  -4.2075 C.3            1 S1                 0.0000
     21 ****         0.3771  -2.1658  -2.6093 O.3            1 S1                 0.0000
     22 ****        -5.7514   4.0948   1.6197 H              1 S1                 0.0000
     23 ****        -4.2256   4.7382   1.0190 H              1 S1                 0.0000
     24 ****        -4.3062   4.0102   2.6237 H              1 S1                 0.0000
     25 ****        -4.8385   1.7849   1.5738 H              1 S1                 0.0000
     26 ****        -4.7567   2.5138  -0.0129 H              1 S1                 0.0000
     27 ****        -2.3294   3.0489   0.3433 H              1 S1                 0.0000
     28 ****        -2.4119   2.3811   1.9583 H              1 S1                 0.0000
     29 ****        -1.0086   0.7163   1.7478 H              1 S1                 0.0000
     30 ****        -1.2674  -1.2811  -0.4350 H              1 S1                 0.0000
     31 ****        -1.1944  -3.1257   1.2185 H              1 S1                 0.0000
     32 ****        -2.6414  -2.1506   1.4316 H              1 S1                 0.0000
     33 ****        -1.2926  -1.9685   2.5465 H              1 S1                 0.0000
     34 ****         3.8256  -1.9838   2.9917 H              1 S1                 0.0000
     35 ****         5.9942  -1.4471   1.8692 H              1 S1                 0.0000
     36 ****         6.0430  -0.4698  -0.3960 H              1 S1                 0.0000
     37 ****         3.9341   0.0115  -1.6360 H              1 S1                 0.0000
     38 ****         0.0278   0.3639  -1.6642 H              1 S1                 0.0000
     39 ****         1.6913   0.8443  -1.8654 H              1 S1                 0.0000
     40 ****         2.2245  -1.3815  -2.9081 H              1 S1                 0.0000
     41 ****         1.4252   0.4257  -4.4476 H              1 S1                 0.0000
     42 ****        -0.2387  -0.1031  -4.2100 H              1 S1                 0.0000
     43 ****         0.9197  -1.1627  -5.0108 H              1 S1                 0.0000
     44 ****         0.6653  -2.5765  -1.8088 H              1 S1                 0.0000
     45 ****         0.9865  -1.8350   2.5026 H              1 S1                 0.0000
     46 ****        -3.8546   0.9922  -0.9820 LP             1 S1                 0.0000
     47 ****        -2.8816  -0.4402  -0.9440 LP             1 S1                 0.0000
     48 ****         0.4599  -2.8114  -3.3684 LP             1 S1                 0.0000
     49 ****        -0.5768  -1.8800  -2.5174 LP             1 S1                 0.0000
@<TRIPOS>BOND
    1    1    2 1     
    2    1   22 1     
    3    1   23 1     
    4    1   24 1     
    5    2    3 1     
    6    2   25 1     
    7    2   26 1     
    8    3    4 1     
    9    3   27 1     
   10    3   28 1     
   11    4    5 2     
   12    4    6 am    
   13    6    7 1     
   14    6   29 1     
   15    7    8 1     
   16    7    9 1     
   17    7   30 1     
   18    8   31 1     
   19    8   32 1     
   20    8   33 1     
   21    9   17 1     
   22    9   10 2     
   23   10   11 1     
   24   10   45 1     
   25   11   16 ar    
   26   11   12 ar    
   27   12   13 ar    
   28   12   34 1     
   29   13   14 ar    
   30   13   35 1     
   31   14   15 ar    
   32   14   36 1     
   33   15   16 ar    
   34   15   37 1     
   35   16   17 1     
   36   17   18 1     
   37   18   19 1     
   38   18   38 1     
   39   18   39 1     
   40   19   20 1     
   41   19   21 1     
   42   19   40 1     
   43   20   41 1     
   44   20   42 1     
   45   20   43 1     
   46   21   44 1     
   47    5   46 1     
   48    5   47 1     
   49   21   48 1     
   50   21   49 1     
@<TRIPOS>SUBSTRUCTURE
      1 S1             1
@<TRIPOS>SET
LONE_PAIRS      STATIC     ATOMS    <user>   **** ""
4 46 47 48 49
DONOR_HYDROGENS      STATIC     ATOMS    <user>   **** ""
3 29 45 44
ATOM$BLUE        STATIC     ATOMS    COLORGROUP SYSTEM
4 46 47 48 49
ATOM$RED        STATIC     ATOMS    COLORGROUP SYSTEM
3 29 45 44
