AV-unprocessed.smi:870|AV-procd|sdf|4007|dock10
  -GOLD-   22720 1493D 1   1.00000     0.00000
 Structure written by MMmdl.
 46 48  0  0  0  0  0  0  0  0  1 V2000
  153.0471  138.7098  154.6961 C   0  0  0  0  0  0  0  0  0  0  0  0
  152.3051  139.9003  154.8911 O   0  0  0  0  0  0  0  0  0  0  0  0
  151.3253  139.7668  155.9096 C   0  0  0  0  0  0  0  0  0  0  0  0
  151.8731  140.3556  157.1787 C   0  0  0  0  0  0  0  0  0  0  0  0
  152.9394  139.8598  157.8117 N   0  0  0  0  0  0  0  0  0  0  0  0
  153.0744  140.7049  158.8950 C   0  0  0  0  0  0  0  0  0  0  0  0
  154.0196  140.7085  159.9456 C   0  0  0  0  0  0  0  0  0  0  0  0
  153.9588  141.6897  160.9569 C   0  0  0  0  0  0  0  0  0  0  0  0
  152.9547  142.6793  160.9319 C   0  0  0  0  0  0  0  0  0  0  0  0
  152.0034  142.6936  159.8937 C   0  0  0  0  0  0  0  0  0  0  0  0
  152.0684  141.7113  158.8873 C   0  0  0  0  0  0  0  0  0  0  0  0
  151.3061  141.4465  157.7542 N   0  0  0  0  0  0  0  0  0  0  0  0
  150.1489  142.2111  157.3065 C   0  0  0  0  0  0  0  0  0  0  0  0
  148.8597  141.8343  158.0640 C   0  0  2  0  0  0  0  0  0  0  0  0
  148.7098  140.4280  158.0542 O   0  0  0  0  0  0  0  0  0  0  0  0
  147.6138  142.4655  157.4224 C   0  0  0  0  0  0  0  0  0  0  0  0
  146.4840  142.1800  158.2361 O   0  0  0  0  0  0  0  0  0  0  0  0
  146.3302  142.8745  159.4186 C   0  0  0  0  0  0  0  0  0  0  0  0
  147.1865  143.9279  159.8305 C   0  0  0  0  0  0  0  0  0  0  0  0
  146.9688  144.5909  161.0533 C   0  0  0  0  0  0  0  0  0  0  0  0
  145.8960  144.2129  161.8799 C   0  0  0  0  0  0  0  0  0  0  0  0
  145.0401  143.1700  161.4822 C   0  0  0  0  0  0  0  0  0  0  0  0
  145.2535  142.5025  160.2577 C   0  0  0  0  0  0  0  0  0  0  0  0
  144.3211  141.3789  159.8449 C   0  0  0  0  0  0  0  0  0  0  0  0
  153.7808  138.8608  153.9045 H   0  0  0  0  0  0  0  0  0  0  0  0
  152.3979  137.8847  154.4008 H   0  0  0  0  0  0  0  0  0  0  0  0
  153.5829  138.4269  155.6029 H   0  0  0  0  0  0  0  0  0  0  0  0
  150.4114  140.2942  155.6321 H   0  0  0  0  0  0  0  0  0  0  0  0
  151.0857  138.7146  156.0669 H   0  0  0  0  0  0  0  0  0  0  0  0
  154.7925  139.9547  159.9729 H   0  0  0  0  0  0  0  0  0  0  0  0
  154.6861  141.6828  161.7554 H   0  0  0  0  0  0  0  0  0  0  0  0
  152.9149  143.4271  161.7104 H   0  0  0  0  0  0  0  0  0  0  0  0
  151.2324  143.4494  159.8720 H   0  0  0  0  0  0  0  0  0  0  0  0
  150.3718  143.2678  157.4593 H   0  0  0  0  0  0  0  0  0  0  0  0
  150.0143  142.0858  156.2322 H   0  0  0  0  0  0  0  0  0  0  0  0
  148.9448  142.1704  159.0983 H   0  0  0  0  0  0  0  0  0  0  0  0
  149.4487  140.0498  157.6027 H   0  0  0  0  0  0  0  0  0  0  0  0
  147.7404  143.5486  157.3809 H   0  0  0  0  0  0  0  0  0  0  0  0
  147.4788  142.1053  156.4008 H   0  0  0  0  0  0  0  0  0  0  0  0
  148.0213  144.2479  159.2261 H   0  0  0  0  0  0  0  0  0  0  0  0
  147.6273  145.3913  161.3572 H   0  0  0  0  0  0  0  0  0  0  0  0
  145.7298  144.7216  162.8180 H   0  0  0  0  0  0  0  0  0  0  0  0
  144.2185  142.8846  162.1229 H   0  0  0  0  0  0  0  0  0  0  0  0
  143.5196  141.2372  160.5705 H   0  0  0  0  0  0  0  0  0  0  0  0
  144.8725  140.4420  159.7612 H   0  0  0  0  0  0  0  0  0  0  0  0
  143.8668  141.5986  158.8784 H   0  0  0  0  0  0  0  0  0  0  0  0
  1  2  1  0  0  0  0
  1 25  1  0  0  0  0
  1 26  1  0  0  0  0
  1 27  1  0  0  0  0
  2  3  1  0  0  0  0
  3  4  1  0  0  0  0
  3 28  1  0  0  0  0
  3 29  1  0  0  0  0
  4 12  1  0  0  0  0
  4  5  2  0  0  0  0
  5  6  1  0  0  0  0
  6 11  2  0  0  0  0
  6  7  1  0  0  0  0
  7  8  2  0  0  0  0
  7 30  1  0  0  0  0
  8  9  1  0  0  0  0
  8 31  1  0  0  0  0
  9 10  2  0  0  0  0
  9 32  1  0  0  0  0
 10 11  1  0  0  0  0
 10 33  1  0  0  0  0
 11 12  1  0  0  0  0
 12 13  1  0  0  0  0
 13 14  1  0  0  0  0
 13 34  1  0  0  0  0
 13 35  1  0  0  0  0
 14 15  1  0  0  0  0
 14 16  1  0  0  0  0
 14 36  1  0  0  0  0
 15 37  1  0  0  0  0
 16 17  1  0  0  0  0
 16 38  1  0  0  0  0
 16 39  1  0  0  0  0
 17 18  1  0  0  0  0
 18 23  1  0  0  0  0
 18 19  2  0  0  0  0
 19 20  1  0  0  0  0
 19 40  1  0  0  0  0
 20 21  2  0  0  0  0
 20 41  1  0  0  0  0
 21 22  1  0  0  0  0
 21 42  1  0  0  0  0
 22 23  2  0  0  0  0
 22 43  1  0  0  0  0
 23 24  1  0  0  0  0
 24 44  1  0  0  0  0
 24 45  1  0  0  0  0
 24 46  1  0  0  0  0
M  END
> <s_m_source_file>
AV-unprocessed.smi

> <i_m_source_file_index>
870

> <i_lp_mmshare_version>
43012

> <i_f3d_flags>
0

> <s_epik_input>
W2NIXTFbY0hdW2NIXVtjSF1jKGMxMiluKGMobjIpW0NIMl1PW0NIM10pW0NIMl1bQ0BIXShbT0hdKVtDSDJdT2MzW2NIXVtjSF1bY0hdW2NIXWMzW0NIM10=

> <s_epik_cmdline>
J2VwaWtfcHl0aG9uJywgJy1waCcsICc3LjAnLCAnLXRuJywgJzgnLCAnLW1hJywgJzIwMCcsICctbWV0YWxfYmluZGluZycsICctaW1hZScsICc8aW5maWxlLm1hZT4nLCAnLW9tYWUnLCAnPG91dGZpbGUubWFlPic=

> <r_lp_tautomer_probability>
1

> <r_epik_Ionization_Penalty>
0.0447032

> <r_epik_Ionization_Penalty_Charging>
0

> <r_epik_Ionization_Penalty_Neutral>
0.0447032

> <r_epik_State_Penalty>
0.0379025

> <r_epik_Charging_Adjusted_Penalty>
0.0379025

> <i_epik_Tot_Q>
0

> <i_epik_Tot_abs_Q>
0

> <r_epik_Metal_State_Penalty>
3.91398e-05

> <b_epik_Metal_Only>
0

> <s_lp_Force_Field>
OPLS_2005

> <r_lp_Energy>
17.6925

> <b_lp_Chiralities_Consistent>
1

> <s_lp_Variant>
AV-unprocessed.smi:870-1

> <Gold.Version>
5.8.1

> <Gold.Id.Protein>
6NUR|6NUR_protein|mol2

> <Gold.PLP.Fitness>
51.2956

> <Gold.PLP.PLP>
-47.4973

> <Gold.PLP.part.hbond>
-2.4687

> <Gold.PLP.part.metal>
0.0000

> <Gold.PLP.part.buried>
-5.4383

> <Gold.PLP.part.nonpolar>
-38.6564

> <Gold.PLP.part.repulsive>
0.1214

> <Gold.PLP.ligand.clash>
0.0000

> <Gold.PLP.ligand.torsion>
0.7141

> <Gold.PLP.Chemscore.Hbond>
1.7040

> <Gold.PLP.Chemscore.CHOScore>
0.0000

> <Gold.PLP.Chemscore.Metal>
0.0000

> <Gold.Chemscore.Hbonds>
donor molecule, donor type, donor heavy atom, donor atom, acceptor molecule, acceptor atom, score
      P1  H  7989  7998       L1     2  0.69
      P1  H  7997  8010       L1     5  1.00

> <Gold.PLP.Chemscore.Internal.Correction>
0.1146

> <Gold.Rescore>
     Score         DG    S(hbond)    S(metal)    S(lipo)     H(rot)  DE(clash)    DE(int)     intcor
     15.54     -16.54       1.05        0.00     116.27       2.36       0.19       0.81       ----

> <Gold.Chemscore.Fitness>
15.5362

> <Gold.Chemscore.DG>
-16.5365

> <Gold.Chemscore.ZeroCoef>
-5.4800

> <Gold.Chemscore.Hbond>
1.0452

> <Gold.Chemscore.Metal>
0.0000

> <Gold.Chemscore.Lipo>
116.2669

> <Gold.Chemscore.Internal_Hbond>
0.0000

> <Gold.Chemscore.DEClash>
0.1857

> <Gold.Chemscore.DEInternal>
0.8145

> <Gold.Chemscore.Rot>
2.3585

> <Gold.Chemscore.Internal.Correction>
   9.000000E+99

> <Gold.Chemscore.Hbonds>
donor molecule, donor type, donor heavy atom, donor atom, acceptor molecule, acceptor atom, score
      P1  H  7989  7998       L1     2  0.57
      P1  H  7997  8010       L1     5  0.42

> <Gold.Chemscore.Hbond.Weighted>
-3.4910

> <Gold.Chemscore.Metal.Weighted>
-0.0000

> <Gold.Chemscore.Lipo.Weighted>
-13.6032

> <Gold.Chemscore.Internal_Hbond.Weighted>
0.0000

> <Gold.Chemscore.DEClash.Weighted>
0.1857

> <Gold.Chemscore.DEInternal.Weighted>
0.8145

> <Gold.Chemscore.Rot.Weighted>
6.0378

> <Gold.Chemscore.Internal.Correction.Weighted>
   9.000000E+99

> <Gold.Protein.RotatedTorsions>
[ 6907 6896 6895 6894 ] final  128.24 input  -60.11 | X-H torsion
[ 7974 7965 7964 7962 ] final -173.46 input  175.53 | X-H torsion
[ 8008 7997 7996 7995 ] final   46.26 input   59.86 | X-H torsion
[ 10167 10162 10161 10158 ] final   66.74 input  -65.29 | X-H torsion
[ 10718 10713 10712 10709 ] final    7.84 input   66.30 | X-H torsion
[ 10763 10752 10751 10750 ] final  -23.38 input  -60.55 | X-H torsion
[ 11005 11000 10999 10996 ] final  -50.43 input  -57.11 | X-H torsion

> <Gold.Protein.ActiveResidues>
 VAL166  LYS551  ARG553  GLY616  TRP617  ASP618  TYR619  PRO620  LYS621  CYS622 
 ASP623  PHE694  ASN695  SER759  ASP760  ASP761  ALA762  ILE779  LEU786  VAL792 
 PHE793  MET794  SER795  GLU796  ALA797  LYS798  CYS799  TRP800  GLU811  SER814 

> <Gold.Protein.RotatedAtoms>
  152.3737  133.6453  159.6106 H   0  0  0  0  0  0  0  0  0  0  0  0  # atno 6907 bound_to 6896
  150.7688  133.9228  159.3412 H   0  0  0  0  0  0  0  0  0  0  0  0  # atno 6908 bound_to 6896
  151.7046  135.0925  160.0308 H   0  0  0  0  0  0  0  0  0  0  0  0  # atno 6909 bound_to 6896
  144.7138  140.1619  143.6375 H   0  0  0  0  0  0  0  0  0  0  0  0  # atno 7974 bound_to 7965
  155.3495  140.3412  155.4239 H   0  0  0  0  0  0  0  0  0  0  0  0  # atno 8008 bound_to 7997
  156.1771  140.1651  156.8378 H   0  0  0  0  0  0  0  0  0  0  0  0  # atno 8009 bound_to 7997
  154.5294  140.0749  156.8299 H   0  0  0  0  0  0  0  0  0  0  0  0  # atno 8010 bound_to 7997
  140.0971  144.4937  150.7061 H   0  0  0  0  0  0  0  0  0  0  0  0  # atno 10167 bound_to 10162
  156.9429  130.5868  149.5653 H   0  0  0  0  0  0  0  0  0  0  0  0  # atno 10718 bound_to 10713
  153.6670  135.6973  153.5159 H   0  0  0  0  0  0  0  0  0  0  0  0  # atno 10763 bound_to 10752
  153.2587  135.4251  155.0871 H   0  0  0  0  0  0  0  0  0  0  0  0  # atno 10764 bound_to 10752
  154.8437  135.3549  154.6214 H   0  0  0  0  0  0  0  0  0  0  0  0  # atno 10765 bound_to 10752
  141.0815  133.6652  156.3730 H   0  0  0  0  0  0  0  0  0  0  0  0  # atno 11005 bound_to 11000
  145.9023  139.2437  143.1486 LP  0  0  0  0  0  0  0  0  0  0  0  0  # atno 17320 bound_to 7965
  145.9798  140.8691  143.0120 LP  0  0  0  0  0  0  0  0  0  0  0  0  # atno 17321 bound_to 7965
  140.6998  143.2427  151.4898 LP  0  0  0  0  0  0  0  0  0  0  0  0  # atno 17342 bound_to 10162
  139.5692  144.1969  152.1811 LP  0  0  0  0  0  0  0  0  0  0  0  0  # atno 17343 bound_to 10162
  156.0396  130.5480  150.8739 LP  0  0  0  0  0  0  0  0  0  0  0  0  # atno 17370 bound_to 10713
  157.5773  131.0946  150.9325 LP  0  0  0  0  0  0  0  0  0  0  0  0  # atno 17371 bound_to 10713
  140.5457  134.6077  157.5393 LP  0  0  0  0  0  0  0  0  0  0  0  0  # atno 17394 bound_to 11000
  139.9630  134.7421  156.0198 LP  0  0  0  0  0  0  0  0  0  0  0  0  # atno 17395 bound_to 11000

$$$$
