AV-unprocessed.smi:1866|AV-procd|sdf|7556|dock9
  -GOLD-   22720 9273D 1   1.00000     0.00000
 Structure written by MMmdl.
 30 31  0  0  0  0  0  0  0  0  1 V2000
  146.9645  142.4976  154.1280 C   0  0  0  0  0  0  0  0  0  0  0  0
  146.8890  141.0108  154.0531 C   0  0  0  0  0  0  0  0  0  0  0  0
  146.6600  140.2413  155.1243 N   0  0  0  0  0  0  0  0  0  0  0  0
  146.6365  138.8905  154.8063 N   0  0  0  0  0  0  0  0  0  0  0  0
  146.8494  138.6808  153.4999 C   0  0  0  0  0  0  0  0  0  0  0  0
  146.8789  137.3931  152.9019 N   0  0  0  0  0  0  0  0  0  0  0  0
  145.9047  136.4667  152.8704 C   0  0  0  0  0  0  0  0  0  0  0  0
  144.7865  136.5915  153.3707 O   0  0  0  0  0  0  0  0  0  0  0  0
  146.3034  135.3663  152.2161 N   0  0  0  0  0  0  0  0  0  0  0  0
  145.4826  134.1822  151.9702 C   0  0  2  0  0  0  0  0  0  0  0  0
  146.3282  133.0351  151.3848 C   0  0  0  0  0  0  0  0  0  0  0  0
  145.4251  131.8760  150.9536 C   0  0  0  0  0  0  0  0  0  0  0  0
  144.3905  132.3555  149.9226 C   0  0  0  0  0  0  0  0  0  0  0  0
  143.7462  133.6164  150.2930 N   0  0  0  0  0  0  0  0  0  0  0  0
  144.2219  134.5295  151.1582 C   0  0  0  0  0  0  0  0  0  0  0  0
  143.6490  135.6037  151.3338 O   0  0  0  0  0  0  0  0  0  0  0  0
  147.0999  140.1316  152.5439 S   0  0  0  0  0  0  0  0  0  0  0  0
  146.5715  142.8554  155.0804 H   0  0  0  0  0  0  0  0  0  0  0  0
  146.3816  142.9426  153.3215 H   0  0  0  0  0  0  0  0  0  0  0  0
  148.0008  142.8224  154.0326 H   0  0  0  0  0  0  0  0  0  0  0  0
  147.7436  137.1495  152.4424 H   0  0  0  0  0  0  0  0  0  0  0  0
  147.2370  135.3524  151.8326 H   0  0  0  0  0  0  0  0  0  0  0  0
  145.0938  133.8398  152.9313 H   0  0  0  0  0  0  0  0  0  0  0  0
  146.8996  133.3904  150.5257 H   0  0  0  0  0  0  0  0  0  0  0  0
  147.0547  132.6857  152.1193 H   0  0  0  0  0  0  0  0  0  0  0  0
  146.0204  131.0620  150.5394 H   0  0  0  0  0  0  0  0  0  0  0  0
  144.9123  131.4722  151.8277 H   0  0  0  0  0  0  0  0  0  0  0  0
  144.8773  132.5035  148.9579 H   0  0  0  0  0  0  0  0  0  0  0  0
  143.6261  131.5926  149.7732 H   0  0  0  0  0  0  0  0  0  0  0  0
  142.8953  133.8466  149.8002 H   0  0  0  0  0  0  0  0  0  0  0  0
  1  2  1  0  0  0  0
  1 18  1  0  0  0  0
  1 19  1  0  0  0  0
  1 20  1  0  0  0  0
  2 17  1  0  0  0  0
  2  3  2  0  0  0  0
  3  4  1  0  0  0  0
  4  5  2  0  0  0  0
  5  6  1  0  0  0  0
  5 17  1  0  0  0  0
  6  7  1  0  0  0  0
  6 21  1  0  0  0  0
  7  8  2  0  0  0  0
  7  9  1  0  0  0  0
  9 10  1  0  0  0  0
  9 22  1  0  0  0  0
 10 15  1  0  0  0  0
 10 11  1  0  0  0  0
 10 23  1  0  0  0  0
 11 12  1  0  0  0  0
 11 24  1  0  0  0  0
 11 25  1  0  0  0  0
 12 13  1  0  0  0  0
 12 26  1  0  0  0  0
 12 27  1  0  0  0  0
 13 14  1  0  0  0  0
 13 28  1  0  0  0  0
 13 29  1  0  0  0  0
 14 15  1  0  0  0  0
 14 30  1  0  0  0  0
 15 16  2  0  0  0  0
M  END
> <s_m_source_file>
AV-unprocessed.smi

> <i_m_source_file_index>
1866

> <i_lp_mmshare_version>
43012

> <i_f3d_flags>
0

> <s_epik_input>
W0NIM11jMW5uYyhzMSlbTkhdQyg9TylbTkhdW0NAQEhdMltDSDJdW0NIMl1bQ0gyXVtOSF1DMj1P

> <s_epik_cmdline>
J2VwaWtfcHl0aG9uJywgJy1waCcsICc3LjAnLCAnLXRuJywgJzgnLCAnLW1hJywgJzIwMCcsICctbWV0YWxfYmluZGluZycsICctaW1hZScsICc8aW5maWxlLm1hZT4nLCAnLW9tYWUnLCAnPG91dGZpbGUubWFlPic=

> <r_lp_tautomer_probability>
1

> <r_epik_Ionization_Penalty>
0.00093002

> <r_epik_Ionization_Penalty_Charging>
0

> <r_epik_Ionization_Penalty_Neutral>
0.00093002

> <r_epik_State_Penalty>
-0

> <r_epik_Charging_Adjusted_Penalty>
0

> <i_epik_Tot_Q>
0

> <i_epik_Tot_abs_Q>
0

> <r_epik_Metal_State_Penalty>
0.280775

> <b_epik_Metal_Only>
0

> <s_lp_Force_Field>
OPLS_2005

> <r_lp_Energy>
8.18213

> <b_lp_Chiralities_Consistent>
1

> <s_lp_Variant>
AV-unprocessed.smi:1866-1

> <Gold.Version>
5.8.1

> <Gold.Id.Protein>
6NUR|6NUR_protein|mol2

> <Gold.PLP.Fitness>
32.5705

> <Gold.PLP.PLP>
-24.9362

> <Gold.PLP.part.hbond>
-3.0000

> <Gold.PLP.part.metal>
0.0000

> <Gold.PLP.part.buried>
-2.1685

> <Gold.PLP.part.nonpolar>
-20.2943

> <Gold.PLP.part.repulsive>
0.5379

> <Gold.PLP.ligand.clash>
0.0000

> <Gold.PLP.ligand.torsion>
0.5961

> <Gold.PLP.Chemscore.Hbond>
2.9280

> <Gold.PLP.Chemscore.CHOScore>
0.0000

> <Gold.PLP.Chemscore.Metal>
0.0000

> <Gold.Chemscore.Hbonds>
donor molecule, donor type, donor heavy atom, donor atom, acceptor molecule, acceptor atom, score
      L1  H     6    21       P1  7948  1.00
      L1  H     9    22       P1  7948  0.91
      L1  H    14    30       P1 10186  1.00

> <Gold.PLP.Chemscore.Internal.Correction>
0.0424

> <Gold.Rescore>
     Score         DG    S(hbond)    S(metal)    S(lipo)     H(rot)  DE(clash)    DE(int)     intcor
     14.76     -18.35       2.89        0.00      49.32       1.00       0.02       3.58       ----

> <Gold.Chemscore.Fitness>
14.7554

> <Gold.Chemscore.DG>
-18.3547

> <Gold.Chemscore.ZeroCoef>
-5.4800

> <Gold.Chemscore.Hbond>
2.8935

> <Gold.Chemscore.Metal>
0.0000

> <Gold.Chemscore.Lipo>
49.3200

> <Gold.Chemscore.Internal_Hbond>
0.0000

> <Gold.Chemscore.DEClash>
0.0187

> <Gold.Chemscore.DEInternal>
3.5805

> <Gold.Chemscore.Rot>
1.0000

> <Gold.Chemscore.Internal.Correction>
   9.000000E+99

> <Gold.Chemscore.Hbonds>
donor molecule, donor type, donor heavy atom, donor atom, acceptor molecule, acceptor atom, score
      L1  H     6    21       P1  7948  0.99
      L1  H     9    22       P1  7948  0.89
      L1  H    14    30       P1 10186  0.97

> <Gold.Chemscore.Hbond.Weighted>
-9.6643

> <Gold.Chemscore.Metal.Weighted>
-0.0000

> <Gold.Chemscore.Lipo.Weighted>
-5.7704

> <Gold.Chemscore.Internal_Hbond.Weighted>
0.0000

> <Gold.Chemscore.DEClash.Weighted>
0.0187

> <Gold.Chemscore.DEInternal.Weighted>
3.5805

> <Gold.Chemscore.Rot.Weighted>
2.5600

> <Gold.Chemscore.Internal.Correction.Weighted>
   9.000000E+99

> <Gold.Protein.RotatedTorsions>
[ 6907 6896 6895 6894 ] final   18.84 input  -60.11 | X-H torsion
[ 7974 7965 7964 7962 ] final -163.78 input  175.53 | X-H torsion
[ 8008 7997 7996 7995 ] final   12.26 input   59.86 | X-H torsion
[ 10167 10162 10161 10158 ] final  128.84 input  -65.29 | X-H torsion
[ 10718 10713 10712 10709 ] final   41.34 input   66.30 | X-H torsion
[ 10763 10752 10751 10750 ] final  -98.04 input  -60.55 | X-H torsion
[ 11005 11000 10999 10996 ] final  -77.51 input  -57.11 | X-H torsion

> <Gold.Protein.ActiveResidues>
 VAL166  LYS551  ARG553  GLY616  TRP617  ASP618  TYR619  PRO620  LYS621  CYS622 
 ASP623  PHE694  ASN695  SER759  ASP760  ASP761  ALA762  ILE779  LEU786  VAL792 
 PHE793  MET794  SER795  GLU796  ALA797  LYS798  CYS799  TRP800  GLU811  SER814 

> <Gold.Protein.RotatedAtoms>
  151.8715  135.0487  160.0479 H   0  0  0  0  0  0  0  0  0  0  0  0  # atno 6907 bound_to 6896
  152.2584  133.5271  159.5375 H   0  0  0  0  0  0  0  0  0  0  0  0  # atno 6908 bound_to 6896
  150.7108  134.0779  159.3930 H   0  0  0  0  0  0  0  0  0  0  0  0  # atno 6909 bound_to 6896
  144.7316  140.3056  143.6197 H   0  0  0  0  0  0  0  0  0  0  0  0  # atno 7974 bound_to 7965
  154.8182  140.2879  155.5805 H   0  0  0  0  0  0  0  0  0  0  0  0  # atno 8008 bound_to 7997
  156.2995  140.2555  156.3014 H   0  0  0  0  0  0  0  0  0  0  0  0  # atno 8009 bound_to 7997
  154.9369  140.0382  157.2066 H   0  0  0  0  0  0  0  0  0  0  0  0  # atno 8010 bound_to 7997
  139.5507  144.6810  151.4333 H   0  0  0  0  0  0  0  0  0  0  0  0  # atno 10167 bound_to 10162
  157.3924  130.7814  149.7280 H   0  0  0  0  0  0  0  0  0  0  0  0  # atno 10718 bound_to 10713
  154.7380  135.5024  153.9074 H   0  0  0  0  0  0  0  0  0  0  0  0  # atno 10763 bound_to 10752
  153.1014  135.6686  153.9674 H   0  0  0  0  0  0  0  0  0  0  0  0  # atno 10764 bound_to 10752
  153.9458  135.3063  155.3420 H   0  0  0  0  0  0  0  0  0  0  0  0  # atno 10765 bound_to 10752
  141.1660  133.7025  156.7831 H   0  0  0  0  0  0  0  0  0  0  0  0  # atno 11005 bound_to 11000
  145.7716  139.1859  143.2209 LP  0  0  0  0  0  0  0  0  0  0  0  0  # atno 17320 bound_to 7965
  146.0906  140.7660  142.9597 LP  0  0  0  0  0  0  0  0  0  0  0  0  # atno 17321 bound_to 7965
  140.6768  143.8171  150.7069 LP  0  0  0  0  0  0  0  0  0  0  0  0  # atno 17342 bound_to 10162
  140.1612  143.4274  152.2066 LP  0  0  0  0  0  0  0  0  0  0  0  0  # atno 17343 bound_to 10162
  155.9802  130.4032  150.3544 LP  0  0  0  0  0  0  0  0  0  0  0  0  # atno 17370 bound_to 10713
  157.1662  131.0357  151.2817 LP  0  0  0  0  0  0  0  0  0  0  0  0  # atno 17371 bound_to 10713
  140.2380  134.8635  157.3544 LP  0  0  0  0  0  0  0  0  0  0  0  0  # atno 17394 bound_to 11000
  140.1824  134.4473  155.7764 LP  0  0  0  0  0  0  0  0  0  0  0  0  # atno 17395 bound_to 11000

$$$$
