AV-unprocessed.smi:34|AV-procd|sdf|230|dock2
  -GOLD-   2262015563D 1   1.00000     0.00000
 Structure written by MMmdl.
 55 59  0  0  0  0  0  0  0  0  1 V2000
  142.8607  142.5536  157.6413 O   0  0  0  0  0  0  0  0  0  0  0  0
  143.1237  143.4296  156.8168 C   0  0  0  0  0  0  0  0  0  0  0  0
  144.3697  143.4414  156.0711 N   0  0  0  0  0  0  0  0  0  0  0  0
  145.4320  142.6135  156.2044 C   0  0  0  0  0  0  0  0  0  0  0  0
  145.7919  142.0736  157.3990 N   0  0  0  0  0  0  0  0  0  0  0  0
  146.8531  141.2651  157.4804 C   0  0  0  0  0  0  0  0  0  0  0  0
  147.6821  140.8758  156.5090 N   0  0  0  0  0  0  0  0  0  0  0  0
  147.3274  141.4176  155.3083 C   0  0  0  0  0  0  0  0  0  0  0  0
  146.2259  142.2858  155.0746 C   0  0  0  0  0  0  0  0  0  0  0  0
  146.1770  142.6293  153.7297 N   0  0  0  0  0  0  0  0  0  0  0  0
  147.1911  141.9956  153.2034 C   0  0  0  0  0  0  0  0  0  0  0  0
  147.9459  141.2530  154.0888 N   0  0  0  0  0  0  0  0  0  0  0  0
  149.1576  140.4100  153.8375 C   0  0  1  0  0  0  0  0  0  0  0  0
  150.1854  140.8730  154.6632 O   0  0  0  0  0  0  0  0  0  0  0  0
  150.2279  140.0695  155.8373 C   0  0  2  0  0  0  0  0  0  0  0  0
  151.5564  140.2499  156.5795 C   0  0  0  0  0  0  0  0  0  0  0  0
  151.5217  141.4909  157.2644 O   0  0  0  0  0  0  0  0  0  0  0  0
  152.0169  141.5904  158.5120 C   0  0  0  0  0  0  0  0  0  0  0  0
  152.5176  140.6456  159.1252 O   0  0  0  0  0  0  0  0  0  0  0  0
  151.8934  142.9662  159.0746 C   0  0  0  0  0  0  0  0  0  0  0  0
  152.1845  143.1853  160.4414 C   0  0  0  0  0  0  0  0  0  0  0  0
  152.0770  144.4735  161.0003 C   0  0  0  0  0  0  0  0  0  0  0  0
  151.6786  145.5592  160.1987 C   0  0  0  0  0  0  0  0  0  0  0  0
  151.3871  145.3549  158.8374 C   0  0  0  0  0  0  0  0  0  0  0  0
  151.4927  144.0670  158.2770 C   0  0  0  0  0  0  0  0  0  0  0  0
  149.9995  138.6786  155.2526 C   0  0  2  0  0  0  0  0  0  0  0  0
  151.1132  138.2880  154.6255 F   0  0  0  0  0  0  0  0  0  0  0  0
  148.8775  138.9537  154.2591 C   0  0  2  0  0  0  0  0  0  0  0  0
  148.8963  138.0371  153.1836 O   0  0  0  0  0  0  0  0  0  0  0  0
  142.1336  144.4985  156.4569 C   0  0  0  0  0  0  0  0  0  0  0  0
  140.9661  144.6715  157.2338 C   0  0  0  0  0  0  0  0  0  0  0  0
  140.0388  145.6815  156.9115 C   0  0  0  0  0  0  0  0  0  0  0  0
  140.2750  146.5322  155.8151 C   0  0  0  0  0  0  0  0  0  0  0  0
  141.4417  146.3750  155.0436 C   0  0  0  0  0  0  0  0  0  0  0  0
  142.3696  145.3649  155.3644 C   0  0  0  0  0  0  0  0  0  0  0  0
  144.4606  144.1673  155.3755 H   0  0  0  0  0  0  0  0  0  0  0  0
  147.0688  140.8758  158.4644 H   0  0  0  0  0  0  0  0  0  0  0  0
  147.4127  142.0595  152.1478 H   0  0  0  0  0  0  0  0  0  0  0  0
  149.3918  140.5535  152.7819 H   0  0  0  0  0  0  0  0  0  0  0  0
  149.3948  140.3257  156.4948 H   0  0  0  0  0  0  0  0  0  0  0  0
  151.6899  139.4462  157.3048 H   0  0  0  0  0  0  0  0  0  0  0  0
  152.3971  140.2153  155.8852 H   0  0  0  0  0  0  0  0  0  0  0  0
  152.4936  142.3672  161.0764 H   0  0  0  0  0  0  0  0  0  0  0  0
  152.3010  144.6282  162.0454 H   0  0  0  0  0  0  0  0  0  0  0  0
  151.5968  146.5473  160.6274 H   0  0  0  0  0  0  0  0  0  0  0  0
  151.0815  146.1877  158.2213 H   0  0  0  0  0  0  0  0  0  0  0  0
  151.2627  143.9461  157.2284 H   0  0  0  0  0  0  0  0  0  0  0  0
  149.7471  137.9242  155.9981 H   0  0  0  0  0  0  0  0  0  0  0  0
  147.9146  138.8940  154.7695 H   0  0  0  0  0  0  0  0  0  0  0  0
  149.2517  138.4749  152.4247 H   0  0  0  0  0  0  0  0  0  0  0  0
  140.7707  144.0272  158.0790 H   0  0  0  0  0  0  0  0  0  0  0  0
  139.1459  145.8041  157.5069 H   0  0  0  0  0  0  0  0  0  0  0  0
  139.5639  147.3067  155.5689 H   0  0  0  0  0  0  0  0  0  0  0  0
  141.6269  147.0316  154.2062 H   0  0  0  0  0  0  0  0  0  0  0  0
  143.2635  145.2681  154.7655 H   0  0  0  0  0  0  0  0  0  0  0  0
  1  2  2  0  0  0  0
  2  3  1  0  0  0  0
  2 30  1  0  0  0  0
  3  4  1  0  0  0  0
  3 36  1  0  0  0  0
  4  9  1  0  0  0  0
  4  5  2  0  0  0  0
  5  6  1  0  0  0  0
  6  7  2  0  0  0  0
  6 37  1  0  0  0  0
  7  8  1  0  0  0  0
  8 12  1  0  0  0  0
  8  9  2  0  0  0  0
  9 10  1  0  0  0  0
 10 11  2  0  0  0  0
 11 12  1  0  0  0  0
 11 38  1  0  0  0  0
 12 13  1  0  0  0  0
 13 28  1  0  0  0  0
 13 14  1  0  0  0  0
 13 39  1  0  0  0  0
 14 15  1  0  0  0  0
 15 16  1  0  0  0  0
 15 26  1  0  0  0  0
 15 40  1  0  0  0  0
 16 17  1  0  0  0  0
 16 41  1  0  0  0  0
 16 42  1  0  0  0  0
 17 18  1  0  0  0  0
 18 19  2  0  0  0  0
 18 20  1  0  0  0  0
 20 25  1  0  0  0  0
 20 21  2  0  0  0  0
 21 22  1  0  0  0  0
 21 43  1  0  0  0  0
 22 23  2  0  0  0  0
 22 44  1  0  0  0  0
 23 24  1  0  0  0  0
 23 45  1  0  0  0  0
 24 25  2  0  0  0  0
 24 46  1  0  0  0  0
 25 47  1  0  0  0  0
 26 27  1  0  0  0  0
 26 28  1  0  0  0  0
 26 48  1  0  0  0  0
 28 29  1  0  0  0  0
 28 49  1  0  0  0  0
 29 50  1  0  0  0  0
 30 35  1  0  0  0  0
 30 31  2  0  0  0  0
 31 32  1  0  0  0  0
 31 51  1  0  0  0  0
 32 33  2  0  0  0  0
 32 52  1  0  0  0  0
 33 34  1  0  0  0  0
 33 53  1  0  0  0  0
 34 35  2  0  0  0  0
 34 54  1  0  0  0  0
 35 55  1  0  0  0  0
M  END
> <s_m_source_file>
AV-unprocessed.smi

> <i_m_source_file_index>
34

> <i_lp_mmshare_version>
43012

> <i_f3d_flags>
0

> <s_epik_input>
W2NIXTFbY0hdW2NIXVtjSF1bY0hdYzFDKD1PKVtOSF1jKG5bY0hdbjIpYyhjMjMpbltjSF1uM1tDQEBIXTRPW0NASF0oW0NAQEhdKEYpW0NASF00W09IXSlbQ0gyXU9DKD1PKWM1W2NIXVtjSF1bY0hdW2NIXVtjSF01

> <s_epik_cmdline>
J2VwaWtfcHl0aG9uJywgJy1waCcsICc3LjAnLCAnLXRuJywgJzgnLCAnLW1hJywgJzIwMCcsICctbWV0YWxfYmluZGluZycsICctaW1hZScsICc8aW5maWxlLm1hZT4nLCAnLW9tYWUnLCAnPG91dGZpbGUubWFlPic=

> <r_lp_tautomer_probability>
1

> <r_epik_Ionization_Penalty>
0.00257489

> <r_epik_Ionization_Penalty_Charging>
0

> <r_epik_Ionization_Penalty_Neutral>
0.00257489

> <r_epik_State_Penalty>
0.00519398

> <r_epik_Charging_Adjusted_Penalty>
0.00519398

> <i_epik_Tot_Q>
0

> <i_epik_Tot_abs_Q>
0

> <r_epik_Metal_State_Penalty>
0.335891

> <b_epik_Metal_Only>
0

> <s_epik_Chemistry_Notes>
This compound has an ester and may undergo hydrolysis at high or low pH. This compound contains an acetal/aminal-like group ( X-CH(R)-Y where X, Y are N, S, or O) that may be acid/base labile, releasing an aldehyde.

> <s_lp_Force_Field>
OPLS_2005

> <r_lp_Energy>
45.4918

> <b_lp_Chiralities_Consistent>
1

> <s_lp_Variant>
AV-unprocessed.smi:34-16

> <Gold.Version>
5.8.1

> <Gold.Id.Protein>
6NUR|6NUR_protein|mol2

> <Gold.PLP.Fitness>
59.2344

> <Gold.PLP.PLP>
-54.7559

> <Gold.PLP.part.hbond>
-2.1428

> <Gold.PLP.part.metal>
0.0000

> <Gold.PLP.part.buried>
-5.1694

> <Gold.PLP.part.nonpolar>
-47.1259

> <Gold.PLP.part.repulsive>
0.4537

> <Gold.PLP.ligand.clash>
0.0000

> <Gold.PLP.ligand.torsion>
0.6828

> <Gold.PLP.Chemscore.Hbond>
1.7360

> <Gold.PLP.Chemscore.CHOScore>
0.0000

> <Gold.PLP.Chemscore.Metal>
0.0000

> <Gold.Chemscore.Hbonds>
donor molecule, donor type, donor heavy atom, donor atom, acceptor molecule, acceptor atom, score
      L1  H    29    50       P1  7957  1.00
      P1  H  7989  7998       L1    14  0.74

> <Gold.PLP.Chemscore.Internal.Correction>
0.6359

> <Gold.Rescore>
     Score         DG    S(hbond)    S(metal)    S(lipo)     H(rot)  DE(clash)    DE(int)     intcor
      9.82     -16.72       1.10        0.00     124.16       2.72       2.96       3.94       ----

> <Gold.Chemscore.Fitness>
9.8222

> <Gold.Chemscore.DG>
-16.7158

> <Gold.Chemscore.ZeroCoef>
-5.4800

> <Gold.Chemscore.Hbond>
1.1005

> <Gold.Chemscore.Metal>
0.0000

> <Gold.Chemscore.Lipo>
124.1626

> <Gold.Chemscore.Internal_Hbond>
0.0000

> <Gold.Chemscore.DEClash>
2.9571

> <Gold.Chemscore.DEInternal>
3.9366

> <Gold.Chemscore.Rot>
2.7215

> <Gold.Chemscore.Internal.Correction>
   9.000000E+99

> <Gold.Chemscore.Hbonds>
donor molecule, donor type, donor heavy atom, donor atom, acceptor molecule, acceptor atom, score
      L1  H    29    50       P1  7957  0.56
      P1  H  7989  7998       L1    14  0.22

> <Gold.Chemscore.Hbond.Weighted>
-3.6758

> <Gold.Chemscore.Metal.Weighted>
-0.0000

> <Gold.Chemscore.Lipo.Weighted>
-14.5270

> <Gold.Chemscore.Internal_Hbond.Weighted>
0.0000

> <Gold.Chemscore.DEClash.Weighted>
2.9571

> <Gold.Chemscore.DEInternal.Weighted>
3.9366

> <Gold.Chemscore.Rot.Weighted>
6.9670

> <Gold.Chemscore.Internal.Correction.Weighted>
   9.000000E+99

> <Gold.Protein.RotatedTorsions>
[ 6907 6896 6895 6894 ] final  155.37 input  -60.11 | X-H torsion
[ 7974 7965 7964 7962 ] final  162.59 input  175.53 | X-H torsion
[ 8008 7997 7996 7995 ] final   52.64 input   59.86 | X-H torsion
[ 10167 10162 10161 10158 ] final    1.28 input  -65.29 | X-H torsion
[ 10718 10713 10712 10709 ] final   62.59 input   66.30 | X-H torsion
[ 10763 10752 10751 10750 ] final  -96.55 input  -60.55 | X-H torsion
[ 11005 11000 10999 10996 ] final -151.55 input  -57.11 | X-H torsion

> <Gold.Protein.ActiveResidues>
 VAL166  LYS551  ARG553  GLY616  TRP617  ASP618  TYR619  PRO620  LYS621  CYS622 
 ASP623  PHE694  ASN695  SER759  ASP760  ASP761  ALA762  ILE779  LEU786  VAL792 
 PHE793  MET794  SER795  GLU796  ALA797  LYS798  CYS799  TRP800  GLU811  SER814 

> <Gold.Protein.RotatedAtoms>
  152.0451  133.3994  159.4352 H   0  0  0  0  0  0  0  0  0  0  0  0  # atno 6907 bound_to 6896
  150.6873  134.3371  159.4861 H   0  0  0  0  0  0  0  0  0  0  0  0  # atno 6908 bound_to 6896
  152.1174  134.9230  160.0615 H   0  0  0  0  0  0  0  0  0  0  0  0  # atno 6909 bound_to 6896
  144.7629  139.8061  143.6326 H   0  0  0  0  0  0  0  0  0  0  0  0  # atno 7974 bound_to 7965
  155.4551  140.3459  155.4305 H   0  0  0  0  0  0  0  0  0  0  0  0  # atno 8008 bound_to 7997
  156.1196  140.1483  156.9254 H   0  0  0  0  0  0  0  0  0  0  0  0  # atno 8009 bound_to 7997
  154.4813  140.0869  156.7364 H   0  0  0  0  0  0  0  0  0  0  0  0  # atno 8010 bound_to 7997
  140.6690  143.7101  150.7884 H   0  0  0  0  0  0  0  0  0  0  0  0  # atno 10167 bound_to 10162
  157.5912  130.9059  149.9608 H   0  0  0  0  0  0  0  0  0  0  0  0  # atno 10718 bound_to 10713
  154.7249  135.5079  153.8871 H   0  0  0  0  0  0  0  0  0  0  0  0  # atno 10763 bound_to 10752
  153.0896  135.6655  153.9889 H   0  0  0  0  0  0  0  0  0  0  0  0  # atno 10764 bound_to 10752
  153.9704  135.3039  155.3407 H   0  0  0  0  0  0  0  0  0  0  0  0  # atno 10765 bound_to 10752
  140.7283  134.3649  157.5171 H   0  0  0  0  0  0  0  0  0  0  0  0  # atno 11005 bound_to 11000
  146.1710  139.4861  142.9927 LP  0  0  0  0  0  0  0  0  0  0  0  0  # atno 17320 bound_to 7965
  145.6560  141.0252  143.1734 LP  0  0  0  0  0  0  0  0  0  0  0  0  # atno 17321 bound_to 7965
  140.0783  143.4994  152.2544 LP  0  0  0  0  0  0  0  0  0  0  0  0  # atno 17342 bound_to 10162
  139.5950  144.7564  151.3308 LP  0  0  0  0  0  0  0  0  0  0  0  0  # atno 17343 bound_to 10162
  156.0967  130.3659  150.0294 LP  0  0  0  0  0  0  0  0  0  0  0  0  # atno 17370 bound_to 10713
  156.8416  130.9427  151.3631 LP  0  0  0  0  0  0  0  0  0  0  0  0  # atno 17371 bound_to 10713
  139.8832  134.9001  156.2782 LP  0  0  0  0  0  0  0  0  0  0  0  0  # atno 17394 bound_to 11000
  140.9943  133.7190  156.0862 LP  0  0  0  0  0  0  0  0  0  0  0  0  # atno 17395 bound_to 11000

$$$$
