AV-unprocessed.smi:36|AV-procd|sdf|301|dock2
  -GOLD-   2262016103D 1   1.00000     0.00000
 Structure written by MMmdl.
 63 66  0  0  0  0  0  0  0  0  2 V2000
  148.1798  134.1030  162.6130 C   0  0  0  0  0  0  0  0  0  0  0  0
  146.9677  133.7089  161.7531 C   0  0  0  0  0  0  0  0  0  0  0  0
  146.2526  132.5007  162.3804 C   0  0  0  0  0  0  0  0  0  0  0  0
  145.9910  134.8924  161.6496 C   0  0  0  0  0  0  0  0  0  0  0  0
  147.5597  133.2415  159.9982 Si  0  0  0  0  0  0  0  0  0  0  0  0
  148.8052  131.8055  160.0587 C   0  0  0  0  0  0  0  0  0  0  0  0
  146.1008  132.7734  158.8752 C   0  0  0  0  0  0  0  0  0  0  0  0
  148.3249  134.5956  159.3321 O   0  0  0  0  0  0  0  0  0  0  0  0
  148.4483  134.8044  157.9412 C   0  0  0  0  0  0  0  0  0  0  0  0
  149.3206  133.7010  157.3064 C   0  0  2  0  0  0  0  0  0  0  0  0
  150.6871  134.0927  157.3797 O   0  0  0  0  0  0  0  0  0  0  0  0
  151.0506  134.8376  156.2498 C   0  0  2  0  0  0  0  0  0  0  0  0
  151.1560  136.2893  156.6253 N   0  0  0  0  0  0  0  0  0  0  0  0
  151.2582  136.8129  157.8653 C   0  0  0  0  0  0  0  0  0  0  0  0
  151.3115  138.1376  157.9755 N   0  0  0  0  0  0  0  0  0  0  0  0
  151.1975  138.5319  156.6517 C   0  0  0  0  0  0  0  0  0  0  0  0
  151.1784  139.8138  156.0362 C   0  0  0  0  0  0  0  0  0  0  0  0
  151.2839  140.9555  156.7330 N   0  5  0  0  0  0  0  0  0  0  0  0
  152.1425  141.0314  157.7814 C   0  0  0  0  0  0  0  0  0  0  0  0
  153.0111  140.2201  158.1090 O   0  0  0  0  0  0  0  0  0  0  0  0
  152.0142  142.3121  158.5623 C   0  0  0  0  0  0  0  0  0  0  0  0
  152.5519  142.3938  159.8672 C   0  0  0  0  0  0  0  0  0  0  0  0
  152.4222  143.5753  160.6232 C   0  0  0  0  0  0  0  0  0  0  0  0
  151.7442  144.6854  160.0857 C   0  0  0  0  0  0  0  0  0  0  0  0
  151.1924  144.6113  158.7931 C   0  0  0  0  0  0  0  0  0  0  0  0
  151.3220  143.4302  158.0365 C   0  0  0  0  0  0  0  0  0  0  0  0
  151.0237  139.8471  154.6885 N   0  0  0  0  0  0  0  0  0  0  0  0
  150.9077  138.7100  153.9940 C   0  0  0  0  0  0  0  0  0  0  0  0
  150.9198  137.4500  154.4383 N   0  0  0  0  0  0  0  0  0  0  0  0
  151.0751  137.3989  155.7943 C   0  0  0  0  0  0  0  0  0  0  0  0
  149.9408  134.6235  155.2026 C   0  0  0  0  0  0  0  0  0  0  0  0
  149.1550  133.4731  155.7999 C   0  0  2  0  0  0  0  0  0  0  0  0
  147.8151  133.4471  155.3522 O   0  0  0  0  0  0  0  0  0  0  0  0
  147.8750  134.3779  163.6234 H   0  0  0  0  0  0  0  0  0  0  0  0
  148.7094  134.9555  162.1868 H   0  0  0  0  0  0  0  0  0  0  0  0
  148.8917  133.2813  162.6963 H   0  0  0  0  0  0  0  0  0  0  0  0
  146.9226  131.6460  162.4744 H   0  0  0  0  0  0  0  0  0  0  0  0
  145.4014  132.1865  161.7754 H   0  0  0  0  0  0  0  0  0  0  0  0
  145.8791  132.7347  163.3778 H   0  0  0  0  0  0  0  0  0  0  0  0
  145.6140  135.1832  162.6305 H   0  0  0  0  0  0  0  0  0  0  0  0
  145.1314  134.6423  161.0268 H   0  0  0  0  0  0  0  0  0  0  0  0
  146.4707  135.7672  161.2100 H   0  0  0  0  0  0  0  0  0  0  0  0
  148.3624  130.9105  160.4948 H   0  0  0  0  0  0  0  0  0  0  0  0
  149.6820  132.0573  160.6543 H   0  0  0  0  0  0  0  0  0  0  0  0
  149.1579  131.5372  159.0631 H   0  0  0  0  0  0  0  0  0  0  0  0
  145.5696  131.8994  159.2506 H   0  0  0  0  0  0  0  0  0  0  0  0
  146.4361  132.5388  157.8647 H   0  0  0  0  0  0  0  0  0  0  0  0
  145.3784  133.5851  158.7949 H   0  0  0  0  0  0  0  0  0  0  0  0
  147.4649  134.8587  157.4755 H   0  0  0  0  0  0  0  0  0  0  0  0
  148.9182  135.7765  157.7913 H   0  0  0  0  0  0  0  0  0  0  0  0
  149.1816  132.7718  157.8599 H   0  0  0  0  0  0  0  0  0  0  0  0
  152.0495  134.5676  155.9061 H   0  0  0  0  0  0  0  0  0  0  0  0
  151.3039  136.1843  158.7425 H   0  0  0  0  0  0  0  0  0  0  0  0
  153.0742  141.5502  160.2951 H   0  0  0  0  0  0  0  0  0  0  0  0
  152.8425  143.6282  161.6164 H   0  0  0  0  0  0  0  0  0  0  0  0
  151.6446  145.5911  160.6654 H   0  0  0  0  0  0  0  0  0  0  0  0
  150.6663  145.4598  158.3814 H   0  0  0  0  0  0  0  0  0  0  0  0
  150.8819  143.3908  157.0505 H   0  0  0  0  0  0  0  0  0  0  0  0
  150.7891  138.8266  152.9272 H   0  0  0  0  0  0  0  0  0  0  0  0
  149.3089  135.5089  155.1193 H   0  0  0  0  0  0  0  0  0  0  0  0
  150.3623  134.3967  154.2230 H   0  0  0  0  0  0  0  0  0  0  0  0
  149.6335  132.5314  155.5275 H   0  0  0  0  0  0  0  0  0  0  0  0
  147.8145  133.4690  154.4072 H   0  0  0  0  0  0  0  0  0  0  0  0
  1  2  1  0  0  0  0
  1 34  1  0  0  0  0
  1 35  1  0  0  0  0
  1 36  1  0  0  0  0
  2  3  1  0  0  0  0
  2  4  1  0  0  0  0
  2  5  1  0  0  0  0
  3 37  1  0  0  0  0
  3 38  1  0  0  0  0
  3 39  1  0  0  0  0
  4 40  1  0  0  0  0
  4 41  1  0  0  0  0
  4 42  1  0  0  0  0
  5  6  1  0  0  0  0
  5  7  1  0  0  0  0
  5  8  1  0  0  0  0
  6 43  1  0  0  0  0
  6 44  1  0  0  0  0
  6 45  1  0  0  0  0
  7 46  1  0  0  0  0
  7 47  1  0  0  0  0
  7 48  1  0  0  0  0
  8  9  1  0  0  0  0
  9 10  1  0  0  0  0
  9 49  1  0  0  0  0
  9 50  1  0  0  0  0
 10 32  1  0  0  0  0
 10 11  1  0  0  0  0
 10 51  1  0  0  0  0
 11 12  1  0  0  0  0
 12 13  1  0  0  0  0
 12 31  1  0  0  0  0
 12 52  1  0  0  0  0
 13 30  1  0  0  0  0
 13 14  1  0  0  0  0
 14 15  2  0  0  0  0
 14 53  1  0  0  0  0
 15 16  1  0  0  0  0
 16 30  2  0  0  0  0
 16 17  1  0  0  0  0
 17 18  1  0  0  0  0
 17 27  2  0  0  0  0
 18 19  1  0  0  0  0
 19 20  2  0  0  0  0
 19 21  1  0  0  0  0
 21 26  1  0  0  0  0
 21 22  2  0  0  0  0
 22 23  1  0  0  0  0
 22 54  1  0  0  0  0
 23 24  2  0  0  0  0
 23 55  1  0  0  0  0
 24 25  1  0  0  0  0
 24 56  1  0  0  0  0
 25 26  2  0  0  0  0
 25 57  1  0  0  0  0
 26 58  1  0  0  0  0
 27 28  1  0  0  0  0
 28 29  2  0  0  0  0
 28 59  1  0  0  0  0
 29 30  1  0  0  0  0
 31 32  1  0  0  0  0
 31 60  1  0  0  0  0
 31 61  1  0  0  0  0
 32 33  1  0  0  0  0
 32 62  1  0  0  0  0
 33 63  1  0  0  0  0
M  CHG  1  18  -1
M  END
> <s_m_source_file>
AV-unprocessed.smi

> <i_m_source_file_index>
36

> <i_lp_mmshare_version>
43012

> <i_f3d_flags>
0

> <s_epik_input>
W0NIM11DKFtDSDNdKShbQ0gzXSlbU2ldKFtDSDNdKShbQ0gzXSlPW0NIMl1bQ0BASF0xT1tDQEhdKFtDSDJdW0NASF0xW09IXSluKFtjSF1uMiljKGMyMyluW2NIXW5jM1tOSF1DKD1PKWM0W2NIXVtjSF1bY0hdW2NIXVtjSF00

> <s_epik_cmdline>
J2VwaWtfcHl0aG9uJywgJy1waCcsICc3LjAnLCAnLXRuJywgJzgnLCAnLW1hJywgJzIwMCcsICctbWV0YWxfYmluZGluZycsICctaW1hZScsICc8aW5maWxlLm1hZT4nLCAnLW9tYWUnLCAnPG91dGZpbGUubWFlPic=

> <r_lp_tautomer_probability>
1

> <r_epik_Ionization_Penalty>
4.75685

> <r_epik_Ionization_Penalty_Charging>
3.55822

> <r_epik_Ionization_Penalty_Neutral>
1.19863

> <r_epik_State_Penalty>
3.564

> <r_epik_Charging_Adjusted_Penalty>
7.12222

> <i_epik_Tot_Q>
-1

> <i_epik_Tot_abs_Q>
1

> <r_epik_Metal_State_Penalty>
0.523258

> <b_epik_Metal_Only>
1

> <s_epik_Chemistry_Notes>
This compound contains an acetal/aminal-like group ( X-CH(R)-Y where X, Y are N, S, or O) that may be acid/base labile, releasing an aldehyde.

> <s_lp_Force_Field>
OPLS_2005

> <r_lp_Energy>
38.2171

> <b_lp_Chiralities_Consistent>
1

> <s_lp_Variant>
AV-unprocessed.smi:36-23

> <Gold.Version>
5.8.1

> <Gold.Id.Protein>
6NUR|6NUR_protein|mol2

> <Gold.PLP.Fitness>
60.9606

> <Gold.PLP.PLP>
-51.3941

> <Gold.PLP.part.hbond>
-3.0000

> <Gold.PLP.part.metal>
0.0000

> <Gold.PLP.part.buried>
-8.4992

> <Gold.PLP.part.nonpolar>
-40.5372

> <Gold.PLP.part.repulsive>
0.2918

> <Gold.PLP.ligand.clash>
0.0000

> <Gold.PLP.ligand.torsion>
1.6052

> <Gold.PLP.Chemscore.Hbond>
2.9200

> <Gold.PLP.Chemscore.CHOScore>
0.9958

> <Gold.PLP.Chemscore.Metal>
0.0000

> <Gold.Chemscore.Hbonds>
donor molecule, donor type, donor heavy atom, donor atom, acceptor molecule, acceptor atom, score
      P1  H  6896  6907       L1    11  0.40
      P1  H  7989  7998       L1    27  1.00
      P1  H  7997  8009       L1    20  0.96
      L1  C    28    59       P1  7957  0.92

> <Gold.PLP.Chemscore.Internal.Correction>
1.0293

> <Gold.Rescore>
     Score         DG    S(hbond)    S(metal)    S(lipo)     H(rot)  DE(clash)    DE(int)     intcor
     17.41     -21.87       2.83        0.00     117.67       2.67       0.05       4.42       ----

> <Gold.Chemscore.Fitness>
17.4084

> <Gold.Chemscore.DG>
-21.8743

> <Gold.Chemscore.ZeroCoef>
-5.4800

> <Gold.Chemscore.Hbond>
2.8333

> <Gold.Chemscore.Metal>
0.0000

> <Gold.Chemscore.Lipo>
117.6656

> <Gold.Chemscore.Internal_Hbond>
0.0000

> <Gold.Chemscore.DEClash>
0.0477

> <Gold.Chemscore.DEInternal>
4.4181

> <Gold.Chemscore.Rot>
2.6702

> <Gold.Chemscore.Internal.Correction>
   9.000000E+99

> <Gold.Chemscore.Hbonds>
donor molecule, donor type, donor heavy atom, donor atom, acceptor molecule, acceptor atom, score
      P1  H  6896  6907       L1    11  0.04
      P1  H  7989  7998       L1    27  0.26
      P1  H  7997  8009       L1    20  0.85

> <Gold.Chemscore.Hbond.Weighted>
-9.4631

> <Gold.Chemscore.Metal.Weighted>
-0.0000

> <Gold.Chemscore.Lipo.Weighted>
-13.7669

> <Gold.Chemscore.Internal_Hbond.Weighted>
0.0000

> <Gold.Chemscore.DEClash.Weighted>
0.0477

> <Gold.Chemscore.DEInternal.Weighted>
4.4181

> <Gold.Chemscore.Rot.Weighted>
6.8358

> <Gold.Chemscore.Internal.Correction.Weighted>
   9.000000E+99

> <Gold.Protein.RotatedTorsions>
[ 6907 6896 6895 6894 ] final -110.09 input  -60.11 | X-H torsion
[ 7974 7965 7964 7962 ] final   10.10 input  175.53 | X-H torsion
[ 8008 7997 7996 7995 ] final  161.12 input   59.86 | X-H torsion
[ 10167 10162 10161 10158 ] final   93.84 input  -65.29 | X-H torsion
[ 10718 10713 10712 10709 ] final   96.64 input   66.30 | X-H torsion
[ 10763 10752 10751 10750 ] final  110.16 input  -60.55 | X-H torsion
[ 11005 11000 10999 10996 ] final -118.91 input  -57.11 | X-H torsion

> <Gold.Protein.ActiveResidues>
 VAL166  LYS551  ARG553  GLY616  TRP617  ASP618  TYR619  PRO620  LYS621  CYS622 
 ASP623  PHE694  ASN695  SER759  ASP760  ASP761  ALA762  ILE779  LEU786  VAL792 
 PHE793  MET794  SER795  GLU796  ALA797  LYS798  CYS799  TRP800  GLU811  SER814 

> <Gold.Protein.RotatedAtoms>
  150.7602  133.9434  159.3462 H   0  0  0  0  0  0  0  0  0  0  0  0  # atno 6907 bound_to 6896
  151.7344  135.0866  160.0315 H   0  0  0  0  0  0  0  0  0  0  0  0  # atno 6908 bound_to 6896
  152.3569  133.6211  159.6022 H   0  0  0  0  0  0  0  0  0  0  0  0  # atno 6909 bound_to 6896
  146.2393  139.9684  142.8450 H   0  0  0  0  0  0  0  0  0  0  0  0  # atno 7974 bound_to 7965
  156.2125  140.1786  156.7662 H   0  0  0  0  0  0  0  0  0  0  0  0  # atno 8008 bound_to 7997
  154.5743  140.0677  156.9041 H   0  0  0  0  0  0  0  0  0  0  0  0  # atno 8009 bound_to 7997
  155.2616  140.3336  155.4275 H   0  0  0  0  0  0  0  0  0  0  0  0  # atno 8010 bound_to 7997
  139.8141  144.6760  150.9602 H   0  0  0  0  0  0  0  0  0  0  0  0  # atno 10167 bound_to 10162
  157.6924  131.0584  150.4523 H   0  0  0  0  0  0  0  0  0  0  0  0  # atno 10718 bound_to 10713
  153.4449  135.3757  155.2250 H   0  0  0  0  0  0  0  0  0  0  0  0  # atno 10763 bound_to 10752
  154.8755  135.3872  154.4108 H   0  0  0  0  0  0  0  0  0  0  0  0  # atno 10764 bound_to 10752
  153.4659  135.7087  153.6086 H   0  0  0  0  0  0  0  0  0  0  0  0  # atno 10765 bound_to 10752
  141.0253  134.0063  157.3223 H   0  0  0  0  0  0  0  0  0  0  0  0  # atno 11005 bound_to 11000
  145.1704  140.9718  143.4325 LP  0  0  0  0  0  0  0  0  0  0  0  0  # atno 17320 bound_to 7965
  145.0034  139.3577  143.6156 LP  0  0  0  0  0  0  0  0  0  0  0  0  # atno 17321 bound_to 7965
  140.7816  143.4156  151.0923 LP  0  0  0  0  0  0  0  0  0  0  0  0  # atno 17342 bound_to 10162
  139.7820  143.8341  152.3139 LP  0  0  0  0  0  0  0  0  0  0  0  0  # atno 17343 bound_to 10162
  156.4873  130.4087  149.6427 LP  0  0  0  0  0  0  0  0  0  0  0  0  # atno 17370 bound_to 10713
  156.3450  130.7402  151.2353 LP  0  0  0  0  0  0  0  0  0  0  0  0  # atno 17371 bound_to 10713
  139.9172  135.0198  156.7926 LP  0  0  0  0  0  0  0  0  0  0  0  0  # atno 17394 bound_to 11000
  140.6502  133.9738  155.7751 LP  0  0  0  0  0  0  0  0  0  0  0  0  # atno 17395 bound_to 11000

$$$$
