AV-unprocessed.smi:674|AV-procd|sdf|3299|dock7
  -GOLD-   22720 0263D 1   1.00000     0.00000
 Structure written by MMmdl.
 47 48  0  0  0  0  0  0  0  0  1 V2000
  147.1208  128.5112  152.0553 C   0  0  0  0  0  0  0  0  0  0  0  0
  147.1177  129.2867  153.3777 C   0  0  0  0  0  0  0  0  0  0  0  0
  147.3492  130.7566  153.1675 C   0  0  0  0  0  0  0  0  0  0  0  0
  148.3264  131.5864  153.7902 C   0  0  0  0  0  0  0  0  0  0  0  0
  148.0710  132.8154  153.2456 C   0  0  0  0  0  0  0  0  0  0  0  0
  148.6907  134.0008  153.4901 N   0  0  0  0  0  0  0  0  0  0  0  0
  149.4423  134.3544  154.5473 C   0  0  0  0  0  0  0  0  0  0  0  0
  149.7479  133.6185  155.4859 O   0  0  0  0  0  0  0  0  0  0  0  0
  149.8370  135.6314  154.4546 N   0  0  0  0  0  0  0  0  0  0  0  0
  150.6640  136.3088  155.4475 C   0  0  2  0  0  0  0  0  0  0  0  0
  149.9061  136.6226  156.7361 C   0  0  0  0  0  0  0  0  0  0  0  0
  150.6951  137.9455  156.7866 C   0  0  1  0  0  0  0  0  0  0  0  0
  150.0370  139.1932  157.3886 C   0  0  0  0  0  0  0  0  0  0  0  0
  151.9882  137.7293  157.3687 O   0  0  0  0  0  0  0  0  0  0  0  0
  152.0453  137.5227  158.7749 C   0  0  0  0  0  0  0  0  0  0  0  0
  150.8279  137.8350  155.2320 C   0  0  0  0  0  0  0  0  0  0  0  0
  152.1594  138.2875  154.6232 C   0  0  0  0  0  0  0  0  0  0  0  0
  149.7321  138.5387  154.4088 C   0  0  0  0  0  0  0  0  0  0  0  0
  147.0174  132.7008  152.3642 N   0  0  0  0  0  0  0  0  0  0  0  0
  146.3661  133.7077  151.5488 C   0  0  0  0  0  0  0  0  0  0  0  0
  146.5757  131.4258  152.3194 N   0  0  0  0  0  0  0  0  0  0  0  0
  146.9480  127.4488  152.2273 H   0  0  0  0  0  0  0  0  0  0  0  0
  148.0763  128.6135  151.5399 H   0  0  0  0  0  0  0  0  0  0  0  0
  146.3390  128.8724  151.3865 H   0  0  0  0  0  0  0  0  0  0  0  0
  146.1648  129.1309  153.8843 H   0  0  0  0  0  0  0  0  0  0  0  0
  147.8818  128.8781  154.0400 H   0  0  0  0  0  0  0  0  0  0  0  0
  149.0731  131.3069  154.5180 H   0  0  0  0  0  0  0  0  0  0  0  0
  148.5525  134.7109  152.7865 H   0  0  0  0  0  0  0  0  0  0  0  0
  149.5477  136.1701  153.6515 H   0  0  0  0  0  0  0  0  0  0  0  0
  151.6113  135.8042  155.6526 H   0  0  0  0  0  0  0  0  0  0  0  0
  148.8349  136.7732  156.5894 H   0  0  0  0  0  0  0  0  0  0  0  0
  150.0933  135.9186  157.5464 H   0  0  0  0  0  0  0  0  0  0  0  0
  149.1012  139.4398  156.8884 H   0  0  0  0  0  0  0  0  0  0  0  0
  150.6899  140.0625  157.3078 H   0  0  0  0  0  0  0  0  0  0  0  0
  149.7895  139.0567  158.4410 H   0  0  0  0  0  0  0  0  0  0  0  0
  153.0543  137.2135  159.0469 H   0  0  0  0  0  0  0  0  0  0  0  0
  151.3605  136.7447  159.1107 H   0  0  0  0  0  0  0  0  0  0  0  0
  151.8310  138.4393  159.3242 H   0  0  0  0  0  0  0  0  0  0  0  0
  152.3305  139.3519  154.7871 H   0  0  0  0  0  0  0  0  0  0  0  0
  152.1905  138.1092  153.5478 H   0  0  0  0  0  0  0  0  0  0  0  0
  153.0074  137.7528  155.0518 H   0  0  0  0  0  0  0  0  0  0  0  0
  149.8253  139.6236  154.4653 H   0  0  0  0  0  0  0  0  0  0  0  0
  148.7296  138.2846  154.7529 H   0  0  0  0  0  0  0  0  0  0  0  0
  149.7841  138.2667  153.3540 H   0  0  0  0  0  0  0  0  0  0  0  0
  146.9819  134.6047  151.4826 H   0  0  0  0  0  0  0  0  0  0  0  0
  145.4038  133.9685  151.9905 H   0  0  0  0  0  0  0  0  0  0  0  0
  146.2032  133.3215  150.5419 H   0  0  0  0  0  0  0  0  0  0  0  0
  1  2  1  0  0  0  0
  1 22  1  0  0  0  0
  1 23  1  0  0  0  0
  1 24  1  0  0  0  0
  2  3  1  0  0  0  0
  2 25  1  0  0  0  0
  2 26  1  0  0  0  0
  3 21  2  0  0  0  0
  3  4  1  0  0  0  0
  4  5  2  0  0  0  0
  4 27  1  0  0  0  0
  5  6  1  0  0  0  0
  5 19  1  0  0  0  0
  6  7  1  0  0  0  0
  6 28  1  0  0  0  0
  7  8  2  0  0  0  0
  7  9  1  0  0  0  0
  9 10  1  0  0  0  0
  9 29  1  0  0  0  0
 10 16  1  0  0  0  0
 10 11  1  0  0  0  0
 10 30  1  0  0  0  0
 11 12  1  0  0  0  0
 11 31  1  0  0  0  0
 11 32  1  0  0  0  0
 12 13  1  0  0  0  0
 12 14  1  0  0  0  0
 12 16  1  0  0  0  0
 13 33  1  0  0  0  0
 13 34  1  0  0  0  0
 13 35  1  0  0  0  0
 14 15  1  0  0  0  0
 15 36  1  0  0  0  0
 15 37  1  0  0  0  0
 15 38  1  0  0  0  0
 16 17  1  0  0  0  0
 16 18  1  0  0  0  0
 17 39  1  0  0  0  0
 17 40  1  0  0  0  0
 17 41  1  0  0  0  0
 18 42  1  0  0  0  0
 18 43  1  0  0  0  0
 18 44  1  0  0  0  0
 19 20  1  0  0  0  0
 19 21  1  0  0  0  0
 20 45  1  0  0  0  0
 20 46  1  0  0  0  0
 20 47  1  0  0  0  0
M  END
> <s_m_source_file>
AV-unprocessed.smi

> <i_m_source_file_index>
674

> <i_lp_mmshare_version>
43012

> <i_f3d_flags>
0

> <s_epik_input>
W0NIM11bQ0gyXWMxW2NIXWMobihuMSlbQ0gzXSlbTkhdQyg9TylbTkhdW0NAQEhdKEMyKFtDSDNdKVtDSDNdKVtDSDJdW0NAQF0yKFtDSDNdKU9bQ0gzXQ==

> <s_epik_cmdline>
J2VwaWtfcHl0aG9uJywgJy1waCcsICc3LjAnLCAnLXRuJywgJzgnLCAnLW1hJywgJzIwMCcsICctbWV0YWxfYmluZGluZycsICctaW1hZScsICc8aW5maWxlLm1hZT4nLCAnLW9tYWUnLCAnPG91dGZpbGUubWFlPic=

> <r_lp_tautomer_probability>
1

> <r_epik_Ionization_Penalty>
0.000101626

> <r_epik_Ionization_Penalty_Charging>
0

> <r_epik_Ionization_Penalty_Neutral>
0.000101626

> <r_epik_State_Penalty>
-0

> <r_epik_Charging_Adjusted_Penalty>
0

> <i_epik_Tot_Q>
0

> <i_epik_Tot_abs_Q>
0

> <r_epik_Metal_State_Penalty>
-0

> <b_epik_Metal_Only>
0

> <s_lp_Force_Field>
OPLS_2005

> <r_lp_Energy>
22.7412

> <b_lp_Chiralities_Consistent>
1

> <s_lp_Variant>
AV-unprocessed.smi:674-1

> <Gold.Version>
5.8.1

> <Gold.Id.Protein>
6NUR|6NUR_protein|mol2

> <Gold.PLP.Fitness>
37.0426

> <Gold.PLP.PLP>
-31.3307

> <Gold.PLP.part.hbond>
-2.2875

> <Gold.PLP.part.metal>
0.0000

> <Gold.PLP.part.buried>
-4.2147

> <Gold.PLP.part.nonpolar>
-25.7201

> <Gold.PLP.part.repulsive>
0.2204

> <Gold.PLP.ligand.clash>
0.0000

> <Gold.PLP.ligand.torsion>
0.3208

> <Gold.PLP.Chemscore.Hbond>
1.9920

> <Gold.PLP.Chemscore.CHOScore>
0.0000

> <Gold.PLP.Chemscore.Metal>
0.0000

> <Gold.Chemscore.Hbonds>
donor molecule, donor type, donor heavy atom, donor atom, acceptor molecule, acceptor atom, score
      L1  H     6    28       P1  7948  0.95
      L1  H     9    29       P1  7948  0.98

> <Gold.PLP.Chemscore.Internal.Correction>
0.3774

> <Gold.Rescore>
     Score         DG    S(hbond)    S(metal)    S(lipo)     H(rot)  DE(clash)    DE(int)     intcor
     14.47     -14.96       1.51        0.00      67.91       1.37       0.04       0.45       ----

> <Gold.Chemscore.Fitness>
14.4729

> <Gold.Chemscore.DG>
-14.9628

> <Gold.Chemscore.ZeroCoef>
-5.4800

> <Gold.Chemscore.Hbond>
1.5072

> <Gold.Chemscore.Metal>
0.0000

> <Gold.Chemscore.Lipo>
67.9068

> <Gold.Chemscore.Internal_Hbond>
0.0000

> <Gold.Chemscore.DEClash>
0.0368

> <Gold.Chemscore.DEInternal>
0.4531

> <Gold.Chemscore.Rot>
1.3658

> <Gold.Chemscore.Internal.Correction>
   9.000000E+99

> <Gold.Chemscore.Hbonds>
donor molecule, donor type, donor heavy atom, donor atom, acceptor molecule, acceptor atom, score
      L1  H     6    28       P1  7948  0.21
      L1  H     9    29       P1  7948  0.47

> <Gold.Chemscore.Hbond.Weighted>
-5.0340

> <Gold.Chemscore.Metal.Weighted>
-0.0000

> <Gold.Chemscore.Lipo.Weighted>
-7.9451

> <Gold.Chemscore.Internal_Hbond.Weighted>
0.0000

> <Gold.Chemscore.DEClash.Weighted>
0.0368

> <Gold.Chemscore.DEInternal.Weighted>
0.4531

> <Gold.Chemscore.Rot.Weighted>
3.4963

> <Gold.Chemscore.Internal.Correction.Weighted>
   9.000000E+99

> <Gold.Protein.RotatedTorsions>
[ 6907 6896 6895 6894 ] final   44.68 input  -60.11 | X-H torsion
[ 7974 7965 7964 7962 ] final -121.14 input  175.53 | X-H torsion
[ 8008 7997 7996 7995 ] final  119.73 input   59.86 | X-H torsion
[ 10167 10162 10161 10158 ] final  123.52 input  -65.29 | X-H torsion
[ 10718 10713 10712 10709 ] final  -92.37 input   66.30 | X-H torsion
[ 10763 10752 10751 10750 ] final  123.72 input  -60.55 | X-H torsion
[ 11005 11000 10999 10996 ] final   67.14 input  -57.11 | X-H torsion

> <Gold.Protein.ActiveResidues>
 VAL166  LYS551  ARG553  GLY616  TRP617  ASP618  TYR619  PRO620  LYS621  CYS622 
 ASP623  PHE694  ASN695  SER759  ASP760  ASP761  ALA762  ILE779  LEU786  VAL792 
 PHE793  MET794  SER795  GLU796  ALA797  LYS798  CYS799  TRP800  GLU811  SER814 

> <Gold.Protein.RotatedAtoms>
  152.2355  134.8280  160.0467 H   0  0  0  0  0  0  0  0  0  0  0  0  # atno 6907 bound_to 6896
  151.9014  133.3534  159.3840 H   0  0  0  0  0  0  0  0  0  0  0  0  # atno 6908 bound_to 6896
  150.7038  134.4750  159.5487 H   0  0  0  0  0  0  0  0  0  0  0  0  # atno 6909 bound_to 6896
  145.0436  140.8164  143.4251 H   0  0  0  0  0  0  0  0  0  0  0  0  # atno 7974 bound_to 7965
  156.2610  140.2846  156.1038 H   0  0  0  0  0  0  0  0  0  0  0  0  # atno 8008 bound_to 7997
  155.1331  140.0394  157.2797 H   0  0  0  0  0  0  0  0  0  0  0  0  # atno 8009 bound_to 7997
  154.6585  140.2561  155.7141 H   0  0  0  0  0  0  0  0  0  0  0  0  # atno 8010 bound_to 7997
  139.5794  144.6979  151.3567 H   0  0  0  0  0  0  0  0  0  0  0  0  # atno 10167 bound_to 10162
  156.0002  130.4984  150.5615 H   0  0  0  0  0  0  0  0  0  0  0  0  # atno 10718 bound_to 10713
  153.6501  135.3364  155.3097 H   0  0  0  0  0  0  0  0  0  0  0  0  # atno 10763 bound_to 10752
  154.8540  135.4339  154.1914 H   0  0  0  0  0  0  0  0  0  0  0  0  # atno 10764 bound_to 10752
  153.2854  135.7012  153.7419 H   0  0  0  0  0  0  0  0  0  0  0  0  # atno 10765 bound_to 10752
  139.9789  134.6777  156.0301 H   0  0  0  0  0  0  0  0  0  0  0  0  # atno 11005 bound_to 11000
  145.1616  139.2455  143.5388 LP  0  0  0  0  0  0  0  0  0  0  0  0  # atno 17320 bound_to 7965
  146.3512  140.1344  142.8596 LP  0  0  0  0  0  0  0  0  0  0  0  0  # atno 17321 bound_to 7965
  140.7074  143.7478  150.7506 LP  0  0  0  0  0  0  0  0  0  0  0  0  # atno 17342 bound_to 10162
  140.1007  143.4790  152.2427 LP  0  0  0  0  0  0  0  0  0  0  0  0  # atno 17343 bound_to 10162
  157.3524  131.0736  151.1703 LP  0  0  0  0  0  0  0  0  0  0  0  0  # atno 17370 bound_to 10713
  157.2515  130.6616  149.5933 LP  0  0  0  0  0  0  0  0  0  0  0  0  # atno 17371 bound_to 10713
  141.1463  133.6555  156.3877 LP  0  0  0  0  0  0  0  0  0  0  0  0  # atno 17394 bound_to 11000
  140.5138  134.6370  157.5294 LP  0  0  0  0  0  0  0  0  0  0  0  0  # atno 17395 bound_to 11000

$$$$
