AV-unprocessed.smi:1349|AV-procd|sdf|5518|dock2
  -GOLD-   22720 5103D 1   1.00000     0.00000
 Structure written by MMmdl.
 42 44  0  0  0  0  0  0  0  0  1 V2000
  151.7687  135.7891  155.9579 O   0  0  0  0  0  0  0  0  0  0  0  0
  151.5452  137.0666  156.5174 C   0  0  0  0  0  0  0  0  0  0  0  0
  152.6466  138.0475  156.0897 C   0  0  0  0  0  0  0  0  0  0  0  0
  152.2438  139.5235  156.2495 C   0  0  0  0  0  0  0  0  0  0  0  0
  150.9473  139.8443  155.5626 C   0  0  0  0  0  0  0  0  0  0  0  0
  150.3046  138.9159  154.8516 N   0  0  0  0  0  0  0  0  0  0  0  0
  149.1994  139.5960  154.3826 C   0  0  0  0  0  0  0  0  0  0  0  0
  148.1363  139.1633  153.5579 C   0  0  0  0  0  0  0  0  0  0  0  0
  147.1003  140.0521  153.2033 C   0  0  0  0  0  0  0  0  0  0  0  0
  147.1125  141.3830  153.6681 C   0  0  0  0  0  0  0  0  0  0  0  0
  148.1618  141.8334  154.4925 C   0  0  0  0  0  0  0  0  0  0  0  0
  149.1943  140.9421  154.8430 C   0  0  0  0  0  0  0  0  0  0  0  0
  150.3431  141.0621  155.6204 N   0  0  0  0  0  0  0  0  0  0  0  0
  150.7510  142.2703  156.3270 C   0  0  0  0  0  0  0  0  0  0  0  0
  151.2481  141.9818  157.7499 C   0  0  0  0  0  0  0  0  0  0  0  0
  151.6406  143.1892  158.3891 O   0  0  0  0  0  0  0  0  0  0  0  0
  152.0505  143.1239  159.7045 C   0  0  0  0  0  0  0  0  0  0  0  0
  152.6562  141.9237  160.1317 C   0  0  0  0  0  0  0  0  0  0  0  0
  153.1034  141.7718  161.4583 C   0  0  0  0  0  0  0  0  0  0  0  0
  152.9501  142.8258  162.3771 C   0  0  0  0  0  0  0  0  0  0  0  0
  152.3486  144.0295  161.9660 C   0  0  0  0  0  0  0  0  0  0  0  0
  151.9001  144.1803  160.6391 C   0  0  0  0  0  0  0  0  0  0  0  0
  150.9843  135.5167  155.5067 H   0  0  0  0  0  0  0  0  0  0  0  0
  150.5737  137.4255  156.1766 H   0  0  0  0  0  0  0  0  0  0  0  0
  151.4971  136.9861  157.6038 H   0  0  0  0  0  0  0  0  0  0  0  0
  153.5588  137.8457  156.6506 H   0  0  0  0  0  0  0  0  0  0  0  0
  152.8918  137.8591  155.0439 H   0  0  0  0  0  0  0  0  0  0  0  0
  152.1357  139.7609  157.3083 H   0  0  0  0  0  0  0  0  0  0  0  0
  153.0453  140.1603  155.8837 H   0  0  0  0  0  0  0  0  0  0  0  0
  148.1187  138.1455  153.1973 H   0  0  0  0  0  0  0  0  0  0  0  0
  146.2930  139.7107  152.5719 H   0  0  0  0  0  0  0  0  0  0  0  0
  146.3158  142.0583  153.3919 H   0  0  0  0  0  0  0  0  0  0  0  0
  148.1731  142.8522  154.8499 H   0  0  0  0  0  0  0  0  0  0  0  0
  151.5542  142.7373  155.7565 H   0  0  0  0  0  0  0  0  0  0  0  0
  149.9434  142.9998  156.3339 H   0  0  0  0  0  0  0  0  0  0  0  0
  150.4564  141.4918  158.3190 H   0  0  0  0  0  0  0  0  0  0  0  0
  152.0963  141.2978  157.6978 H   0  0  0  0  0  0  0  0  0  0  0  0
  152.7780  141.1065  159.4371 H   0  0  0  0  0  0  0  0  0  0  0  0
  153.5637  140.8460  161.7702 H   0  0  0  0  0  0  0  0  0  0  0  0
  153.2928  142.7114  163.3950 H   0  0  0  0  0  0  0  0  0  0  0  0
  152.2305  144.8401  162.6698 H   0  0  0  0  0  0  0  0  0  0  0  0
  151.4442  145.1190  160.3641 H   0  0  0  0  0  0  0  0  0  0  0  0
  1  2  1  0  0  0  0
  1 23  1  0  0  0  0
  2  3  1  0  0  0  0
  2 24  1  0  0  0  0
  2 25  1  0  0  0  0
  3  4  1  0  0  0  0
  3 26  1  0  0  0  0
  3 27  1  0  0  0  0
  4  5  1  0  0  0  0
  4 28  1  0  0  0  0
  4 29  1  0  0  0  0
  5 13  1  0  0  0  0
  5  6  2  0  0  0  0
  6  7  1  0  0  0  0
  7 12  2  0  0  0  0
  7  8  1  0  0  0  0
  8  9  2  0  0  0  0
  8 30  1  0  0  0  0
  9 10  1  0  0  0  0
  9 31  1  0  0  0  0
 10 11  2  0  0  0  0
 10 32  1  0  0  0  0
 11 12  1  0  0  0  0
 11 33  1  0  0  0  0
 12 13  1  0  0  0  0
 13 14  1  0  0  0  0
 14 15  1  0  0  0  0
 14 34  1  0  0  0  0
 14 35  1  0  0  0  0
 15 16  1  0  0  0  0
 15 36  1  0  0  0  0
 15 37  1  0  0  0  0
 16 17  1  0  0  0  0
 17 22  1  0  0  0  0
 17 18  2  0  0  0  0
 18 19  1  0  0  0  0
 18 38  1  0  0  0  0
 19 20  2  0  0  0  0
 19 39  1  0  0  0  0
 20 21  1  0  0  0  0
 20 40  1  0  0  0  0
 21 22  2  0  0  0  0
 21 41  1  0  0  0  0
 22 42  1  0  0  0  0
M  END
> <s_m_source_file>
AV-unprocessed.smi

> <i_m_source_file_index>
1349

> <i_lp_mmshare_version>
43012

> <i_f3d_flags>
0

> <s_epik_input>
W09IXVtDSDJdW0NIMl1bQ0gyXWMobjEpbihjKGMxMilbY0hdW2NIXVtjSF1bY0hdMilbQ0gyXVtDSDJdT2MzW2NIXVtjSF1bY0hdW2NIXVtjSF0z

> <s_epik_cmdline>
J2VwaWtfcHl0aG9uJywgJy1waCcsICc3LjAnLCAnLXRuJywgJzgnLCAnLW1hJywgJzIwMCcsICctbWV0YWxfYmluZGluZycsICctaW1hZScsICc8aW5maWxlLm1hZT4nLCAnLW9tYWUnLCAnPG91dGZpbGUubWFlPic=

> <r_lp_tautomer_probability>
1

> <r_epik_Ionization_Penalty>
0.159315

> <r_epik_Ionization_Penalty_Charging>
0

> <r_epik_Ionization_Penalty_Neutral>
0.159315

> <r_epik_State_Penalty>
0.148622

> <r_epik_Charging_Adjusted_Penalty>
0.148622

> <i_epik_Tot_Q>
0

> <i_epik_Tot_abs_Q>
0

> <r_epik_Metal_State_Penalty>
0.0001689

> <b_epik_Metal_Only>
0

> <s_lp_Force_Field>
OPLS_2005

> <r_lp_Energy>
15.4549

> <b_lp_Chiralities_Consistent>
1

> <s_lp_Variant>
AV-unprocessed.smi:1349-1

> <Gold.Version>
5.8.1

> <Gold.Id.Protein>
6NUR|6NUR_protein|mol2

> <Gold.PLP.Fitness>
53.9158

> <Gold.PLP.PLP>
-52.1272

> <Gold.PLP.part.hbond>
-1.0000

> <Gold.PLP.part.metal>
0.0000

> <Gold.PLP.part.buried>
-2.1069

> <Gold.PLP.part.nonpolar>
-47.5189

> <Gold.PLP.part.repulsive>
0.1665

> <Gold.PLP.ligand.clash>
0.0000

> <Gold.PLP.ligand.torsion>
0.7078

> <Gold.PLP.Chemscore.Hbond>
1.0000

> <Gold.PLP.Chemscore.CHOScore>
0.0000

> <Gold.PLP.Chemscore.Metal>
0.0000

> <Gold.Chemscore.Hbonds>
donor molecule, donor type, donor heavy atom, donor atom, acceptor molecule, acceptor atom, score
      P1  H 10752 10765       L1     1  1.00

> <Gold.PLP.Chemscore.Internal.Correction>
0.2042

> <Gold.Rescore>
     Score         DG    S(hbond)    S(metal)    S(lipo)     H(rot)  DE(clash)    DE(int)     intcor
     16.32     -19.34       0.95        0.00     144.27       2.42       0.24       2.79       ----

> <Gold.Chemscore.Fitness>
16.3188

> <Gold.Chemscore.DG>
-19.3437

> <Gold.Chemscore.ZeroCoef>
-5.4800

> <Gold.Chemscore.Hbond>
0.9519

> <Gold.Chemscore.Metal>
0.0000

> <Gold.Chemscore.Lipo>
144.2724

> <Gold.Chemscore.Internal_Hbond>
0.0000

> <Gold.Chemscore.DEClash>
0.2353

> <Gold.Chemscore.DEInternal>
2.7895

> <Gold.Chemscore.Rot>
2.4201

> <Gold.Chemscore.Internal.Correction>
   9.000000E+99

> <Gold.Chemscore.Hbonds>
donor molecule, donor type, donor heavy atom, donor atom, acceptor molecule, acceptor atom, score
      P1  H 10752 10765       L1     1  0.81

> <Gold.Chemscore.Hbond.Weighted>
-3.1792

> <Gold.Chemscore.Metal.Weighted>
-0.0000

> <Gold.Chemscore.Lipo.Weighted>
-16.8799

> <Gold.Chemscore.Internal_Hbond.Weighted>
0.0000

> <Gold.Chemscore.DEClash.Weighted>
0.2353

> <Gold.Chemscore.DEInternal.Weighted>
2.7895

> <Gold.Chemscore.Rot.Weighted>
6.1954

> <Gold.Chemscore.Internal.Correction.Weighted>
   9.000000E+99

> <Gold.Protein.RotatedTorsions>
[ 6907 6896 6895 6894 ] final  -51.09 input  -60.11 | X-H torsion
[ 7974 7965 7964 7962 ] final -128.88 input  175.53 | X-H torsion
[ 8008 7997 7996 7995 ] final   48.40 input   59.86 | X-H torsion
[ 10167 10162 10161 10158 ] final  -59.54 input  -65.29 | X-H torsion
[ 10718 10713 10712 10709 ] final  -19.64 input   66.30 | X-H torsion
[ 10763 10752 10751 10750 ] final -147.87 input  -60.55 | X-H torsion
[ 11005 11000 10999 10996 ] final  120.78 input  -57.11 | X-H torsion

> <Gold.Protein.ActiveResidues>
 VAL166  LYS551  ARG553  GLY616  TRP617  ASP618  TYR619  PRO620  LYS621  CYS622 
 ASP623  PHE694  ASN695  SER759  ASP760  ASP761  ALA762  ILE779  LEU786  VAL792 
 PHE793  MET794  SER795  GLU796  ALA797  LYS798  CYS799  TRP800  GLU811  SER814 

> <Gold.Protein.RotatedAtoms>
  150.8644  134.8004  159.7107 H   0  0  0  0  0  0  0  0  0  0  0  0  # atno 6907 bound_to 6896
  152.4671  134.5047  159.9745 H   0  0  0  0  0  0  0  0  0  0  0  0  # atno 6908 bound_to 6896
  151.5145  133.3440  159.2926 H   0  0  0  0  0  0  0  0  0  0  0  0  # atno 6909 bound_to 6896
  144.9626  140.7463  143.4719 H   0  0  0  0  0  0  0  0  0  0  0  0  # atno 7974 bound_to 7965
  155.3851  140.3430  155.4248 H   0  0  0  0  0  0  0  0  0  0  0  0  # atno 8008 bound_to 7997
  156.1589  140.1594  156.8679 H   0  0  0  0  0  0  0  0  0  0  0  0  # atno 8009 bound_to 7997
  154.5121  140.0787  156.7991 H   0  0  0  0  0  0  0  0  0  0  0  0  # atno 8010 bound_to 7997
  140.6128  143.2393  151.5668 H   0  0  0  0  0  0  0  0  0  0  0  0  # atno 10167 bound_to 10162
  156.5429  130.4682  149.6490 H   0  0  0  0  0  0  0  0  0  0  0  0  # atno 10718 bound_to 10713
  154.8263  135.3349  154.6885 H   0  0  0  0  0  0  0  0  0  0  0  0  # atno 10763 bound_to 10752
  153.7510  135.6939  153.4950 H   0  0  0  0  0  0  0  0  0  0  0  0  # atno 10764 bound_to 10752
  153.2176  135.4460  155.0403 H   0  0  0  0  0  0  0  0  0  0  0  0  # atno 10765 bound_to 10752
  139.9199  134.9636  156.7859 H   0  0  0  0  0  0  0  0  0  0  0  0  # atno 11005 bound_to 11000
  145.2677  139.1967  143.4858 LP  0  0  0  0  0  0  0  0  0  0  0  0  # atno 17320 bound_to 7965
  146.3358  140.2618  142.8602 LP  0  0  0  0  0  0  0  0  0  0  0  0  # atno 17321 bound_to 7965
  139.5375  144.2740  152.1282 LP  0  0  0  0  0  0  0  0  0  0  0  0  # atno 17342 bound_to 10162
  140.1943  144.4721  150.6463 LP  0  0  0  0  0  0  0  0  0  0  0  0  # atno 17343 bound_to 10162
  156.2955  130.7148  151.2007 LP  0  0  0  0  0  0  0  0  0  0  0  0  # atno 17370 bound_to 10713
  157.7402  131.0520  150.5182 LP  0  0  0  0  0  0  0  0  0  0  0  0  # atno 17371 bound_to 10713
  140.6507  133.9734  155.7753 LP  0  0  0  0  0  0  0  0  0  0  0  0  # atno 17394 bound_to 11000
  141.0710  134.0205  157.3526 LP  0  0  0  0  0  0  0  0  0  0  0  0  # atno 17395 bound_to 11000

$$$$
