AV-unprocessed.smi:87|AV-procd|sdf|821|dock6
  -GOLD-   2262017223D 1   1.00000     0.00000
 Structure written by MMmdl.
 58 60  0  0  0  0  0  0  0  0  1 V2000
  144.2635  134.1256  163.0525 C   0  0  0  0  0  0  0  0  0  0  0  0
  144.9655  134.5535  161.7552 C   0  0  0  0  0  0  0  0  0  0  0  0
  146.2896  133.8058  161.4693 C   0  0  0  0  0  0  0  0  0  0  0  0
  147.4514  134.3673  162.3202 C   0  0  0  0  0  0  0  0  0  0  0  0
  147.5290  135.9009  162.3407 C   0  0  0  0  0  0  0  0  0  0  0  0
  146.6357  133.8709  159.9597 C   0  0  0  0  0  0  0  0  0  0  0  0
  147.8198  133.0923  159.5863 N   0  0  0  0  0  0  0  0  0  0  0  0
  147.9013  131.7301  160.1089 C   0  0  0  0  0  0  0  0  0  0  0  0
  148.5209  131.6681  161.5129 C   0  0  0  0  0  0  0  0  0  0  0  0
  149.0239  130.3272  161.8432 C   0  0  0  0  0  0  0  0  0  0  0  0
  149.4203  129.2720  162.1037 N   0  0  0  0  0  0  0  0  0  0  0  0
  148.2973  133.2101  158.3201 C   0  0  0  0  0  0  0  0  0  0  0  0
  149.5433  133.7122  158.1055 N   0  0  0  0  0  0  0  0  0  0  0  0
  150.0025  133.8681  156.8604 C   0  0  0  0  0  0  0  0  0  0  0  0
  149.3893  133.6020  155.7056 N   0  0  0  0  0  0  0  0  0  0  0  0
  148.1403  133.0965  155.9151 C   0  0  0  0  0  0  0  0  0  0  0  0
  147.5256  132.8626  157.1769 C   0  0  0  0  0  0  0  0  0  0  0  0
  146.2559  132.3276  156.9937 N   0  0  0  0  0  0  0  0  0  0  0  0
  146.1171  132.2737  155.6974 C   0  0  0  0  0  0  0  0  0  0  0  0
  147.1945  132.7324  154.9738 N   0  0  0  0  0  0  0  0  0  0  0  0
  147.2971  132.8207  153.5291 C   0  0  0  0  0  0  0  0  0  0  0  0
  146.1733  133.6683  152.8915 C   0  0  1  0  0  0  0  0  0  0  0  0
  146.5949  135.0168  152.9353 O   0  0  0  0  0  0  0  0  0  0  0  0
  145.8233  133.2928  151.4320 C   0  0  2  0  0  0  0  0  0  0  0  0
  144.6684  134.1015  150.8334 C   0  0  0  0  0  0  0  0  0  0  0  0
  144.1610  133.1746  149.7534 C   0  0  0  0  0  0  0  0  0  0  0  0
  144.2843  131.8180  150.4356 C   0  0  0  0  0  0  0  0  0  0  0  0
  145.3796  131.9382  151.3374 O   0  0  0  0  0  0  0  0  0  0  0  0
  143.2944  134.6164  163.1428 H   0  0  0  0  0  0  0  0  0  0  0  0
  144.8410  134.3882  163.9379 H   0  0  0  0  0  0  0  0  0  0  0  0
  144.0897  133.0493  163.0695 H   0  0  0  0  0  0  0  0  0  0  0  0
  144.2634  134.3780  160.9398 H   0  0  0  0  0  0  0  0  0  0  0  0
  145.1417  135.6295  161.7687 H   0  0  0  0  0  0  0  0  0  0  0  0
  146.1494  132.7639  161.7579 H   0  0  0  0  0  0  0  0  0  0  0  0
  147.3810  133.9900  163.3410 H   0  0  0  0  0  0  0  0  0  0  0  0
  148.4026  134.0049  161.9334 H   0  0  0  0  0  0  0  0  0  0  0  0
  148.4201  136.2322  162.8739 H   0  0  0  0  0  0  0  0  0  0  0  0
  146.6699  136.3479  162.8397 H   0  0  0  0  0  0  0  0  0  0  0  0
  147.5798  136.3058  161.3297 H   0  0  0  0  0  0  0  0  0  0  0  0
  145.7816  133.5119  159.3842 H   0  0  0  0  0  0  0  0  0  0  0  0
  146.7921  134.9008  159.6411 H   0  0  0  0  0  0  0  0  0  0  0  0
  146.9147  131.2681  160.1238 H   0  0  0  0  0  0  0  0  0  0  0  0
  148.4975  131.1289  159.4221 H   0  0  0  0  0  0  0  0  0  0  0  0
  149.3519  132.3678  161.6003 H   0  0  0  0  0  0  0  0  0  0  0  0
  147.7873  131.9367  162.2731 H   0  0  0  0  0  0  0  0  0  0  0  0
  151.0010  134.2712  156.7779 H   0  0  0  0  0  0  0  0  0  0  0  0
  145.2121  131.9121  155.2315 H   0  0  0  0  0  0  0  0  0  0  0  0
  148.2738  133.2395  153.2835 H   0  0  0  0  0  0  0  0  0  0  0  0
  147.2803  131.8082  153.1231 H   0  0  0  0  0  0  0  0  0  0  0  0
  145.2724  133.5904  153.5013 H   0  0  0  0  0  0  0  0  0  0  0  0
  147.4070  135.0925  152.4582 H   0  0  0  0  0  0  0  0  0  0  0  0
  146.7014  133.4024  150.7934 H   0  0  0  0  0  0  0  0  0  0  0  0
  143.8876  134.2667  151.5774 H   0  0  0  0  0  0  0  0  0  0  0  0
  144.9828  135.0717  150.4477 H   0  0  0  0  0  0  0  0  0  0  0  0
  143.1438  133.4010  149.4331 H   0  0  0  0  0  0  0  0  0  0  0  0
  144.8152  133.2203  148.8817 H   0  0  0  0  0  0  0  0  0  0  0  0
  143.3860  131.5968  151.0128 H   0  0  0  0  0  0  0  0  0  0  0  0
  144.4396  131.0057  149.7252 H   0  0  0  0  0  0  0  0  0  0  0  0
  1  2  1  0  0  0  0
  1 29  1  0  0  0  0
  1 30  1  0  0  0  0
  1 31  1  0  0  0  0
  2  3  1  0  0  0  0
  2 32  1  0  0  0  0
  2 33  1  0  0  0  0
  3  4  1  0  0  0  0
  3  6  1  0  0  0  0
  3 34  1  0  0  0  0
  4  5  1  0  0  0  0
  4 35  1  0  0  0  0
  4 36  1  0  0  0  0
  5 37  1  0  0  0  0
  5 38  1  0  0  0  0
  5 39  1  0  0  0  0
  6  7  1  0  0  0  0
  6 40  1  0  0  0  0
  6 41  1  0  0  0  0
  7  8  1  0  0  0  0
  7 12  1  0  0  0  0
  8  9  1  0  0  0  0
  8 42  1  0  0  0  0
  8 43  1  0  0  0  0
  9 10  1  0  0  0  0
  9 44  1  0  0  0  0
  9 45  1  0  0  0  0
 10 11  3  0  0  0  0
 12 17  1  0  0  0  0
 12 13  2  0  0  0  0
 13 14  1  0  0  0  0
 14 15  2  0  0  0  0
 14 46  1  0  0  0  0
 15 16  1  0  0  0  0
 16 20  1  0  0  0  0
 16 17  2  0  0  0  0
 17 18  1  0  0  0  0
 18 19  2  0  0  0  0
 19 20  1  0  0  0  0
 19 47  1  0  0  0  0
 20 21  1  0  0  0  0
 21 22  1  0  0  0  0
 21 48  1  0  0  0  0
 21 49  1  0  0  0  0
 22 23  1  0  0  0  0
 22 24  1  0  0  0  0
 22 50  1  0  0  0  0
 23 51  1  0  0  0  0
 24 28  1  0  0  0  0
 24 25  1  0  0  0  0
 24 52  1  0  0  0  0
 25 26  1  0  0  0  0
 25 53  1  0  0  0  0
 25 54  1  0  0  0  0
 26 27  1  0  0  0  0
 26 55  1  0  0  0  0
 26 56  1  0  0  0  0
 27 28  1  0  0  0  0
 27 57  1  0  0  0  0
 27 58  1  0  0  0  0
M  END
> <s_m_source_file>
AV-unprocessed.smi

> <i_m_source_file_index>
87

> <i_lp_mmshare_version>
43012

> <i_f3d_flags>
0

> <s_epik_input>
W0NIM11bQ0gyXVtDSF0oW0NIMl1bQ0gzXSlbQ0gyXU4oW0NIMl1bQ0gyXUMjTiljKG5bY0hdbjEpYyhjMTIpbltjSF1uMltDSDJdW0NASF0oW09IXSlbQ0BASF0zW0NIMl1bQ0gyXVtDSDJdTzM=

> <s_epik_cmdline>
J2VwaWtfcHl0aG9uJywgJy1waCcsICc3LjAnLCAnLXRuJywgJzgnLCAnLW1hJywgJzIwMCcsICctbWV0YWxfYmluZGluZycsICctaW1hZScsICc8aW5maWxlLm1hZT4nLCAnLW9tYWUnLCAnPG91dGZpbGUubWFlPic=

> <r_lp_tautomer_probability>
1

> <r_epik_Ionization_Penalty>
0.000348566

> <r_epik_Ionization_Penalty_Charging>
0

> <r_epik_Ionization_Penalty_Neutral>
0.000348566

> <r_epik_State_Penalty>
-0

> <r_epik_Charging_Adjusted_Penalty>
0

> <i_epik_Tot_Q>
0

> <i_epik_Tot_abs_Q>
0

> <r_epik_Metal_State_Penalty>
-0

> <b_epik_Metal_Only>
0

> <s_lp_Force_Field>
OPLS_2005

> <r_lp_Energy>
32.9267

> <b_lp_Chiralities_Consistent>
1

> <s_lp_Variant>
AV-unprocessed.smi:87-2

> <Gold.Version>
5.8.1

> <Gold.Id.Protein>
6NUR|6NUR_protein|mol2

> <Gold.PLP.Fitness>
46.1622

> <Gold.PLP.PLP>
-39.3733

> <Gold.PLP.part.hbond>
-2.0000

> <Gold.PLP.part.metal>
0.0000

> <Gold.PLP.part.buried>
-7.0765

> <Gold.PLP.part.nonpolar>
-31.2603

> <Gold.PLP.part.repulsive>
0.1865

> <Gold.PLP.ligand.clash>
0.0000

> <Gold.PLP.ligand.torsion>
1.5532

> <Gold.PLP.Chemscore.Hbond>
1.9920

> <Gold.PLP.Chemscore.CHOScore>
1.0000

> <Gold.PLP.Chemscore.Metal>
0.0000

> <Gold.Chemscore.Hbonds>
donor molecule, donor type, donor heavy atom, donor atom, acceptor molecule, acceptor atom, score
      L1  H    23    51       P1  7948  1.00
      P1  H  6896  6908       L1    13  1.00
      L1  C    19    47       P1 10957  0.95

> <Gold.PLP.Chemscore.Internal.Correction>
0.9192

> <Gold.Rescore>
     Score         DG    S(hbond)    S(metal)    S(lipo)     H(rot)  DE(clash)    DE(int)     intcor
     11.69     -13.08       1.86        0.00      91.33       3.64       0.00       1.39       ----

> <Gold.Chemscore.Fitness>
11.6903

> <Gold.Chemscore.DG>
-13.0839

> <Gold.Chemscore.ZeroCoef>
-5.4800

> <Gold.Chemscore.Hbond>
1.8648

> <Gold.Chemscore.Metal>
0.0000

> <Gold.Chemscore.Lipo>
91.3315

> <Gold.Chemscore.Internal_Hbond>
0.0000

> <Gold.Chemscore.DEClash>
0.0034

> <Gold.Chemscore.DEInternal>
1.3901

> <Gold.Chemscore.Rot>
3.6368

> <Gold.Chemscore.Internal.Correction>
   9.000000E+99

> <Gold.Chemscore.Hbonds>
donor molecule, donor type, donor heavy atom, donor atom, acceptor molecule, acceptor atom, score
      L1  H    23    51       P1  7948  0.91
      P1  H  6896  6908       L1    13  0.82

> <Gold.Chemscore.Hbond.Weighted>
-6.2283

> <Gold.Chemscore.Metal.Weighted>
-0.0000

> <Gold.Chemscore.Lipo.Weighted>
-10.6858

> <Gold.Chemscore.Internal_Hbond.Weighted>
0.0000

> <Gold.Chemscore.DEClash.Weighted>
0.0034

> <Gold.Chemscore.DEInternal.Weighted>
1.3901

> <Gold.Chemscore.Rot.Weighted>
9.3102

> <Gold.Chemscore.Internal.Correction.Weighted>
   9.000000E+99

> <Gold.Protein.RotatedTorsions>
[ 6907 6896 6895 6894 ] final  117.90 input  -60.11 | X-H torsion
[ 7974 7965 7964 7962 ] final  -36.15 input  175.53 | X-H torsion
[ 8008 7997 7996 7995 ] final   78.72 input   59.86 | X-H torsion
[ 10167 10162 10161 10158 ] final  135.33 input  -65.29 | X-H torsion
[ 10718 10713 10712 10709 ] final  -50.43 input   66.30 | X-H torsion
[ 10763 10752 10751 10750 ] final   95.52 input  -60.55 | X-H torsion
[ 11005 11000 10999 10996 ] final   93.34 input  -57.11 | X-H torsion

> <Gold.Protein.ActiveResidues>
 VAL166  LYS551  ARG553  GLY616  TRP617  ASP618  TYR619  PRO620  LYS621  CYS622 
 ASP623  PHE694  ASN695  SER759  ASP760  ASP761  ALA762  ILE779  LEU786  VAL792 
 PHE793  MET794  SER795  GLU796  ALA797  LYS798  CYS799  TRP800  GLU811  SER814 

> <Gold.Protein.RotatedAtoms>
  152.4580  133.7763  159.6826 H   0  0  0  0  0  0  0  0  0  0  0  0  # atno 6907 bound_to 6896
  150.8513  133.7772  159.3030 H   0  0  0  0  0  0  0  0  0  0  0  0  # atno 6908 bound_to 6896
  151.5367  135.1071  159.9968 H   0  0  0  0  0  0  0  0  0  0  0  0  # atno 6909 bound_to 6896
  146.0686  140.6244  142.8963 H   0  0  0  0  0  0  0  0  0  0  0  0  # atno 7974 bound_to 7965
  155.8596  140.3454  155.5747 H   0  0  0  0  0  0  0  0  0  0  0  0  # atno 8008 bound_to 7997
  155.7948  140.0877  157.2009 H   0  0  0  0  0  0  0  0  0  0  0  0  # atno 8009 bound_to 7997
  154.4011  140.1476  156.3192 H   0  0  0  0  0  0  0  0  0  0  0  0  # atno 8010 bound_to 7997
  139.5221  144.6522  151.5267 H   0  0  0  0  0  0  0  0  0  0  0  0  # atno 10167 bound_to 10162
  156.1801  130.4150  149.9519 H   0  0  0  0  0  0  0  0  0  0  0  0  # atno 10718 bound_to 10713
  153.2541  135.4251  155.0828 H   0  0  0  0  0  0  0  0  0  0  0  0  # atno 10763 bound_to 10752
  154.8394  135.3433  154.6470 H   0  0  0  0  0  0  0  0  0  0  0  0  # atno 10764 bound_to 10752
  153.6891  135.7034  153.5152 H   0  0  0  0  0  0  0  0  0  0  0  0  # atno 10765 bound_to 10752
  139.8811  134.8784  156.3703 H   0  0  0  0  0  0  0  0  0  0  0  0  # atno 11005 bound_to 11000
  144.7217  140.4396  143.7003 LP  0  0  0  0  0  0  0  0  0  0  0  0  # atno 17320 bound_to 7965
  145.6433  139.1553  143.2903 LP  0  0  0  0  0  0  0  0  0  0  0  0  # atno 17321 bound_to 7965
  140.6332  143.9034  150.6624 LP  0  0  0  0  0  0  0  0  0  0  0  0  # atno 17342 bound_to 10162
  140.2345  143.3710  152.1538 LP  0  0  0  0  0  0  0  0  0  0  0  0  # atno 17343 bound_to 10162
  156.7292  130.9036  151.3624 LP  0  0  0  0  0  0  0  0  0  0  0  0  # atno 17370 bound_to 10713
  157.6863  130.9188  150.0394 LP  0  0  0  0  0  0  0  0  0  0  0  0  # atno 17371 bound_to 10713
  140.9468  133.7477  156.0219 LP  0  0  0  0  0  0  0  0  0  0  0  0  # atno 17394 bound_to 11000
  140.8153  134.3352  157.5399 LP  0  0  0  0  0  0  0  0  0  0  0  0  # atno 17395 bound_to 11000

$$$$
