AV-unprocessed.smi:1207|AV-procd|sdf|5052|dock7
  -GOLD-   22720 4 83D 1   1.00000     0.00000
 Structure written by MMmdl.
 52 54  0  0  0  0  0  0  0  0  2 V2000
  152.8364  143.1459  160.8386 C   0  0  0  0  0  0  0  0  0  0  0  0
  152.3079  142.6540  159.5027 C   0  0  0  0  0  0  0  0  0  0  0  0
  152.6997  141.3787  159.0361 C   0  0  0  0  0  0  0  0  0  0  0  0
  152.2310  140.8849  157.7991 C   0  0  0  0  0  0  0  0  0  0  0  0
  152.4816  139.6846  157.1565 N   0  0  0  0  0  0  0  0  0  0  0  0
  151.7604  139.8180  156.0472 C   0  0  0  0  0  0  0  0  0  0  0  0
  151.0739  140.9667  155.8926 N   0  0  0  0  0  0  0  0  0  0  0  0
  150.2254  141.3409  154.7752 C   0  0  0  0  0  0  0  0  0  0  0  0
  148.8524  140.6455  154.8284 C   0  0  1  0  0  0  0  0  0  0  0  0
  148.1606  140.8758  153.6156 O   0  0  0  0  0  0  0  0  0  0  0  0
  148.9729  139.1255  155.0516 C   0  0  0  0  0  0  0  0  0  0  0  0
  148.9323  138.7820  156.4956 N   0  3  1  0  0  0  0  0  0  0  0  0
  147.9438  139.5943  157.2418 C   0  0  0  0  0  0  0  0  0  0  0  0
  148.7820  137.3254  156.7467 C   0  0  0  0  0  0  0  0  0  0  0  0
  148.7339  137.0384  158.2236 C   0  0  0  0  0  0  0  0  0  0  0  0
  147.6484  136.4840  158.9610 C   0  0  0  0  0  0  0  0  0  0  0  0
  146.3019  136.0498  158.4549 C   0  0  0  0  0  0  0  0  0  0  0  0
  147.9366  136.3591  160.2449 N   0  0  0  0  0  0  0  0  0  0  0  0
  149.2395  136.8434  160.3940 O   0  0  0  0  0  0  0  0  0  0  0  0
  149.6921  137.2441  159.1789 C   0  0  0  0  0  0  0  0  0  0  0  0
  151.0770  137.7971  159.1386 C   0  0  0  0  0  0  0  0  0  0  0  0
  151.3514  141.7076  157.0365 C   0  0  0  0  0  0  0  0  0  0  0  0
  150.9522  142.9770  157.4913 C   0  0  0  0  0  0  0  0  0  0  0  0
  151.4327  143.4567  158.7275 C   0  0  0  0  0  0  0  0  0  0  0  0
  151.0004  144.8309  159.2073 C   0  0  0  0  0  0  0  0  0  0  0  0
  153.4667  142.3964  161.3181 H   0  0  0  0  0  0  0  0  0  0  0  0
  152.0129  143.3719  161.5166 H   0  0  0  0  0  0  0  0  0  0  0  0
  153.4330  144.0484  160.7038 H   0  0  0  0  0  0  0  0  0  0  0  0
  153.3667  140.7671  159.6262 H   0  0  0  0  0  0  0  0  0  0  0  0
  151.7330  139.0363  155.3022 H   0  0  0  0  0  0  0  0  0  0  0  0
  150.1073  142.4257  154.7682 H   0  0  0  0  0  0  0  0  0  0  0  0
  150.7466  141.0761  153.8543 H   0  0  0  0  0  0  0  0  0  0  0  0
  148.2688  141.0938  155.6315 H   0  0  0  0  0  0  0  0  0  0  0  0
  148.7423  140.6920  152.8934 H   0  0  0  0  0  0  0  0  0  0  0  0
  148.1614  138.6277  154.5178 H   0  0  0  0  0  0  0  0  0  0  0  0
  149.8986  138.7415  154.6197 H   0  0  0  0  0  0  0  0  0  0  0  0
  146.9291  139.3886  156.8981 H   0  0  0  0  0  0  0  0  0  0  0  0
  148.1402  140.6588  157.1099 H   0  0  0  0  0  0  0  0  0  0  0  0
  147.9919  139.3865  158.3104 H   0  0  0  0  0  0  0  0  0  0  0  0
  147.8955  136.9549  156.2303 H   0  0  0  0  0  0  0  0  0  0  0  0
  149.6144  136.7805  156.3015 H   0  0  0  0  0  0  0  0  0  0  0  0
  145.8150  136.8524  157.9001 H   0  0  0  0  0  0  0  0  0  0  0  0
  145.6361  135.7622  159.2696 H   0  0  0  0  0  0  0  0  0  0  0  0
  146.3950  135.1935  157.7869 H   0  0  0  0  0  0  0  0  0  0  0  0
  151.3476  138.1135  158.1315 H   0  0  0  0  0  0  0  0  0  0  0  0
  151.8003  137.0480  159.4613 H   0  0  0  0  0  0  0  0  0  0  0  0
  151.1673  138.6600  159.7984 H   0  0  0  0  0  0  0  0  0  0  0  0
  150.2832  143.5776  156.8931 H   0  0  0  0  0  0  0  0  0  0  0  0
  150.3630  145.3265  158.4744 H   0  0  0  0  0  0  0  0  0  0  0  0
  151.8687  145.4677  159.3786 H   0  0  0  0  0  0  0  0  0  0  0  0
  150.4399  144.7504  160.1390 H   0  0  0  0  0  0  0  0  0  0  0  0
  149.8390  139.0445  156.8560 H   0  0  0  0  0  0  0  0  0  0  0  0
  1  2  1  0  0  0  0
  1 26  1  0  0  0  0
  1 27  1  0  0  0  0
  1 28  1  0  0  0  0
  2 24  1  0  0  0  0
  2  3  2  0  0  0  0
  3  4  1  0  0  0  0
  3 29  1  0  0  0  0
  4 22  2  0  0  0  0
  4  5  1  0  0  0  0
  5  6  2  0  0  0  0
  6  7  1  0  0  0  0
  6 30  1  0  0  0  0
  7  8  1  0  0  0  0
  7 22  1  0  0  0  0
  8  9  1  0  0  0  0
  8 31  1  0  0  0  0
  8 32  1  0  0  0  0
  9 10  1  0  0  0  0
  9 11  1  0  0  0  0
  9 33  1  0  0  0  0
 10 34  1  0  0  0  0
 11 12  1  0  0  0  0
 11 35  1  0  0  0  0
 11 36  1  0  0  0  0
 12 13  1  0  0  0  0
 12 14  1  0  0  0  0
 12 52  1  0  0  0  0
 13 37  1  0  0  0  0
 13 38  1  0  0  0  0
 13 39  1  0  0  0  0
 14 15  1  0  0  0  0
 14 40  1  0  0  0  0
 14 41  1  0  0  0  0
 15 20  2  0  0  0  0
 15 16  1  0  0  0  0
 16 17  1  0  0  0  0
 16 18  2  0  0  0  0
 17 42  1  0  0  0  0
 17 43  1  0  0  0  0
 17 44  1  0  0  0  0
 18 19  1  0  0  0  0
 19 20  1  0  0  0  0
 20 21  1  0  0  0  0
 21 45  1  0  0  0  0
 21 46  1  0  0  0  0
 21 47  1  0  0  0  0
 22 23  1  0  0  0  0
 23 24  2  0  0  0  0
 23 48  1  0  0  0  0
 24 25  1  0  0  0  0
 25 49  1  0  0  0  0
 25 50  1  0  0  0  0
 25 51  1  0  0  0  0
M  CHG  1  12   1
M  END
> <s_m_source_file>
AV-unprocessed.smi

> <i_m_source_file_index>
1207

> <i_lp_mmshare_version>
43012

> <i_f3d_flags>
0

> <s_epik_input>
W0NIM11jKFtjSF0xKWMoW0NIM10pW2NIXWMoYzEyKW4oW2NIXW4yKVtDSDJdW0NASF0oW09IXSlbQ0gyXU4oW0NIM10pW0NIMl1jM2MoW0NIM10pbm9jM1tDSDNd

> <s_epik_cmdline>
J2VwaWtfcHl0aG9uJywgJy1waCcsICc3LjAnLCAnLXRuJywgJzgnLCAnLW1hJywgJzIwMCcsICctbWV0YWxfYmluZGluZycsICctaW1hZScsICc8aW5maWxlLm1hZT4nLCAnLW9tYWUnLCAnPG91dGZpbGUubWFlPic=

> <r_epik_Ionization_Penalty>
0.646518

> <r_epik_Ionization_Penalty_Charging>
0.559419

> <r_epik_Ionization_Penalty_Neutral>
0.0870981

> <r_epik_State_Penalty>
0.661677

> <r_epik_Charging_Adjusted_Penalty>
1.2211

> <i_epik_Tot_Q>
1

> <i_epik_Tot_abs_Q>
1

> <r_epik_Metal_State_Penalty>
0.649158

> <b_epik_Metal_Only>
0

> <s_lp_Force_Field>
OPLS_2005

> <r_lp_Energy>
8.27883

> <b_lp_Chiralities_Consistent>
1

> <s_lp_Variant>
AV-unprocessed.smi:1207-4

> <Gold.Version>
5.8.1

> <Gold.Id.Protein>
6NUR|6NUR_protein|mol2

> <Gold.PLP.Fitness>
44.5891

> <Gold.PLP.PLP>
-38.3277

> <Gold.PLP.part.hbond>
-3.0000

> <Gold.PLP.part.metal>
0.0000

> <Gold.PLP.part.buried>
-3.0297

> <Gold.PLP.part.nonpolar>
-31.4869

> <Gold.PLP.part.repulsive>
0.0031

> <Gold.PLP.ligand.clash>
0.0000

> <Gold.PLP.ligand.torsion>
0.8615

> <Gold.PLP.Chemscore.Hbond>
2.6060

> <Gold.PLP.Chemscore.CHOScore>
0.0000

> <Gold.PLP.Chemscore.Metal>
0.0000

> <Gold.Chemscore.Hbonds>
donor molecule, donor type, donor heavy atom, donor atom, acceptor molecule, acceptor atom, score
      L1  H    10    34       P1  7957  0.98
      P1  H  6931  6943       L1    19  0.60
      P1  H  7997  8010       L1     5  0.85

> <Gold.PLP.Chemscore.Internal.Correction>
0.1663

> <Gold.Rescore>
     Score         DG    S(hbond)    S(metal)    S(lipo)     H(rot)  DE(clash)    DE(int)     intcor
     14.84     -18.33       1.83        0.00     111.31       2.46       1.79       1.70       ----

> <Gold.Chemscore.Fitness>
14.8384

> <Gold.Chemscore.DG>
-18.3316

> <Gold.Chemscore.ZeroCoef>
-5.4800

> <Gold.Chemscore.Hbond>
1.8316

> <Gold.Chemscore.Metal>
0.0000

> <Gold.Chemscore.Lipo>
111.3052

> <Gold.Chemscore.Internal_Hbond>
0.0000

> <Gold.Chemscore.DEClash>
1.7944

> <Gold.Chemscore.DEInternal>
1.6988

> <Gold.Chemscore.Rot>
2.4565

> <Gold.Chemscore.Internal.Correction>
   9.000000E+99

> <Gold.Chemscore.Hbonds>
donor molecule, donor type, donor heavy atom, donor atom, acceptor molecule, acceptor atom, score
      L1  H    10    34       P1  7957  0.92
      P1  H  6931  6943       L1    19  0.25
      P1  H  7997  8010       L1     5  0.08

> <Gold.Chemscore.Hbond.Weighted>
-6.1176

> <Gold.Chemscore.Metal.Weighted>
-0.0000

> <Gold.Chemscore.Lipo.Weighted>
-13.0227

> <Gold.Chemscore.Internal_Hbond.Weighted>
0.0000

> <Gold.Chemscore.DEClash.Weighted>
1.7944

> <Gold.Chemscore.DEInternal.Weighted>
1.6988

> <Gold.Chemscore.Rot.Weighted>
6.2887

> <Gold.Chemscore.Internal.Correction.Weighted>
   9.000000E+99

> <Gold.Protein.RotatedTorsions>
[ 6907 6896 6895 6894 ] final   26.36 input  -60.11 | X-H torsion
[ 7974 7965 7964 7962 ] final   48.42 input  175.53 | X-H torsion
[ 8008 7997 7996 7995 ] final   60.34 input   59.86 | X-H torsion
[ 10167 10162 10161 10158 ] final   65.69 input  -65.29 | X-H torsion
[ 10718 10713 10712 10709 ] final -114.21 input   66.30 | X-H torsion
[ 10763 10752 10751 10750 ] final -150.57 input  -60.55 | X-H torsion
[ 11005 11000 10999 10996 ] final  -52.12 input  -57.11 | X-H torsion

> <Gold.Protein.ActiveResidues>
 VAL166  LYS551  ARG553  GLY616  TRP617  ASP618  TYR619  PRO620  LYS621  CYS622 
 ASP623  PHE694  ASN695  SER759  ASP760  ASP761  ALA762  ILE779  LEU786  VAL792 
 PHE793  MET794  SER795  GLU796  ALA797  LYS798  CYS799  TRP800  GLU811  SER814 

> <Gold.Protein.RotatedAtoms>
  151.9863  135.0002  160.0559 H   0  0  0  0  0  0  0  0  0  0  0  0  # atno 6907 bound_to 6896
  152.1649  133.4601  159.4888 H   0  0  0  0  0  0  0  0  0  0  0  0  # atno 6908 bound_to 6896
  150.6893  134.1942  159.4340 H   0  0  0  0  0  0  0  0  0  0  0  0  # atno 6909 bound_to 6896
  146.0205  139.4646  142.9900 H   0  0  0  0  0  0  0  0  0  0  0  0  # atno 7974 bound_to 7965
  155.5807  140.3491  155.4539 H   0  0  0  0  0  0  0  0  0  0  0  0  # atno 8008 bound_to 7997
  156.0375  140.1288  157.0216 H   0  0  0  0  0  0  0  0  0  0  0  0  # atno 8009 bound_to 7997
  154.4378  140.1031  156.6175 H   0  0  0  0  0  0  0  0  0  0  0  0  # atno 8010 bound_to 7997
  140.1085  144.4840  150.6993 H   0  0  0  0  0  0  0  0  0  0  0  0  # atno 10167 bound_to 10162
  156.0816  130.6015  150.8745 H   0  0  0  0  0  0  0  0  0  0  0  0  # atno 10718 bound_to 10713
  154.8111  135.3281  154.7303 H   0  0  0  0  0  0  0  0  0  0  0  0  # atno 10763 bound_to 10752
  153.7952  135.6908  153.4869 H   0  0  0  0  0  0  0  0  0  0  0  0  # atno 10764 bound_to 10752
  153.1890  135.4558  155.0072 H   0  0  0  0  0  0  0  0  0  0  0  0  # atno 10765 bound_to 10752
  141.0907  133.6633  156.3977 H   0  0  0  0  0  0  0  0  0  0  0  0  # atno 11005 bound_to 11000
  145.7200  141.0078  143.1408 LP  0  0  0  0  0  0  0  0  0  0  0  0  # atno 17320 bound_to 7965
  144.6988  139.8859  143.7450 LP  0  0  0  0  0  0  0  0  0  0  0  0  # atno 17321 bound_to 7965
  140.6939  143.2392  151.5056 LP  0  0  0  0  0  0  0  0  0  0  0  0  # atno 17342 bound_to 10162
  139.5632  144.2105  152.1724 LP  0  0  0  0  0  0  0  0  0  0  0  0  # atno 17343 bound_to 10162
  157.5934  131.0944  150.9081 LP  0  0  0  0  0  0  0  0  0  0  0  0  # atno 17370 bound_to 10713
  156.9252  130.5329  149.5279 LP  0  0  0  0  0  0  0  0  0  0  0  0  # atno 17371 bound_to 10713
  140.5258  134.6261  157.5333 LP  0  0  0  0  0  0  0  0  0  0  0  0  # atno 17394 bound_to 11000
  139.9733  134.7257  155.9999 LP  0  0  0  0  0  0  0  0  0  0  0  0  # atno 17395 bound_to 11000

$$$$
