#       Name:                AV-unprocessed.smi:1990
#       Creating user name   scv26
#       Creation time:       Fri Mar 27 10:27:03 2020


#       File generated by GOLD software.
#

@<TRIPOS>MOLECULE
AV-unprocessed.smi:1990
    52    53     1
SMALL
NO_CHARGES


@<TRIPOS>ATOM
      1 ****        -5.7687  -0.2434   2.1527 C.3            1 S1                 0.0000
      2 ****        -4.8954   0.3429   1.0386 C.3            1 S1                 0.0000
      3 ****        -3.4165  -0.0609   1.1890 C.3            1 S1                 0.0000
      4 ****        -2.6351   0.4079   0.0478 N.3            1 S1                 0.0000
      5 ****        -1.2240   0.4045   0.1399 C.ar           1 S1                 0.0000
      6 ****        -0.5394  -0.1288   1.2616 C.ar           1 S1                 0.0000
      7 ****         0.8682  -0.0945   1.2935 C.ar           1 S1                 0.0000
      8 ****         1.5667   0.4681   0.2004 C.ar           1 S1                 0.0000
      9 ****         2.9808   0.5797   0.1112 N.am           1 S1                 0.0000
     10 ****         3.9309  -0.0725   0.8071 C.2            1 S1                 0.0000
     11 ****         3.7070  -0.9132   1.6775 O.2            1 S1                 0.0000
     12 ****         5.3792   0.2814   0.4417 C.3            1 S1                 0.0000
     13 ****         6.2493   0.4879   1.6922 C.3            1 S1                 0.0000
     14 ****         6.1109  -1.0484  -0.6239 S.o2           1 S1                 0.0000
     15 ****         5.0212  -1.0417  -2.1097 C.3            1 S1                 0.0000
     16 ****         7.4530  -0.6112  -1.0375 O.2            1 S1                 0.0000
     17 ****         5.9527  -2.3454   0.0518 O.2            1 S1                 0.0000
     18 ****         0.8009   0.9854  -0.8621 C.ar           1 S1                 0.0000
     19 ****        -0.5467   0.9536  -0.8970 N.ar           1 S1                 0.0000
     20 ****        -3.2102   0.0510  -1.2491 C.3            1 S1                 0.0000
     21 ****        -4.6970   0.4471  -1.3154 C.3            1 S1                 0.0000
     22 ****        -5.3625  -0.0385  -2.6074 C.3            1 S1                 0.0000
     23 ****        -5.3871  -0.1304  -0.2114 O.3            1 S1                 0.0000
     24 ****        -5.4354   0.0974   3.1332 H              1 S1                 0.0000
     25 ****        -5.7362  -1.3332   2.1475 H              1 S1                 0.0000
     26 ****        -6.8090   0.0598   2.0316 H              1 S1                 0.0000
     27 ****        -4.9826   1.4305   1.0688 H              1 S1                 0.0000
     28 ****        -3.0314   0.3699   2.1136 H              1 S1                 0.0000
     29 ****        -3.3240  -1.1452   1.2647 H              1 S1                 0.0000
     30 ****        -1.0600  -0.5696   2.0980 H              1 S1                 0.0000
     31 ****         1.3746  -0.4902   2.1595 H              1 S1                 0.0000
     32 ****         3.3151   1.1983  -0.6136 H              1 S1                 0.0000
     33 ****         5.3900   1.2018  -0.1433 H              1 S1                 0.0000
     34 ****         5.8243   1.2468   2.3500 H              1 S1                 0.0000
     35 ****         7.2514   0.8172   1.4172 H              1 S1                 0.0000
     36 ****         6.3532  -0.4342   2.2657 H              1 S1                 0.0000
     37 ****         5.4199  -1.7356  -2.8496 H              1 S1                 0.0000
     38 ****         4.9886  -0.0398  -2.5369 H              1 S1                 0.0000
     39 ****         4.0149  -1.3568  -1.8350 H              1 S1                 0.0000
     40 ****         1.2833   1.4377  -1.7164 H              1 S1                 0.0000
     41 ****        -2.6853   0.5391  -2.0703 H              1 S1                 0.0000
     42 ****        -3.0991  -1.0242  -1.3944 H              1 S1                 0.0000
     43 ****        -4.7892   1.5336  -1.2672 H              1 S1                 0.0000
     44 ****        -4.8751   0.3893  -3.4839 H              1 S1                 0.0000
     45 ****        -6.4132   0.2509  -2.6375 H              1 S1                 0.0000
     46 ****        -5.3134  -1.1244  -2.6930 H              1 S1                 0.0000
     47 ****        -2.7567   1.3980   0.1175 LP             1 S1                 0.0000
     48 ****         2.7645  -1.1534   1.9100 LP             1 S1                 0.0000
     49 ****         4.4675  -1.3561   2.1522 LP             1 S1                 0.0000
     50 ****        -1.0409   1.3313  -1.6800 LP             1 S1                 0.0000
     51 ****        -6.3578   0.0987  -0.2831 LP             1 S1                 0.0000
     52 ****        -5.2756  -1.1236  -0.2460 LP             1 S1                 0.0000
@<TRIPOS>BOND
    1    1    2 1     
    2    1   24 1     
    3    1   25 1     
    4    1   26 1     
    5    2   23 1     
    6    2    3 1     
    7    2   27 1     
    8    3    4 1     
    9    3   28 1     
   10    3   29 1     
   11    4    5 1     
   12    4   20 1     
   13    5   19 ar    
   14    5    6 ar    
   15    6    7 ar    
   16    6   30 1     
   17    7    8 ar    
   18    7   31 1     
   19    8    9 1     
   20    8   18 ar    
   21    9   10 am    
   22    9   32 1     
   23   10   11 2     
   24   10   12 1     
   25   12   13 1     
   26   12   14 1     
   27   12   33 1     
   28   13   34 1     
   29   13   35 1     
   30   13   36 1     
   31   14   15 1     
   32   14   16 2     
   33   14   17 2     
   34   15   37 1     
   35   15   38 1     
   36   15   39 1     
   37   18   19 ar    
   38   18   40 1     
   39   20   21 1     
   40   20   41 1     
   41   20   42 1     
   42   21   22 1     
   43   21   23 1     
   44   21   43 1     
   45   22   44 1     
   46   22   45 1     
   47   22   46 1     
   48    4   47 1     
   49   11   48 1     
   50   11   49 1     
   51   19   50 1     
   52   23   51 1     
   53   23   52 1     
@<TRIPOS>SUBSTRUCTURE
      1 S1             1
@<TRIPOS>SET
LONE_PAIRS      STATIC     ATOMS    <user>   **** ""
8 47 48 49 16 17 50 51 52
DONOR_HYDROGENS      STATIC     ATOMS    <user>   **** ""
1 32
ATOM$BLUE        STATIC     ATOMS    COLORGROUP SYSTEM
8 47 48 49 16 17 50 51 52
ATOM$RED        STATIC     ATOMS    COLORGROUP SYSTEM
1 32
