AV-unprocessed.smi:2710|AV-procd|sdf|10468|dock5
  -GOLD-   2272014503D 1   1.00000     0.00000
 Structure written by MMmdl.
 53 54  0  0  0  0  0  0  0  0  2 V2000
  147.2438  128.4483  151.7398 C   0  0  0  0  0  0  0  0  0  0  0  0
  146.1734  129.3997  151.1844 C   0  0  0  0  0  0  0  0  0  0  0  0
  146.4894  130.8361  151.4098 N   0  3  2  0  0  0  0  0  0  0  0  0
  146.4317  131.2018  152.8505 C   0  0  0  0  0  0  0  0  0  0  0  0
  146.9692  132.6217  153.0927 C   0  0  0  0  0  0  0  0  0  0  0  0
  146.2149  133.6539  152.2431 C   0  0  1  0  0  0  0  0  0  0  0  0
  146.7938  134.9801  152.4393 N   0  0  0  0  0  0  0  0  0  0  0  0
  146.1835  136.0023  153.0567 C   0  0  0  0  0  0  0  0  0  0  0  0
  145.0493  135.9266  153.5276 O   0  0  0  0  0  0  0  0  0  0  0  0
  146.9742  137.0885  153.0929 N   0  0  0  0  0  0  0  0  0  0  0  0
  146.7077  138.3683  153.6519 C   0  0  0  0  0  0  0  0  0  0  0  0
  145.5686  138.5274  154.4662 C   0  0  0  0  0  0  0  0  0  0  0  0
  145.2560  139.7085  155.0389 N   0  0  0  0  0  0  0  0  0  0  0  0
  146.0556  140.7528  154.7860 C   0  0  0  0  0  0  0  0  0  0  0  0
  145.7736  142.0562  155.5539 C   0  0  0  0  0  0  0  0  0  0  0  0
  145.6267  143.2524  154.5843 C   0  0  0  0  0  0  0  0  0  0  0  0
  146.9227  142.3304  156.5415 C   0  0  0  0  0  0  0  0  0  0  0  0
  144.4373  141.9682  156.3281 C   0  0  0  0  0  0  0  0  0  0  0  0
  147.1867  140.6984  154.0706 N   0  0  0  0  0  0  0  0  0  0  0  0
  147.5112  139.5231  153.4909 C   0  0  0  0  0  0  0  0  0  0  0  0
  146.2793  133.2382  150.7611 C   0  0  0  0  0  0  0  0  0  0  0  0
  145.7590  131.8034  150.5318 C   0  0  2  0  0  0  0  0  0  0  0  0
  144.2222  131.7159  150.6544 C   0  0  0  0  0  0  0  0  0  0  0  0
  146.9082  127.4132  151.6686 H   0  0  0  0  0  0  0  0  0  0  0  0
  147.4512  128.6559  152.7900 H   0  0  0  0  0  0  0  0  0  0  0  0
  148.1802  128.5183  151.1867 H   0  0  0  0  0  0  0  0  0  0  0  0
  145.9949  129.2034  150.1271 H   0  0  0  0  0  0  0  0  0  0  0  0
  145.2354  129.1709  151.6920 H   0  0  0  0  0  0  0  0  0  0  0  0
  145.4092  131.1136  153.2193 H   0  0  0  0  0  0  0  0  0  0  0  0
  147.0300  130.4978  153.4301 H   0  0  0  0  0  0  0  0  0  0  0  0
  146.8823  132.8724  154.1507 H   0  0  0  0  0  0  0  0  0  0  0  0
  148.0336  132.6507  152.8547 H   0  0  0  0  0  0  0  0  0  0  0  0
  145.1744  133.6746  152.5720 H   0  0  0  0  0  0  0  0  0  0  0  0
  147.7291  135.1277  152.0887 H   0  0  0  0  0  0  0  0  0  0  0  0
  147.8967  136.9767  152.6986 H   0  0  0  0  0  0  0  0  0  0  0  0
  144.9034  137.7001  154.6662 H   0  0  0  0  0  0  0  0  0  0  0  0
  145.3786  144.1694  155.1201 H   0  0  0  0  0  0  0  0  0  0  0  0
  144.8366  143.0765  153.8532 H   0  0  0  0  0  0  0  0  0  0  0  0
  146.5479  143.4496  154.0347 H   0  0  0  0  0  0  0  0  0  0  0  0
  147.8754  142.4358  156.0213 H   0  0  0  0  0  0  0  0  0  0  0  0
  147.0291  141.5173  157.2606 H   0  0  0  0  0  0  0  0  0  0  0  0
  146.7520  143.2479  157.1057 H   0  0  0  0  0  0  0  0  0  0  0  0
  144.2094  142.9067  156.8347 H   0  0  0  0  0  0  0  0  0  0  0  0
  144.4601  141.1945  157.0963 H   0  0  0  0  0  0  0  0  0  0  0  0
  143.6049  141.7468  155.6592 H   0  0  0  0  0  0  0  0  0  0  0  0
  148.4270  139.5289  152.9216 H   0  0  0  0  0  0  0  0  0  0  0  0
  145.7160  133.9401  150.1447 H   0  0  0  0  0  0  0  0  0  0  0  0
  147.3128  133.2994  150.4157 H   0  0  0  0  0  0  0  0  0  0  0  0
  146.0066  131.5625  149.4986 H   0  0  0  0  0  0  0  0  0  0  0  0
  143.7435  132.4574  150.0143 H   0  0  0  0  0  0  0  0  0  0  0  0
  143.8742  131.8957  151.6710 H   0  0  0  0  0  0  0  0  0  0  0  0
  143.8450  130.7433  150.3399 H   0  0  0  0  0  0  0  0  0  0  0  0
  147.4624  130.9320  151.1562 H   0  0  0  0  0  0  0  0  0  0  0  0
  1  2  1  0  0  0  0
  1 24  1  0  0  0  0
  1 25  1  0  0  0  0
  1 26  1  0  0  0  0
  2  3  1  0  0  0  0
  2 27  1  0  0  0  0
  2 28  1  0  0  0  0
  3 22  1  0  0  0  0
  3  4  1  0  0  0  0
  3 53  1  0  0  0  0
  4  5  1  0  0  0  0
  4 29  1  0  0  0  0
  4 30  1  0  0  0  0
  5  6  1  0  0  0  0
  5 31  1  0  0  0  0
  5 32  1  0  0  0  0
  6  7  1  0  0  0  0
  6 21  1  0  0  0  0
  6 33  1  0  0  0  0
  7  8  1  0  0  0  0
  7 34  1  0  0  0  0
  8  9  2  0  0  0  0
  8 10  1  0  0  0  0
 10 11  1  0  0  0  0
 10 35  1  0  0  0  0
 11 20  1  0  0  0  0
 11 12  2  0  0  0  0
 12 13  1  0  0  0  0
 12 36  1  0  0  0  0
 13 14  2  0  0  0  0
 14 15  1  0  0  0  0
 14 19  1  0  0  0  0
 15 16  1  0  0  0  0
 15 17  1  0  0  0  0
 15 18  1  0  0  0  0
 16 37  1  0  0  0  0
 16 38  1  0  0  0  0
 16 39  1  0  0  0  0
 17 40  1  0  0  0  0
 17 41  1  0  0  0  0
 17 42  1  0  0  0  0
 18 43  1  0  0  0  0
 18 44  1  0  0  0  0
 18 45  1  0  0  0  0
 19 20  2  0  0  0  0
 20 46  1  0  0  0  0
 21 22  1  0  0  0  0
 21 47  1  0  0  0  0
 21 48  1  0  0  0  0
 22 23  1  0  0  0  0
 22 49  1  0  0  0  0
 23 50  1  0  0  0  0
 23 51  1  0  0  0  0
 23 52  1  0  0  0  0
M  CHG  1   3   1
M  END
> <s_m_source_file>
AV-unprocessed.smi

> <i_m_source_file_index>
2710

> <i_lp_mmshare_version>
43012

> <i_f3d_flags>
0

> <s_epik_input>
W0NIM11bQ0gyXU4xW0NIMl1bQ0gyXVtDQEhdKFtDSDJdW0NASF0xW0NIM10pW05IXUMoPU8pW05IXWMyW2NIXW5jKEMoW0NIM10pKFtDSDNdKVtDSDNdKW5bY0hdMg==

> <s_epik_cmdline>
J2VwaWtfcHl0aG9uJywgJy1waCcsICc3LjAnLCAnLXRuJywgJzgnLCAnLW1hJywgJzIwMCcsICctbWV0YWxfYmluZGluZycsICctaW1hZScsICc8aW5maWxlLm1hZT4nLCAnLW9tYWUnLCAnPG91dGZpbGUubWFlPic=

> <r_lp_tautomer_probability>
1

> <r_epik_Ionization_Penalty>
0.00396003

> <r_epik_Ionization_Penalty_Charging>
0.0039379

> <r_epik_Ionization_Penalty_Neutral>
2.21316e-05

> <r_epik_State_Penalty>
0.00281651

> <r_epik_Charging_Adjusted_Penalty>
0.00675441

> <i_epik_Tot_Q>
1

> <i_epik_Tot_abs_Q>
1

> <r_epik_Metal_State_Penalty>
-0

> <b_epik_Metal_Only>
0

> <s_lp_Force_Field>
OPLS_2005

> <r_lp_Energy>
21.0502

> <b_lp_Chiralities_Consistent>
1

> <s_lp_Variant>
AV-unprocessed.smi:2710-5

> <Gold.Version>
5.8.1

> <Gold.Id.Protein>
6NUR|6NUR_protein|mol2

> <Gold.PLP.Fitness>
43.5442

> <Gold.PLP.PLP>
-32.0624

> <Gold.PLP.part.hbond>
-2.8297

> <Gold.PLP.part.metal>
0.0000

> <Gold.PLP.part.buried>
-3.1240

> <Gold.PLP.part.nonpolar>
-26.0149

> <Gold.PLP.part.repulsive>
0.3602

> <Gold.PLP.ligand.clash>
0.0000

> <Gold.PLP.ligand.torsion>
0.2889

> <Gold.PLP.Chemscore.Hbond>
2.9600

> <Gold.PLP.Chemscore.CHOScore>
1.0000

> <Gold.PLP.Chemscore.Metal>
0.0000

> <Gold.Chemscore.Hbonds>
donor molecule, donor type, donor heavy atom, donor atom, acceptor molecule, acceptor atom, score
      L1  H     3    53       P1 10747  1.00
      L1  H     7    34       P1  7948  0.94
      L1  H    10    35       P1  7948  1.00
      L1  C    20    46       P1  7957  1.00

> <Gold.PLP.Chemscore.Internal.Correction>
0.1795

> <Gold.Rescore>
     Score         DG    S(hbond)    S(metal)    S(lipo)     H(rot)  DE(clash)    DE(int)     intcor
     19.68     -21.56       2.89        0.00      83.63       1.31       0.37       1.51       ----

> <Gold.Chemscore.Fitness>
19.6794

> <Gold.Chemscore.DG>
-21.5647

> <Gold.Chemscore.ZeroCoef>
-5.4800

> <Gold.Chemscore.Hbond>
2.8889

> <Gold.Chemscore.Metal>
0.0000

> <Gold.Chemscore.Lipo>
83.6286

> <Gold.Chemscore.Internal_Hbond>
0.0000

> <Gold.Chemscore.DEClash>
0.3715

> <Gold.Chemscore.DEInternal>
1.5138

> <Gold.Chemscore.Rot>
1.3081

> <Gold.Chemscore.Internal.Correction>
   9.000000E+99

> <Gold.Chemscore.Hbonds>
donor molecule, donor type, donor heavy atom, donor atom, acceptor molecule, acceptor atom, score
      L1  H     3    53       P1 10747  1.00
      L1  H     7    34       P1  7948  0.85
      L1  H    10    35       P1  7948  0.91

> <Gold.Chemscore.Hbond.Weighted>
-9.6489

> <Gold.Chemscore.Metal.Weighted>
-0.0000

> <Gold.Chemscore.Lipo.Weighted>
-9.7846

> <Gold.Chemscore.Internal_Hbond.Weighted>
0.0000

> <Gold.Chemscore.DEClash.Weighted>
0.3715

> <Gold.Chemscore.DEInternal.Weighted>
1.5138

> <Gold.Chemscore.Rot.Weighted>
3.3488

> <Gold.Chemscore.Internal.Correction.Weighted>
   9.000000E+99

> <Gold.Protein.RotatedTorsions>
[ 6907 6896 6895 6894 ] final  124.33 input  -60.11 | X-H torsion
[ 7974 7965 7964 7962 ] final -128.99 input  175.53 | X-H torsion
[ 8008 7997 7996 7995 ] final -163.36 input   59.86 | X-H torsion
[ 10167 10162 10161 10158 ] final -171.51 input  -65.29 | X-H torsion
[ 10718 10713 10712 10709 ] final  146.86 input   66.30 | X-H torsion
[ 10763 10752 10751 10750 ] final  -28.10 input  -60.55 | X-H torsion
[ 11005 11000 10999 10996 ] final  -36.58 input  -57.11 | X-H torsion

> <Gold.Protein.ActiveResidues>
 VAL166  LYS551  ARG553  GLY616  TRP617  ASP618  TYR619  PRO620  LYS621  CYS622 
 ASP623  PHE694  ASN695  SER759  ASP760  ASP761  ALA762  ILE779  LEU786  VAL792 
 PHE793  MET794  SER795  GLU796  ALA797  LYS798  CYS799  TRP800  GLU811  SER814 

> <Gold.Protein.RotatedAtoms>
  152.4087  133.6929  159.6378 H   0  0  0  0  0  0  0  0  0  0  0  0  # atno 6907 bound_to 6896
  150.7969  133.8663  159.3255 H   0  0  0  0  0  0  0  0  0  0  0  0  # atno 6908 bound_to 6896
  151.6411  135.1014  160.0193 H   0  0  0  0  0  0  0  0  0  0  0  0  # atno 6909 bound_to 6896
  144.9615  140.7452  143.4726 H   0  0  0  0  0  0  0  0  0  0  0  0  # atno 7974 bound_to 7965
  155.8201  140.0918  157.1854 H   0  0  0  0  0  0  0  0  0  0  0  0  # atno 8008 bound_to 7997
  154.3979  140.1438  156.3550 H   0  0  0  0  0  0  0  0  0  0  0  0  # atno 8009 bound_to 7997
  155.8275  140.3444  155.5554 H   0  0  0  0  0  0  0  0  0  0  0  0  # atno 8010 bound_to 7997
  139.5798  144.1449  152.1500 H   0  0  0  0  0  0  0  0  0  0  0  0  # atno 10167 bound_to 10162
  157.3280  131.0915  151.1186 H   0  0  0  0  0  0  0  0  0  0  0  0  # atno 10718 bound_to 10713
  153.7429  135.6931  153.4963 H   0  0  0  0  0  0  0  0  0  0  0  0  # atno 10763 bound_to 10752
  153.2057  135.4421  155.0318 H   0  0  0  0  0  0  0  0  0  0  0  0  # atno 10764 bound_to 10752
  154.8214  135.3424  154.6953 H   0  0  0  0  0  0  0  0  0  0  0  0  # atno 10765 bound_to 10752
  140.9885  133.7017  156.1809 H   0  0  0  0  0  0  0  0  0  0  0  0  # atno 11005 bound_to 11000
  145.2692  139.1961  143.4850 LP  0  0  0  0  0  0  0  0  0  0  0  0  # atno 17320 bound_to 7965
  146.3354  140.2635  142.8603 LP  0  0  0  0  0  0  0  0  0  0  0  0  # atno 17321 bound_to 7965
  140.1000  144.5548  150.6996 LP  0  0  0  0  0  0  0  0  0  0  0  0  # atno 17342 bound_to 10162
  140.7077  143.2481  151.4675 LP  0  0  0  0  0  0  0  0  0  0  0  0  # atno 17343 bound_to 10162
  157.2445  130.6585  149.5904 LP  0  0  0  0  0  0  0  0  0  0  0  0  # atno 17370 bound_to 10713
  155.9692  130.4558  150.5900 LP  0  0  0  0  0  0  0  0  0  0  0  0  # atno 17371 bound_to 10713
  140.7076  134.4496  157.5583 LP  0  0  0  0  0  0  0  0  0  0  0  0  # atno 17394 bound_to 11000
  139.8981  134.8620  156.2014 LP  0  0  0  0  0  0  0  0  0  0  0  0  # atno 17395 bound_to 11000

$$$$
