AV-unprocessed.smi:1047|AV-procd|sdf|4601|dock1
  -GOLD-   22720 3 93D 1   1.00000     0.00000
 Structure written by MMmdl.
 57 59  0  0  0  0  0  0  0  0  3 V2000
  144.9832  134.2153  163.6519 C   0  0  0  0  0  0  0  0  0  0  0  0
  145.6749  134.4352  162.2987 C   0  0  0  0  0  0  0  0  0  0  0  0
  147.1566  134.3477  162.3949 N   0  3  2  0  0  0  0  0  0  0  0  0
  147.7226  135.1192  163.5282 C   0  0  0  0  0  0  0  0  0  0  0  0
  147.7818  136.6225  163.2034 C   0  0  0  0  0  0  0  0  0  0  0  0
  148.5329  136.8216  162.0115 O   0  0  0  0  0  0  0  0  0  0  0  0
  147.9424  136.1899  160.8808 C   0  0  1  0  0  0  0  0  0  0  0  0
  148.7969  136.5391  159.6526 C   0  0  0  0  0  0  0  0  0  0  0  0
  148.7855  137.9752  159.3909 N   0  0  0  0  0  0  0  0  0  0  0  0
  149.5917  138.3631  158.2382 C   0  0  0  0  0  0  0  0  0  0  0  0
  151.0594  138.5963  158.6332 C   0  0  1  0  0  0  0  0  0  0  0  0
  151.6230  137.3430  158.9616 O   0  0  0  0  0  0  0  0  0  0  0  0
  151.8839  139.2542  157.5064 C   0  0  0  0  0  0  0  0  0  0  0  0
  151.4747  140.6402  157.2379 N   0  0  0  0  0  0  0  0  0  0  0  0
  150.7789  141.1487  156.1851 C   0  0  0  0  0  0  0  0  0  0  0  0
  150.6491  142.4888  156.3866 N   0  3  0  0  0  0  0  0  0  0  0  0
  151.2676  142.8414  157.5881 C   0  0  0  0  0  0  0  0  0  0  0  0
  151.3967  144.0743  158.2164 C   0  0  0  0  0  0  0  0  0  0  0  0
  152.0889  144.1011  159.4479 C   0  0  0  0  0  0  0  0  0  0  0  0
  152.2478  145.4328  160.1614 C   0  0  0  0  0  0  0  0  0  0  0  0
  152.6255  142.9137  160.0097 C   0  0  0  0  0  0  0  0  0  0  0  0
  153.3669  142.9539  161.3353 C   0  0  0  0  0  0  0  0  0  0  0  0
  152.4843  141.6696  159.3543 C   0  0  0  0  0  0  0  0  0  0  0  0
  151.7998  141.6601  158.1407 C   0  0  0  0  0  0  0  0  0  0  0  0
  147.8842  134.6662  161.1397 C   0  0  0  0  0  0  0  0  0  0  0  0
  143.9105  134.3899  163.5651 H   0  0  0  0  0  0  0  0  0  0  0  0
  145.3683  134.9005  164.4078 H   0  0  0  0  0  0  0  0  0  0  0  0
  145.1137  133.1980  164.0200 H   0  0  0  0  0  0  0  0  0  0  0  0
  145.2887  133.7363  161.5570 H   0  0  0  0  0  0  0  0  0  0  0  0
  145.4027  135.4317  161.9484 H   0  0  0  0  0  0  0  0  0  0  0  0
  147.1538  134.9402  164.4414 H   0  0  0  0  0  0  0  0  0  0  0  0
  148.7323  134.7540  163.7213 H   0  0  0  0  0  0  0  0  0  0  0  0
  146.7820  137.0458  163.0972 H   0  0  0  0  0  0  0  0  0  0  0  0
  148.2675  137.1604  164.0178 H   0  0  0  0  0  0  0  0  0  0  0  0
  146.9404  136.5976  160.7369 H   0  0  0  0  0  0  0  0  0  0  0  0
  149.8231  136.2144  159.8285 H   0  0  0  0  0  0  0  0  0  0  0  0
  148.4425  135.9872  158.7811 H   0  0  0  0  0  0  0  0  0  0  0  0
  149.1084  138.4747  160.2136 H   0  0  0  0  0  0  0  0  0  0  0  0
  149.5433  137.5763  157.4836 H   0  0  0  0  0  0  0  0  0  0  0  0
  149.1828  139.2625  157.7759 H   0  0  0  0  0  0  0  0  0  0  0  0
  151.1016  139.2181  159.5286 H   0  0  0  0  0  0  0  0  0  0  0  0
  152.2454  137.1077  158.2909 H   0  0  0  0  0  0  0  0  0  0  0  0
  152.9515  139.2254  157.7247 H   0  0  0  0  0  0  0  0  0  0  0  0
  151.7514  138.7024  156.5750 H   0  0  0  0  0  0  0  0  0  0  0  0
  150.3982  140.5905  155.3421 H   0  0  0  0  0  0  0  0  0  0  0  0
  150.9838  144.9735  157.7831 H   0  0  0  0  0  0  0  0  0  0  0  0
  153.3032  145.6803  160.2790 H   0  0  0  0  0  0  0  0  0  0  0  0
  151.7873  145.3964  161.1491 H   0  0  0  0  0  0  0  0  0  0  0  0
  151.7757  146.2427  159.6042 H   0  0  0  0  0  0  0  0  0  0  0  0
  153.7110  141.9621  161.6305 H   0  0  0  0  0  0  0  0  0  0  0  0
  152.7177  143.3296  162.1263 H   0  0  0  0  0  0  0  0  0  0  0  0
  154.2406  143.6024  161.2654 H   0  0  0  0  0  0  0  0  0  0  0  0
  152.8905  140.7676  159.7865 H   0  0  0  0  0  0  0  0  0  0  0  0
  148.8996  134.2790  161.2347 H   0  0  0  0  0  0  0  0  0  0  0  0
  147.4449  134.1435  160.2913 H   0  0  0  0  0  0  0  0  0  0  0  0
  147.3485  133.3772  162.5997 H   0  0  0  0  0  0  0  0  0  0  0  0
  150.1727  143.1142  155.7496 H   0  0  0  0  0  0  0  0  0  0  0  0
  1  2  1  0  0  0  0
  1 26  1  0  0  0  0
  1 27  1  0  0  0  0
  1 28  1  0  0  0  0
  2  3  1  0  0  0  0
  2 29  1  0  0  0  0
  2 30  1  0  0  0  0
  3 25  1  0  0  0  0
  3  4  1  0  0  0  0
  3 56  1  0  0  0  0
  4  5  1  0  0  0  0
  4 31  1  0  0  0  0
  4 32  1  0  0  0  0
  5  6  1  0  0  0  0
  5 33  1  0  0  0  0
  5 34  1  0  0  0  0
  6  7  1  0  0  0  0
  7  8  1  0  0  0  0
  7 25  1  0  0  0  0
  7 35  1  0  0  0  0
  8  9  1  0  0  0  0
  8 36  1  0  0  0  0
  8 37  1  0  0  0  0
  9 10  1  0  0  0  0
  9 38  1  0  0  0  0
 10 11  1  0  0  0  0
 10 39  1  0  0  0  0
 10 40  1  0  0  0  0
 11 12  1  0  0  0  0
 11 13  1  0  0  0  0
 11 41  1  0  0  0  0
 12 42  1  0  0  0  0
 13 14  1  0  0  0  0
 13 43  1  0  0  0  0
 13 44  1  0  0  0  0
 14 24  1  0  0  0  0
 14 15  1  0  0  0  0
 15 16  2  0  0  0  0
 15 45  1  0  0  0  0
 16 17  1  0  0  0  0
 16 57  1  0  0  0  0
 17 24  2  0  0  0  0
 17 18  1  0  0  0  0
 18 19  2  0  0  0  0
 18 46  1  0  0  0  0
 19 20  1  0  0  0  0
 19 21  1  0  0  0  0
 20 47  1  0  0  0  0
 20 48  1  0  0  0  0
 20 49  1  0  0  0  0
 21 22  1  0  0  0  0
 21 23  2  0  0  0  0
 22 50  1  0  0  0  0
 22 51  1  0  0  0  0
 22 52  1  0  0  0  0
 23 24  1  0  0  0  0
 23 53  1  0  0  0  0
 25 54  1  0  0  0  0
 25 55  1  0  0  0  0
M  CHG  1   3   1
M  CHG  1  16   1
M  END
> <s_m_source_file>
AV-unprocessed.smi

> <i_m_source_file_index>
1047

> <i_lp_mmshare_version>
43012

> <i_f3d_flags>
0

> <s_epik_input>
W0NIM11bQ0gyXU4xW0NIMl1bQ0gyXU9bQ0BIXShbQ0gyXTEpW0NIMl1bTkhdW0NIMl1bQ0BIXShbT0hdKVtDSDJdbihbY0hdbjIpYyhjMjMpW2NIXWMoW0NIM10pYyhbY0hdMylbQ0gzXQ==

> <s_epik_cmdline>
J2VwaWtfcHl0aG9uJywgJy1waCcsICc3LjAnLCAnLXRuJywgJzgnLCAnLW1hJywgJzIwMCcsICctbWV0YWxfYmluZGluZycsICctaW1hZScsICc8aW5maWxlLm1hZT4nLCAnLW9tYWUnLCAnPG91dGZpbGUubWFlPic=

> <r_epik_Ionization_Penalty>
2.03028

> <r_epik_Ionization_Penalty_Charging>
1.21256

> <r_epik_Ionization_Penalty_Neutral>
0.817715

> <r_epik_State_Penalty>
2.54959

> <r_epik_Charging_Adjusted_Penalty>
3.76215

> <i_epik_Tot_Q>
2

> <i_epik_Tot_abs_Q>
2

> <r_epik_Metal_State_Penalty>
6.52811

> <b_epik_Metal_Only>
0

> <s_lp_Force_Field>
OPLS_2005

> <r_lp_Energy>
33.7029

> <b_lp_Chiralities_Consistent>
1

> <s_lp_Variant>
AV-unprocessed.smi:1047-42

> <Gold.Version>
5.8.1

> <Gold.Id.Protein>
6NUR|6NUR_protein|mol2

> <Gold.PLP.Fitness>
65.7805

> <Gold.PLP.PLP>
-57.5897

> <Gold.PLP.part.hbond>
-3.4673

> <Gold.PLP.part.metal>
0.0000

> <Gold.PLP.part.buried>
-9.4546

> <Gold.PLP.part.nonpolar>
-46.6110

> <Gold.PLP.part.repulsive>
0.1359

> <Gold.PLP.ligand.clash>
0.0000

> <Gold.PLP.ligand.torsion>
0.4421

> <Gold.PLP.Chemscore.Hbond>
2.9486

> <Gold.PLP.Chemscore.CHOScore>
0.0000

> <Gold.PLP.Chemscore.Metal>
0.0000

> <Gold.Chemscore.Hbonds>
donor molecule, donor type, donor heavy atom, donor atom, acceptor molecule, acceptor atom, score
      L1  H    16    57       P1  8028  1.66
      P1  H  6896  6908       L1    12  0.07
      P1  H  6931  6943       L1     6  0.94

> <Gold.PLP.Chemscore.Internal.Correction>
0.2291

> <Gold.Rescore>
     Score         DG    S(hbond)    S(metal)    S(lipo)     H(rot)  DE(clash)    DE(int)     intcor
     21.20     -21.86       1.87        0.00     145.95       2.71       0.14       0.52       ----

> <Gold.Chemscore.Fitness>
21.2011

> <Gold.Chemscore.DG>
-21.8568

> <Gold.Chemscore.ZeroCoef>
-5.4800

> <Gold.Chemscore.Hbond>
1.8668

> <Gold.Chemscore.Metal>
0.0000

> <Gold.Chemscore.Lipo>
145.9507

> <Gold.Chemscore.Internal_Hbond>
0.0000

> <Gold.Chemscore.DEClash>
0.1386

> <Gold.Chemscore.DEInternal>
0.5172

> <Gold.Chemscore.Rot>
2.7088

> <Gold.Chemscore.Internal.Correction>
   9.000000E+99

> <Gold.Chemscore.Hbonds>
donor molecule, donor type, donor heavy atom, donor atom, acceptor molecule, acceptor atom, score
      L1  H    16    57       P1  8028  0.78
      P1  H  6896  6908       L1    12  0.02
      P1  H  6931  6943       L1     6  0.69

> <Gold.Chemscore.Hbond.Weighted>
-6.2352

> <Gold.Chemscore.Metal.Weighted>
-0.0000

> <Gold.Chemscore.Lipo.Weighted>
-17.0762

> <Gold.Chemscore.Internal_Hbond.Weighted>
0.0000

> <Gold.Chemscore.DEClash.Weighted>
0.1386

> <Gold.Chemscore.DEInternal.Weighted>
0.5172

> <Gold.Chemscore.Rot.Weighted>
6.9346

> <Gold.Chemscore.Internal.Correction.Weighted>
   9.000000E+99

> <Gold.Protein.RotatedTorsions>
[ 6907 6896 6895 6894 ] final -130.97 input  -60.11 | X-H torsion
[ 7974 7965 7964 7962 ] final  153.77 input  175.53 | X-H torsion
[ 8008 7997 7996 7995 ] final  166.06 input   59.86 | X-H torsion
[ 10167 10162 10161 10158 ] final -116.12 input  -65.29 | X-H torsion
[ 10718 10713 10712 10709 ] final  156.10 input   66.30 | X-H torsion
[ 10763 10752 10751 10750 ] final  139.93 input  -60.55 | X-H torsion
[ 11005 11000 10999 10996 ] final  -53.21 input  -57.11 | X-H torsion

> <Gold.Protein.ActiveResidues>
 VAL166  LYS551  ARG553  GLY616  TRP617  ASP618  TYR619  PRO620  LYS621  CYS622 
 ASP623  PHE694  ASN695  SER759  ASP760  ASP761  ALA762  ILE779  LEU786  VAL792 
 PHE793  MET794  SER795  GLU796  ALA797  LYS798  CYS799  TRP800  GLU811  SER814 

> <Gold.Protein.RotatedAtoms>
  150.9457  133.6606  159.2781 H   0  0  0  0  0  0  0  0  0  0  0  0  # atno 6907 bound_to 6896
  151.3979  135.0965  159.9556 H   0  0  0  0  0  0  0  0  0  0  0  0  # atno 6908 bound_to 6896
  152.5089  133.8957  159.7471 H   0  0  0  0  0  0  0  0  0  0  0  0  # atno 6909 bound_to 6896
  144.8132  139.6845  143.6132 H   0  0  0  0  0  0  0  0  0  0  0  0  # atno 7974 bound_to 7965
  156.1750  140.1653  156.8380 H   0  0  0  0  0  0  0  0  0  0  0  0  # atno 8008 bound_to 7997
  154.5297  140.0759  156.8356 H   0  0  0  0  0  0  0  0  0  0  0  0  # atno 8009 bound_to 7997
  155.3433  140.3386  155.4241 H   0  0  0  0  0  0  0  0  0  0  0  0  # atno 8010 bound_to 7997
  140.0827  143.4773  152.1916 H   0  0  0  0  0  0  0  0  0  0  0  0  # atno 10167 bound_to 10162
  157.2095  131.0694  151.1978 H   0  0  0  0  0  0  0  0  0  0  0  0  # atno 10718 bound_to 10713
  153.9143  135.3007  155.3448 H   0  0  0  0  0  0  0  0  0  0  0  0  # atno 10763 bound_to 10752
  154.7608  135.4935  153.9463 H   0  0  0  0  0  0  0  0  0  0  0  0  # atno 10764 bound_to 10752
  153.1176  135.6774  153.9493 H   0  0  0  0  0  0  0  0  0  0  0  0  # atno 10765 bound_to 10752
  141.0964  133.6624  156.4138 H   0  0  0  0  0  0  0  0  0  0  0  0  # atno 11005 bound_to 11000
  146.2433  139.6046  142.9476 LP  0  0  0  0  0  0  0  0  0  0  0  0  # atno 17320 bound_to 7965
  145.5274  141.0429  143.2402 LP  0  0  0  0  0  0  0  0  0  0  0  0  # atno 17321 bound_to 7965
  139.5770  144.7492  151.3739 LP  0  0  0  0  0  0  0  0  0  0  0  0  # atno 17342 bound_to 10162
  140.7069  143.7490  150.7498 LP  0  0  0  0  0  0  0  0  0  0  0  0  # atno 17343 bound_to 10162
  157.3686  130.7169  149.6550 LP  0  0  0  0  0  0  0  0  0  0  0  0  # atno 17370 bound_to 10713
  155.9692  130.4205  150.4426 LP  0  0  0  0  0  0  0  0  0  0  0  0  # atno 17371 bound_to 10713
  140.5129  134.6377  157.5291 LP  0  0  0  0  0  0  0  0  0  0  0  0  # atno 17394 bound_to 11000
  139.9802  134.7150  155.9874 LP  0  0  0  0  0  0  0  0  0  0  0  0  # atno 17395 bound_to 11000

$$$$
