AV-unprocessed.smi:1897|AV-procd|sdf|7694|dock8
  -GOLD-   22720 9433D 1   1.00000     0.00000
 Structure written by MMmdl.
 38 40  0  0  0  0  0  0  0  0  3 V2000
  152.3040  141.1988  159.3395 C   0  0  0  0  0  0  0  0  0  0  0  0
  152.0348  140.7221  157.9534 C   0  0  0  0  0  0  0  0  0  0  0  0
  152.8379  139.8676  157.3151 N   0  0  0  0  0  0  0  0  0  0  0  0
  152.3764  139.5683  156.0417 N   0  0  0  0  0  0  0  0  0  0  0  0
  151.2410  140.2090  155.7296 C   0  0  0  0  0  0  0  0  0  0  0  0
  150.6314  140.0603  154.5386 N   0  5  0  0  0  0  0  0  0  0  0  0
  149.3390  140.4206  154.3269 C   0  0  0  0  0  0  0  0  0  0  0  0
  149.0078  141.5004  153.8393 O   0  0  0  0  0  0  0  0  0  0  0  0
  148.3791  139.5426  154.6726 N   0  0  0  0  0  0  0  0  0  0  0  0
  146.9435  139.7430  154.5208 C   0  0  2  0  0  0  0  0  0  0  0  0
  146.2090  140.0244  155.8453 C   0  0  0  0  0  0  0  0  0  0  0  0
  144.8772  139.2551  155.7436 C   0  0  0  0  0  0  0  0  0  0  0  0
  144.8527  138.7000  154.3769 N   0  3  2  0  0  0  0  0  0  0  0  0
  144.0045  137.5109  154.1444 C   0  0  0  0  0  0  0  0  0  0  0  0
  144.0533  137.1372  152.6489 C   0  0  0  0  0  0  0  0  0  0  0  0
  145.5026  136.9669  152.1478 C   0  0  0  0  0  0  0  0  0  0  0  0
  146.3625  138.1956  152.5026 C   0  0  0  0  0  0  0  0  0  0  0  0
  146.2587  138.4777  154.0102 C   0  0  1  0  0  0  0  0  0  0  0  0
  150.6391  141.2434  157.0247 S   0  0  0  0  0  0  0  0  0  0  0  0
  153.0312  142.0106  159.3195 H   0  0  0  0  0  0  0  0  0  0  0  0
  152.7001  140.3858  159.9488 H   0  0  0  0  0  0  0  0  0  0  0  0
  151.3850  141.5618  159.7997 H   0  0  0  0  0  0  0  0  0  0  0  0
  148.6783  138.6664  155.0749 H   0  0  0  0  0  0  0  0  0  0  0  0
  146.7509  140.5580  153.8199 H   0  0  0  0  0  0  0  0  0  0  0  0
  146.7799  139.6652  156.7029 H   0  0  0  0  0  0  0  0  0  0  0  0
  146.0507  141.0945  155.9827 H   0  0  0  0  0  0  0  0  0  0  0  0
  144.8563  138.4468  156.4763 H   0  0  0  0  0  0  0  0  0  0  0  0
  144.0119  139.8947  155.9190 H   0  0  0  0  0  0  0  0  0  0  0  0
  144.3538  136.6791  154.7579 H   0  0  0  0  0  0  0  0  0  0  0  0
  142.9793  137.7277  154.4457 H   0  0  0  0  0  0  0  0  0  0  0  0
  143.4868  136.2223  152.4731 H   0  0  0  0  0  0  0  0  0  0  0  0
  143.5625  137.9185  152.0671 H   0  0  0  0  0  0  0  0  0  0  0  0
  145.9396  136.0759  152.6005 H   0  0  0  0  0  0  0  0  0  0  0  0
  145.5103  136.8017  151.0700 H   0  0  0  0  0  0  0  0  0  0  0  0
  147.4017  138.0220  152.2212 H   0  0  0  0  0  0  0  0  0  0  0  0
  146.0235  139.0623  151.9334 H   0  0  0  0  0  0  0  0  0  0  0  0
  146.6318  137.6154  154.5689 H   0  0  0  0  0  0  0  0  0  0  0  0
  144.5149  139.4363  153.7739 H   0  0  0  0  0  0  0  0  0  0  0  0
  1  2  1  0  0  0  0
  1 20  1  0  0  0  0
  1 21  1  0  0  0  0
  1 22  1  0  0  0  0
  2 19  1  0  0  0  0
  2  3  2  0  0  0  0
  3  4  1  0  0  0  0
  4  5  2  0  0  0  0
  5  6  1  0  0  0  0
  5 19  1  0  0  0  0
  6  7  1  0  0  0  0
  7  8  2  0  0  0  0
  7  9  1  0  0  0  0
  9 10  1  0  0  0  0
  9 23  1  0  0  0  0
 10 18  1  0  0  0  0
 10 11  1  0  0  0  0
 10 24  1  0  0  0  0
 11 12  1  0  0  0  0
 11 25  1  0  0  0  0
 11 26  1  0  0  0  0
 12 13  1  0  0  0  0
 12 27  1  0  0  0  0
 12 28  1  0  0  0  0
 13 18  1  0  0  0  0
 13 14  1  0  0  0  0
 13 38  1  0  0  0  0
 14 15  1  0  0  0  0
 14 29  1  0  0  0  0
 14 30  1  0  0  0  0
 15 16  1  0  0  0  0
 15 31  1  0  0  0  0
 15 32  1  0  0  0  0
 16 17  1  0  0  0  0
 16 33  1  0  0  0  0
 16 34  1  0  0  0  0
 17 18  1  0  0  0  0
 17 35  1  0  0  0  0
 17 36  1  0  0  0  0
 18 37  1  0  0  0  0
M  CHG  1   6  -1
M  CHG  1  13   1
M  END
> <s_m_source_file>
AV-unprocessed.smi

> <i_m_source_file_index>
1897

> <i_lp_mmshare_version>
43012

> <i_f3d_flags>
0

> <s_epik_input>
W0NIM11jMW5uYyhzMSlbTkhdQyg9TylbTkhdW0NASF0oW0NIMl1bQ0gyXTIpW0NAQEhdKE4yMylbQ0gyXVtDSDJdW0NIMl1bQ0gyXTM=

> <s_epik_cmdline>
J2VwaWtfcHl0aG9uJywgJy1waCcsICc3LjAnLCAnLXRuJywgJzgnLCAnLW1hJywgJzIwMCcsICctbWV0YWxfYmluZGluZycsICctaW1hZScsICc8aW5maWxlLm1hZT4nLCAnLW9tYWUnLCAnPG91dGZpbGUubWFlPic=

> <r_lp_tautomer_probability>
1

> <r_epik_Ionization_Penalty>
3.77712

> <r_epik_Ionization_Penalty_Charging>
3.67739

> <r_epik_Ionization_Penalty_Neutral>
0.0997294

> <r_epik_State_Penalty>
3.67514

> <r_epik_Charging_Adjusted_Penalty>
7.35254

> <i_epik_Tot_Q>
0

> <i_epik_Tot_abs_Q>
2

> <r_epik_Metal_State_Penalty>
0.540795

> <b_epik_Metal_Only>
1

> <s_lp_Force_Field>
OPLS_2005

> <r_lp_Energy>
28.3617

> <b_lp_Chiralities_Consistent>
1

> <s_lp_Variant>
AV-unprocessed.smi:1897-11

> <Gold.Version>
5.8.1

> <Gold.Id.Protein>
6NUR|6NUR_protein|mol2

> <Gold.PLP.Fitness>
38.4822

> <Gold.PLP.PLP>
-26.1927

> <Gold.PLP.part.hbond>
-5.3871

> <Gold.PLP.part.metal>
0.0000

> <Gold.PLP.part.buried>
-3.2335

> <Gold.PLP.part.nonpolar>
-19.1317

> <Gold.PLP.part.repulsive>
0.8552

> <Gold.PLP.ligand.clash>
0.0000

> <Gold.PLP.ligand.torsion>
1.0121

> <Gold.PLP.Chemscore.Hbond>
4.7680

> <Gold.PLP.Chemscore.CHOScore>
0.0000

> <Gold.PLP.Chemscore.Metal>
0.0000

> <Gold.Chemscore.Hbonds>
donor molecule, donor type, donor heavy atom, donor atom, acceptor molecule, acceptor atom, score
      L1  H    13    38       P1 10175  2.00
      P1  H  7989  7998       L1     6  1.00
      P1  H  7997  8009       L1     3  0.94
      P1  H  8011  8017       L1     8  0.72

> <Gold.PLP.Chemscore.Internal.Correction>
0.0097

> <Gold.Rescore>
     Score         DG    S(hbond)    S(metal)    S(lipo)     H(rot)  DE(clash)    DE(int)     intcor
     15.13     -16.19       2.35        0.00      46.43       1.00       0.20       0.86       ----

> <Gold.Chemscore.Fitness>
15.1314

> <Gold.Chemscore.DG>
-16.1899

> <Gold.Chemscore.ZeroCoef>
-5.4800

> <Gold.Chemscore.Hbond>
2.3465

> <Gold.Chemscore.Metal>
0.0000

> <Gold.Chemscore.Lipo>
46.4320

> <Gold.Chemscore.Internal_Hbond>
0.0000

> <Gold.Chemscore.DEClash>
0.2012

> <Gold.Chemscore.DEInternal>
0.8573

> <Gold.Chemscore.Rot>
1.0000

> <Gold.Chemscore.Internal.Correction>
   9.000000E+99

> <Gold.Chemscore.Hbonds>
donor molecule, donor type, donor heavy atom, donor atom, acceptor molecule, acceptor atom, score
      L1  H    13    38       P1 10175  1.00
      P1  H  7989  7998       L1     6  0.33
      P1  H  7997  8009       L1     3  0.20
      P1  H  8011  8017       L1     8  0.72

> <Gold.Chemscore.Hbond.Weighted>
-7.8374

> <Gold.Chemscore.Metal.Weighted>
-0.0000

> <Gold.Chemscore.Lipo.Weighted>
-5.4325

> <Gold.Chemscore.Internal_Hbond.Weighted>
0.0000

> <Gold.Chemscore.DEClash.Weighted>
0.2012

> <Gold.Chemscore.DEInternal.Weighted>
0.8573

> <Gold.Chemscore.Rot.Weighted>
2.5600

> <Gold.Chemscore.Internal.Correction.Weighted>
   9.000000E+99

> <Gold.Protein.RotatedTorsions>
[ 6907 6896 6895 6894 ] final   90.57 input  -60.11 | X-H torsion
[ 7974 7965 7964 7962 ] final  -63.75 input  175.53 | X-H torsion
[ 8008 7997 7996 7995 ] final  158.43 input   59.86 | X-H torsion
[ 10167 10162 10161 10158 ] final   64.96 input  -65.29 | X-H torsion
[ 10718 10713 10712 10709 ] final   -5.87 input   66.30 | X-H torsion
[ 10763 10752 10751 10750 ] final  101.68 input  -60.55 | X-H torsion
[ 11005 11000 10999 10996 ] final -165.19 input  -57.11 | X-H torsion

> <Gold.Protein.ActiveResidues>
 VAL166  LYS551  ARG553  GLY616  TRP617  ASP618  TYR619  PRO620  LYS621  CYS622 
 ASP623  PHE694  ASN695  SER759  ASP760  ASP761  ALA762  ILE779  LEU786  VAL792 
 PHE793  MET794  SER795  GLU796  ALA797  LYS798  CYS799  TRP800  GLU811  SER814 

> <Gold.Protein.RotatedAtoms>
  152.5445  134.1790  159.8627 H   0  0  0  0  0  0  0  0  0  0  0  0  # atno 6907 bound_to 6896
  151.1794  133.4727  159.2601 H   0  0  0  0  0  0  0  0  0  0  0  0  # atno 6908 bound_to 6896
  151.1193  135.0082  159.8586 H   0  0  0  0  0  0  0  0  0  0  0  0  # atno 6909 bound_to 6896
  145.7753  140.8791  143.0359 H   0  0  0  0  0  0  0  0  0  0  0  0  # atno 7974 bound_to 7965
  156.2303  140.1858  156.7259 H   0  0  0  0  0  0  0  0  0  0  0  0  # atno 8008 bound_to 7997
  154.6011  140.0636  156.9397 H   0  0  0  0  0  0  0  0  0  0  0  0  # atno 8009 bound_to 7997
  155.2173  140.3304  155.4323 H   0  0  0  0  0  0  0  0  0  0  0  0  # atno 8010 bound_to 7997
  140.1165  144.4770  150.6946 H   0  0  0  0  0  0  0  0  0  0  0  0  # atno 10167 bound_to 10162
  156.7402  130.5207  149.5826 H   0  0  0  0  0  0  0  0  0  0  0  0  # atno 10718 bound_to 10713
  153.3298  135.4036  155.1486 H   0  0  0  0  0  0  0  0  0  0  0  0  # atno 10763 bound_to 10752
  154.8620  135.3607  154.5486 H   0  0  0  0  0  0  0  0  0  0  0  0  # atno 10764 bound_to 10752
  153.5924  135.7073  153.5477 H   0  0  0  0  0  0  0  0  0  0  0  0  # atno 10765 bound_to 10752
  140.5785  134.5166  157.5174 H   0  0  0  0  0  0  0  0  0  0  0  0  # atno 11005 bound_to 11000
  144.6805  139.9912  143.7484 LP  0  0  0  0  0  0  0  0  0  0  0  0  # atno 17320 bound_to 7965
  146.0129  139.3185  143.0859 LP  0  0  0  0  0  0  0  0  0  0  0  0  # atno 17321 bound_to 7965
  140.6896  143.2369  151.5167 LP  0  0  0  0  0  0  0  0  0  0  0  0  # atno 17342 bound_to 10162
  139.5591  144.2201  152.1662 LP  0  0  0  0  0  0  0  0  0  0  0  0  # atno 17343 bound_to 10162
  156.1470  130.6284  151.0544 LP  0  0  0  0  0  0  0  0  0  0  0  0  # atno 17370 bound_to 10713
  157.6822  131.0835  150.7340 LP  0  0  0  0  0  0  0  0  0  0  0  0  # atno 17371 bound_to 10713
  139.9328  134.7931  156.0883 LP  0  0  0  0  0  0  0  0  0  0  0  0  # atno 17394 bound_to 11000
  141.1011  133.6677  156.2757 LP  0  0  0  0  0  0  0  0  0  0  0  0  # atno 17395 bound_to 11000

$$$$
