AV-unprocessed.smi:1875|AV-procd|sdf|7617|dock6
  -GOLD-   22720 9343D 1   1.00000     0.00000
 Structure written by MMmdl.
 49 51  0  0  0  0  0  0  0  0  3 V2000
  142.7702  136.5488  153.4380 C   0  0  0  0  0  0  0  0  0  0  0  0
  143.9319  136.5376  152.4660 C   0  0  0  0  0  0  0  0  0  0  0  0
  143.9751  135.5340  151.5843 N   0  0  0  0  0  0  0  0  0  0  0  0
  145.0090  135.5256  150.7150 C   0  0  0  0  0  0  0  0  0  0  0  0
  146.0008  136.5276  150.7336 C   0  0  0  0  0  0  0  0  0  0  0  0
  145.8469  137.5374  151.7065 C   0  0  0  0  0  0  0  0  0  0  0  0
  146.8513  138.6621  151.8448 C   0  0  0  0  0  0  0  0  0  0  0  0
  147.8926  138.2972  152.8229 N   0  3  0  0  0  0  0  0  0  0  0  0
  147.4347  138.3018  154.2269 C   0  0  0  0  0  0  0  0  0  0  0  0
  148.5547  137.8482  155.1780 C   0  0  1  0  0  0  0  0  0  0  0  0
  148.6939  136.4432  155.0843 O   0  0  0  0  0  0  0  0  0  0  0  0
  149.9062  138.5166  154.8517 C   0  0  0  0  0  0  0  0  0  0  0  0
  150.0466  139.8477  155.4590 N   0  0  0  0  0  0  0  0  0  0  0  0
  149.5691  141.0547  155.0482 C   0  0  0  0  0  0  0  0  0  0  0  0
  149.9828  141.9880  155.9492 N   0  3  0  0  0  0  0  0  0  0  0  0
  150.7304  141.3683  156.9528 C   0  0  0  0  0  0  0  0  0  0  0  0
  151.3591  141.8926  158.0760 C   0  0  0  0  0  0  0  0  0  0  0  0
  152.0463  140.9847  158.9132 C   0  0  0  0  0  0  0  0  0  0  0  0
  152.7453  141.5251  160.1491 C   0  0  0  0  0  0  0  0  0  0  0  0
  152.0839  139.5985  158.6117 C   0  0  0  0  0  0  0  0  0  0  0  0
  152.8205  138.6308  159.5220 C   0  0  0  0  0  0  0  0  0  0  0  0
  151.4395  139.0851  157.4632 C   0  0  0  0  0  0  0  0  0  0  0  0
  150.7699  139.9941  156.6477 C   0  0  0  0  0  0  0  0  0  0  0  0
  144.8123  137.5375  152.5764 N   0  0  0  0  0  0  0  0  0  0  0  0
  142.2027  135.6185  153.3925 H   0  0  0  0  0  0  0  0  0  0  0  0
  142.0936  137.3718  153.2063 H   0  0  0  0  0  0  0  0  0  0  0  0
  143.1284  136.6758  154.4600 H   0  0  0  0  0  0  0  0  0  0  0  0
  145.0470  134.7148  150.0026 H   0  0  0  0  0  0  0  0  0  0  0  0
  146.8277  136.5170  150.0389 H   0  0  0  0  0  0  0  0  0  0  0  0
  147.3095  138.8707  150.8771 H   0  0  0  0  0  0  0  0  0  0  0  0
  146.3411  139.5715  152.1659 H   0  0  0  0  0  0  0  0  0  0  0  0
  148.2295  137.3729  152.5941 H   0  0  0  0  0  0  0  0  0  0  0  0
  147.0783  139.2962  154.5001 H   0  0  0  0  0  0  0  0  0  0  0  0
  146.5840  137.6239  154.3098 H   0  0  0  0  0  0  0  0  0  0  0  0
  148.2742  138.0922  156.2033 H   0  0  0  0  0  0  0  0  0  0  0  0
  149.1014  136.2321  154.2579 H   0  0  0  0  0  0  0  0  0  0  0  0
  150.7319  137.9026  155.2145 H   0  0  0  0  0  0  0  0  0  0  0  0
  150.0440  138.6156  153.7742 H   0  0  0  0  0  0  0  0  0  0  0  0
  148.9754  141.2411  154.1647 H   0  0  0  0  0  0  0  0  0  0  0  0
  151.3244  142.9488  158.3003 H   0  0  0  0  0  0  0  0  0  0  0  0
  152.3097  141.0977  161.0524 H   0  0  0  0  0  0  0  0  0  0  0  0
  152.6562  142.6096  160.2165 H   0  0  0  0  0  0  0  0  0  0  0  0
  153.8076  141.2810  160.1276 H   0  0  0  0  0  0  0  0  0  0  0  0
  152.7432  137.6050  159.1603 H   0  0  0  0  0  0  0  0  0  0  0  0
  152.4042  138.6606  160.5293 H   0  0  0  0  0  0  0  0  0  0  0  0
  153.8791  138.8856  159.5762 H   0  0  0  0  0  0  0  0  0  0  0  0
  151.4679  138.0304  157.2342 H   0  0  0  0  0  0  0  0  0  0  0  0
  148.6587  138.9492  152.7313 H   0  0  0  0  0  0  0  0  0  0  0  0
  149.7698  142.9753  155.8818 H   0  0  0  0  0  0  0  0  0  0  0  0
  1  2  1  0  0  0  0
  1 25  1  0  0  0  0
  1 26  1  0  0  0  0
  1 27  1  0  0  0  0
  2 24  1  0  0  0  0
  2  3  2  0  0  0  0
  3  4  1  0  0  0  0
  4  5  2  0  0  0  0
  4 28  1  0  0  0  0
  5  6  1  0  0  0  0
  5 29  1  0  0  0  0
  6  7  1  0  0  0  0
  6 24  2  0  0  0  0
  7  8  1  0  0  0  0
  7 30  1  0  0  0  0
  7 31  1  0  0  0  0
  8  9  1  0  0  0  0
  8 32  1  0  0  0  0
  8 48  1  0  0  0  0
  9 10  1  0  0  0  0
  9 33  1  0  0  0  0
  9 34  1  0  0  0  0
 10 11  1  0  0  0  0
 10 12  1  0  0  0  0
 10 35  1  0  0  0  0
 11 36  1  0  0  0  0
 12 13  1  0  0  0  0
 12 37  1  0  0  0  0
 12 38  1  0  0  0  0
 13 23  1  0  0  0  0
 13 14  1  0  0  0  0
 14 15  2  0  0  0  0
 14 39  1  0  0  0  0
 15 16  1  0  0  0  0
 15 49  1  0  0  0  0
 16 23  2  0  0  0  0
 16 17  1  0  0  0  0
 17 18  2  0  0  0  0
 17 40  1  0  0  0  0
 18 19  1  0  0  0  0
 18 20  1  0  0  0  0
 19 41  1  0  0  0  0
 19 42  1  0  0  0  0
 19 43  1  0  0  0  0
 20 21  1  0  0  0  0
 20 22  2  0  0  0  0
 21 44  1  0  0  0  0
 21 45  1  0  0  0  0
 21 46  1  0  0  0  0
 22 23  1  0  0  0  0
 22 47  1  0  0  0  0
M  CHG  1   8   1
M  CHG  1  15   1
M  END
> <s_m_source_file>
AV-unprocessed.smi

> <i_m_source_file_index>
1875

> <i_lp_mmshare_version>
43012

> <i_f3d_flags>
0

> <s_epik_input>
W0NIM11jMW5bY0hdW2NIXWMobjEpW0NIMl1bTkhdW0NIMl1bQ0BIXShbT0hdKVtDSDJdbihbY0hdbjIpYyhjMjMpW2NIXWMoW0NIM10pYyhbY0hdMylbQ0gzXQ==

> <s_epik_cmdline>
J2VwaWtfcHl0aG9uJywgJy1waCcsICc3LjAnLCAnLXRuJywgJzgnLCAnLW1hJywgJzIwMCcsICctbWV0YWxfYmluZGluZycsICctaW1hZScsICc8aW5maWxlLm1hZT4nLCAnLW9tYWUnLCAnPG91dGZpbGUubWFlPic=

> <r_lp_tautomer_probability>
1

> <r_epik_Ionization_Penalty>
1.27527

> <r_epik_Ionization_Penalty_Charging>
1.27526

> <r_epik_Ionization_Penalty_Neutral>
8.72389e-06

> <r_epik_State_Penalty>
1.28654

> <r_epik_Charging_Adjusted_Penalty>
2.5618

> <i_epik_Tot_Q>
2

> <i_epik_Tot_abs_Q>
2

> <r_epik_Metal_State_Penalty>
1.36882

> <b_epik_Metal_Only>
0

> <s_epik_Chemistry_Notes>
This compound contains an electron-poor aromatic ring that is susceptible to covalent hydrolysis at low pH, typically resulting in measured values for nitrogen ring protonation that are around two units higher than predicted values.

> <s_lp_Force_Field>
OPLS_2005

> <r_lp_Energy>
13.7453

> <b_lp_Chiralities_Consistent>
1

> <s_lp_Variant>
AV-unprocessed.smi:1875-6

> <Gold.Version>
5.8.1

> <Gold.Id.Protein>
6NUR|6NUR_protein|mol2

> <Gold.PLP.Fitness>
62.8589

> <Gold.PLP.PLP>
-44.6291

> <Gold.PLP.part.hbond>
-4.0000

> <Gold.PLP.part.metal>
0.0000

> <Gold.PLP.part.buried>
-0.9667

> <Gold.PLP.part.nonpolar>
-41.8644

> <Gold.PLP.part.repulsive>
0.7049

> <Gold.PLP.ligand.clash>
0.0000

> <Gold.PLP.ligand.torsion>
1.0893

> <Gold.PLP.Chemscore.Hbond>
5.8880

> <Gold.PLP.Chemscore.CHOScore>
0.9002

> <Gold.PLP.Chemscore.Metal>
0.0000

> <Gold.Chemscore.Hbonds>
donor molecule, donor type, donor heavy atom, donor atom, acceptor molecule, acceptor atom, score
      L1  H     8    32       P1  7948  1.98
      L1  H     8    48       P1  7957  0.55
      L1  H    11    36       P1  7948  0.13
      L1  H    15    49       P1  8028  2.00
      L1  C     4    28       P1  7921  0.74

> <Gold.PLP.Chemscore.Internal.Correction>
0.0437

> <Gold.Rescore>
     Score         DG    S(hbond)    S(metal)    S(lipo)     H(rot)  DE(clash)    DE(int)     intcor
     21.20     -22.94       3.88        0.00     101.69       2.88       0.47       1.27       ----

> <Gold.Chemscore.Fitness>
21.2021

> <Gold.Chemscore.DG>
-22.9415

> <Gold.Chemscore.ZeroCoef>
-5.4800

> <Gold.Chemscore.Hbond>
3.8761

> <Gold.Chemscore.Metal>
0.0000

> <Gold.Chemscore.Lipo>
101.6904

> <Gold.Chemscore.Internal_Hbond>
0.0000

> <Gold.Chemscore.DEClash>
0.4711

> <Gold.Chemscore.DEInternal>
1.2682

> <Gold.Chemscore.Rot>
2.8838

> <Gold.Chemscore.Internal.Correction>
   9.000000E+99

> <Gold.Chemscore.Hbonds>
donor molecule, donor type, donor heavy atom, donor atom, acceptor molecule, acceptor atom, score
      L1  H     8    32       P1  7948  0.92
      L1  H     8    48       P1  7957  0.55
      L1  H    11    36       P1  7948  0.13
      L1  H    15    49       P1  8028  0.98

> <Gold.Chemscore.Hbond.Weighted>
-12.9461

> <Gold.Chemscore.Metal.Weighted>
-0.0000

> <Gold.Chemscore.Lipo.Weighted>
-11.8978

> <Gold.Chemscore.Internal_Hbond.Weighted>
0.0000

> <Gold.Chemscore.DEClash.Weighted>
0.4711

> <Gold.Chemscore.DEInternal.Weighted>
1.2682

> <Gold.Chemscore.Rot.Weighted>
7.3824

> <Gold.Chemscore.Internal.Correction.Weighted>
   9.000000E+99

> <Gold.Protein.RotatedTorsions>
[ 6907 6896 6895 6894 ] final   74.50 input  -60.11 | X-H torsion
[ 7974 7965 7964 7962 ] final  113.99 input  175.53 | X-H torsion
[ 8008 7997 7996 7995 ] final   -4.49 input   59.86 | X-H torsion
[ 10167 10162 10161 10158 ] final   54.82 input  -65.29 | X-H torsion
[ 10718 10713 10712 10709 ] final -170.26 input   66.30 | X-H torsion
[ 10763 10752 10751 10750 ] final  -96.74 input  -60.55 | X-H torsion
[ 11005 11000 10999 10996 ] final  129.13 input  -57.11 | X-H torsion

> <Gold.Protein.ActiveResidues>
 VAL166  LYS551  ARG553  GLY616  TRP617  ASP618  TYR619  PRO620  LYS621  CYS622 
 ASP623  PHE694  ASN695  SER759  ASP760  ASP761  ALA762  ILE779  LEU786  VAL792 
 PHE793  MET794  SER795  GLU796  ALA797  LYS798  CYS799  TRP800  GLU811  SER814 

> <Gold.Protein.RotatedAtoms>
  152.4979  134.4262  159.9496 H   0  0  0  0  0  0  0  0  0  0  0  0  # atno 6907 bound_to 6896
  151.4238  133.3684  159.2767 H   0  0  0  0  0  0  0  0  0  0  0  0  # atno 6908 bound_to 6896
  150.9203  134.8644  159.7544 H   0  0  0  0  0  0  0  0  0  0  0  0  # atno 6909 bound_to 6896
  145.2100  139.2911  143.4273 H   0  0  0  0  0  0  0  0  0  0  0  0  # atno 7974 bound_to 7965
  154.6138  140.2482  155.7635 H   0  0  0  0  0  0  0  0  0  0  0  0  # atno 8008 bound_to 7997
  156.2386  140.2941  156.0332 H   0  0  0  0  0  0  0  0  0  0  0  0  # atno 8009 bound_to 7997
  155.2009  140.0394  157.2907 H   0  0  0  0  0  0  0  0  0  0  0  0  # atno 8010 bound_to 7997
  140.2261  144.3737  150.6432 H   0  0  0  0  0  0  0  0  0  0  0  0  # atno 10167 bound_to 10162
  156.7236  130.9279  151.3099 H   0  0  0  0  0  0  0  0  0  0  0  0  # atno 10718 bound_to 10713
  154.7266  135.5072  153.8896 H   0  0  0  0  0  0  0  0  0  0  0  0  # atno 10763 bound_to 10752
  153.0911  135.6659  153.9861 H   0  0  0  0  0  0  0  0  0  0  0  0  # atno 10764 bound_to 10752
  153.9672  135.3042  155.3409 H   0  0  0  0  0  0  0  0  0  0  0  0  # atno 10765 bound_to 10752
  139.9598  134.9605  156.9103 H   0  0  0  0  0  0  0  0  0  0  0  0  # atno 11005 bound_to 11000
  146.3399  140.2373  142.8595 LP  0  0  0  0  0  0  0  0  0  0  0  0  # atno 17320 bound_to 7965
  144.9865  140.8507  143.5365 LP  0  0  0  0  0  0  0  0  0  0  0  0  # atno 17321 bound_to 7965
  140.6220  143.2177  151.6675 LP  0  0  0  0  0  0  0  0  0  0  0  0  # atno 17342 bound_to 10162
  139.5127  144.3468  152.0689 LP  0  0  0  0  0  0  0  0  0  0  0  0  # atno 17343 bound_to 10162
  157.6888  130.9212  150.0457 LP  0  0  0  0  0  0  0  0  0  0  0  0  # atno 17370 bound_to 10713
  156.1577  130.3643  149.9344 LP  0  0  0  0  0  0  0  0  0  0  0  0  # atno 17371 bound_to 10713
  140.5525  134.0613  155.7373 LP  0  0  0  0  0  0  0  0  0  0  0  0  # atno 17394 bound_to 11000
  141.1274  133.9359  157.2606 LP  0  0  0  0  0  0  0  0  0  0  0  0  # atno 17395 bound_to 11000

$$$$
