AV-unprocessed.smi:1213|AV-procd|sdf|5091|dock4
  -GOLD-   22720 4143D 1   1.00000     0.00000
 Structure written by MMmdl.
 36 37  0  0  0  0  0  0  0  0  3 V2000
  144.9646  138.4075  152.2142 N   0  0  0  0  0  0  0  0  0  0  0  0
  146.2752  138.2599  152.4219 C   0  0  0  0  0  0  0  0  0  0  0  0
  147.1054  138.4548  151.5357 O   0  0  0  0  0  0  0  0  0  0  0  0
  146.7100  137.8555  153.8345 C   0  0  0  0  0  0  0  0  0  0  0  0
  148.1824  137.7131  153.9731 N   0  3  2  0  0  0  0  0  0  0  0  0
  148.5841  137.0168  155.2250 C   0  0  0  0  0  0  0  0  0  0  0  0
  150.1043  136.7820  155.2675 C   0  0  0  0  0  0  0  0  0  0  0  0
  150.8904  138.0982  155.1064 C   0  0  2  0  0  0  0  0  0  0  0  0
  150.7246  138.9728  156.2669 N   0  0  0  0  0  0  0  0  0  0  0  0
  151.7019  139.5887  156.9464 C   0  0  0  0  0  0  0  0  0  0  0  0
  152.8762  139.4545  156.5959 O   0  0  0  0  0  0  0  0  0  0  0  0
  151.2528  140.3142  157.9948 N   0  5  0  0  0  0  0  0  0  0  0  0
  151.5752  141.6135  158.1009 C   0  0  0  0  0  0  0  0  0  0  0  0
  150.9711  142.5748  157.3934 N   0  0  0  0  0  0  0  0  0  0  0  0
  151.4560  143.8545  157.6693 C   0  0  0  0  0  0  0  0  0  0  0  0
  152.4475  143.8686  158.6140 C   0  0  0  0  0  0  0  0  0  0  0  0
  152.8028  142.2653  159.1905 S   0  0  0  0  0  0  0  0  0  0  0  0
  150.4201  138.8187  153.8318 C   0  0  0  0  0  0  0  0  0  0  0  0
  148.8916  139.0085  153.8111 C   0  0  0  0  0  0  0  0  0  0  0  0
  144.6291  138.6749  151.2996 H   0  0  0  0  0  0  0  0  0  0  0  0
  144.3105  138.2542  152.9683 H   0  0  0  0  0  0  0  0  0  0  0  0
  146.3524  138.6384  154.5045 H   0  0  0  0  0  0  0  0  0  0  0  0
  146.2149  136.9321  154.1401 H   0  0  0  0  0  0  0  0  0  0  0  0
  148.2688  137.6044  156.0888 H   0  0  0  0  0  0  0  0  0  0  0  0
  148.0751  136.0556  155.2993 H   0  0  0  0  0  0  0  0  0  0  0  0
  150.3787  136.2802  156.1960 H   0  0  0  0  0  0  0  0  0  0  0  0
  150.3824  136.0984  154.4644 H   0  0  0  0  0  0  0  0  0  0  0  0
  151.9525  137.8708  155.0007 H   0  0  0  0  0  0  0  0  0  0  0  0
  149.7809  139.1283  156.5890 H   0  0  0  0  0  0  0  0  0  0  0  0
  151.0354  144.7003  157.1461 H   0  0  0  0  0  0  0  0  0  0  0  0
  152.9859  144.7180  159.0060 H   0  0  0  0  0  0  0  0  0  0  0  0
  150.9190  139.7842  153.7382 H   0  0  0  0  0  0  0  0  0  0  0  0
  150.7203  138.2370  152.9591 H   0  0  0  0  0  0  0  0  0  0  0  0
  148.6049  139.4682  152.8647 H   0  0  0  0  0  0  0  0  0  0  0  0
  148.5814  139.6947  154.6010 H   0  0  0  0  0  0  0  0  0  0  0  0
  148.4814  137.1294  153.2046 H   0  0  0  0  0  0  0  0  0  0  0  0
  1  2  1  0  0  0  0
  1 20  1  0  0  0  0
  1 21  1  0  0  0  0
  2  3  2  0  0  0  0
  2  4  1  0  0  0  0
  4  5  1  0  0  0  0
  4 22  1  0  0  0  0
  4 23  1  0  0  0  0
  5 19  1  0  0  0  0
  5  6  1  0  0  0  0
  5 36  1  0  0  0  0
  6  7  1  0  0  0  0
  6 24  1  0  0  0  0
  6 25  1  0  0  0  0
  7  8  1  0  0  0  0
  7 26  1  0  0  0  0
  7 27  1  0  0  0  0
  8  9  1  0  0  0  0
  8 18  1  0  0  0  0
  8 28  1  0  0  0  0
  9 10  1  0  0  0  0
  9 29  1  0  0  0  0
 10 11  2  0  0  0  0
 10 12  1  0  0  0  0
 12 13  1  0  0  0  0
 13 17  1  0  0  0  0
 13 14  2  0  0  0  0
 14 15  1  0  0  0  0
 15 16  2  0  0  0  0
 15 30  1  0  0  0  0
 16 17  1  0  0  0  0
 16 31  1  0  0  0  0
 18 19  1  0  0  0  0
 18 32  1  0  0  0  0
 18 33  1  0  0  0  0
 19 34  1  0  0  0  0
 19 35  1  0  0  0  0
M  CHG  1   5   1
M  CHG  1  12  -1
M  END
> <s_m_source_file>
AV-unprocessed.smi

> <i_m_source_file_index>
1213

> <i_lp_mmshare_version>
43012

> <i_f3d_flags>
0

> <s_epik_input>
W05IMl1DKD1PKVtDSDJdTjFbQ0gyXVtDSDJdW0NIXShbQ0gyXVtDSDJdMSlbTkhdQyg9TylbTkhdYzJuW2NIXVtjSF1zMg==

> <s_epik_cmdline>
J2VwaWtfcHl0aG9uJywgJy1waCcsICc3LjAnLCAnLXRuJywgJzgnLCAnLW1hJywgJzIwMCcsICctbWV0YWxfYmluZGluZycsICctaW1hZScsICc8aW5maWxlLm1hZT4nLCAnLW9tYWUnLCAnPG91dGZpbGUubWFlPic=

> <r_lp_tautomer_probability>
0.999

> <r_epik_Ionization_Penalty>
7.1168

> <r_epik_Ionization_Penalty_Charging>
6.25003

> <r_epik_Ionization_Penalty_Neutral>
0.866763

> <r_epik_State_Penalty>
6.33484

> <r_epik_Charging_Adjusted_Penalty>
12.5849

> <i_epik_Tot_Q>
0

> <i_epik_Tot_abs_Q>
2

> <r_epik_Metal_State_Penalty>
2.3501

> <b_epik_Metal_Only>
1

> <s_lp_Force_Field>
OPLS_2005

> <r_lp_Energy>
4.12503

> <b_lp_Chiralities_Consistent>
1

> <s_lp_Variant>
AV-unprocessed.smi:1213-8

> <Gold.Version>
5.8.1

> <Gold.Id.Protein>
6NUR|6NUR_protein|mol2

> <Gold.PLP.Fitness>
43.6851

> <Gold.PLP.PLP>
-28.5230

> <Gold.PLP.part.hbond>
-4.7231

> <Gold.PLP.part.metal>
0.0000

> <Gold.PLP.part.buried>
-2.8148

> <Gold.PLP.part.nonpolar>
-24.5393

> <Gold.PLP.part.repulsive>
3.2716

> <Gold.PLP.ligand.clash>
0.0000

> <Gold.PLP.ligand.torsion>
1.4006

> <Gold.PLP.Chemscore.Hbond>
5.0000

> <Gold.PLP.Chemscore.CHOScore>
0.9611

> <Gold.PLP.Chemscore.Metal>
0.0000

> <Gold.Chemscore.Hbonds>
donor molecule, donor type, donor heavy atom, donor atom, acceptor molecule, acceptor atom, score
      L1  H     1    20       P1 10171  1.00
      L1  H     5    36       P1  7948  2.00
      P1  H  7954  7966       L1     3  0.99
      P1  H  7997  8010       L1    11  1.00
      L1  C    15    30       P1  8028  0.86

> <Gold.PLP.Chemscore.Internal.Correction>
0.0801

> <Gold.Rescore>
     Score         DG    S(hbond)    S(metal)    S(lipo)     H(rot)  DE(clash)    DE(int)     intcor
     18.09     -21.19       3.97        0.00      65.56       2.04       1.63       1.47       ----

> <Gold.Chemscore.Fitness>
18.0911

> <Gold.Chemscore.DG>
-21.1909

> <Gold.Chemscore.ZeroCoef>
-5.4800

> <Gold.Chemscore.Hbond>
3.9689

> <Gold.Chemscore.Metal>
0.0000

> <Gold.Chemscore.Lipo>
65.5550

> <Gold.Chemscore.Internal_Hbond>
0.0000

> <Gold.Chemscore.DEClash>
1.6269

> <Gold.Chemscore.DEInternal>
1.4729

> <Gold.Chemscore.Rot>
2.0373

> <Gold.Chemscore.Internal.Correction>
   9.000000E+99

> <Gold.Chemscore.Hbonds>
donor molecule, donor type, donor heavy atom, donor atom, acceptor molecule, acceptor atom, score
      L1  H     1    20       P1 10171  1.00
      L1  H     5    36       P1  7948  1.00
      P1  H  7954  7966       L1     3  0.92
      P1  H  7997  8010       L1    11  0.99

> <Gold.Chemscore.Hbond.Weighted>
-13.2563

> <Gold.Chemscore.Metal.Weighted>
-0.0000

> <Gold.Chemscore.Lipo.Weighted>
-7.6699

> <Gold.Chemscore.Internal_Hbond.Weighted>
0.0000

> <Gold.Chemscore.DEClash.Weighted>
1.6269

> <Gold.Chemscore.DEInternal.Weighted>
1.4729

> <Gold.Chemscore.Rot.Weighted>
5.2154

> <Gold.Chemscore.Internal.Correction.Weighted>
   9.000000E+99

> <Gold.Protein.RotatedTorsions>
[ 6907 6896 6895 6894 ] final   11.34 input  -60.11 | X-H torsion
[ 7974 7965 7964 7962 ] final -105.62 input  175.53 | X-H torsion
[ 8008 7997 7996 7995 ] final   79.40 input   59.86 | X-H torsion
[ 10167 10162 10161 10158 ] final -163.82 input  -65.29 | X-H torsion
[ 10718 10713 10712 10709 ] final  109.22 input   66.30 | X-H torsion
[ 10763 10752 10751 10750 ] final   26.52 input  -60.55 | X-H torsion
[ 11005 11000 10999 10996 ] final -152.29 input  -57.11 | X-H torsion

> <Gold.Protein.ActiveResidues>
 VAL166  LYS551  ARG553  GLY616  TRP617  ASP618  TYR619  PRO620  LYS621  CYS622 
 ASP623  PHE694  ASN695  SER759  ASP760  ASP761  ALA762  ILE779  LEU786  VAL792 
 PHE793  MET794  SER795  GLU796  ALA797  LYS798  CYS799  TRP800  GLU811  SER814 

> <Gold.Protein.RotatedAtoms>
  151.7527  135.0829  160.0333 H   0  0  0  0  0  0  0  0  0  0  0  0  # atno 6907 bound_to 6896
  152.3406  133.6058  159.5882 H   0  0  0  0  0  0  0  0  0  0  0  0  # atno 6908 bound_to 6896
  150.7477  133.9645  159.3567 H   0  0  0  0  0  0  0  0  0  0  0  0  # atno 6909 bound_to 6896
  145.2281  140.9160  143.3220 H   0  0  0  0  0  0  0  0  0  0  0  0  # atno 7974 bound_to 7965
  155.8692  140.3450  155.5809 H   0  0  0  0  0  0  0  0  0  0  0  0  # atno 8008 bound_to 7997
  155.7846  140.0863  157.2060 H   0  0  0  0  0  0  0  0  0  0  0  0  # atno 8009 bound_to 7997
  154.4016  140.1494  156.3080 H   0  0  0  0  0  0  0  0  0  0  0  0  # atno 8010 bound_to 7997
  139.6294  144.0469  152.2002 H   0  0  0  0  0  0  0  0  0  0  0  0  # atno 10167 bound_to 10162
  157.6551  131.0909  150.6421 H   0  0  0  0  0  0  0  0  0  0  0  0  # atno 10718 bound_to 10713
  153.0617  135.6558  154.0448 H   0  0  0  0  0  0  0  0  0  0  0  0  # atno 10763 bound_to 10752
  154.0115  135.2928  155.3393 H   0  0  0  0  0  0  0  0  0  0  0  0  # atno 10764 bound_to 10752
  154.6957  135.5265  153.8524 H   0  0  0  0  0  0  0  0  0  0  0  0  # atno 10765 bound_to 10752
  140.7204  134.3733  157.5184 H   0  0  0  0  0  0  0  0  0  0  0  0  # atno 11005 bound_to 11000
  144.9702  139.3888  143.6313 LP  0  0  0  0  0  0  0  0  0  0  0  0  # atno 17320 bound_to 7965
  146.3360  139.8796  142.8826 LP  0  0  0  0  0  0  0  0  0  0  0  0  # atno 17321 bound_to 7965
  140.0131  144.6209  150.7630 LP  0  0  0  0  0  0  0  0  0  0  0  0  # atno 17342 bound_to 10162
  140.7430  143.2840  151.3517 LP  0  0  0  0  0  0  0  0  0  0  0  0  # atno 17343 bound_to 10162
  156.6728  130.4544  149.5652 LP  0  0  0  0  0  0  0  0  0  0  0  0  # atno 17370 bound_to 10713
  156.1985  130.6605  151.1141 LP  0  0  0  0  0  0  0  0  0  0  0  0  # atno 17371 bound_to 10713
  139.8849  134.8951  156.2673 LP  0  0  0  0  0  0  0  0  0  0  0  0  # atno 17394 bound_to 11000
  141.0008  133.7152  156.0957 LP  0  0  0  0  0  0  0  0  0  0  0  0  # atno 17395 bound_to 11000

$$$$
