AV-unprocessed.smi:3232|AV-procd|sdf|12341|dock6
  -GOLD-   2272018203D 1   1.00000     0.00000
 Structure written by MMmdl.
 40 41  0  0  0  0  0  0  0  0  2 V2000
  145.7568  131.9950  149.4930 C   0  0  0  0  0  0  0  0  0  0  0  0
  145.7258  131.5304  150.9558 C   0  0  0  0  0  0  0  0  0  0  0  0
  146.9669  131.8874  151.6871 N   0  3  2  0  0  0  0  0  0  0  0  0
  147.1267  131.2189  152.9982 C   0  0  0  0  0  0  0  0  0  0  0  0
  148.0104  132.1390  153.8522 C   0  0  0  0  0  0  0  0  0  0  0  0
  148.4182  133.2735  152.9130 C   0  0  0  0  0  0  0  0  0  0  0  0
  147.2844  133.3250  151.8806 C   0  0  2  0  0  0  0  0  0  0  0  0
  146.0644  134.1667  152.3418 C   0  0  0  0  0  0  0  0  0  0  0  0
  146.3593  135.5959  152.3849 N   0  0  0  0  0  0  0  0  0  0  0  0
  145.4662  136.5681  152.6312 C   0  0  0  0  0  0  0  0  0  0  0  0
  144.2786  136.3456  152.8697 O   0  0  0  0  0  0  0  0  0  0  0  0
  146.0006  138.0076  152.6082 C   0  0  2  0  0  0  0  0  0  0  0  0
  146.6469  138.3664  151.2550 C   0  0  0  0  0  0  0  0  0  0  0  0
  146.9037  138.2240  153.7319 N   0  0  0  0  0  0  0  0  0  0  0  0
  148.2115  138.4918  153.7402 C   0  0  0  0  0  0  0  0  0  0  0  0
  148.7158  138.6826  154.9512 N   0  0  0  0  0  0  0  0  0  0  0  0
  147.5834  138.5190  155.6975 C   0  0  0  0  0  0  0  0  0  0  0  0
  146.4686  138.2546  155.0165 N   0  0  0  0  0  0  0  0  0  0  0  0
  144.8687  131.6517  148.9620 H   0  0  0  0  0  0  0  0  0  0  0  0
  146.6273  131.5963  148.9713 H   0  0  0  0  0  0  0  0  0  0  0  0
  145.7859  133.0817  149.4128 H   0  0  0  0  0  0  0  0  0  0  0  0
  144.8437  131.9149  151.4685 H   0  0  0  0  0  0  0  0  0  0  0  0
  145.6299  130.4439  150.9678 H   0  0  0  0  0  0  0  0  0  0  0  0
  146.1587  131.0791  153.4822 H   0  0  0  0  0  0  0  0  0  0  0  0
  147.5766  130.2355  152.8599 H   0  0  0  0  0  0  0  0  0  0  0  0
  147.4328  132.5364  154.6883 H   0  0  0  0  0  0  0  0  0  0  0  0
  148.8755  131.6199  154.2657 H   0  0  0  0  0  0  0  0  0  0  0  0
  148.6022  134.2115  153.4351 H   0  0  0  0  0  0  0  0  0  0  0  0
  149.3484  133.0036  152.4106 H   0  0  0  0  0  0  0  0  0  0  0  0
  147.6589  133.7377  150.9429 H   0  0  0  0  0  0  0  0  0  0  0  0
  145.2396  134.0545  151.6391 H   0  0  0  0  0  0  0  0  0  0  0  0
  145.6894  133.8138  153.3040 H   0  0  0  0  0  0  0  0  0  0  0  0
  147.3139  135.8692  152.2006 H   0  0  0  0  0  0  0  0  0  0  0  0
  145.1534  138.6817  152.7473 H   0  0  0  0  0  0  0  0  0  0  0  0
  145.9352  138.2466  150.4374 H   0  0  0  0  0  0  0  0  0  0  0  0
  147.5122  137.7410  151.0319 H   0  0  0  0  0  0  0  0  0  0  0  0
  146.9799  139.4045  151.2469 H   0  0  0  0  0  0  0  0  0  0  0  0
  148.8065  138.5519  152.8407 H   0  0  0  0  0  0  0  0  0  0  0  0
  147.5788  138.6049  156.7741 H   0  0  0  0  0  0  0  0  0  0  0  0
  147.7283  131.5312  151.1269 H   0  0  0  0  0  0  0  0  0  0  0  0
  1  2  1  0  0  0  0
  1 19  1  0  0  0  0
  1 20  1  0  0  0  0
  1 21  1  0  0  0  0
  2  3  1  0  0  0  0
  2 22  1  0  0  0  0
  2 23  1  0  0  0  0
  3  7  1  0  0  0  0
  3  4  1  0  0  0  0
  3 40  1  0  0  0  0
  4  5  1  0  0  0  0
  4 24  1  0  0  0  0
  4 25  1  0  0  0  0
  5  6  1  0  0  0  0
  5 26  1  0  0  0  0
  5 27  1  0  0  0  0
  6  7  1  0  0  0  0
  6 28  1  0  0  0  0
  6 29  1  0  0  0  0
  7  8  1  0  0  0  0
  7 30  1  0  0  0  0
  8  9  1  0  0  0  0
  8 31  1  0  0  0  0
  8 32  1  0  0  0  0
  9 10  1  0  0  0  0
  9 33  1  0  0  0  0
 10 11  2  0  0  0  0
 10 12  1  0  0  0  0
 12 13  1  0  0  0  0
 12 14  1  0  0  0  0
 12 34  1  0  0  0  0
 13 35  1  0  0  0  0
 13 36  1  0  0  0  0
 13 37  1  0  0  0  0
 14 18  1  0  0  0  0
 14 15  1  0  0  0  0
 15 16  2  0  0  0  0
 15 38  1  0  0  0  0
 16 17  1  0  0  0  0
 17 18  2  0  0  0  0
 17 39  1  0  0  0  0
M  CHG  1   3   1
M  END
> <s_m_source_file>
AV-unprocessed.smi

> <i_m_source_file_index>
3232

> <i_lp_mmshare_version>
43012

> <i_f3d_flags>
0

> <s_epik_input>
W0NIM11bQ0gyXU4xW0NIMl1bQ0gyXVtDSDJdW0NASF0xW0NIMl1bTkhdQyg9TylbQ0BIXShbQ0gzXSluMltjSF1uW2NIXW4y

> <s_epik_cmdline>
J2VwaWtfcHl0aG9uJywgJy1waCcsICc3LjAnLCAnLXRuJywgJzgnLCAnLW1hJywgJzIwMCcsICctbWV0YWxfYmluZGluZycsICctaW1hZScsICc8aW5maWxlLm1hZT4nLCAnLW9tYWUnLCAnPG91dGZpbGUubWFlPic=

> <r_lp_tautomer_probability>
1

> <r_epik_Ionization_Penalty>
0.00177695

> <r_epik_Ionization_Penalty_Charging>
0.00176881

> <r_epik_Ionization_Penalty_Neutral>
8.13528e-06

> <r_epik_State_Penalty>
0.00119827

> <r_epik_Charging_Adjusted_Penalty>
0.00296709

> <i_epik_Tot_Q>
1

> <i_epik_Tot_abs_Q>
1

> <r_epik_Metal_State_Penalty>
-0

> <b_epik_Metal_Only>
0

> <s_lp_Force_Field>
OPLS_2005

> <r_lp_Energy>
38.6691

> <b_lp_Chiralities_Consistent>
1

> <s_lp_Variant>
AV-unprocessed.smi:3232-3

> <Gold.Version>
5.8.1

> <Gold.Id.Protein>
6NUR|6NUR_protein|mol2

> <Gold.PLP.Fitness>
35.8959

> <Gold.PLP.PLP>
-25.6715

> <Gold.PLP.part.hbond>
-2.0000

> <Gold.PLP.part.metal>
0.0000

> <Gold.PLP.part.buried>
1.2045

> <Gold.PLP.part.nonpolar>
-24.5486

> <Gold.PLP.part.repulsive>
0.2591

> <Gold.PLP.ligand.clash>
0.0000

> <Gold.PLP.ligand.torsion>
0.3575

> <Gold.PLP.Chemscore.Hbond>
2.0000

> <Gold.PLP.Chemscore.CHOScore>
1.6018

> <Gold.PLP.Chemscore.Metal>
0.0000

> <Gold.Chemscore.Hbonds>
donor molecule, donor type, donor heavy atom, donor atom, acceptor molecule, acceptor atom, score
      L1  H     3    40       P1 10747  1.00
      L1  H     9    33       P1  7948  1.00
      L1  C    15    38       P1  7948  0.58
      L1  C    15    38       P1  7957  1.00

> <Gold.PLP.Chemscore.Internal.Correction>
0.1340

> <Gold.Rescore>
     Score         DG    S(hbond)    S(metal)    S(lipo)     H(rot)  DE(clash)    DE(int)     intcor
     13.26     -13.49       2.00        0.00      65.87       2.49       0.04       0.18       ----

> <Gold.Chemscore.Fitness>
13.2610

> <Gold.Chemscore.DG>
-13.4889

> <Gold.Chemscore.ZeroCoef>
-5.4800

> <Gold.Chemscore.Hbond>
1.9975

> <Gold.Chemscore.Metal>
0.0000

> <Gold.Chemscore.Lipo>
65.8705

> <Gold.Chemscore.Internal_Hbond>
0.0000

> <Gold.Chemscore.DEClash>
0.0433

> <Gold.Chemscore.DEInternal>
0.1845

> <Gold.Chemscore.Rot>
2.4882

> <Gold.Chemscore.Internal.Correction>
   9.000000E+99

> <Gold.Chemscore.Hbonds>
donor molecule, donor type, donor heavy atom, donor atom, acceptor molecule, acceptor atom, score
      L1  H     3    40       P1 10747  1.00
      L1  H     9    33       P1  7948  1.00

> <Gold.Chemscore.Hbond.Weighted>
-6.6718

> <Gold.Chemscore.Metal.Weighted>
-0.0000

> <Gold.Chemscore.Lipo.Weighted>
-7.7068

> <Gold.Chemscore.Internal_Hbond.Weighted>
0.0000

> <Gold.Chemscore.DEClash.Weighted>
0.0433

> <Gold.Chemscore.DEInternal.Weighted>
0.1845

> <Gold.Chemscore.Rot.Weighted>
6.3697

> <Gold.Chemscore.Internal.Correction.Weighted>
   9.000000E+99

> <Gold.Protein.RotatedTorsions>
[ 6907 6896 6895 6894 ] final   37.49 input  -60.11 | X-H torsion
[ 7974 7965 7964 7962 ] final    9.79 input  175.53 | X-H torsion
[ 8008 7997 7996 7995 ] final   30.53 input   59.86 | X-H torsion
[ 10167 10162 10161 10158 ] final   57.16 input  -65.29 | X-H torsion
[ 10718 10713 10712 10709 ] final   85.74 input   66.30 | X-H torsion
[ 10763 10752 10751 10750 ] final   29.38 input  -60.55 | X-H torsion
[ 11005 11000 10999 10996 ] final   27.55 input  -57.11 | X-H torsion

> <Gold.Protein.ActiveResidues>
 VAL166  LYS551  ARG553  GLY616  TRP617  ASP618  TYR619  PRO620  LYS621  CYS622 
 ASP623  PHE694  ASN695  SER759  ASP760  ASP761  ALA762  ILE779  LEU786  VAL792 
 PHE793  MET794  SER795  GLU796  ALA797  LYS798  CYS799  TRP800  GLU811  SER814 

> <Gold.Protein.RotatedAtoms>
  152.1438  134.9042  160.0551 H   0  0  0  0  0  0  0  0  0  0  0  0  # atno 6907 bound_to 6896
  152.0099  133.3852  159.4224 H   0  0  0  0  0  0  0  0  0  0  0  0  # atno 6908 bound_to 6896
  150.6868  134.3663  159.5016 H   0  0  0  0  0  0  0  0  0  0  0  0  # atno 6909 bound_to 6896
  146.2398  139.9731  142.8444 H   0  0  0  0  0  0  0  0  0  0  0  0  # atno 7974 bound_to 7965
  155.0918  140.3221  155.4571 H   0  0  0  0  0  0  0  0  0  0  0  0  # atno 8008 bound_to 7997
  156.2740  140.2076  156.5992 H   0  0  0  0  0  0  0  0  0  0  0  0  # atno 8009 bound_to 7997
  154.6897  140.0517  157.0338 H   0  0  0  0  0  0  0  0  0  0  0  0  # atno 8010 bound_to 7997
  140.2009  144.3988  150.6529 H   0  0  0  0  0  0  0  0  0  0  0  0  # atno 10167 bound_to 10162
  157.6919  131.0187  150.2868 H   0  0  0  0  0  0  0  0  0  0  0  0  # atno 10718 bound_to 10713
  153.0434  135.6490  154.0882 H   0  0  0  0  0  0  0  0  0  0  0  0  # atno 10763 bound_to 10752
  154.0584  135.2890  155.3330 H   0  0  0  0  0  0  0  0  0  0  0  0  # atno 10764 bound_to 10752
  154.6673  135.5369  153.8159 H   0  0  0  0  0  0  0  0  0  0  0  0  # atno 10765 bound_to 10752
  140.3251  134.2500  155.7711 H   0  0  0  0  0  0  0  0  0  0  0  0  # atno 11005 bound_to 11000
  145.1662  140.9698  143.4348 LP  0  0  0  0  0  0  0  0  0  0  0  0  # atno 17320 bound_to 7965
  145.0070  139.3545  143.6139 LP  0  0  0  0  0  0  0  0  0  0  0  0  # atno 17321 bound_to 7965
  140.6391  143.2200  151.6330 LP  0  0  0  0  0  0  0  0  0  0  0  0  # atno 17342 bound_to 10162
  139.5217  144.3184  152.0932 LP  0  0  0  0  0  0  0  0  0  0  0  0  # atno 17343 bound_to 10162
  156.3406  130.3815  149.7412 LP  0  0  0  0  0  0  0  0  0  0  0  0  # atno 17370 bound_to 10713
  156.4923  130.8090  151.3099 LP  0  0  0  0  0  0  0  0  0  0  0  0  # atno 17371 bound_to 10713
  141.2077  133.7798  157.0103 LP  0  0  0  0  0  0  0  0  0  0  0  0  # atno 17394 bound_to 11000
  140.0908  134.9593  157.1773 LP  0  0  0  0  0  0  0  0  0  0  0  0  # atno 17395 bound_to 11000

$$$$
