AV-unprocessed.smi:69|AV-procd|sdf|656|dock6
  -GOLD-   2262016553D 1   1.00000     0.00000
 Structure written by MMmdl.
 32 34  0  0  0  0  0  0  0  0  1 V2000
  142.9119  134.5932  153.4034 N   0  0  0  0  0  0  0  0  0  0  0  0
  143.8613  135.2913  152.7652 C   0  0  0  0  0  0  0  0  0  0  0  0
  144.1937  134.9237  151.5052 N   0  0  0  0  0  0  0  0  0  0  0  0
  145.1343  135.6082  150.8452 C   0  0  0  0  0  0  0  0  0  0  0  0
  145.8450  136.6626  151.2561 N   0  0  0  0  0  0  0  0  0  0  0  0
  145.5083  137.0274  152.5282 C   0  0  0  0  0  0  0  0  0  0  0  0
  144.5311  136.3975  153.3461 C   0  0  0  0  0  0  0  0  0  0  0  0
  144.4567  137.0429  154.5731 N   0  0  0  0  0  0  0  0  0  0  0  0
  145.3388  138.0023  154.4787 C   0  0  0  0  0  0  0  0  0  0  0  0
  146.0260  138.0576  153.2828 N   0  0  0  0  0  0  0  0  0  0  0  0
  147.0785  139.0232  152.8307 C   0  0  1  0  0  0  0  0  0  0  0  0
  146.5450  140.3118  152.8962 O   0  0  0  0  0  0  0  0  0  0  0  0
  146.9136  140.9146  154.1320 C   0  0  2  0  0  0  0  0  0  0  0  0
  146.7154  142.4398  154.0942 C   0  0  0  0  0  0  0  0  0  0  0  0
  145.3441  142.7450  153.9534 O   0  0  0  0  0  0  0  0  0  0  0  0
  148.3606  140.4342  154.2914 C   0  0  2  0  0  0  0  0  0  0  0  0
  149.2372  141.2290  153.5086 O   0  0  0  0  0  0  0  0  0  0  0  0
  148.2773  138.9892  153.7997 C   0  0  2  0  0  0  0  0  0  0  0  0
  149.4782  138.5448  153.1961 O   0  0  0  0  0  0  0  0  0  0  0  0
  147.3018  138.7355  151.8024 H   0  0  0  0  0  0  0  0  0  0  0  0
  146.3186  140.4809  154.9382 H   0  0  0  0  0  0  0  0  0  0  0  0
  148.6923  140.4857  155.3290 H   0  0  0  0  0  0  0  0  0  0  0  0
  148.0454  138.3365  154.6431 H   0  0  0  0  0  0  0  0  0  0  0  0
  142.6461  134.8505  154.3431 H   0  0  0  0  0  0  0  0  0  0  0  0
  142.4592  133.8174  152.9420 H   0  0  0  0  0  0  0  0  0  0  0  0
  145.3479  135.2614  149.8449 H   0  0  0  0  0  0  0  0  0  0  0  0
  145.5081  138.6977  155.2882 H   0  0  0  0  0  0  0  0  0  0  0  0
  147.0545  142.8855  155.0298 H   0  0  0  0  0  0  0  0  0  0  0  0
  147.2889  142.8973  153.2874 H   0  0  0  0  0  0  0  0  0  0  0  0
  144.8814  141.9518  153.7305 H   0  0  0  0  0  0  0  0  0  0  0  0
  149.3747  140.7915  152.6818 H   0  0  0  0  0  0  0  0  0  0  0  0
  149.4704  138.8104  152.2888 H   0  0  0  0  0  0  0  0  0  0  0  0
  1  2  1  0  0  0  0
  1 24  1  0  0  0  0
  1 25  1  0  0  0  0
  2  7  1  0  0  0  0
  2  3  2  0  0  0  0
  3  4  1  0  0  0  0
  4  5  2  0  0  0  0
  4 26  1  0  0  0  0
  5  6  1  0  0  0  0
  6 10  1  0  0  0  0
  6  7  2  0  0  0  0
  7  8  1  0  0  0  0
  8  9  2  0  0  0  0
  9 10  1  0  0  0  0
  9 27  1  0  0  0  0
 10 11  1  0  0  0  0
 11 20  1  0  0  0  0
 11 18  1  0  0  0  0
 11 12  1  0  0  0  0
 12 13  1  0  0  0  0
 13 21  1  0  0  0  0
 13 14  1  0  0  0  0
 13 16  1  0  0  0  0
 14 15  1  0  0  0  0
 14 28  1  0  0  0  0
 14 29  1  0  0  0  0
 15 30  1  0  0  0  0
 16 22  1  0  0  0  0
 16 17  1  0  0  0  0
 16 18  1  0  0  0  0
 17 31  1  0  0  0  0
 18 23  1  0  0  0  0
 18 19  1  0  0  0  0
 19 32  1  0  0  0  0
M  END
> <s_m_source_file>
AV-unprocessed.smi

> <i_m_source_file_index>
69

> <i_lp_mmshare_version>
43012

> <i_f3d_flags>
0

> <s_epik_input>
bjFbY0hdbmMoW05IMl0pYyhjMTIpbltjSF1uMltDQEBIXTNPW0NASF0oW0NIMl1bT0hdKVtDQEBIXShbT0hdKVtDQEhdM1tPSF0=

> <s_epik_cmdline>
J2VwaWtfcHl0aG9uJywgJy1waCcsICc3LjAnLCAnLXRuJywgJzgnLCAnLW1hJywgJzIwMCcsICctbWV0YWxfYmluZGluZycsICctaW1hZScsICc8aW5maWxlLm1hZT4nLCAnLW9tYWUnLCAnPG91dGZpbGUubWFlPic=

> <r_lp_tautomer_probability>
1

> <r_epik_Ionization_Penalty>
0.000428445

> <r_epik_Ionization_Penalty_Charging>
0

> <r_epik_Ionization_Penalty_Neutral>
0.000428445

> <r_epik_State_Penalty>
-0

> <r_epik_Charging_Adjusted_Penalty>
0

> <i_epik_Tot_Q>
0

> <i_epik_Tot_abs_Q>
0

> <r_epik_Metal_State_Penalty>
-0

> <b_epik_Metal_Only>
0

> <s_epik_Chemistry_Notes>
This compound contains an acetal/aminal-like group ( X-CH(R)-Y where X, Y are N, S, or O) that may be acid/base labile, releasing an aldehyde.

> <s_lp_Force_Field>
OPLS_2005

> <r_lp_Energy>
39.6726

> <b_lp_Chiralities_Consistent>
1

> <s_lp_Variant>
AV-unprocessed.smi:69-14

> <Gold.Version>
5.8.1

> <Gold.Id.Protein>
6NUR|6NUR_protein|mol2

> <Gold.PLP.Fitness>
37.4686

> <Gold.PLP.PLP>
-27.7302

> <Gold.PLP.part.hbond>
-6.9116

> <Gold.PLP.part.metal>
0.0000

> <Gold.PLP.part.buried>
-5.3687

> <Gold.PLP.part.nonpolar>
-17.8174

> <Gold.PLP.part.repulsive>
2.3424

> <Gold.PLP.ligand.clash>
0.0000

> <Gold.PLP.ligand.torsion>
0.0158

> <Gold.PLP.Chemscore.Hbond>
2.2486

> <Gold.PLP.Chemscore.CHOScore>
1.0000

> <Gold.PLP.Chemscore.Metal>
0.0000

> <Gold.Chemscore.Hbonds>
donor molecule, donor type, donor heavy atom, donor atom, acceptor molecule, acceptor atom, score
      L1  H    15    30       P1 10175  0.19
      L1  H    17    31       P1  7957  1.00
      L1  H    19    32       P1  7957  1.00
      L1  C     4    26       P1  7921  1.00

> <Gold.PLP.Chemscore.Internal.Correction>
0.0240

> <Gold.Rescore>
     Score         DG    S(hbond)    S(metal)    S(lipo)     H(rot)  DE(clash)    DE(int)     intcor
      4.18      -4.24       1.85        0.00      24.82       4.03       0.04       0.01       ----

> <Gold.Chemscore.Fitness>
4.1831

> <Gold.Chemscore.DG>
-4.2356

> <Gold.Chemscore.ZeroCoef>
-5.4800

> <Gold.Chemscore.Hbond>
1.8452

> <Gold.Chemscore.Metal>
0.0000

> <Gold.Chemscore.Lipo>
24.8180

> <Gold.Chemscore.Internal_Hbond>
0.0000

> <Gold.Chemscore.DEClash>
0.0376

> <Gold.Chemscore.DEInternal>
0.0149

> <Gold.Chemscore.Rot>
4.0277

> <Gold.Chemscore.Internal.Correction>
   9.000000E+99

> <Gold.Chemscore.Hbonds>
donor molecule, donor type, donor heavy atom, donor atom, acceptor molecule, acceptor atom, score
      L1  H    15    30       P1 10175  0.01
      L1  H    17    31       P1  7957  1.00
      L1  H    19    32       P1  7957  0.62

> <Gold.Chemscore.Hbond.Weighted>
-6.1629

> <Gold.Chemscore.Metal.Weighted>
-0.0000

> <Gold.Chemscore.Lipo.Weighted>
-2.9037

> <Gold.Chemscore.Internal_Hbond.Weighted>
0.0000

> <Gold.Chemscore.DEClash.Weighted>
0.0376

> <Gold.Chemscore.DEInternal.Weighted>
0.0149

> <Gold.Chemscore.Rot.Weighted>
10.3110

> <Gold.Chemscore.Internal.Correction.Weighted>
   9.000000E+99

> <Gold.Protein.RotatedTorsions>
[ 6907 6896 6895 6894 ] final -115.09 input  -60.11 | X-H torsion
[ 7974 7965 7964 7962 ] final  -41.35 input  175.53 | X-H torsion
[ 8008 7997 7996 7995 ] final  113.94 input   59.86 | X-H torsion
[ 10167 10162 10161 10158 ] final  156.85 input  -65.29 | X-H torsion
[ 10718 10713 10712 10709 ] final  -28.46 input   66.30 | X-H torsion
[ 10763 10752 10751 10750 ] final  -54.69 input  -60.55 | X-H torsion
[ 11005 11000 10999 10996 ] final -161.46 input  -57.11 | X-H torsion

> <Gold.Protein.ActiveResidues>
 VAL166  LYS551  ARG553  GLY616  TRP617  ASP618  TYR619  PRO620  LYS621  CYS622 
 ASP623  PHE694  ASN695  SER759  ASP760  ASP761  ALA762  ILE779  LEU786  VAL792 
 PHE793  MET794  SER795  GLU796  ALA797  LYS798  CYS799  TRP800  GLU811  SER814 

> <Gold.Protein.RotatedAtoms>
  150.7951  133.8708  159.3257 H   0  0  0  0  0  0  0  0  0  0  0  0  # atno 6907 bound_to 6896
  151.6535  135.0997  160.0175 H   0  0  0  0  0  0  0  0  0  0  0  0  # atno 6908 bound_to 6896
  152.4032  133.6810  159.6369 H   0  0  0  0  0  0  0  0  0  0  0  0  # atno 6909 bound_to 6896
  146.0219  140.6839  142.9174 H   0  0  0  0  0  0  0  0  0  0  0  0  # atno 7974 bound_to 7965
  156.2290  140.2969  156.0139 H   0  0  0  0  0  0  0  0  0  0  0  0  # atno 8008 bound_to 7997
  155.2278  140.0418  157.2975 H   0  0  0  0  0  0  0  0  0  0  0  0  # atno 8009 bound_to 7997
  154.5963  140.2415  155.7860 H   0  0  0  0  0  0  0  0  0  0  0  0  # atno 8010 bound_to 7997
  139.4822  144.4972  151.8223 H   0  0  0  0  0  0  0  0  0  0  0  0  # atno 10167 bound_to 10162
  156.4249  130.4433  149.7157 H   0  0  0  0  0  0  0  0  0  0  0  0  # atno 10718 bound_to 10713
  154.1788  135.6447  153.5029 H   0  0  0  0  0  0  0  0  0  0  0  0  # atno 10763 bound_to 10752
  153.0064  135.5401  154.6536 H   0  0  0  0  0  0  0  0  0  0  0  0  # atno 10764 bound_to 10752
  154.5894  135.2933  155.0623 H   0  0  0  0  0  0  0  0  0  0  0  0  # atno 10765 bound_to 10752
  140.6202  134.4759  157.5223 H   0  0  0  0  0  0  0  0  0  0  0  0  # atno 11005 bound_to 11000
  144.6993  140.3581  143.7169 LP  0  0  0  0  0  0  0  0  0  0  0  0  # atno 17320 bound_to 7965
  145.7179  139.1702  143.2501 LP  0  0  0  0  0  0  0  0  0  0  0  0  # atno 17321 bound_to 7965
  140.4461  144.1919  150.5894 LP  0  0  0  0  0  0  0  0  0  0  0  0  # atno 17342 bound_to 10162
  140.4633  143.2440  151.9190 LP  0  0  0  0  0  0  0  0  0  0  0  0  # atno 17343 bound_to 10162
  156.4083  130.7709  151.2721 LP  0  0  0  0  0  0  0  0  0  0  0  0  # atno 17370 bound_to 10713
  157.7508  131.0219  150.3769 LP  0  0  0  0  0  0  0  0  0  0  0  0  # atno 17371 bound_to 10713
  139.9156  134.8252  156.1376 LP  0  0  0  0  0  0  0  0  0  0  0  0  # atno 17394 bound_to 11000
  141.0748  133.6780  156.2213 LP  0  0  0  0  0  0  0  0  0  0  0  0  # atno 17395 bound_to 11000

$$$$
