AV-unprocessed.smi:1752|AV-procd|sdf|7058|dock1
  -GOLD-   22720 8273D 1   1.00000     0.00000
 Structure written by MMmdl.
 43 44  0  0  0  0  0  0  0  0  2 V2000
  149.3159  133.5013  153.7679 C   0  0  0  0  0  0  0  0  0  0  0  0
  148.3215  132.3284  153.7416 C   0  0  2  0  0  0  0  0  0  0  0  0
  148.9914  130.9578  153.5171 C   0  0  0  0  0  0  0  0  0  0  0  0
  150.0999  130.7166  154.4234 N   0  0  0  0  0  0  0  0  0  0  0  0
  151.0131  129.6835  154.4017 C   0  0  0  0  0  0  0  0  0  0  0  0
  151.8682  129.8749  155.4489 C   0  0  0  0  0  0  0  0  0  0  0  0
  151.3924  131.0690  156.0594 C   0  0  0  0  0  0  0  0  0  0  0  0
  150.3354  131.5717  155.4420 N   0  0  0  0  0  0  0  0  0  0  0  0
  147.3370  132.5550  152.6866 N   0  0  0  0  0  0  0  0  0  0  0  0
  146.5906  133.6605  152.5143 C   0  0  0  0  0  0  0  0  0  0  0  0
  146.6909  134.6503  153.2404 O   0  0  0  0  0  0  0  0  0  0  0  0
  145.7668  133.6166  151.4368 N   0  0  0  0  0  0  0  0  0  0  0  0
  145.2511  132.3619  150.8439 C   0  0  0  0  0  0  0  0  0  0  0  0
  143.8451  132.4894  150.2112 C   0  0  0  0  0  0  0  0  0  0  0  0
  142.7356  132.9765  151.1685 C   0  0  0  0  0  0  0  0  0  0  0  0
  143.1257  134.0935  152.0709 N   0  3  2  0  0  0  0  0  0  0  0  0
  141.9897  134.5478  152.9029 C   0  0  0  0  0  0  0  0  0  0  0  0
  143.8328  135.2282  151.4179 C   0  0  0  0  0  0  0  0  0  0  0  0
  145.2289  134.8608  150.8603 C   0  0  0  0  0  0  0  0  0  0  0  0
  150.0338  133.4003  154.5821 H   0  0  0  0  0  0  0  0  0  0  0  0
  148.7978  134.4502  153.9115 H   0  0  0  0  0  0  0  0  0  0  0  0
  149.8776  133.5658  152.8354 H   0  0  0  0  0  0  0  0  0  0  0  0
  147.8270  132.2991  154.7139 H   0  0  0  0  0  0  0  0  0  0  0  0
  148.2633  130.1574  153.6562 H   0  0  0  0  0  0  0  0  0  0  0  0
  149.3508  130.8749  152.4894 H   0  0  0  0  0  0  0  0  0  0  0  0
  150.9768  128.9058  153.6531 H   0  0  0  0  0  0  0  0  0  0  0  0
  152.7058  129.2564  155.7358 H   0  0  0  0  0  0  0  0  0  0  0  0
  151.7812  131.5816  156.9269 H   0  0  0  0  0  0  0  0  0  0  0  0
  147.2115  131.8023  152.0255 H   0  0  0  0  0  0  0  0  0  0  0  0
  145.9618  132.0183  150.0913 H   0  0  0  0  0  0  0  0  0  0  0  0
  145.1901  131.5737  151.5964 H   0  0  0  0  0  0  0  0  0  0  0  0
  143.8753  133.1274  149.3285 H   0  0  0  0  0  0  0  0  0  0  0  0
  143.5532  131.5139  149.8209 H   0  0  0  0  0  0  0  0  0  0  0  0
  141.8622  133.2673  150.5830 H   0  0  0  0  0  0  0  0  0  0  0  0
  142.4224  132.1406  151.7956 H   0  0  0  0  0  0  0  0  0  0  0  0
  141.2212  135.0199  152.2892 H   0  0  0  0  0  0  0  0  0  0  0  0
  142.3203  135.2679  153.6521 H   0  0  0  0  0  0  0  0  0  0  0  0
  141.5377  133.7076  153.4315 H   0  0  0  0  0  0  0  0  0  0  0  0
  143.2083  135.6637  150.6365 H   0  0  0  0  0  0  0  0  0  0  0  0
  143.9738  136.0088  152.1668 H   0  0  0  0  0  0  0  0  0  0  0  0
  145.9124  135.6976  151.0157 H   0  0  0  0  0  0  0  0  0  0  0  0
  145.1944  134.7705  149.7748 H   0  0  0  0  0  0  0  0  0  0  0  0
  143.7966  133.7017  152.7165 H   0  0  0  0  0  0  0  0  0  0  0  0
  1  2  1  0  0  0  0
  1 20  1  0  0  0  0
  1 21  1  0  0  0  0
  1 22  1  0  0  0  0
  2  3  1  0  0  0  0
  2  9  1  0  0  0  0
  2 23  1  0  0  0  0
  3  4  1  0  0  0  0
  3 24  1  0  0  0  0
  3 25  1  0  0  0  0
  4  8  1  0  0  0  0
  4  5  1  0  0  0  0
  5  6  2  0  0  0  0
  5 26  1  0  0  0  0
  6  7  1  0  0  0  0
  6 27  1  0  0  0  0
  7  8  2  0  0  0  0
  7 28  1  0  0  0  0
  9 10  1  0  0  0  0
  9 29  1  0  0  0  0
 10 11  2  0  0  0  0
 10 12  1  0  0  0  0
 12 19  1  0  0  0  0
 12 13  1  0  0  0  0
 13 14  1  0  0  0  0
 13 30  1  0  0  0  0
 13 31  1  0  0  0  0
 14 15  1  0  0  0  0
 14 32  1  0  0  0  0
 14 33  1  0  0  0  0
 15 16  1  0  0  0  0
 15 34  1  0  0  0  0
 15 35  1  0  0  0  0
 16 17  1  0  0  0  0
 16 18  1  0  0  0  0
 16 43  1  0  0  0  0
 17 36  1  0  0  0  0
 17 37  1  0  0  0  0
 17 38  1  0  0  0  0
 18 19  1  0  0  0  0
 18 39  1  0  0  0  0
 18 40  1  0  0  0  0
 19 41  1  0  0  0  0
 19 42  1  0  0  0  0
M  CHG  1  16   1
M  END
> <s_m_source_file>
AV-unprocessed.smi

> <i_m_source_file_index>
1752

> <i_lp_mmshare_version>
43012

> <i_f3d_flags>
0

> <s_epik_input>
bjFbY0hdW2NIXVtjSF1uMVtDSDJdW0NAQEhdKFtDSDNdKVtOSF1DKD1PKU4yW0NIMl1bQ0gyXVtDSDJdTihbQ0gzXSlbQ0gyXVtDSDJdMg==

> <s_epik_cmdline>
J2VwaWtfcHl0aG9uJywgJy1waCcsICc3LjAnLCAnLXRuJywgJzgnLCAnLW1hJywgJzIwMCcsICctbWV0YWxfYmluZGluZycsICctaW1hZScsICc8aW5maWxlLm1hZT4nLCAnLW9tYWUnLCAnPG91dGZpbGUubWFlPic=

> <r_lp_tautomer_probability>
1

> <r_epik_Ionization_Penalty>
0.00208423

> <r_epik_Ionization_Penalty_Charging>
0.00203643

> <r_epik_Ionization_Penalty_Neutral>
4.77939e-05

> <r_epik_State_Penalty>
0.00139278

> <r_epik_Charging_Adjusted_Penalty>
0.00342922

> <i_epik_Tot_Q>
1

> <i_epik_Tot_abs_Q>
1

> <r_epik_Metal_State_Penalty>
-0

> <b_epik_Metal_Only>
0

> <s_lp_Force_Field>
OPLS_2005

> <r_lp_Energy>
46.8375

> <b_lp_Chiralities_Consistent>
1

> <s_lp_Variant>
AV-unprocessed.smi:1752-1

> <Gold.Version>
5.8.1

> <Gold.Id.Protein>
6NUR|6NUR_protein|mol2

> <Gold.PLP.Fitness>
38.2829

> <Gold.PLP.PLP>
-35.7994

> <Gold.PLP.part.hbond>
-0.1259

> <Gold.PLP.part.metal>
0.0000

> <Gold.PLP.part.buried>
-3.0664

> <Gold.PLP.part.nonpolar>
-32.0894

> <Gold.PLP.part.repulsive>
0.5186

> <Gold.PLP.ligand.clash>
0.0000

> <Gold.PLP.ligand.torsion>
0.3353

> <Gold.PLP.Chemscore.Hbond>
0.0000

> <Gold.PLP.Chemscore.CHOScore>
1.0000

> <Gold.PLP.Chemscore.Metal>
0.0000

> <Gold.Chemscore.Hbonds>
donor molecule, donor type, donor heavy atom, donor atom, acceptor molecule, acceptor atom, score
      L1  C     5    26       P1 10737  1.00

> <Gold.PLP.Chemscore.Internal.Correction>
0.1541

> <Gold.Rescore>
     Score         DG    S(hbond)    S(metal)    S(lipo)     H(rot)  DE(clash)    DE(int)     intcor
      8.56     -11.17       0.00        0.00      79.51       1.41       1.00       1.61       ----

> <Gold.Chemscore.Fitness>
8.5602

> <Gold.Chemscore.DG>
-11.1670

> <Gold.Chemscore.ZeroCoef>
-5.4800

> <Gold.Chemscore.Hbond>
0.0002

> <Gold.Chemscore.Metal>
0.0000

> <Gold.Chemscore.Lipo>
79.5080

> <Gold.Chemscore.Internal_Hbond>
0.0000

> <Gold.Chemscore.DEClash>
0.9951

> <Gold.Chemscore.DEInternal>
1.6117

> <Gold.Chemscore.Rot>
1.4125

> <Gold.Chemscore.Internal.Correction>
   9.000000E+99

> <Gold.Chemscore.Hbond.Weighted>
-0.0005

> <Gold.Chemscore.Metal.Weighted>
-0.0000

> <Gold.Chemscore.Lipo.Weighted>
-9.3024

> <Gold.Chemscore.Internal_Hbond.Weighted>
0.0000

> <Gold.Chemscore.DEClash.Weighted>
0.9951

> <Gold.Chemscore.DEInternal.Weighted>
1.6117

> <Gold.Chemscore.Rot.Weighted>
3.6160

> <Gold.Chemscore.Internal.Correction.Weighted>
   9.000000E+99

> <Gold.Protein.RotatedTorsions>
[ 6907 6896 6895 6894 ] final   92.81 input  -60.11 | X-H torsion
[ 7974 7965 7964 7962 ] final  -16.71 input  175.53 | X-H torsion
[ 8008 7997 7996 7995 ] final  -52.38 input   59.86 | X-H torsion
[ 10167 10162 10161 10158 ] final  -46.19 input  -65.29 | X-H torsion
[ 10718 10713 10712 10709 ] final  129.35 input   66.30 | X-H torsion
[ 10763 10752 10751 10750 ] final   70.00 input  -60.55 | X-H torsion
[ 11005 11000 10999 10996 ] final  -88.60 input  -57.11 | X-H torsion

> <Gold.Protein.ActiveResidues>
 VAL166  LYS551  ARG553  GLY616  TRP617  ASP618  TYR619  PRO620  LYS621  CYS622 
 ASP623  PHE694  ASN695  SER759  ASP760  ASP761  ALA762  ILE779  LEU786  VAL792 
 PHE793  MET794  SER795  GLU796  ALA797  LYS798  CYS799  TRP800  GLU811  SER814 

> <Gold.Protein.RotatedAtoms>
  152.5453  134.1445  159.8492 H   0  0  0  0  0  0  0  0  0  0  0  0  # atno 6907 bound_to 6896
  151.1478  133.4920  159.2603 H   0  0  0  0  0  0  0  0  0  0  0  0  # atno 6908 bound_to 6896
  151.1504  135.0235  159.8720 H   0  0  0  0  0  0  0  0  0  0  0  0  # atno 6909 bound_to 6896
  146.1975  140.3675  142.8435 H   0  0  0  0  0  0  0  0  0  0  0  0  # atno 7974 bound_to 7965
  154.4105  140.1225  156.4981 H   0  0  0  0  0  0  0  0  0  0  0  0  # atno 8008 bound_to 7997
  155.6922  140.3495  155.4879 H   0  0  0  0  0  0  0  0  0  0  0  0  # atno 8009 bound_to 7997
  155.9459  140.1095  157.1007 H   0  0  0  0  0  0  0  0  0  0  0  0  # atno 8010 bound_to 7997
  140.6828  143.2843  151.3746 H   0  0  0  0  0  0  0  0  0  0  0  0  # atno 10167 bound_to 10162
  157.5162  131.1097  150.9221 H   0  0  0  0  0  0  0  0  0  0  0  0  # atno 10718 bound_to 10713
  153.0317  135.5190  154.7374 H   0  0  0  0  0  0  0  0  0  0  0  0  # atno 10763 bound_to 10752
  154.6384  135.2909  155.0136 H   0  0  0  0  0  0  0  0  0  0  0  0  # atno 10764 bound_to 10752
  154.1063  135.6629  153.4929 H   0  0  0  0  0  0  0  0  0  0  0  0  # atno 10765 bound_to 10752
  141.1599  133.7579  156.9474 H   0  0  0  0  0  0  0  0  0  0  0  0  # atno 11005 bound_to 11000
  144.8611  140.7141  143.6107 LP  0  0  0  0  0  0  0  0  0  0  0  0  # atno 17320 bound_to 7965
  145.3595  139.1685  143.4391 LP  0  0  0  0  0  0  0  0  0  0  0  0  # atno 17321 bound_to 7965
  139.6162  144.0997  152.2348 LP  0  0  0  0  0  0  0  0  0  0  0  0  # atno 17342 bound_to 10162
  140.0427  144.5994  150.7398 LP  0  0  0  0  0  0  0  0  0  0  0  0  # atno 17343 bound_to 10162
  156.9846  130.5540  149.5299 LP  0  0  0  0  0  0  0  0  0  0  0  0  # atno 17370 bound_to 10713
  156.0322  130.5412  150.8562 LP  0  0  0  0  0  0  0  0  0  0  0  0  # atno 17371 bound_to 10713
  140.1280  134.9374  157.2297 LP  0  0  0  0  0  0  0  0  0  0  0  0  # atno 17394 bound_to 11000
  140.2989  134.3155  155.7295 LP  0  0  0  0  0  0  0  0  0  0  0  0  # atno 17395 bound_to 11000

$$$$
