AV-unprocessed.smi:35|AV-procd|sdf|258|dock5
  -GOLD-   2262016 23D 1   1.00000     0.00000
 Structure written by MMmdl.
 29 30  0  0  0  0  0  0  0  0  1 V2000
  149.7610  136.3598  158.7070 O   0  0  0  0  0  0  0  0  0  0  0  0
  149.6405  137.0479  157.6957 C   0  0  0  0  0  0  0  0  0  0  0  0
  149.8083  138.4333  157.7602 N   0  0  0  0  0  0  0  0  0  0  0  0
  149.6910  139.3151  156.6844 C   0  0  0  0  0  0  0  0  0  0  0  0
  149.8893  140.5174  156.8536 O   0  0  0  0  0  0  0  0  0  0  0  0
  149.3454  138.7679  155.4267 N   0  0  0  0  0  0  0  0  0  0  0  0
  149.2369  139.7109  154.2387 C   0  0  1  0  0  0  0  0  0  0  0  0
  148.6381  139.0578  153.1608 O   0  0  0  0  0  0  0  0  0  0  0  0
  147.2374  139.2955  153.1795 C   0  0  2  0  0  0  0  0  0  0  0  0
  146.6514  139.0026  151.7896 C   0  0  0  0  0  0  0  0  0  0  0  0
  146.9944  137.6975  151.3745 O   0  0  0  0  0  0  0  0  0  0  0  0
  147.1434  140.7579  153.6226 C   0  0  1  0  0  0  0  0  0  0  0  0
  145.9322  140.9781  154.3178 O   0  0  0  0  0  0  0  0  0  0  0  0
  148.3403  140.9316  154.5585 C   0  0  2  0  0  0  0  0  0  0  0  0
  149.0030  142.1498  154.2829 O   0  0  0  0  0  0  0  0  0  0  0  0
  149.2104  137.3878  155.3091 C   0  0  0  0  0  0  0  0  0  0  0  0
  149.3350  136.5450  156.3615 C   0  0  0  0  0  0  0  0  0  0  0  0
  149.1009  134.6144  155.9823 Br  0  0  0  0  0  0  0  0  0  0  0  0
  150.0401  138.8293  158.6595 H   0  0  0  0  0  0  0  0  0  0  0  0
  150.2710  139.9586  153.9907 H   0  0  0  0  0  0  0  0  0  0  0  0
  146.7843  138.6413  153.9265 H   0  0  0  0  0  0  0  0  0  0  0  0
  145.5669  139.1147  151.7881 H   0  0  0  0  0  0  0  0  0  0  0  0
  147.0492  139.7091  151.0608 H   0  0  0  0  0  0  0  0  0  0  0  0
  147.5373  137.3033  152.0404 H   0  0  0  0  0  0  0  0  0  0  0  0
  147.2147  141.4231  152.7604 H   0  0  0  0  0  0  0  0  0  0  0  0
  145.2140  140.7702  153.7391 H   0  0  0  0  0  0  0  0  0  0  0  0
  148.0320  140.9137  155.6052 H   0  0  0  0  0  0  0  0  0  0  0  0
  148.8356  142.7504  154.9928 H   0  0  0  0  0  0  0  0  0  0  0  0
  149.0051  136.9387  154.3496 H   0  0  0  0  0  0  0  0  0  0  0  0
  1  2  2  0  0  0  0
  2 17  1  0  0  0  0
  2  3  1  0  0  0  0
  3 19  1  0  0  0  0
  3  4  1  0  0  0  0
  4  5  2  0  0  0  0
  4  6  1  0  0  0  0
  6  7  1  0  0  0  0
  6 16  1  0  0  0  0
  7 14  1  0  0  0  0
  7  8  1  0  0  0  0
  7 20  1  0  0  0  0
  8  9  1  0  0  0  0
  9 10  1  0  0  0  0
  9 12  1  0  0  0  0
  9 21  1  0  0  0  0
 10 11  1  0  0  0  0
 10 22  1  0  0  0  0
 10 23  1  0  0  0  0
 11 24  1  0  0  0  0
 12 13  1  0  0  0  0
 12 14  1  0  0  0  0
 12 25  1  0  0  0  0
 13 26  1  0  0  0  0
 14 15  1  0  0  0  0
 14 27  1  0  0  0  0
 15 28  1  0  0  0  0
 16 17  2  0  0  0  0
 16 29  1  0  0  0  0
 17 18  1  0  0  0  0
M  END
> <s_m_source_file>
AV-unprocessed.smi

> <i_m_source_file_index>
35

> <i_lp_mmshare_version>
43012

> <i_f3d_flags>
0

> <s_epik_input>
Tz1jMVtuSF1jKD1PKW4oW2NIXWMxQnIpW0NAQEhdMk9bQ0BASF0oW0NIMl1bT0hdKVtDQEBIXShbT0hdKVtDQEhdMltPSF0=

> <s_epik_cmdline>
J2VwaWtfcHl0aG9uJywgJy1waCcsICc3LjAnLCAnLXRuJywgJzgnLCAnLW1hJywgJzIwMCcsICctbWV0YWxfYmluZGluZycsICctaW1hZScsICc8aW5maWxlLm1hZT4nLCAnLW9tYWUnLCAnPG91dGZpbGUubWFlPic=

> <r_lp_tautomer_probability>
0.999537

> <r_epik_Ionization_Penalty>
0.10812

> <r_epik_Ionization_Penalty_Charging>
0.108119

> <r_epik_Ionization_Penalty_Neutral>
4.93006e-07

> <r_epik_State_Penalty>
0.0979238

> <r_epik_Charging_Adjusted_Penalty>
0.206043

> <i_epik_Tot_Q>
0

> <i_epik_Tot_abs_Q>
0

> <r_epik_Metal_State_Penalty>
3.07911

> <b_epik_Metal_Only>
0

> <s_epik_Chemistry_Notes>
This compound contains an acetal/aminal-like group ( X-CH(R)-Y where X, Y are N, S, or O) that may be acid/base labile, releasing an aldehyde.

> <s_lp_Force_Field>
OPLS_2005

> <r_lp_Energy>
26.4636

> <b_lp_Chiralities_Consistent>
1

> <s_lp_Variant>
AV-unprocessed.smi:35-12

> <Gold.Version>
5.8.1

> <Gold.Id.Protein>
6NUR|6NUR_protein|mol2

> <Gold.PLP.Fitness>
36.1463

> <Gold.PLP.PLP>
-19.7710

> <Gold.PLP.part.hbond>
-5.6545

> <Gold.PLP.part.metal>
0.0000

> <Gold.PLP.part.buried>
-2.7410

> <Gold.PLP.part.nonpolar>
-16.9700

> <Gold.PLP.part.repulsive>
5.4445

> <Gold.PLP.ligand.clash>
0.0000

> <Gold.PLP.ligand.torsion>
0.3325

> <Gold.PLP.Chemscore.Hbond>
4.6692

> <Gold.PLP.Chemscore.CHOScore>
1.0000

> <Gold.PLP.Chemscore.Metal>
0.0000

> <Gold.Chemscore.Hbonds>
donor molecule, donor type, donor heavy atom, donor atom, acceptor molecule, acceptor atom, score
      L1  H    11    24       P1  7948  0.56
      L1  H    13    26       P1 10175  1.00
      L1  H    15    28       P1  8028  0.84
      P1  H  6896  6907       L1     1  0.84
      P1  H  7954  7966       L1    11  1.00
      P1  H  8011  8017       L1    15  0.24
      L1  C    16    29       P1  7948  0.90

> <Gold.PLP.Chemscore.Internal.Correction>
0.0326

> <Gold.Rescore>
     Score         DG    S(hbond)    S(metal)    S(lipo)     H(rot)  DE(clash)    DE(int)     intcor
      9.36     -12.78       3.60        0.00      39.94       3.67       1.80       1.62       ----

> <Gold.Chemscore.Fitness>
9.3572

> <Gold.Chemscore.DG>
-12.7763

> <Gold.Chemscore.ZeroCoef>
-5.4800

> <Gold.Chemscore.Hbond>
3.5983

> <Gold.Chemscore.Metal>
0.0000

> <Gold.Chemscore.Lipo>
39.9435

> <Gold.Chemscore.Internal_Hbond>
0.0000

> <Gold.Chemscore.DEClash>
1.7953

> <Gold.Chemscore.DEInternal>
1.6238

> <Gold.Chemscore.Rot>
3.6701

> <Gold.Chemscore.Internal.Correction>
   9.000000E+99

> <Gold.Chemscore.Hbonds>
donor molecule, donor type, donor heavy atom, donor atom, acceptor molecule, acceptor atom, score
      L1  H    11    24       P1  7948  0.56
      L1  H    13    26       P1 10175  0.89
      L1  H    15    28       P1  8028  0.78
      P1  H  6896  6907       L1     1  0.82
      P1  H  7954  7966       L1    11  0.24
      P1  H  8011  8017       L1    15  0.23

> <Gold.Chemscore.Hbond.Weighted>
-12.0184

> <Gold.Chemscore.Metal.Weighted>
-0.0000

> <Gold.Chemscore.Lipo.Weighted>
-4.6734

> <Gold.Chemscore.Internal_Hbond.Weighted>
0.0000

> <Gold.Chemscore.DEClash.Weighted>
1.7953

> <Gold.Chemscore.DEInternal.Weighted>
1.6238

> <Gold.Chemscore.Rot.Weighted>
9.3955

> <Gold.Chemscore.Internal.Correction.Weighted>
   9.000000E+99

> <Gold.Protein.RotatedTorsions>
[ 6907 6896 6895 6894 ] final  -53.94 input  -60.11 | X-H torsion
[ 7974 7965 7964 7962 ] final  108.57 input  175.53 | X-H torsion
[ 8008 7997 7996 7995 ] final -168.99 input   59.86 | X-H torsion
[ 10167 10162 10161 10158 ] final  -47.92 input  -65.29 | X-H torsion
[ 10718 10713 10712 10709 ] final   78.66 input   66.30 | X-H torsion
[ 10763 10752 10751 10750 ] final   96.78 input  -60.55 | X-H torsion
[ 11005 11000 10999 10996 ] final -101.34 input  -57.11 | X-H torsion

> <Gold.Protein.ActiveResidues>
 VAL166  LYS551  ARG553  GLY616  TRP617  ASP618  TYR619  PRO620  LYS621  CYS622 
 ASP623  PHE694  ASN695  SER759  ASP760  ASP761  ALA762  ILE779  LEU786  VAL792 
 PHE793  MET794  SER795  GLU796  ALA797  LYS798  CYS799  TRP800  GLU811  SER814 

> <Gold.Protein.RotatedAtoms>
  150.8382  134.7663  159.6909 H   0  0  0  0  0  0  0  0  0  0  0  0  # atno 6907 bound_to 6896
  152.4474  134.5462  159.9863 H   0  0  0  0  0  0  0  0  0  0  0  0  # atno 6908 bound_to 6896
  151.5607  133.3366  159.3006 H   0  0  0  0  0  0  0  0  0  0  0  0  # atno 6909 bound_to 6896
  145.2790  139.2639  143.3926 H   0  0  0  0  0  0  0  0  0  0  0  0  # atno 7974 bound_to 7965
  155.8989  140.1037  157.1364 H   0  0  0  0  0  0  0  0  0  0  0  0  # atno 8008 bound_to 7997
  154.4024  140.1296  156.4475 H   0  0  0  0  0  0  0  0  0  0  0  0  # atno 8009 bound_to 7997
  155.7446  140.3466  155.5123 H   0  0  0  0  0  0  0  0  0  0  0  0  # atno 8010 bound_to 7997
  140.6754  143.2763  151.3996 H   0  0  0  0  0  0  0  0  0  0  0  0  # atno 10167 bound_to 10162
  157.6752  130.9879  150.1819 H   0  0  0  0  0  0  0  0  0  0  0  0  # atno 10718 bound_to 10713
  153.2690  135.4206  155.0969 H   0  0  0  0  0  0  0  0  0  0  0  0  # atno 10763 bound_to 10752
  154.8449  135.3467  154.6271 H   0  0  0  0  0  0  0  0  0  0  0  0  # atno 10764 bound_to 10752
  153.6690  135.7044  153.5210 H   0  0  0  0  0  0  0  0  0  0  0  0  # atno 10765 bound_to 10752
  141.1235  133.8470  157.1219 H   0  0  0  0  0  0  0  0  0  0  0  0  # atno 11005 bound_to 11000
  146.3222  140.3252  142.8636 LP  0  0  0  0  0  0  0  0  0  0  0  0  # atno 17320 bound_to 7965
  144.9270  140.7932  143.5713 LP  0  0  0  0  0  0  0  0  0  0  0  0  # atno 17321 bound_to 7965
  139.6043  144.1229  152.2232 LP  0  0  0  0  0  0  0  0  0  0  0  0  # atno 17342 bound_to 10162
  140.0623  144.5846  150.7253 LP  0  0  0  0  0  0  0  0  0  0  0  0  # atno 17343 bound_to 10162
  156.2550  130.3704  149.8191 LP  0  0  0  0  0  0  0  0  0  0  0  0  # atno 17370 bound_to 10713
  156.5953  130.8524  151.3418 LP  0  0  0  0  0  0  0  0  0  0  0  0  # atno 17371 bound_to 10713
  140.0212  134.9945  157.0594 LP  0  0  0  0  0  0  0  0  0  0  0  0  # atno 17394 bound_to 11000
  140.4437  134.1654  155.7176 LP  0  0  0  0  0  0  0  0  0  0  0  0  # atno 17395 bound_to 11000

$$$$
