AV-unprocessed.smi:2443|AV-procd|sdf|9631|dock10
  -GOLD-   2272013263D 1   1.00000     0.00000
 Structure written by MMmdl.
 37 39  0  0  0  0  0  0  0  0  1 V2000
  150.2127  132.8779  156.8743 C   0  0  0  0  0  0  0  0  0  0  0  0
  150.0846  134.1690  157.4589 O   0  0  0  0  0  0  0  0  0  0  0  0
  150.4617  135.2638  156.7089 C   0  0  0  0  0  0  0  0  0  0  0  0
  150.4708  136.5408  157.3066 C   0  0  0  0  0  0  0  0  0  0  0  0
  150.8595  137.6356  156.5023 C   0  0  0  0  0  0  0  0  0  0  0  0
  150.8539  138.9034  157.1413 N   0  0  0  0  0  0  0  0  0  0  0  0
  151.0672  140.1107  156.5895 C   0  0  0  0  0  0  0  0  0  0  0  0
  151.2972  140.3186  155.3979 O   0  0  0  0  0  0  0  0  0  0  0  0
  150.9966  141.0835  157.5091 N   0  0  0  0  0  0  0  0  0  0  0  0
  151.1865  142.5044  157.2401 C   0  0  0  0  0  0  0  0  0  0  0  0
  151.6596  143.3504  158.4168 C   0  0  0  0  0  0  0  0  0  0  0  0
  152.6497  142.6661  159.3554 C   0  0  0  0  0  0  0  0  0  0  0  0
  152.1929  141.5179  160.2259 C   0  0  0  0  0  0  0  0  0  0  0  0
  152.6282  142.8117  160.8649 C   0  0  0  0  0  0  0  0  0  0  0  0
  151.8712  144.8337  158.1782 C   0  0  0  0  0  0  0  0  0  0  0  0
  150.6702  144.3740  158.9535 C   0  0  0  0  0  0  0  0  0  0  0  0
  151.2088  137.4336  155.2077 N   0  0  0  0  0  0  0  0  0  0  0  0
  151.1687  136.1860  154.7366 C   0  0  0  0  0  0  0  0  0  0  0  0
  150.8157  135.0921  155.4125 N   0  0  0  0  0  0  0  0  0  0  0  0
  149.8724  132.1247  157.5846 H   0  0  0  0  0  0  0  0  0  0  0  0
  151.2511  132.6536  156.6262 H   0  0  0  0  0  0  0  0  0  0  0  0
  149.6015  132.7844  155.9754 H   0  0  0  0  0  0  0  0  0  0  0  0
  150.1865  136.6700  158.3407 H   0  0  0  0  0  0  0  0  0  0  0  0
  150.6651  138.8896  158.1326 H   0  0  0  0  0  0  0  0  0  0  0  0
  150.8043  140.8242  158.4655 H   0  0  0  0  0  0  0  0  0  0  0  0
  151.8663  142.6278  156.3951 H   0  0  0  0  0  0  0  0  0  0  0  0
  150.2257  142.8991  156.9092 H   0  0  0  0  0  0  0  0  0  0  0  0
  153.6435  142.5456  158.9282 H   0  0  0  0  0  0  0  0  0  0  0  0
  151.1300  141.2860  160.2406 H   0  0  0  0  0  0  0  0  0  0  0  0
  152.8581  140.6615  160.3164 H   0  0  0  0  0  0  0  0  0  0  0  0
  153.5879  142.8173  161.3774 H   0  0  0  0  0  0  0  0  0  0  0  0
  151.8505  143.3985  161.3453 H   0  0  0  0  0  0  0  0  0  0  0  0
  152.6665  145.3259  158.7347 H   0  0  0  0  0  0  0  0  0  0  0  0
  151.7031  145.2196  157.1746 H   0  0  0  0  0  0  0  0  0  0  0  0
  149.7036  144.4487  158.4592 H   0  0  0  0  0  0  0  0  0  0  0  0
  150.6562  144.6147  160.0125 H   0  0  0  0  0  0  0  0  0  0  0  0
  151.4517  136.0479  153.7039 H   0  0  0  0  0  0  0  0  0  0  0  0
  1  2  1  0  0  0  0
  1 20  1  0  0  0  0
  1 21  1  0  0  0  0
  1 22  1  0  0  0  0
  2  3  1  0  0  0  0
  3 19  1  0  0  0  0
  3  4  2  0  0  0  0
  4  5  1  0  0  0  0
  4 23  1  0  0  0  0
  5  6  1  0  0  0  0
  5 17  2  0  0  0  0
  6  7  1  0  0  0  0
  6 24  1  0  0  0  0
  7  8  2  0  0  0  0
  7  9  1  0  0  0  0
  9 10  1  0  0  0  0
  9 25  1  0  0  0  0
 10 11  1  0  0  0  0
 10 26  1  0  0  0  0
 10 27  1  0  0  0  0
 11 16  1  0  0  0  0
 11 12  1  0  0  0  0
 11 15  1  0  0  0  0
 12 14  1  0  0  0  0
 12 13  1  0  0  0  0
 12 28  1  0  0  0  0
 13 14  1  0  0  0  0
 13 29  1  0  0  0  0
 13 30  1  0  0  0  0
 14 31  1  0  0  0  0
 14 32  1  0  0  0  0
 15 16  1  0  0  0  0
 15 33  1  0  0  0  0
 15 34  1  0  0  0  0
 16 35  1  0  0  0  0
 16 36  1  0  0  0  0
 17 18  1  0  0  0  0
 18 19  2  0  0  0  0
 18 37  1  0  0  0  0
M  END
> <s_m_source_file>
AV-unprocessed.smi

> <i_m_source_file_index>
2443

> <i_lp_mmshare_version>
43012

> <i_f3d_flags>
0

> <s_epik_input>
W0NIM11PYzFbY0hdYyhuW2NIXW4xKVtOSF1DKD1PKVtOSF1bQ0gyXUMyKFtDSDJdW0NIMl0yKVtDSF0zW0NIMl1bQ0gyXTM=

> <s_epik_cmdline>
J2VwaWtfcHl0aG9uJywgJy1waCcsICc3LjAnLCAnLXRuJywgJzgnLCAnLW1hJywgJzIwMCcsICctbWV0YWxfYmluZGluZycsICctaW1hZScsICc8aW5maWxlLm1hZT4nLCAnLW9tYWUnLCAnPG91dGZpbGUubWFlPic=

> <r_lp_tautomer_probability>
1

> <r_epik_Ionization_Penalty>
2.73859e-05

> <r_epik_Ionization_Penalty_Charging>
0

> <r_epik_Ionization_Penalty_Neutral>
2.73859e-05

> <r_epik_State_Penalty>
-0

> <r_epik_Charging_Adjusted_Penalty>
0

> <i_epik_Tot_Q>
0

> <i_epik_Tot_abs_Q>
0

> <r_epik_Metal_State_Penalty>
-0

> <b_epik_Metal_Only>
0

> <s_lp_Force_Field>
OPLS_2005

> <r_lp_Energy>
26.0575

> <b_lp_Chiralities_Consistent>
1

> <s_lp_Variant>
AV-unprocessed.smi:2443-1

> <Gold.Version>
5.8.1

> <Gold.Id.Protein>
6NUR|6NUR_protein|mol2

> <Gold.PLP.Fitness>
40.2689

> <Gold.PLP.PLP>
-32.3339

> <Gold.PLP.part.hbond>
-2.0000

> <Gold.PLP.part.metal>
0.0000

> <Gold.PLP.part.buried>
-4.1967

> <Gold.PLP.part.nonpolar>
-25.8239

> <Gold.PLP.part.repulsive>
0.3048

> <Gold.PLP.ligand.clash>
0.0000

> <Gold.PLP.ligand.torsion>
1.7286

> <Gold.PLP.Chemscore.Hbond>
1.9920

> <Gold.PLP.Chemscore.CHOScore>
0.9547

> <Gold.PLP.Chemscore.Metal>
0.0000

> <Gold.Chemscore.Hbonds>
donor molecule, donor type, donor heavy atom, donor atom, acceptor molecule, acceptor atom, score
      P1  H  6896  6909       L1     2  0.88
      P1  H  7989  7998       L1     8  0.98
      L1  C    18    37       P1  7949  1.00

> <Gold.PLP.Chemscore.Internal.Correction>
2.5522

> <Gold.Rescore>
     Score         DG    S(hbond)    S(metal)    S(lipo)     H(rot)  DE(clash)    DE(int)     intcor
     13.27     -16.10       1.73        0.00      82.28       1.86       0.17       2.66       ----

> <Gold.Chemscore.Fitness>
13.2669

> <Gold.Chemscore.DG>
-16.1035

> <Gold.Chemscore.ZeroCoef>
-5.4800

> <Gold.Chemscore.Hbond>
1.7256

> <Gold.Chemscore.Metal>
0.0000

> <Gold.Chemscore.Lipo>
82.2771

> <Gold.Chemscore.Internal_Hbond>
0.0000

> <Gold.Chemscore.DEClash>
0.1719

> <Gold.Chemscore.DEInternal>
2.6647

> <Gold.Chemscore.Rot>
1.8619

> <Gold.Chemscore.Internal.Correction>
   9.000000E+99

> <Gold.Chemscore.Hbonds>
donor molecule, donor type, donor heavy atom, donor atom, acceptor molecule, acceptor atom, score
      P1  H  6896  6909       L1     2  0.38
      P1  H  7989  7998       L1     8  0.90

> <Gold.Chemscore.Hbond.Weighted>
-5.7635

> <Gold.Chemscore.Metal.Weighted>
-0.0000

> <Gold.Chemscore.Lipo.Weighted>
-9.6264

> <Gold.Chemscore.Internal_Hbond.Weighted>
0.0000

> <Gold.Chemscore.DEClash.Weighted>
0.1719

> <Gold.Chemscore.DEInternal.Weighted>
2.6647

> <Gold.Chemscore.Rot.Weighted>
4.7665

> <Gold.Chemscore.Internal.Correction.Weighted>
   9.000000E+99

> <Gold.Protein.RotatedTorsions>
[ 6907 6896 6895 6894 ] final    7.55 input  -60.11 | X-H torsion
[ 7974 7965 7964 7962 ] final   47.18 input  175.53 | X-H torsion
[ 8008 7997 7996 7995 ] final -145.66 input   59.86 | X-H torsion
[ 10167 10162 10161 10158 ] final  113.80 input  -65.29 | X-H torsion
[ 10718 10713 10712 10709 ] final   41.96 input   66.30 | X-H torsion
[ 10763 10752 10751 10750 ] final  -59.06 input  -60.55 | X-H torsion
[ 11005 11000 10999 10996 ] final  128.29 input  -57.11 | X-H torsion

> <Gold.Protein.ActiveResidues>
 VAL166  LYS551  ARG553  GLY616  TRP617  ASP618  TYR619  PRO620  LYS621  CYS622 
 ASP623  PHE694  ASN695  SER759  ASP760  ASP761  ALA762  ILE779  LEU786  VAL792 
 PHE793  MET794  SER795  GLU796  ALA797  LYS798  CYS799  TRP800  GLU811  SER814 

> <Gold.Protein.RotatedAtoms>
  151.6917  135.0945  160.0234 H   0  0  0  0  0  0  0  0  0  0  0  0  # atno 6907 bound_to 6896
  152.3774  133.6496  159.6143 H   0  0  0  0  0  0  0  0  0  0  0  0  # atno 6908 bound_to 6896
  150.7720  133.9086  159.3404 H   0  0  0  0  0  0  0  0  0  0  0  0  # atno 6909 bound_to 6896
  146.0321  139.4776  142.9831 H   0  0  0  0  0  0  0  0  0  0  0  0  # atno 7974 bound_to 7965
  155.5467  140.0613  157.2858 H   0  0  0  0  0  0  0  0  0  0  0  0  # atno 8008 bound_to 7997
  154.4434  140.1909  156.0690 H   0  0  0  0  0  0  0  0  0  0  0  0  # atno 8009 bound_to 7997
  156.0546  140.3280  155.7394 H   0  0  0  0  0  0  0  0  0  0  0  0  # atno 8010 bound_to 7997
  139.6435  144.7125  151.2189 H   0  0  0  0  0  0  0  0  0  0  0  0  # atno 10167 bound_to 10162
  157.3995  130.7852  149.7336 H   0  0  0  0  0  0  0  0  0  0  0  0  # atno 10718 bound_to 10713
  154.2478  135.6331  153.5229 H   0  0  0  0  0  0  0  0  0  0  0  0  # atno 10763 bound_to 10752
  152.9918  135.5557  154.5841 H   0  0  0  0  0  0  0  0  0  0  0  0  # atno 10764 bound_to 10752
  154.5361  135.2891  155.1112 H   0  0  0  0  0  0  0  0  0  0  0  0  # atno 10765 bound_to 10752
  139.9552  134.9614  156.8979 H   0  0  0  0  0  0  0  0  0  0  0  0  # atno 11005 bound_to 11000
  145.7023  141.0132  143.1497 LP  0  0  0  0  0  0  0  0  0  0  0  0  # atno 17320 bound_to 7965
  144.7035  139.8659  143.7437 LP  0  0  0  0  0  0  0  0  0  0  0  0  # atno 17321 bound_to 7965
  140.7503  143.6271  150.8458 LP  0  0  0  0  0  0  0  0  0  0  0  0  # atno 17342 bound_to 10162
  139.9911  143.5846  152.2910 LP  0  0  0  0  0  0  0  0  0  0  0  0  # atno 17343 bound_to 10162
  155.9819  130.4014  150.3444 LP  0  0  0  0  0  0  0  0  0  0  0  0  # atno 17370 bound_to 10713
  157.1570  131.0335  151.2858 LP  0  0  0  0  0  0  0  0  0  0  0  0  # atno 17371 bound_to 10713
  140.5625  134.0521  155.7403 LP  0  0  0  0  0  0  0  0  0  0  0  0  # atno 17394 bound_to 11000
  141.1223  133.9441  157.2706 LP  0  0  0  0  0  0  0  0  0  0  0  0  # atno 17395 bound_to 11000

$$$$
