AV-unprocessed.smi:1812|AV-procd|sdf|7337|dock6
  -GOLD-   22720 8593D 1   1.00000     0.00000
 Structure written by MMmdl.
 34 36  0  0  0  0  0  0  0  0  1 V2000
  150.2852  134.1822  156.0153 O   0  0  0  0  0  0  0  0  0  0  0  0
  149.8042  134.7024  155.0082 C   0  0  0  0  0  0  0  0  0  0  0  0
  149.0446  134.0376  154.1259 N   0  0  0  0  0  0  0  0  0  0  0  0
  148.6831  132.6284  154.2299 C   0  0  0  0  0  0  0  0  0  0  0  0
  147.2469  132.3757  153.7443 C   0  0  1  0  0  0  0  0  0  0  0  0
  146.9308  133.0162  152.3971 C   0  0  0  0  0  0  0  0  0  0  0  0
  145.7353  132.2111  151.9246 C   0  0  0  0  0  0  0  0  0  0  0  0
  145.9013  130.8626  152.6331 C   0  0  0  0  0  0  0  0  0  0  0  0
  147.0400  130.9969  153.4774 O   0  0  0  0  0  0  0  0  0  0  0  0
  149.9636  135.9870  154.6440 N   0  0  0  0  0  0  0  0  0  0  0  0
  150.6627  137.0154  155.3300 C   0  0  0  0  0  0  0  0  0  0  0  0
  151.7292  136.7973  156.1115 N   0  0  0  0  0  0  0  0  0  0  0  0
  152.2135  137.9734  156.6667 N   0  0  0  0  0  0  0  0  0  0  0  0
  151.5024  139.0434  156.2918 C   0  0  0  0  0  0  0  0  0  0  0  0
  151.8293  140.4209  156.7648 C   0  0  0  0  0  0  0  0  0  0  0  0
  150.9632  141.1092  157.7947 C   0  0  0  0  0  0  0  0  0  0  0  0
  150.9868  141.6157  156.3753 C   0  0  0  0  0  0  0  0  0  0  0  0
  150.1618  138.6930  155.2052 S   0  0  0  0  0  0  0  0  0  0  0  0
  148.6942  134.5379  153.3224 H   0  0  0  0  0  0  0  0  0  0  0  0
  149.3868  132.0231  153.6560 H   0  0  0  0  0  0  0  0  0  0  0  0
  148.7883  132.3202  155.2703 H   0  0  0  0  0  0  0  0  0  0  0  0
  146.5192  132.7092  154.4868 H   0  0  0  0  0  0  0  0  0  0  0  0
  146.7230  134.0839  152.4722 H   0  0  0  0  0  0  0  0  0  0  0  0
  147.7649  132.8790  151.7073 H   0  0  0  0  0  0  0  0  0  0  0  0
  144.8076  132.6879  152.2429 H   0  0  0  0  0  0  0  0  0  0  0  0
  145.7082  132.1139  150.8389 H   0  0  0  0  0  0  0  0  0  0  0  0
  145.0211  130.6299  153.2334 H   0  0  0  0  0  0  0  0  0  0  0  0
  146.0561  130.0457  151.9279 H   0  0  0  0  0  0  0  0  0  0  0  0
  149.5185  136.2667  153.7825 H   0  0  0  0  0  0  0  0  0  0  0  0
  152.9067  140.5584  156.8313 H   0  0  0  0  0  0  0  0  0  0  0  0
  150.0652  140.5923  158.1274 H   0  0  0  0  0  0  0  0  0  0  0  0
  151.4634  141.7100  158.5514 H   0  0  0  0  0  0  0  0  0  0  0  0
  151.5053  142.5531  156.1851 H   0  0  0  0  0  0  0  0  0  0  0  0
  150.0971  141.4459  155.7729 H   0  0  0  0  0  0  0  0  0  0  0  0
  1  2  2  0  0  0  0
  2  3  1  0  0  0  0
  2 10  1  0  0  0  0
  3  4  1  0  0  0  0
  3 19  1  0  0  0  0
  4  5  1  0  0  0  0
  4 20  1  0  0  0  0
  4 21  1  0  0  0  0
  5  9  1  0  0  0  0
  5  6  1  0  0  0  0
  5 22  1  0  0  0  0
  6  7  1  0  0  0  0
  6 23  1  0  0  0  0
  6 24  1  0  0  0  0
  7  8  1  0  0  0  0
  7 25  1  0  0  0  0
  7 26  1  0  0  0  0
  8  9  1  0  0  0  0
  8 27  1  0  0  0  0
  8 28  1  0  0  0  0
 10 11  1  0  0  0  0
 10 29  1  0  0  0  0
 11 18  1  0  0  0  0
 11 12  2  0  0  0  0
 12 13  1  0  0  0  0
 13 14  2  0  0  0  0
 14 15  1  0  0  0  0
 14 18  1  0  0  0  0
 15 17  1  0  0  0  0
 15 16  1  0  0  0  0
 15 30  1  0  0  0  0
 16 17  1  0  0  0  0
 16 31  1  0  0  0  0
 16 32  1  0  0  0  0
 17 33  1  0  0  0  0
 17 34  1  0  0  0  0
M  END
> <s_m_source_file>
AV-unprocessed.smi

> <i_m_source_file_index>
1812

> <i_lp_mmshare_version>
43012

> <i_f3d_flags>
0

> <s_epik_input>
TzFbQ0gyXVtDSDJdW0NIMl1bQ0BIXTFbQ0gyXVtOSF1DKD1PKVtOSF1jMm5uYyhzMilbQ0hdM1tDSDJdW0NIMl0z

> <s_epik_cmdline>
J2VwaWtfcHl0aG9uJywgJy1waCcsICc3LjAnLCAnLXRuJywgJzgnLCAnLW1hJywgJzIwMCcsICctbWV0YWxfYmluZGluZycsICctaW1hZScsICc8aW5maWxlLm1hZT4nLCAnLW9tYWUnLCAnPG91dGZpbGUubWFlPic=

> <r_lp_tautomer_probability>
1

> <r_epik_Ionization_Penalty>
0.000281817

> <r_epik_Ionization_Penalty_Charging>
0

> <r_epik_Ionization_Penalty_Neutral>
0.000281817

> <r_epik_State_Penalty>
-0

> <r_epik_Charging_Adjusted_Penalty>
0

> <i_epik_Tot_Q>
0

> <i_epik_Tot_abs_Q>
0

> <r_epik_Metal_State_Penalty>
0.157535

> <b_epik_Metal_Only>
0

> <s_lp_Force_Field>
OPLS_2005

> <r_lp_Energy>
14.4176

> <b_lp_Chiralities_Consistent>
1

> <s_lp_Variant>
AV-unprocessed.smi:1812-2

> <Gold.Version>
5.8.1

> <Gold.Id.Protein>
6NUR|6NUR_protein|mol2

> <Gold.PLP.Fitness>
37.2703

> <Gold.PLP.PLP>
-30.4763

> <Gold.PLP.part.hbond>
-3.9909

> <Gold.PLP.part.metal>
0.0000

> <Gold.PLP.part.buried>
-3.7719

> <Gold.PLP.part.nonpolar>
-22.8384

> <Gold.PLP.part.repulsive>
0.2535

> <Gold.PLP.ligand.clash>
0.0000

> <Gold.PLP.ligand.torsion>
0.6235

> <Gold.PLP.Chemscore.Hbond>
2.6344

> <Gold.PLP.Chemscore.CHOScore>
0.0000

> <Gold.PLP.Chemscore.Metal>
0.0000

> <Gold.Chemscore.Hbonds>
donor molecule, donor type, donor heavy atom, donor atom, acceptor molecule, acceptor atom, score
      L1  H     3    19       P1  7948  0.53
      L1  H    10    29       P1  7948  1.00
      P1  H 10752 10763       L1    12  0.57

> <Gold.PLP.Chemscore.Internal.Correction>
0.1378

> <Gold.Rescore>
     Score         DG    S(hbond)    S(metal)    S(lipo)     H(rot)  DE(clash)    DE(int)     intcor
     15.05     -15.68       2.36        0.00      51.90       1.47       0.00       0.63       ----

> <Gold.Chemscore.Fitness>
15.0513

> <Gold.Chemscore.DG>
-15.6816

> <Gold.Chemscore.ZeroCoef>
-5.4800

> <Gold.Chemscore.Hbond>
2.3648

> <Gold.Chemscore.Metal>
0.0000

> <Gold.Chemscore.Lipo>
51.9022

> <Gold.Chemscore.Internal_Hbond>
0.0000

> <Gold.Chemscore.DEClash>
0.0021

> <Gold.Chemscore.DEInternal>
0.6282

> <Gold.Chemscore.Rot>
1.4725

> <Gold.Chemscore.Internal.Correction>
   9.000000E+99

> <Gold.Chemscore.Hbonds>
donor molecule, donor type, donor heavy atom, donor atom, acceptor molecule, acceptor atom, score
      L1  H     3    19       P1  7948  0.13
      L1  H    10    29       P1  7948  0.63
      P1  H 10752 10763       L1    12  0.37

> <Gold.Chemscore.Hbond.Weighted>
-7.8986

> <Gold.Chemscore.Metal.Weighted>
-0.0000

> <Gold.Chemscore.Lipo.Weighted>
-6.0726

> <Gold.Chemscore.Internal_Hbond.Weighted>
0.0000

> <Gold.Chemscore.DEClash.Weighted>
0.0021

> <Gold.Chemscore.DEInternal.Weighted>
0.6282

> <Gold.Chemscore.Rot.Weighted>
3.7695

> <Gold.Chemscore.Internal.Correction.Weighted>
   9.000000E+99

> <Gold.Protein.RotatedTorsions>
[ 6907 6896 6895 6894 ] final  -73.28 input  -60.11 | X-H torsion
[ 7974 7965 7964 7962 ] final  -19.53 input  175.53 | X-H torsion
[ 8008 7997 7996 7995 ] final -149.61 input   59.86 | X-H torsion
[ 10167 10162 10161 10158 ] final  168.97 input  -65.29 | X-H torsion
[ 10718 10713 10712 10709 ] final  -25.52 input   66.30 | X-H torsion
[ 10763 10752 10751 10750 ] final   90.03 input  -60.55 | X-H torsion
[ 11005 11000 10999 10996 ] final -143.56 input  -57.11 | X-H torsion

> <Gold.Protein.ActiveResidues>
 VAL166  LYS551  ARG553  GLY616  TRP617  ASP618  TYR619  PRO620  LYS621  CYS622 
 ASP623  PHE694  ASN695  SER759  ASP760  ASP761  ALA762  ILE779  LEU786  VAL792 
 PHE793  MET794  SER795  GLU796  ALA797  LYS798  CYS799  TRP800  GLU811  SER814 

> <Gold.Protein.RotatedAtoms>
  150.7136  134.5040  159.5574 H   0  0  0  0  0  0  0  0  0  0  0  0  # atno 6907 bound_to 6896
  152.2631  134.8010  160.0436 H   0  0  0  0  0  0  0  0  0  0  0  0  # atno 6908 bound_to 6896
  151.8717  133.3441  159.3773 H   0  0  0  0  0  0  0  0  0  0  0  0  # atno 6909 bound_to 6896
  146.1836  140.4075  142.8485 H   0  0  0  0  0  0  0  0  0  0  0  0  # atno 7974 bound_to 7965
  155.6104  140.0671  157.2708 H   0  0  0  0  0  0  0  0  0  0  0  0  # atno 8008 bound_to 7997
  154.4255  140.1802  156.1314 H   0  0  0  0  0  0  0  0  0  0  0  0  # atno 8009 bound_to 7997
  156.0089  140.3328  155.6924 H   0  0  0  0  0  0  0  0  0  0  0  0  # atno 8010 bound_to 7997
  139.4981  144.3757  151.9677 H   0  0  0  0  0  0  0  0  0  0  0  0  # atno 10167 bound_to 10162
  156.4633  130.4508  149.6915 H   0  0  0  0  0  0  0  0  0  0  0  0  # atno 10718 bound_to 10713
  153.1933  135.4448  155.0176 H   0  0  0  0  0  0  0  0  0  0  0  0  # atno 10763 bound_to 10752
  154.8103  135.3292  154.7324 H   0  0  0  0  0  0  0  0  0  0  0  0  # atno 10764 bound_to 10752
  153.7776  135.6980  153.4950 H   0  0  0  0  0  0  0  0  0  0  0  0  # atno 10765 bound_to 10752
  140.8113  134.2741  157.4939 H   0  0  0  0  0  0  0  0  0  0  0  0  # atno 11005 bound_to 11000
  144.8358  140.6779  143.6261 LP  0  0  0  0  0  0  0  0  0  0  0  0  # atno 17320 bound_to 7965
  145.4004  139.1599  143.4180 LP  0  0  0  0  0  0  0  0  0  0  0  0  # atno 17321 bound_to 7965
  140.3193  144.3446  150.6013 LP  0  0  0  0  0  0  0  0  0  0  0  0  # atno 17342 bound_to 10162
  140.5735  143.2178  151.7556 LP  0  0  0  0  0  0  0  0  0  0  0  0  # atno 17343 bound_to 10162
  156.3694  130.7523  151.2504 LP  0  0  0  0  0  0  0  0  0  0  0  0  # atno 17370 bound_to 10713
  157.7496  131.0327  150.4240 LP  0  0  0  0  0  0  0  0  0  0  0  0  # atno 17371 bound_to 10713
  139.8714  134.9484  156.3997 LP  0  0  0  0  0  0  0  0  0  0  0  0  # atno 17394 bound_to 11000
  140.9195  133.7655  155.9889 LP  0  0  0  0  0  0  0  0  0  0  0  0  # atno 17395 bound_to 11000

$$$$
