AV-unprocessed.smi:2908|AV-procd|sdf|11170|dock3
  -GOLD-   2272016 63D 1   1.00000     0.00000
 Structure written by MMmdl.
 44 45  0  0  0  0  0  0  0  0  2 V2000
  149.5194  141.8448  153.8328 O   0  0  0  0  0  0  0  0  0  0  0  0
  148.8325  141.9871  154.8457 C   0  0  0  0  0  0  0  0  0  0  0  0
  149.3356  141.8083  156.0800 N   0  0  0  0  0  0  0  0  0  0  0  0
  150.7144  141.4443  156.3983 C   0  0  0  0  0  0  0  0  0  0  0  0
  150.8859  141.0085  157.8669 C   0  0  0  0  0  0  0  0  0  0  0  0
  151.4774  142.0860  158.7589 C   0  0  0  0  0  0  0  0  0  0  0  0
  152.3146  141.7808  159.8545 C   0  0  0  0  0  0  0  0  0  0  0  0
  152.8524  142.8332  160.6241 C   0  0  0  0  0  0  0  0  0  0  0  0
  152.5406  144.1661  160.2851 C   0  0  0  0  0  0  0  0  0  0  0  0
  151.6966  144.4134  159.1834 C   0  0  0  0  0  0  0  0  0  0  0  0
  151.2009  143.3784  158.4703 N   0  3  0  0  0  0  0  0  0  0  0  0
  147.5081  142.2798  154.8095 N   0  0  0  0  0  0  0  0  0  0  0  0
  146.6179  142.4378  155.9709 C   0  0  0  0  0  0  0  0  0  0  0  0
  146.3263  143.9357  156.1681 C   0  0  0  0  0  0  0  0  0  0  0  0
  145.7112  144.5688  154.8964 C   0  0  0  0  0  0  0  0  0  0  0  0
  145.4510  146.0864  155.0881 C   0  0  1  0  0  0  0  0  0  0  0  0
  145.1107  146.6862  153.8522 O   0  0  0  0  0  0  0  0  0  0  0  0
  144.3824  146.4509  156.1423 C   0  0  0  0  0  0  0  0  0  0  0  0
  143.2779  145.7377  155.9220 F   0  0  0  0  0  0  0  0  0  0  0  0
  144.8066  146.2191  157.3842 F   0  0  0  0  0  0  0  0  0  0  0  0
  144.0639  147.7405  156.0324 F   0  0  0  0  0  0  0  0  0  0  0  0
  146.5502  144.2100  153.6437 C   0  0  0  0  0  0  0  0  0  0  0  0
  146.8386  142.6991  153.5732 C   0  0  0  0  0  0  0  0  0  0  0  0
  148.7087  141.9339  156.8616 H   0  0  0  0  0  0  0  0  0  0  0  0
  151.0699  140.6603  155.7273 H   0  0  0  0  0  0  0  0  0  0  0  0
  151.3425  142.3138  156.2036 H   0  0  0  0  0  0  0  0  0  0  0  0
  149.9191  140.7100  158.2743 H   0  0  0  0  0  0  0  0  0  0  0  0
  151.5192  140.1215  157.9143 H   0  0  0  0  0  0  0  0  0  0  0  0
  152.5514  140.7549  160.0965 H   0  0  0  0  0  0  0  0  0  0  0  0
  153.4990  142.6204  161.4628 H   0  0  0  0  0  0  0  0  0  0  0  0
  152.9444  144.9866  160.8601 H   0  0  0  0  0  0  0  0  0  0  0  0
  151.4080  145.3999  158.8512 H   0  0  0  0  0  0  0  0  0  0  0  0
  145.6872  141.8991  155.7858 H   0  0  0  0  0  0  0  0  0  0  0  0
  147.0144  142.0165  156.8946 H   0  0  0  0  0  0  0  0  0  0  0  0
  145.6515  144.0685  157.0142 H   0  0  0  0  0  0  0  0  0  0  0  0
  147.2534  144.4473  156.4306 H   0  0  0  0  0  0  0  0  0  0  0  0
  144.7376  144.0944  154.7662 H   0  0  0  0  0  0  0  0  0  0  0  0
  146.3883  146.5426  155.4104 H   0  0  0  0  0  0  0  0  0  0  0  0
  144.4825  146.1322  153.4143 H   0  0  0  0  0  0  0  0  0  0  0  0
  146.0277  144.5057  152.7353 H   0  0  0  0  0  0  0  0  0  0  0  0
  147.4954  144.7544  153.6528 H   0  0  0  0  0  0  0  0  0  0  0  0
  147.4228  142.4722  152.6803 H   0  0  0  0  0  0  0  0  0  0  0  0
  145.9056  142.1449  153.4611 H   0  0  0  0  0  0  0  0  0  0  0  0
  150.5982  143.5812  157.6725 H   0  0  0  0  0  0  0  0  0  0  0  0
  1  2  2  0  0  0  0
  2  3  1  0  0  0  0
  2 12  1  0  0  0  0
  3  4  1  0  0  0  0
  3 24  1  0  0  0  0
  4  5  1  0  0  0  0
  4 25  1  0  0  0  0
  4 26  1  0  0  0  0
  5  6  1  0  0  0  0
  5 27  1  0  0  0  0
  5 28  1  0  0  0  0
  6 11  1  0  0  0  0
  6  7  2  0  0  0  0
  7  8  1  0  0  0  0
  7 29  1  0  0  0  0
  8  9  2  0  0  0  0
  8 30  1  0  0  0  0
  9 10  1  0  0  0  0
  9 31  1  0  0  0  0
 10 11  2  0  0  0  0
 10 32  1  0  0  0  0
 11 44  1  0  0  0  0
 12 23  1  0  0  0  0
 12 13  1  0  0  0  0
 13 14  1  0  0  0  0
 13 33  1  0  0  0  0
 13 34  1  0  0  0  0
 14 15  1  0  0  0  0
 14 35  1  0  0  0  0
 14 36  1  0  0  0  0
 15 16  1  0  0  0  0
 15 22  1  0  0  0  0
 15 37  1  0  0  0  0
 16 17  1  0  0  0  0
 16 18  1  0  0  0  0
 16 38  1  0  0  0  0
 17 39  1  0  0  0  0
 18 19  1  0  0  0  0
 18 20  1  0  0  0  0
 18 21  1  0  0  0  0
 22 23  1  0  0  0  0
 22 40  1  0  0  0  0
 22 41  1  0  0  0  0
 23 42  1  0  0  0  0
 23 43  1  0  0  0  0
M  CHG  1  11   1
M  END
> <s_m_source_file>
AV-unprocessed.smi

> <i_m_source_file_index>
2908

> <i_lp_mmshare_version>
43012

> <i_f3d_flags>
0

> <s_epik_input>
RkMoRikoRilbQ0BASF0oW09IXSlbQ0hdKFtDSDJdW0NIMl0xKVtDSDJdW0NIMl1OMUMoPU8pW05IXVtDSDJdW0NIMl1jMltjSF1bY0hdW2NIXVtjSF1uMg==

> <s_epik_cmdline>
J2VwaWtfcHl0aG9uJywgJy1waCcsICc3LjAnLCAnLXRuJywgJzgnLCAnLW1hJywgJzIwMCcsICctbWV0YWxfYmluZGluZycsICctaW1hZScsICc8aW5maWxlLm1hZT4nLCAnLW9tYWUnLCAnPG91dGZpbGUubWFlPic=

> <r_epik_Ionization_Penalty>
1.55054

> <r_epik_Ionization_Penalty_Charging>
1.55036

> <r_epik_Ionization_Penalty_Neutral>
0.00017404

> <r_epik_State_Penalty>
1.64453

> <r_epik_Charging_Adjusted_Penalty>
3.19489

> <i_epik_Tot_Q>
1

> <i_epik_Tot_abs_Q>
1

> <r_epik_Metal_State_Penalty>
1.68672

> <b_epik_Metal_Only>
0

> <s_lp_Force_Field>
OPLS_2005

> <r_lp_Energy>
43.524

> <b_lp_Chiralities_Consistent>
1

> <s_lp_Variant>
AV-unprocessed.smi:2908-4

> <Gold.Version>
5.8.1

> <Gold.Id.Protein>
6NUR|6NUR_protein|mol2

> <Gold.PLP.Fitness>
57.0916

> <Gold.PLP.PLP>
-47.0515

> <Gold.PLP.part.hbond>
-5.7083

> <Gold.PLP.part.metal>
0.0000

> <Gold.PLP.part.buried>
-8.7011

> <Gold.PLP.part.nonpolar>
-34.9752

> <Gold.PLP.part.repulsive>
1.8406

> <Gold.PLP.ligand.clash>
0.0000

> <Gold.PLP.ligand.torsion>
1.1830

> <Gold.PLP.Chemscore.Hbond>
4.0081

> <Gold.PLP.Chemscore.CHOScore>
0.0000

> <Gold.PLP.Chemscore.Metal>
0.0000

> <Gold.Chemscore.Hbonds>
donor molecule, donor type, donor heavy atom, donor atom, acceptor molecule, acceptor atom, score
      P1  H  7989  7998       L1     1  0.01
      P1  H  8011  8017       L1     1  0.53

> <Gold.PLP.Chemscore.Internal.Correction>
0.3819

> <Gold.Rescore>
     Score         DG    S(hbond)    S(metal)    S(lipo)     H(rot)  DE(clash)    DE(int)     intcor
     14.77     -17.52       1.86        0.00     102.34       2.40       0.32       2.43       ----

> <Gold.Chemscore.Fitness>
14.7656

> <Gold.Chemscore.DG>
-17.5187

> <Gold.Chemscore.ZeroCoef>
-5.4800

> <Gold.Chemscore.Hbond>
1.8611

> <Gold.Chemscore.Metal>
0.0000

> <Gold.Chemscore.Lipo>
102.3372

> <Gold.Chemscore.Internal_Hbond>
0.0000

> <Gold.Chemscore.DEClash>
0.3234

> <Gold.Chemscore.DEInternal>
2.4297

> <Gold.Chemscore.Rot>
2.4026

> <Gold.Chemscore.Internal.Correction>
   9.000000E+99

> <Gold.Chemscore.Hbonds>
donor molecule, donor type, donor heavy atom, donor atom, acceptor molecule, acceptor atom, score
      P1  H  7989  7998       L1     1  0.02
      P1  H  8011  8017       L1     1  0.52

> <Gold.Chemscore.Hbond.Weighted>
-6.2160

> <Gold.Chemscore.Metal.Weighted>
-0.0000

> <Gold.Chemscore.Lipo.Weighted>
-11.9735

> <Gold.Chemscore.Internal_Hbond.Weighted>
0.0000

> <Gold.Chemscore.DEClash.Weighted>
0.3234

> <Gold.Chemscore.DEInternal.Weighted>
2.4297

> <Gold.Chemscore.Rot.Weighted>
6.1508

> <Gold.Chemscore.Internal.Correction.Weighted>
   9.000000E+99

> <Gold.Protein.RotatedTorsions>
[ 6907 6896 6895 6894 ] final   71.07 input  -60.11 | X-H torsion
[ 7974 7965 7964 7962 ] final  -15.15 input  175.53 | X-H torsion
[ 8008 7997 7996 7995 ] final -174.75 input   59.86 | X-H torsion
[ 10167 10162 10161 10158 ] final -142.08 input  -65.29 | X-H torsion
[ 10718 10713 10712 10709 ] final  116.49 input   66.30 | X-H torsion
[ 10763 10752 10751 10750 ] final   23.44 input  -60.55 | X-H torsion
[ 11005 11000 10999 10996 ] final -122.49 input  -57.11 | X-H torsion

> <Gold.Protein.ActiveResidues>
 VAL166  LYS551  ARG553  GLY616  TRP617  ASP618  TYR619  PRO620  LYS621  CYS622 
 ASP623  PHE694  ASN695  SER759  ASP760  ASP761  ALA762  ILE779  LEU786  VAL792 
 PHE793  MET794  SER795  GLU796  ALA797  LYS798  CYS799  TRP800  GLU811  SER814 

> <Gold.Protein.RotatedAtoms>
  152.4788  134.4775  159.9654 H   0  0  0  0  0  0  0  0  0  0  0  0  # atno 6907 bound_to 6896
  151.4785  133.3546  159.2842 H   0  0  0  0  0  0  0  0  0  0  0  0  # atno 6908 bound_to 6896
  150.8845  134.8267  159.7310 H   0  0  0  0  0  0  0  0  0  0  0  0  # atno 6909 bound_to 6896
  146.2044  140.3451  142.8412 H   0  0  0  0  0  0  0  0  0  0  0  0  # atno 7974 bound_to 7965
  155.9740  140.1168  157.0787 H   0  0  0  0  0  0  0  0  0  0  0  0  # atno 8008 bound_to 7997
  154.4164  140.1157  156.5412 H   0  0  0  0  0  0  0  0  0  0  0  0  # atno 8009 bound_to 7997
  155.6559  140.3473  155.4767 H   0  0  0  0  0  0  0  0  0  0  0  0  # atno 8010 bound_to 7997
  139.8122  143.7687  152.2664 H   0  0  0  0  0  0  0  0  0  0  0  0  # atno 10167 bound_to 10162
  157.6157  131.1026  150.7480 H   0  0  0  0  0  0  0  0  0  0  0  0  # atno 10718 bound_to 10713
  153.0838  135.6627  153.9991 H   0  0  0  0  0  0  0  0  0  0  0  0  # atno 10763 bound_to 10752
  153.9606  135.2974  155.3435 H   0  0  0  0  0  0  0  0  0  0  0  0  # atno 10764 bound_to 10752
  154.7242  135.5151  153.8932 H   0  0  0  0  0  0  0  0  0  0  0  0  # atno 10765 bound_to 10752
  140.9991  134.0429  157.3560 H   0  0  0  0  0  0  0  0  0  0  0  0  # atno 11005 bound_to 11000
  144.8758  140.7334  143.6018 LP  0  0  0  0  0  0  0  0  0  0  0  0  # atno 17320 bound_to 7965
  145.3371  139.1743  143.4505 LP  0  0  0  0  0  0  0  0  0  0  0  0  # atno 17321 bound_to 7965
  139.7839  144.7434  151.0049 LP  0  0  0  0  0  0  0  0  0  0  0  0  # atno 17342 bound_to 10162
  140.7817  143.4512  151.0409 LP  0  0  0  0  0  0  0  0  0  0  0  0  # atno 17343 bound_to 10162
  156.7848  130.4871  149.5395 LP  0  0  0  0  0  0  0  0  0  0  0  0  # atno 17370 bound_to 10713
  156.1278  130.6156  151.0289 LP  0  0  0  0  0  0  0  0  0  0  0  0  # atno 17371 bound_to 10713
  139.9029  135.0171  156.7355 LP  0  0  0  0  0  0  0  0  0  0  0  0  # atno 17394 bound_to 11000
  140.6918  133.9383  155.7971 LP  0  0  0  0  0  0  0  0  0  0  0  0  # atno 17395 bound_to 11000

$$$$
