AV-unprocessed.smi:1667|AV-procd|sdf|6676|dock8
  -GOLD-   22720 7393D 1   1.00000     0.00000
 Structure written by MMmdl.
 45 47  0  0  0  0  0  0  0  0  1 V2000
  154.1480  137.4948  162.3769 C   0  0  0  0  0  0  0  0  0  0  0  0
  153.5944  137.3756  160.9614 C   0  0  0  0  0  0  0  0  0  0  0  0
  153.4033  136.2646  160.4696 O   0  0  0  0  0  0  0  0  0  0  0  0
  153.3460  138.5351  160.3294 N   0  0  0  0  0  0  0  0  0  0  0  0
  152.8288  138.7315  158.9728 C   0  0  2  0  0  0  0  0  0  0  0  0
  153.5901  137.9277  157.9008 C   0  0  0  0  0  0  0  0  0  0  0  0
  152.7152  140.2086  158.6771 C   0  0  0  0  0  0  0  0  0  0  0  0
  153.4488  141.1157  159.3262 N   0  0  0  0  0  0  0  0  0  0  0  0
  152.9896  142.3114  158.8163 C   0  0  0  0  0  0  0  0  0  0  0  0
  153.3753  143.6395  159.1067 C   0  0  0  0  0  0  0  0  0  0  0  0
  152.7464  144.7227  158.4594 C   0  0  0  0  0  0  0  0  0  0  0  0
  151.7241  144.4931  157.5163 C   0  0  0  0  0  0  0  0  0  0  0  0
  151.3251  143.1769  157.2141 C   0  0  0  0  0  0  0  0  0  0  0  0
  151.9594  142.0974  157.8592 C   0  0  0  0  0  0  0  0  0  0  0  0
  151.8099  140.7137  157.7946 N   0  0  0  0  0  0  0  0  0  0  0  0
  150.8460  139.9974  156.9615 C   0  0  0  0  0  0  0  0  0  0  0  0
  150.9271  140.3427  155.4554 C   0  0  1  0  0  0  0  0  0  0  0  0
  151.9371  139.5789  154.8268 O   0  0  0  0  0  0  0  0  0  0  0  0
  149.5834  140.2391  154.7455 C   0  0  0  0  0  0  0  0  0  0  0  0
  149.0553  141.3330  154.0228 C   0  0  0  0  0  0  0  0  0  0  0  0
  147.8191  141.2155  153.3585 C   0  0  0  0  0  0  0  0  0  0  0  0
  147.1046  140.0035  153.4084 C   0  0  0  0  0  0  0  0  0  0  0  0
  147.6256  138.9098  154.1258 C   0  0  0  0  0  0  0  0  0  0  0  0
  146.9413  137.7425  154.1713 F   0  0  0  0  0  0  0  0  0  0  0  0
  148.8597  139.0281  154.7941 C   0  0  0  0  0  0  0  0  0  0  0  0
  151.8286  138.3067  158.9860 H   0  0  0  0  0  0  0  0  0  0  0  0
  153.4173  137.9707  163.0315 H   0  0  0  0  0  0  0  0  0  0  0  0
  155.0593  138.0936  162.3813 H   0  0  0  0  0  0  0  0  0  0  0  0
  154.3844  136.5118  162.7854 H   0  0  0  0  0  0  0  0  0  0  0  0
  153.5461  139.3803  160.8438 H   0  0  0  0  0  0  0  0  0  0  0  0
  153.1053  138.0227  156.9294 H   0  0  0  0  0  0  0  0  0  0  0  0
  153.6151  136.8673  158.1525 H   0  0  0  0  0  0  0  0  0  0  0  0
  154.6199  138.2646  157.7838 H   0  0  0  0  0  0  0  0  0  0  0  0
  154.1543  143.8249  159.8316 H   0  0  0  0  0  0  0  0  0  0  0  0
  153.0483  145.7339  158.6894 H   0  0  0  0  0  0  0  0  0  0  0  0
  151.2459  145.3279  157.0252 H   0  0  0  0  0  0  0  0  0  0  0  0
  150.5420  142.9999  156.4922 H   0  0  0  0  0  0  0  0  0  0  0  0
  150.9567  138.9243  157.1147 H   0  0  0  0  0  0  0  0  0  0  0  0
  149.8477  140.2347  157.3315 H   0  0  0  0  0  0  0  0  0  0  0  0
  151.2541  141.3801  155.3742 H   0  0  0  0  0  0  0  0  0  0  0  0
  151.6236  138.6930  154.7259 H   0  0  0  0  0  0  0  0  0  0  0  0
  149.6002  142.2639  153.9648 H   0  0  0  0  0  0  0  0  0  0  0  0
  147.4221  142.0537  152.8050 H   0  0  0  0  0  0  0  0  0  0  0  0
  146.1586  139.9125  152.8954 H   0  0  0  0  0  0  0  0  0  0  0  0
  149.2538  138.1821  155.3378 H   0  0  0  0  0  0  0  0  0  0  0  0
  1  2  1  0  0  0  0
  1 27  1  0  0  0  0
  1 28  1  0  0  0  0
  1 29  1  0  0  0  0
  2  3  2  0  0  0  0
  2  4  1  0  0  0  0
  4  5  1  0  0  0  0
  4 30  1  0  0  0  0
  5 26  1  0  0  0  0
  5  6  1  0  0  0  0
  5  7  1  0  0  0  0
  6 31  1  0  0  0  0
  6 32  1  0  0  0  0
  6 33  1  0  0  0  0
  7 15  1  0  0  0  0
  7  8  2  0  0  0  0
  8  9  1  0  0  0  0
  9 14  2  0  0  0  0
  9 10  1  0  0  0  0
 10 11  2  0  0  0  0
 10 34  1  0  0  0  0
 11 12  1  0  0  0  0
 11 35  1  0  0  0  0
 12 13  2  0  0  0  0
 12 36  1  0  0  0  0
 13 14  1  0  0  0  0
 13 37  1  0  0  0  0
 14 15  1  0  0  0  0
 15 16  1  0  0  0  0
 16 17  1  0  0  0  0
 16 38  1  0  0  0  0
 16 39  1  0  0  0  0
 17 18  1  0  0  0  0
 17 19  1  0  0  0  0
 17 40  1  0  0  0  0
 18 41  1  0  0  0  0
 19 25  1  0  0  0  0
 19 20  2  0  0  0  0
 20 21  1  0  0  0  0
 20 42  1  0  0  0  0
 21 22  2  0  0  0  0
 21 43  1  0  0  0  0
 22 23  1  0  0  0  0
 22 44  1  0  0  0  0
 23 24  1  0  0  0  0
 23 25  2  0  0  0  0
 25 45  1  0  0  0  0
M  END
> <s_m_source_file>
AV-unprocessed.smi

> <i_m_source_file_index>
1667

> <i_lp_mmshare_version>
43012

> <i_f3d_flags>
0

> <s_epik_input>
W0NIM11DKD1PKVtOSF1bQ0BASF0oW0NIM10pYyhuMSluKGMoYzEyKVtjSF1bY0hdW2NIXVtjSF0yKVtDSDJdW0NASF0oW09IXSljM1tjSF1bY0hdW2NIXWMoRilbY0hdMw==

> <s_epik_cmdline>
J2VwaWtfcHl0aG9uJywgJy1waCcsICc3LjAnLCAnLXRuJywgJzgnLCAnLW1hJywgJzIwMCcsICctbWV0YWxfYmluZGluZycsICctaW1hZScsICc8aW5maWxlLm1hZT4nLCAnLW9tYWUnLCAnPG91dGZpbGUubWFlPic=

> <r_epik_Ionization_Penalty>
0.133011

> <r_epik_Ionization_Penalty_Charging>
0

> <r_epik_Ionization_Penalty_Neutral>
0.133011

> <r_epik_State_Penalty>
0.122384

> <r_epik_Charging_Adjusted_Penalty>
0.122384

> <i_epik_Tot_Q>
0

> <i_epik_Tot_abs_Q>
0

> <r_epik_Metal_State_Penalty>
0.0997374

> <b_epik_Metal_Only>
0

> <s_lp_Force_Field>
OPLS_2005

> <r_lp_Energy>
8.29393

> <b_lp_Chiralities_Consistent>
1

> <s_lp_Variant>
AV-unprocessed.smi:1667-4

> <Gold.Version>
5.8.1

> <Gold.Id.Protein>
6NUR|6NUR_protein|mol2

> <Gold.PLP.Fitness>
53.6224

> <Gold.PLP.PLP>
-50.2701

> <Gold.PLP.part.hbond>
-2.0000

> <Gold.PLP.part.metal>
0.0000

> <Gold.PLP.part.buried>
-6.0194

> <Gold.PLP.part.nonpolar>
-42.7013

> <Gold.PLP.part.repulsive>
0.0582

> <Gold.PLP.ligand.clash>
0.0000

> <Gold.PLP.ligand.torsion>
1.0912

> <Gold.PLP.Chemscore.Hbond>
1.7752

> <Gold.PLP.Chemscore.CHOScore>
0.0000

> <Gold.PLP.Chemscore.Metal>
0.0000

> <Gold.Chemscore.Hbonds>
donor molecule, donor type, donor heavy atom, donor atom, acceptor molecule, acceptor atom, score
      P1  H  6896  6907       L1     3  1.00
      P1  H  7989  7998       L1    18  0.05

> <Gold.PLP.Chemscore.Internal.Correction>
0.2093

> <Gold.Rescore>
     Score         DG    S(hbond)    S(metal)    S(lipo)     H(rot)  DE(clash)    DE(int)     intcor
     19.52     -20.87       1.86        0.00     132.57       2.48       0.18       1.17       ----

> <Gold.Chemscore.Fitness>
19.5166

> <Gold.Chemscore.DG>
-20.8664

> <Gold.Chemscore.ZeroCoef>
-5.4800

> <Gold.Chemscore.Hbond>
1.8607

> <Gold.Chemscore.Metal>
0.0000

> <Gold.Chemscore.Lipo>
132.5650

> <Gold.Chemscore.Internal_Hbond>
0.0000

> <Gold.Chemscore.DEClash>
0.1848

> <Gold.Chemscore.DEInternal>
1.1650

> <Gold.Chemscore.Rot>
2.4760

> <Gold.Chemscore.Internal.Correction>
   9.000000E+99

> <Gold.Chemscore.Hbonds>
donor molecule, donor type, donor heavy atom, donor atom, acceptor molecule, acceptor atom, score
      P1  H  6896  6907       L1     3  1.00

> <Gold.Chemscore.Hbond.Weighted>
-6.2148

> <Gold.Chemscore.Metal.Weighted>
-0.0000

> <Gold.Chemscore.Lipo.Weighted>
-15.5101

> <Gold.Chemscore.Internal_Hbond.Weighted>
0.0000

> <Gold.Chemscore.DEClash.Weighted>
0.1848

> <Gold.Chemscore.DEInternal.Weighted>
1.1650

> <Gold.Chemscore.Rot.Weighted>
6.3385

> <Gold.Chemscore.Internal.Correction.Weighted>
   9.000000E+99

> <Gold.Protein.RotatedTorsions>
[ 6907 6896 6895 6894 ] final   43.40 input  -60.11 | X-H torsion
[ 7974 7965 7964 7962 ] final  -64.58 input  175.53 | X-H torsion
[ 8008 7997 7996 7995 ] final  -23.53 input   59.86 | X-H torsion
[ 10167 10162 10161 10158 ] final -149.27 input  -65.29 | X-H torsion
[ 10718 10713 10712 10709 ] final -163.74 input   66.30 | X-H torsion
[ 10763 10752 10751 10750 ] final  126.22 input  -60.55 | X-H torsion
[ 11005 11000 10999 10996 ] final -100.61 input  -57.11 | X-H torsion

> <Gold.Protein.ActiveResidues>
 VAL166  LYS551  ARG553  GLY616  TRP617  ASP618  TYR619  PRO620  LYS621  CYS622 
 ASP623  PHE694  ASN695  SER759  ASP760  ASP761  ALA762  ILE779  LEU786  VAL792 
 PHE793  MET794  SER795  GLU796  ALA797  LYS798  CYS799  TRP800  GLU811  SER814 

> <Gold.Protein.RotatedAtoms>
  152.2198  134.8424  160.0487 H   0  0  0  0  0  0  0  0  0  0  0  0  # atno 6907 bound_to 6896
  151.9211  133.3581  159.3905 H   0  0  0  0  0  0  0  0  0  0  0  0  # atno 6908 bound_to 6896
  150.6997  134.4559  159.5402 H   0  0  0  0  0  0  0  0  0  0  0  0  # atno 6909 bound_to 6896
  145.7650  140.8842  143.0410 H   0  0  0  0  0  0  0  0  0  0  0  0  # atno 7974 bound_to 7965
  154.4580  140.1978  156.0325 H   0  0  0  0  0  0  0  0  0  0  0  0  # atno 8008 bound_to 7997
  156.0784  140.3275  155.7634 H   0  0  0  0  0  0  0  0  0  0  0  0  # atno 8009 bound_to 7997
  155.5151  140.0565  157.2907 H   0  0  0  0  0  0  0  0  0  0  0  0  # atno 8010 bound_to 7997
  139.7457  143.8594  152.2574 H   0  0  0  0  0  0  0  0  0  0  0  0  # atno 10167 bound_to 10162
  156.6291  130.8922  151.2973 H   0  0  0  0  0  0  0  0  0  0  0  0  # atno 10718 bound_to 10713
  153.6899  135.3300  155.3199 H   0  0  0  0  0  0  0  0  0  0  0  0  # atno 10763 bound_to 10752
  154.8443  135.4429  154.1519 H   0  0  0  0  0  0  0  0  0  0  0  0  # atno 10764 bound_to 10752
  153.2558  135.6986  153.7708 H   0  0  0  0  0  0  0  0  0  0  0  0  # atno 10765 bound_to 10752
  141.1264  133.8412  157.1125 H   0  0  0  0  0  0  0  0  0  0  0  0  # atno 11005 bound_to 11000
  144.6823  139.9775  143.7483 LP  0  0  0  0  0  0  0  0  0  0  0  0  # atno 17320 bound_to 7965
  146.0227  139.3265  143.0803 LP  0  0  0  0  0  0  0  0  0  0  0  0  # atno 17321 bound_to 7965
  139.8558  144.7142  150.9159 LP  0  0  0  0  0  0  0  0  0  0  0  0  # atno 17342 bound_to 10162
  140.7792  143.3860  151.1393 LP  0  0  0  0  0  0  0  0  0  0  0  0  # atno 17343 bound_to 10162
  157.7205  130.9553  150.1421 LP  0  0  0  0  0  0  0  0  0  0  0  0  # atno 17370 bound_to 10713
  156.2249  130.3677  149.8512 LP  0  0  0  0  0  0  0  0  0  0  0  0  # atno 17371 bound_to 10713
  140.0266  134.9921  157.0699 LP  0  0  0  0  0  0  0  0  0  0  0  0  # atno 17394 bound_to 11000
  140.4352  134.1738  155.7170 LP  0  0  0  0  0  0  0  0  0  0  0  0  # atno 17395 bound_to 11000

$$$$
