AV-unprocessed.smi:148|AV-procd|sdf|1227|dock6
  -GOLD-   2262018423D 1   1.00000     0.00000
 Structure written by MMmdl.
 63 67  0  0  0  0  0  0  0  0  1 V2000
  145.4938  135.3304  157.7883 O   0  0  0  0  0  0  0  0  0  0  0  0
  145.0240  134.2373  158.5496 C   0  0  0  0  0  0  0  0  0  0  0  0
  146.0488  133.8472  159.6409 C   0  0  1  0  0  0  0  0  0  0  0  0
  147.4045  133.4663  158.9940 C   0  0  0  0  0  0  0  0  0  0  0  0
  147.2735  132.5365  157.8858 N   0  0  0  0  0  0  0  0  0  0  0  0
  146.8867  131.2172  157.9636 C   0  0  0  0  0  0  0  0  0  0  0  0
  146.8409  130.5817  156.8241 N   0  0  0  0  0  0  0  0  0  0  0  0
  147.2214  131.5386  155.8926 C   0  0  0  0  0  0  0  0  0  0  0  0
  147.3774  131.5341  154.4823 C   0  0  0  0  0  0  0  0  0  0  0  0
  147.1484  130.4271  153.7428 N   0  0  0  0  0  0  0  0  0  0  0  0
  148.1597  129.4135  154.0517 C   0  0  0  0  0  0  0  0  0  0  0  0
  147.7867  128.0515  153.4599 C   0  0  0  0  0  0  0  0  0  0  0  0
  147.5717  128.1856  151.9523 C   0  0  0  0  0  0  0  0  0  0  0  0
  146.5066  129.2533  151.6726 C   0  0  0  0  0  0  0  0  0  0  0  0
  146.8452  130.6288  152.3102 C   0  0  1  0  0  0  0  0  0  0  0  0
  145.6802  131.6481  152.0492 C   0  0  2  0  0  0  0  0  0  0  0  0
  144.6664  131.2198  150.9716 C   0  0  0  0  0  0  0  0  0  0  0  0
  143.8933  132.4830  150.5784 C   0  0  0  0  0  0  0  0  0  0  0  0
  144.7499  133.6675  151.0387 C   0  0  0  0  0  0  0  0  0  0  0  0
  146.0574  133.0698  151.5711 C   0  0  2  0  0  0  0  0  0  0  0  0
  147.0005  133.0243  150.5163 O   0  0  0  0  0  0  0  0  0  0  0  0
  147.7798  132.6843  153.8794 N   0  0  0  0  0  0  0  0  0  0  0  0
  148.0012  133.7781  154.6151 C   0  0  0  0  0  0  0  0  0  0  0  0
  147.8866  133.9330  155.9363 N   0  0  0  0  0  0  0  0  0  0  0  0
  147.4927  132.7752  156.5405 C   0  0  0  0  0  0  0  0  0  0  0  0
  146.2106  134.9143  160.7612 C   0  0  1  0  0  0  0  0  0  0  0  0
  147.0913  134.5357  161.9375 C   0  0  0  0  0  0  0  0  0  0  0  0
  147.2998  135.8906  162.6054 C   0  0  0  0  0  0  0  0  0  0  0  0
  147.3109  136.8453  161.5474 O   0  0  0  0  0  0  0  0  0  0  0  0
  146.8229  136.2553  160.3449 C   0  0  0  0  0  0  0  0  0  0  0  0
  146.3070  135.6322  158.1637 H   0  0  0  0  0  0  0  0  0  0  0  0
  144.0621  134.5019  158.9891 H   0  0  0  0  0  0  0  0  0  0  0  0
  144.8426  133.4204  157.8541 H   0  0  0  0  0  0  0  0  0  0  0  0
  145.6647  132.9522  160.1330 H   0  0  0  0  0  0  0  0  0  0  0  0
  147.9121  134.3536  158.6150 H   0  0  0  0  0  0  0  0  0  0  0  0
  148.0693  133.0310  159.7410 H   0  0  0  0  0  0  0  0  0  0  0  0
  146.6405  130.7377  158.9000 H   0  0  0  0  0  0  0  0  0  0  0  0
  149.1267  129.7296  153.6572 H   0  0  0  0  0  0  0  0  0  0  0  0
  148.2737  129.3172  155.1328 H   0  0  0  0  0  0  0  0  0  0  0  0
  148.5718  127.3237  153.6666 H   0  0  0  0  0  0  0  0  0  0  0  0
  146.8783  127.6776  153.9340 H   0  0  0  0  0  0  0  0  0  0  0  0
  148.5085  128.4604  151.4659 H   0  0  0  0  0  0  0  0  0  0  0  0
  147.2669  127.2281  151.5290 H   0  0  0  0  0  0  0  0  0  0  0  0
  146.4025  129.3415  150.5917 H   0  0  0  0  0  0  0  0  0  0  0  0
  145.5439  128.9039  152.0490 H   0  0  0  0  0  0  0  0  0  0  0  0
  147.7523  130.9932  151.8264 H   0  0  0  0  0  0  0  0  0  0  0  0
  145.1178  131.7523  152.9792 H   0  0  0  0  0  0  0  0  0  0  0  0
  145.1961  130.8404  150.0965 H   0  0  0  0  0  0  0  0  0  0  0  0
  143.9941  130.4334  151.3161 H   0  0  0  0  0  0  0  0  0  0  0  0
  143.7136  132.5109  149.5034 H   0  0  0  0  0  0  0  0  0  0  0  0
  142.9217  132.5097  151.0728 H   0  0  0  0  0  0  0  0  0  0  0  0
  144.9122  134.3988  150.2454 H   0  0  0  0  0  0  0  0  0  0  0  0
  144.2343  134.1851  151.8486 H   0  0  0  0  0  0  0  0  0  0  0  0
  146.4515  133.7005  152.3655 H   0  0  0  0  0  0  0  0  0  0  0  0
  147.3958  132.1657  150.5062 H   0  0  0  0  0  0  0  0  0  0  0  0
  148.3119  134.6550  154.0666 H   0  0  0  0  0  0  0  0  0  0  0  0
  145.2243  135.1556  161.1590 H   0  0  0  0  0  0  0  0  0  0  0  0
  146.6331  133.8052  162.6039 H   0  0  0  0  0  0  0  0  0  0  0  0
  148.0510  134.1409  161.6044 H   0  0  0  0  0  0  0  0  0  0  0  0
  146.4641  136.1181  163.2686 H   0  0  0  0  0  0  0  0  0  0  0  0
  148.2179  135.9311  163.1915 H   0  0  0  0  0  0  0  0  0  0  0  0
  147.6687  136.1344  159.6706 H   0  0  0  0  0  0  0  0  0  0  0  0
  146.0975  136.9047  159.8545 H   0  0  0  0  0  0  0  0  0  0  0  0
  1  2  1  0  0  0  0
  1 31  1  0  0  0  0
  2  3  1  0  0  0  0
  2 32  1  0  0  0  0
  2 33  1  0  0  0  0
  3  4  1  0  0  0  0
  3 26  1  0  0  0  0
  3 34  1  0  0  0  0
  4  5  1  0  0  0  0
  4 35  1  0  0  0  0
  4 36  1  0  0  0  0
  5 25  1  0  0  0  0
  5  6  1  0  0  0  0
  6  7  2  0  0  0  0
  6 37  1  0  0  0  0
  7  8  1  0  0  0  0
  8 25  2  0  0  0  0
  8  9  1  0  0  0  0
  9 10  1  0  0  0  0
  9 22  2  0  0  0  0
 10 15  1  0  0  0  0
 10 11  1  0  0  0  0
 11 12  1  0  0  0  0
 11 38  1  0  0  0  0
 11 39  1  0  0  0  0
 12 13  1  0  0  0  0
 12 40  1  0  0  0  0
 12 41  1  0  0  0  0
 13 14  1  0  0  0  0
 13 42  1  0  0  0  0
 13 43  1  0  0  0  0
 14 15  1  0  0  0  0
 14 44  1  0  0  0  0
 14 45  1  0  0  0  0
 15 16  1  0  0  0  0
 15 46  1  0  0  0  0
 16 20  1  0  0  0  0
 16 17  1  0  0  0  0
 16 47  1  0  0  0  0
 17 18  1  0  0  0  0
 17 48  1  0  0  0  0
 17 49  1  0  0  0  0
 18 19  1  0  0  0  0
 18 50  1  0  0  0  0
 18 51  1  0  0  0  0
 19 20  1  0  0  0  0
 19 52  1  0  0  0  0
 19 53  1  0  0  0  0
 20 21  1  0  0  0  0
 20 54  1  0  0  0  0
 21 55  1  0  0  0  0
 22 23  1  0  0  0  0
 23 24  2  0  0  0  0
 23 56  1  0  0  0  0
 24 25  1  0  0  0  0
 26 30  1  0  0  0  0
 26 27  1  0  0  0  0
 26 57  1  0  0  0  0
 27 28  1  0  0  0  0
 27 58  1  0  0  0  0
 27 59  1  0  0  0  0
 28 29  1  0  0  0  0
 28 60  1  0  0  0  0
 28 61  1  0  0  0  0
 29 30  1  0  0  0  0
 30 62  1  0  0  0  0
 30 63  1  0  0  0  0
M  END
> <s_m_source_file>
AV-unprocessed.smi

> <i_m_source_file_index>
148

> <i_lp_mmshare_version>
43012

> <i_f3d_flags>
0

> <s_epik_input>
W0NIMl0xT1tDSDJdW0NIMl1bQ0BIXTFbQ0BIXShbQ0gyXVtPSF0pW0NIMl1uKFtjSF1uMiljKGMyMyluW2NIXW5jM040W0NIMl1bQ0gyXVtDSDJdW0NIMl1bQ0BIXTRbQ0BASF01W0NIMl1bQ0gyXVtDSDJdW0NASF01W09IXQ==

> <s_epik_cmdline>
J2VwaWtfcHl0aG9uJywgJy1waCcsICc3LjAnLCAnLXRuJywgJzgnLCAnLW1hJywgJzIwMCcsICctbWV0YWxfYmluZGluZycsICctaW1hZScsICc8aW5maWxlLm1hZT4nLCAnLW9tYWUnLCAnPG91dGZpbGUubWFlPic=

> <r_lp_tautomer_probability>
1

> <r_epik_Ionization_Penalty>
0.00556303

> <r_epik_Ionization_Penalty_Charging>
0

> <r_epik_Ionization_Penalty_Neutral>
0.00556303

> <r_epik_State_Penalty>
0.00401767

> <r_epik_Charging_Adjusted_Penalty>
0.00401767

> <i_epik_Tot_Q>
0

> <i_epik_Tot_abs_Q>
0

> <r_epik_Metal_State_Penalty>
-0

> <b_epik_Metal_Only>
0

> <s_lp_Force_Field>
OPLS_2005

> <r_lp_Energy>
69.6846

> <b_lp_Chiralities_Consistent>
1

> <s_lp_Variant>
AV-unprocessed.smi:148-26

> <Gold.Version>
5.8.1

> <Gold.Id.Protein>
6NUR|6NUR_protein|mol2

> <Gold.PLP.Fitness>
47.2752

> <Gold.PLP.PLP>
-38.9464

> <Gold.PLP.part.hbond>
-3.3199

> <Gold.PLP.part.metal>
0.0000

> <Gold.PLP.part.buried>
-3.9930

> <Gold.PLP.part.nonpolar>
-30.8858

> <Gold.PLP.part.repulsive>
0.2585

> <Gold.PLP.ligand.clash>
0.0000

> <Gold.PLP.ligand.torsion>
1.7899

> <Gold.PLP.Chemscore.Hbond>
2.8480

> <Gold.PLP.Chemscore.CHOScore>
0.8949

> <Gold.PLP.Chemscore.Metal>
0.0000

> <Gold.Chemscore.Hbonds>
donor molecule, donor type, donor heavy atom, donor atom, acceptor molecule, acceptor atom, score
      L1  H    21    55       P1 10747  0.93
      P1  H  6931  6943       L1    29  0.46
      P1  H  6934  6947       L1    29  0.39
      L1  C    23    56       P1  7948  0.43

> <Gold.PLP.Chemscore.Internal.Correction>
0.6798

> <Gold.Rescore>
     Score         DG    S(hbond)    S(metal)    S(lipo)     H(rot)  DE(clash)    DE(int)     intcor
     11.43     -15.64       1.88        0.00     105.75       3.32       0.03       4.18       ----

> <Gold.Chemscore.Fitness>
11.4277

> <Gold.Chemscore.DG>
-15.6400

> <Gold.Chemscore.ZeroCoef>
-5.4800

> <Gold.Chemscore.Hbond>
1.8826

> <Gold.Chemscore.Metal>
0.0000

> <Gold.Chemscore.Lipo>
105.7450

> <Gold.Chemscore.Internal_Hbond>
0.0000

> <Gold.Chemscore.DEClash>
0.0280

> <Gold.Chemscore.DEInternal>
4.1843

> <Gold.Chemscore.Rot>
3.3203

> <Gold.Chemscore.Internal.Correction>
   9.000000E+99

> <Gold.Chemscore.Hbonds>
donor molecule, donor type, donor heavy atom, donor atom, acceptor molecule, acceptor atom, score
      L1  H    21    55       P1 10747  0.86
      P1  H  6931  6943       L1    29  0.29
      P1  H  6934  6947       L1    29  0.08

> <Gold.Chemscore.Hbond.Weighted>
-6.2878

> <Gold.Chemscore.Metal.Weighted>
-0.0000

> <Gold.Chemscore.Lipo.Weighted>
-12.3722

> <Gold.Chemscore.Internal_Hbond.Weighted>
0.0000

> <Gold.Chemscore.DEClash.Weighted>
0.0280

> <Gold.Chemscore.DEInternal.Weighted>
4.1843

> <Gold.Chemscore.Rot.Weighted>
8.5000

> <Gold.Chemscore.Internal.Correction.Weighted>
   9.000000E+99

> <Gold.Protein.RotatedTorsions>
[ 6907 6896 6895 6894 ] final  155.29 input  -60.11 | X-H torsion
[ 7974 7965 7964 7962 ] final  152.57 input  175.53 | X-H torsion
[ 8008 7997 7996 7995 ] final  114.01 input   59.86 | X-H torsion
[ 10167 10162 10161 10158 ] final  -47.47 input  -65.29 | X-H torsion
[ 10718 10713 10712 10709 ] final   -8.02 input   66.30 | X-H torsion
[ 10763 10752 10751 10750 ] final  -23.04 input  -60.55 | X-H torsion
[ 11005 11000 10999 10996 ] final -113.37 input  -57.11 | X-H torsion

> <Gold.Protein.ActiveResidues>
 VAL166  LYS551  ARG553  GLY616  TRP617  ASP618  TYR619  PRO620  LYS621  CYS622 
 ASP623  PHE694  ASN695  SER759  ASP760  ASP761  ALA762  ILE779  LEU786  VAL792 
 PHE793  MET794  SER795  GLU796  ALA797  LYS798  CYS799  TRP800  GLU811  SER814 

> <Gold.Protein.RotatedAtoms>
  152.0463  133.3999  159.4357 H   0  0  0  0  0  0  0  0  0  0  0  0  # atno 6907 bound_to 6896
  150.6872  134.3358  159.4856 H   0  0  0  0  0  0  0  0  0  0  0  0  # atno 6908 bound_to 6896
  152.1163  134.9238  160.0615 H   0  0  0  0  0  0  0  0  0  0  0  0  # atno 6909 bound_to 6896
  144.8213  139.6685  143.6099 H   0  0  0  0  0  0  0  0  0  0  0  0  # atno 7974 bound_to 7965
  156.2294  140.2968  156.0150 H   0  0  0  0  0  0  0  0  0  0  0  0  # atno 8008 bound_to 7997
  155.2266  140.0417  157.2973 H   0  0  0  0  0  0  0  0  0  0  0  0  # atno 8009 bound_to 7997
  154.5970  140.2417  155.7851 H   0  0  0  0  0  0  0  0  0  0  0  0  # atno 8010 bound_to 7997
  140.6773  143.2783  151.3931 H   0  0  0  0  0  0  0  0  0  0  0  0  # atno 10167 bound_to 10162
  156.7087  130.5115  149.5898 H   0  0  0  0  0  0  0  0  0  0  0  0  # atno 10718 bound_to 10713
  153.6615  135.6976  153.5176 H   0  0  0  0  0  0  0  0  0  0  0  0  # atno 10763 bound_to 10752
  153.2628  135.4239  155.0910 H   0  0  0  0  0  0  0  0  0  0  0  0  # atno 10764 bound_to 10752
  154.8451  135.3559  154.6160 H   0  0  0  0  0  0  0  0  0  0  0  0  # atno 10765 bound_to 10752
  141.0618  133.9522  157.2652 H   0  0  0  0  0  0  0  0  0  0  0  0  # atno 11005 bound_to 11000
  146.2519  139.6218  142.9421 LP  0  0  0  0  0  0  0  0  0  0  0  0  # atno 17320 bound_to 7965
  145.5098  141.0435  143.2494 LP  0  0  0  0  0  0  0  0  0  0  0  0  # atno 17321 bound_to 7965
  139.6074  144.1169  152.2263 LP  0  0  0  0  0  0  0  0  0  0  0  0  # atno 17342 bound_to 10162
  140.0572  144.5885  150.7290 LP  0  0  0  0  0  0  0  0  0  0  0  0  # atno 17343 bound_to 10162
  156.1676  130.6416  151.0798 LP  0  0  0  0  0  0  0  0  0  0  0  0  # atno 17370 bound_to 10713
  157.6944  131.0799  150.7011 LP  0  0  0  0  0  0  0  0  0  0  0  0  # atno 17371 bound_to 10713
  139.9440  135.0187  156.8795 LP  0  0  0  0  0  0  0  0  0  0  0  0  # atno 17394 bound_to 11000
  140.5853  134.0314  155.7479 LP  0  0  0  0  0  0  0  0  0  0  0  0  # atno 17395 bound_to 11000

$$$$
