AV-unprocessed.smi:3181|AV-procd|sdf|12139|dock6
  -GOLD-   2272017573D 1   1.00000     0.00000
 Structure written by MMmdl.
 42 43  0  0  0  0  0  0  0  0  2 V2000
  149.3273  140.1349  157.2282 C   0  0  0  0  0  0  0  0  0  0  0  0
  148.9498  141.5109  156.6519 C   0  0  2  0  0  0  0  0  0  0  0  0
  149.2783  141.6435  155.1515 C   0  0  0  0  0  0  0  0  0  0  0  0
  148.4591  140.7844  154.3165 N   0  0  0  0  0  0  0  0  0  0  0  0
  147.4650  141.0823  153.4781 C   0  0  0  0  0  0  0  0  0  0  0  0
  146.9371  140.0252  152.8775 N   0  0  0  0  0  0  0  0  0  0  0  0
  147.7104  139.0408  153.4254 C   0  0  0  0  0  0  0  0  0  0  0  0
  148.6388  139.4430  154.2937 N   0  0  0  0  0  0  0  0  0  0  0  0
  149.6464  142.5804  157.4022 N   0  3  0  0  0  0  0  0  0  0  0  0
  151.0987  142.7234  157.1415 C   0  0  2  0  0  0  0  0  0  0  0  0
  151.8821  141.5888  157.8223 C   0  0  0  0  0  0  0  0  0  0  0  0
  151.9042  141.7399  159.3515 C   0  0  0  0  0  0  0  0  0  0  0  0
  152.4594  143.1085  159.7950 C   0  0  2  0  0  0  0  0  0  0  0  0
  152.4634  143.1946  161.3316 C   0  0  0  0  0  0  0  0  0  0  0  0
  151.6677  144.2634  159.1266 C   0  0  1  0  0  0  0  0  0  0  0  0
  152.2166  145.6549  159.4887 C   0  0  0  0  0  0  0  0  0  0  0  0
  151.6470  144.0934  157.5914 C   0  0  0  0  0  0  0  0  0  0  0  0
  148.7712  139.3316  156.7446 H   0  0  0  0  0  0  0  0  0  0  0  0
  149.1087  140.0768  158.2945 H   0  0  0  0  0  0  0  0  0  0  0  0
  150.3901  139.9291  157.0968 H   0  0  0  0  0  0  0  0  0  0  0  0
  147.8717  141.6364  156.7640 H   0  0  0  0  0  0  0  0  0  0  0  0
  149.1258  142.6727  154.8236 H   0  0  0  0  0  0  0  0  0  0  0  0
  150.3295  141.4119  154.9701 H   0  0  0  0  0  0  0  0  0  0  0  0
  147.1187  142.0911  153.3057 H   0  0  0  0  0  0  0  0  0  0  0  0
  147.5846  137.9969  153.1777 H   0  0  0  0  0  0  0  0  0  0  0  0
  149.1910  143.4630  157.2184 H   0  0  0  0  0  0  0  0  0  0  0  0
  151.2444  142.6215  156.0649 H   0  0  0  0  0  0  0  0  0  0  0  0
  151.4625  140.6200  157.5473 H   0  0  0  0  0  0  0  0  0  0  0  0
  152.9081  141.5900  157.4520 H   0  0  0  0  0  0  0  0  0  0  0  0
  150.8969  141.6052  159.7481 H   0  0  0  0  0  0  0  0  0  0  0  0
  152.5078  140.9392  159.7805 H   0  0  0  0  0  0  0  0  0  0  0  0
  153.4963  143.1692  159.4604 H   0  0  0  0  0  0  0  0  0  0  0  0
  151.4489  143.2115  161.7311 H   0  0  0  0  0  0  0  0  0  0  0  0
  152.9793  144.0863  161.6866 H   0  0  0  0  0  0  0  0  0  0  0  0
  152.9768  142.3382  161.7696 H   0  0  0  0  0  0  0  0  0  0  0  0
  150.6381  144.2198  159.4841 H   0  0  0  0  0  0  0  0  0  0  0  0
  153.2722  145.7453  159.2306 H   0  0  0  0  0  0  0  0  0  0  0  0
  152.1110  145.8682  160.5521 H   0  0  0  0  0  0  0  0  0  0  0  0
  151.6773  146.4388  158.9561 H   0  0  0  0  0  0  0  0  0  0  0  0
  152.6646  144.2002  157.2122 H   0  0  0  0  0  0  0  0  0  0  0  0
  151.0792  144.9011  157.1293 H   0  0  0  0  0  0  0  0  0  0  0  0
  149.5396  142.3707  158.3845 H   0  0  0  0  0  0  0  0  0  0  0  0
  1  2  1  0  0  0  0
  1 18  1  0  0  0  0
  1 19  1  0  0  0  0
  1 20  1  0  0  0  0
  2  3  1  0  0  0  0
  2  9  1  0  0  0  0
  2 21  1  0  0  0  0
  3  4  1  0  0  0  0
  3 22  1  0  0  0  0
  3 23  1  0  0  0  0
  4  8  1  0  0  0  0
  4  5  1  0  0  0  0
  5  6  2  0  0  0  0
  5 24  1  0  0  0  0
  6  7  1  0  0  0  0
  7  8  2  0  0  0  0
  7 25  1  0  0  0  0
  9 10  1  0  0  0  0
  9 26  1  0  0  0  0
  9 42  1  0  0  0  0
 10 17  1  0  0  0  0
 10 11  1  0  0  0  0
 10 27  1  0  0  0  0
 11 12  1  0  0  0  0
 11 28  1  0  0  0  0
 11 29  1  0  0  0  0
 12 13  1  0  0  0  0
 12 30  1  0  0  0  0
 12 31  1  0  0  0  0
 13 14  1  0  0  0  0
 13 15  1  0  0  0  0
 13 32  1  0  0  0  0
 14 33  1  0  0  0  0
 14 34  1  0  0  0  0
 14 35  1  0  0  0  0
 15 16  1  0  0  0  0
 15 17  1  0  0  0  0
 15 36  1  0  0  0  0
 16 37  1  0  0  0  0
 16 38  1  0  0  0  0
 16 39  1  0  0  0  0
 17 40  1  0  0  0  0
 17 41  1  0  0  0  0
M  CHG  1   9   1
M  END
> <s_m_source_file>
AV-unprocessed.smi

> <i_m_source_file_index>
3181

> <i_lp_mmshare_version>
43012

> <i_f3d_flags>
0

> <s_epik_input>
bjFbY0hdbltjSF1uMVtDSDJdW0NAQEhdKFtDSDNdKVtOSF1bQ0BASF0yW0NIMl1bQ0gyXVtDQEBIXShbQ0gzXSlbQ0BASF0oW0NIM10pW0NIMl0y

> <s_epik_cmdline>
J2VwaWtfcHl0aG9uJywgJy1waCcsICc3LjAnLCAnLXRuJywgJzgnLCAnLW1hJywgJzIwMCcsICctbWV0YWxfYmluZGluZycsICctaW1hZScsICc8aW5maWxlLm1hZT4nLCAnLW9tYWUnLCAnPG91dGZpbGUubWFlPic=

> <r_lp_tautomer_probability>
1

> <r_epik_Ionization_Penalty>
0.000617007

> <r_epik_Ionization_Penalty_Charging>
0.000616215

> <r_epik_Ionization_Penalty_Neutral>
7.92544e-07

> <r_epik_State_Penalty>
0.000388807

> <r_epik_Charging_Adjusted_Penalty>
0.00100502

> <i_epik_Tot_Q>
1

> <i_epik_Tot_abs_Q>
1

> <r_epik_Metal_State_Penalty>
-0

> <b_epik_Metal_Only>
0

> <s_lp_Force_Field>
OPLS_2005

> <r_lp_Energy>
23.3583

> <b_lp_Chiralities_Consistent>
1

> <s_lp_Variant>
AV-unprocessed.smi:3181-5

> <Gold.Version>
5.8.1

> <Gold.Id.Protein>
6NUR|6NUR_protein|mol2

> <Gold.PLP.Fitness>
45.3886

> <Gold.PLP.PLP>
-38.3689

> <Gold.PLP.part.hbond>
-1.0000

> <Gold.PLP.part.metal>
0.0000

> <Gold.PLP.part.buried>
-3.6974

> <Gold.PLP.part.nonpolar>
-32.9815

> <Gold.PLP.part.repulsive>
0.4131

> <Gold.PLP.ligand.clash>
0.0354

> <Gold.PLP.ligand.torsion>
0.3635

> <Gold.PLP.Chemscore.Hbond>
1.5860

> <Gold.PLP.Chemscore.CHOScore>
1.0000

> <Gold.PLP.Chemscore.Metal>
0.0000

> <Gold.Chemscore.Hbonds>
donor molecule, donor type, donor heavy atom, donor atom, acceptor molecule, acceptor atom, score
      L1  H     9    26       P1  8028  1.60
      L1  C     7    25       P1  7948  0.87

> <Gold.PLP.Chemscore.Internal.Correction>
0.0241

> <Gold.Rescore>
     Score         DG    S(hbond)    S(metal)    S(lipo)     H(rot)  DE(clash)    DE(int)     intcor
     11.84     -14.54       0.81        0.00     100.34       2.11       0.06       2.64       ----

> <Gold.Chemscore.Fitness>
11.8389

> <Gold.Chemscore.DG>
-14.5408

> <Gold.Chemscore.ZeroCoef>
-5.4800

> <Gold.Chemscore.Hbond>
0.8147

> <Gold.Chemscore.Metal>
0.0000

> <Gold.Chemscore.Lipo>
100.3415

> <Gold.Chemscore.Internal_Hbond>
0.0000

> <Gold.Chemscore.DEClash>
0.0591

> <Gold.Chemscore.DEInternal>
2.6428

> <Gold.Chemscore.Rot>
2.1095

> <Gold.Chemscore.Internal.Correction>
   9.000000E+99

> <Gold.Chemscore.Hbonds>
donor molecule, donor type, donor heavy atom, donor atom, acceptor molecule, acceptor atom, score
      L1  H     9    26       P1  8028  0.50

> <Gold.Chemscore.Hbond.Weighted>
-2.7211

> <Gold.Chemscore.Metal.Weighted>
-0.0000

> <Gold.Chemscore.Lipo.Weighted>
-11.7400

> <Gold.Chemscore.Internal_Hbond.Weighted>
0.0000

> <Gold.Chemscore.DEClash.Weighted>
0.0591

> <Gold.Chemscore.DEInternal.Weighted>
2.6428

> <Gold.Chemscore.Rot.Weighted>
5.4003

> <Gold.Chemscore.Internal.Correction.Weighted>
   9.000000E+99

> <Gold.Protein.RotatedTorsions>
[ 6907 6896 6895 6894 ] final -119.76 input  -60.11 | X-H torsion
[ 7974 7965 7964 7962 ] final  -82.86 input  175.53 | X-H torsion
[ 8008 7997 7996 7995 ] final    2.22 input   59.86 | X-H torsion
[ 10167 10162 10161 10158 ] final    2.41 input  -65.29 | X-H torsion
[ 10718 10713 10712 10709 ] final  169.48 input   66.30 | X-H torsion
[ 10763 10752 10751 10750 ] final   -1.21 input  -60.55 | X-H torsion
[ 11005 11000 10999 10996 ] final   47.83 input  -57.11 | X-H torsion

> <Gold.Protein.ActiveResidues>
 VAL166  LYS551  ARG553  GLY616  TRP617  ASP618  TYR619  PRO620  LYS621  CYS622 
 ASP623  PHE694  ASN695  SER759  ASP760  ASP761  ALA762  ILE779  LEU786  VAL792 
 PHE793  MET794  SER795  GLU796  ALA797  LYS798  CYS799  TRP800  GLU811  SER814 

> <Gold.Protein.RotatedAtoms>
  150.8334  133.8054  159.3089 H   0  0  0  0  0  0  0  0  0  0  0  0  # atno 6907 bound_to 6896
  151.5777  135.1058  160.0019 H   0  0  0  0  0  0  0  0  0  0  0  0  # atno 6908 bound_to 6896
  152.4410  133.7406  159.6695 H   0  0  0  0  0  0  0  0  0  0  0  0  # atno 6909 bound_to 6896
  145.5276  140.9525  143.1621 H   0  0  0  0  0  0  0  0  0  0  0  0  # atno 7974 bound_to 7965
  154.6890  140.2649  155.6832 H   0  0  0  0  0  0  0  0  0  0  0  0  # atno 8008 bound_to 7997
  156.2725  140.2795  156.1384 H   0  0  0  0  0  0  0  0  0  0  0  0  # atno 8009 bound_to 7997
  155.0924  140.0373  157.2662 H   0  0  0  0  0  0  0  0  0  0  0  0  # atno 8010 bound_to 7997
  140.6636  143.7238  150.7785 H   0  0  0  0  0  0  0  0  0  0  0  0  # atno 10167 bound_to 10162
  157.0221  131.0235  151.2771 H   0  0  0  0  0  0  0  0  0  0  0  0  # atno 10718 bound_to 10713
  153.3419  135.6981  153.6860 H   0  0  0  0  0  0  0  0  0  0  0  0  # atno 10763 bound_to 10752
  153.5622  135.3532  155.2804 H   0  0  0  0  0  0  0  0  0  0  0  0  # atno 10764 bound_to 10752
  154.8638  135.4252  154.2633 H   0  0  0  0  0  0  0  0  0  0  0  0  # atno 10765 bound_to 10752
  140.1244  134.4787  155.8571 H   0  0  0  0  0  0  0  0  0  0  0  0  # atno 11005 bound_to 11000
  144.7643  139.6883  143.7221 LP  0  0  0  0  0  0  0  0  0  0  0  0  # atno 17320 bound_to 7965
  146.2065  139.5393  142.9709 LP  0  0  0  0  0  0  0  0  0  0  0  0  # atno 17321 bound_to 7965
  140.0911  143.4877  152.2478 LP  0  0  0  0  0  0  0  0  0  0  0  0  # atno 17342 bound_to 10162
  139.5878  144.7538  151.3476 LP  0  0  0  0  0  0  0  0  0  0  0  0  # atno 17343 bound_to 10162
  157.5242  130.8017  149.7843 LP  0  0  0  0  0  0  0  0  0  0  0  0  # atno 17370 bound_to 10713
  156.0099  130.3838  150.2302 LP  0  0  0  0  0  0  0  0  0  0  0  0  # atno 17371 bound_to 10713
  141.2158  133.6772  156.6950 LP  0  0  0  0  0  0  0  0  0  0  0  0  # atno 17394 bound_to 11000
  140.2923  134.8231  157.4027 LP  0  0  0  0  0  0  0  0  0  0  0  0  # atno 17395 bound_to 11000

$$$$
