AV-unprocessed.smi:1724|AV-procd|sdf|6952|dock7
  -GOLD-   22720 8163D 1   1.00000     0.00000
 Structure written by MMmdl.
 37 38  0  0  0  0  0  0  0  0  2 V2000
  151.7019  139.7005  155.2941 O   0  0  0  0  0  0  0  0  0  0  0  0
  150.6948  139.7140  156.0011 C   0  0  0  0  0  0  0  0  0  0  0  0
  150.1416  140.8426  156.4685 N   0  0  0  0  0  0  0  0  0  0  0  0
  150.6263  142.1968  156.2165 C   0  0  0  0  0  0  0  0  0  0  0  0
  151.3849  142.7841  157.4243 C   0  0  1  0  0  0  0  0  0  0  0  0
  151.8843  144.2218  157.1849 C   0  0  0  0  0  0  0  0  0  0  0  0
  152.5417  144.7742  158.4544 C   0  0  0  0  0  0  0  0  0  0  0  0
  151.5956  144.6301  159.6554 C   0  0  0  0  0  0  0  0  0  0  0  0
  151.2217  143.2659  159.8101 O   0  0  0  0  0  0  0  0  0  0  0  0
  150.5052  142.7548  158.6907 C   0  0  0  0  0  0  0  0  0  0  0  0
  149.9961  138.6396  156.4115 N   0  0  0  0  0  0  0  0  0  0  0  0
  150.2102  137.2711  156.1676 C   0  0  0  0  0  0  0  0  0  0  0  0
  149.2993  136.4171  155.6221 C   0  0  0  0  0  0  0  0  0  0  0  0
  149.5925  135.0070  155.3949 C   0  0  0  0  0  0  0  0  0  0  0  0
  148.6149  134.0149  154.7923 C   0  0  0  0  0  0  0  0  0  0  0  0
  149.1550  133.4252  153.7263 F   0  0  0  0  0  0  0  0  0  0  0  0
  148.3155  133.0673  155.6799 F   0  0  0  0  0  0  0  0  0  0  0  0
  147.4835  134.6110  154.4154 F   0  0  0  0  0  0  0  0  0  0  0  0
  150.8717  134.6657  155.7851 C   0  0  0  0  0  0  0  0  0  0  0  0
  151.8323  135.4455  156.3267 N   0  5  0  0  0  0  0  0  0  0  0  0
  151.5479  136.7616  156.5377 C   0  0  0  0  0  0  0  0  0  0  0  0
  152.3788  137.5281  157.0268 O   0  0  0  0  0  0  0  0  0  0  0  0
  149.3140  140.7586  157.0407 H   0  0  0  0  0  0  0  0  0  0  0  0
  151.2501  142.2324  155.3218 H   0  0  0  0  0  0  0  0  0  0  0  0
  149.7548  142.8149  155.9993 H   0  0  0  0  0  0  0  0  0  0  0  0
  152.2546  142.1527  157.6136 H   0  0  0  0  0  0  0  0  0  0  0  0
  152.5994  144.2540  156.3626 H   0  0  0  0  0  0  0  0  0  0  0  0
  151.0481  144.8607  156.8973 H   0  0  0  0  0  0  0  0  0  0  0  0
  153.4672  144.2324  158.6534 H   0  0  0  0  0  0  0  0  0  0  0  0
  152.8154  145.8200  158.3129 H   0  0  0  0  0  0  0  0  0  0  0  0
  152.0912  144.9650  160.5666 H   0  0  0  0  0  0  0  0  0  0  0  0
  150.7073  145.2510  159.5291 H   0  0  0  0  0  0  0  0  0  0  0  0
  149.5878  143.3271  158.5432 H   0  0  0  0  0  0  0  0  0  0  0  0
  150.2056  141.7309  158.9156 H   0  0  0  0  0  0  0  0  0  0  0  0
  149.1781  138.8307  156.9714 H   0  0  0  0  0  0  0  0  0  0  0  0
  148.3217  136.7596  155.3301 H   0  0  0  0  0  0  0  0  0  0  0  0
  151.1653  133.6041  155.6390 H   0  0  0  0  0  0  0  0  0  0  0  0
  1  2  2  0  0  0  0
  2  3  1  0  0  0  0
  2 11  1  0  0  0  0
  3  4  1  0  0  0  0
  3 23  1  0  0  0  0
  4  5  1  0  0  0  0
  4 24  1  0  0  0  0
  4 25  1  0  0  0  0
  5 10  1  0  0  0  0
  5  6  1  0  0  0  0
  5 26  1  0  0  0  0
  6  7  1  0  0  0  0
  6 27  1  0  0  0  0
  6 28  1  0  0  0  0
  7  8  1  0  0  0  0
  7 29  1  0  0  0  0
  7 30  1  0  0  0  0
  8  9  1  0  0  0  0
  8 31  1  0  0  0  0
  8 32  1  0  0  0  0
  9 10  1  0  0  0  0
 10 33  1  0  0  0  0
 10 34  1  0  0  0  0
 11 12  1  0  0  0  0
 11 35  1  0  0  0  0
 12 21  1  0  0  0  0
 12 13  2  0  0  0  0
 13 14  1  0  0  0  0
 13 36  1  0  0  0  0
 14 15  1  0  0  0  0
 14 19  2  0  0  0  0
 15 16  1  0  0  0  0
 15 17  1  0  0  0  0
 15 18  1  0  0  0  0
 19 20  1  0  0  0  0
 19 37  1  0  0  0  0
 20 21  1  0  0  0  0
 21 22  2  0  0  0  0
M  CHG  1  20  -1
M  END
> <s_m_source_file>
AV-unprocessed.smi

> <i_m_source_file_index>
1724

> <i_lp_mmshare_version>
43012

> <i_f3d_flags>
0

> <s_epik_input>
Tz1jMVtuSF1bY0hdYyhDKEYpKEYpRilbY0hdYzFbTkhdQyg9TylbTkhdW0NIMl1bQ0BASF0yW0NIMl1bQ0gyXVtDSDJdT1tDSDJdMg==

> <s_epik_cmdline>
J2VwaWtfcHl0aG9uJywgJy1waCcsICc3LjAnLCAnLXRuJywgJzgnLCAnLW1hJywgJzIwMCcsICctbWV0YWxfYmluZGluZycsICctaW1hZScsICc8aW5maWxlLm1hZT4nLCAnLW9tYWUnLCAnPG91dGZpbGUubWFlPic=

> <r_lp_tautomer_probability>
1

> <r_epik_Ionization_Penalty>
3.16025

> <r_epik_Ionization_Penalty_Charging>
0.171172

> <r_epik_Ionization_Penalty_Neutral>
2.98908

> <r_epik_State_Penalty>
2.98521

> <r_epik_Charging_Adjusted_Penalty>
3.15638

> <i_epik_Tot_Q>
-1

> <i_epik_Tot_abs_Q>
1

> <r_epik_Metal_State_Penalty>
0.452642

> <b_epik_Metal_Only>
1

> <s_lp_Force_Field>
OPLS_2005

> <r_lp_Energy>
24.0618

> <b_lp_Chiralities_Consistent>
1

> <s_lp_Variant>
AV-unprocessed.smi:1724-4

> <Gold.Version>
5.8.1

> <Gold.Id.Protein>
6NUR|6NUR_protein|mol2

> <Gold.PLP.Fitness>
40.6692

> <Gold.PLP.PLP>
-33.4761

> <Gold.PLP.part.hbond>
-2.1350

> <Gold.PLP.part.metal>
0.0000

> <Gold.PLP.part.buried>
-3.4468

> <Gold.PLP.part.nonpolar>
-27.4078

> <Gold.PLP.part.repulsive>
0.0875

> <Gold.PLP.ligand.clash>
0.0000

> <Gold.PLP.ligand.torsion>
0.6767

> <Gold.PLP.Chemscore.Hbond>
2.8450

> <Gold.PLP.Chemscore.CHOScore>
0.0000

> <Gold.PLP.Chemscore.Metal>
0.0000

> <Gold.Chemscore.Hbonds>
donor molecule, donor type, donor heavy atom, donor atom, acceptor molecule, acceptor atom, score
      P1  H  7989  7998       L1     1  0.73
      P1  H 10752 10765       L1    20  2.00

> <Gold.PLP.Chemscore.Internal.Correction>
0.0114

> <Gold.Rescore>
     Score         DG    S(hbond)    S(metal)    S(lipo)     H(rot)  DE(clash)    DE(int)     intcor
     16.15     -18.00       1.70        0.00      87.46       1.32       0.29       1.56       ----

> <Gold.Chemscore.Fitness>
16.1478

> <Gold.Chemscore.DG>
-17.9971

> <Gold.Chemscore.ZeroCoef>
-5.4800

> <Gold.Chemscore.Hbond>
1.6994

> <Gold.Chemscore.Metal>
0.0000

> <Gold.Chemscore.Lipo>
87.4570

> <Gold.Chemscore.Internal_Hbond>
0.0000

> <Gold.Chemscore.DEClash>
0.2928

> <Gold.Chemscore.DEInternal>
1.5564

> <Gold.Chemscore.Rot>
1.3248

> <Gold.Chemscore.Internal.Correction>
   9.000000E+99

> <Gold.Chemscore.Hbonds>
donor molecule, donor type, donor heavy atom, donor atom, acceptor molecule, acceptor atom, score
      P1  H  7989  7998       L1     1  0.66
      P1  H 10752 10765       L1    20  0.38

> <Gold.Chemscore.Hbond.Weighted>
-5.6761

> <Gold.Chemscore.Metal.Weighted>
-0.0000

> <Gold.Chemscore.Lipo.Weighted>
-10.2325

> <Gold.Chemscore.Internal_Hbond.Weighted>
0.0000

> <Gold.Chemscore.DEClash.Weighted>
0.2928

> <Gold.Chemscore.DEInternal.Weighted>
1.5564

> <Gold.Chemscore.Rot.Weighted>
3.3915

> <Gold.Chemscore.Internal.Correction.Weighted>
   9.000000E+99

> <Gold.Protein.RotatedTorsions>
[ 6907 6896 6895 6894 ] final  146.84 input  -60.11 | X-H torsion
[ 7974 7965 7964 7962 ] final  -28.30 input  175.53 | X-H torsion
[ 8008 7997 7996 7995 ] final  133.06 input   59.86 | X-H torsion
[ 10167 10162 10161 10158 ] final -113.98 input  -65.29 | X-H torsion
[ 10718 10713 10712 10709 ] final   -5.65 input   66.30 | X-H torsion
[ 10763 10752 10751 10750 ] final -134.58 input  -60.55 | X-H torsion
[ 11005 11000 10999 10996 ] final  120.39 input  -57.11 | X-H torsion

> <Gold.Protein.ActiveResidues>
 VAL166  LYS551  ARG553  GLY616  TRP617  ASP618  TYR619  PRO620  LYS621  CYS622 
 ASP623  PHE694  ASN695  SER759  ASP760  ASP761  ALA762  ILE779  LEU786  VAL792 
 PHE793  MET794  SER795  GLU796  ALA797  LYS798  CYS799  TRP800  GLU811  SER814 

> <Gold.Protein.RotatedAtoms>
  152.1626  133.4592  159.4868 H   0  0  0  0  0  0  0  0  0  0  0  0  # atno 6907 bound_to 6896
  150.6909  134.2052  159.4347 H   0  0  0  0  0  0  0  0  0  0  0  0  # atno 6908 bound_to 6896
  151.9955  134.9956  160.0614 H   0  0  0  0  0  0  0  0  0  0  0  0  # atno 6909 bound_to 6896
  146.1298  140.5264  142.8698 H   0  0  0  0  0  0  0  0  0  0  0  0  # atno 7974 bound_to 7965
  156.2989  140.2531  156.3191 H   0  0  0  0  0  0  0  0  0  0  0  0  # atno 8008 bound_to 7997
  154.9253  140.0399  157.2038 H   0  0  0  0  0  0  0  0  0  0  0  0  # atno 8009 bound_to 7997
  154.8271  140.2869  155.5751 H   0  0  0  0  0  0  0  0  0  0  0  0  # atno 8010 bound_to 7997
  140.1059  143.4571  152.1783 H   0  0  0  0  0  0  0  0  0  0  0  0  # atno 10167 bound_to 10162
  156.7435  130.5217  149.5819 H   0  0  0  0  0  0  0  0  0  0  0  0  # atno 10718 bound_to 10713
  154.8717  135.3730  154.4758 H   0  0  0  0  0  0  0  0  0  0  0  0  # atno 10763 bound_to 10752
  153.5415  135.7026  153.5639 H   0  0  0  0  0  0  0  0  0  0  0  0  # atno 10764 bound_to 10752
  153.3799  135.3999  155.1814 H   0  0  0  0  0  0  0  0  0  0  0  0  # atno 10765 bound_to 10752
  139.9183  134.9634  156.7800 H   0  0  0  0  0  0  0  0  0  0  0  0  # atno 11005 bound_to 11000
  144.7679  140.5571  143.6690 LP  0  0  0  0  0  0  0  0  0  0  0  0  # atno 17320 bound_to 7965
  145.5286  139.1475  143.3512 LP  0  0  0  0  0  0  0  0  0  0  0  0  # atno 17321 bound_to 7965
  139.5645  144.7427  151.4060 LP  0  0  0  0  0  0  0  0  0  0  0  0  # atno 17342 bound_to 10162
  140.6952  143.7766  150.7316 LP  0  0  0  0  0  0  0  0  0  0  0  0  # atno 17343 bound_to 10162
  156.1449  130.6270  151.0517 LP  0  0  0  0  0  0  0  0  0  0  0  0  # atno 17370 bound_to 10713
  157.6808  131.0838  150.7374 LP  0  0  0  0  0  0  0  0  0  0  0  0  # atno 17371 bound_to 10713
  140.6552  133.9695  155.7776 LP  0  0  0  0  0  0  0  0  0  0  0  0  # atno 17394 bound_to 11000
  141.0681  134.0247  157.3565 LP  0  0  0  0  0  0  0  0  0  0  0  0  # atno 17395 bound_to 11000

$$$$
