AV-unprocessed.smi:2889|AV-procd|sdf|11108|dock4
  -GOLD-   2272015573D 1   1.00000     0.00000
 Structure written by MMmdl.
 36 37  0  0  0  0  0  0  0  0  1 V2000
  154.0663  140.3643  160.1950 C   0  0  0  0  0  0  0  0  0  0  0  0
  152.6749  140.5553  159.0475 S   0  0  0  0  0  0  0  0  0  0  0  0
  152.4767  142.3661  159.0280 C   0  0  2  0  0  0  0  0  0  0  0  0
  152.3903  142.8880  160.4750 C   0  0  0  0  0  0  0  0  0  0  0  0
  152.1758  144.4078  160.5253 C   0  0  0  0  0  0  0  0  0  0  0  0
  150.9198  144.8105  159.7403 C   0  0  0  0  0  0  0  0  0  0  0  0
  150.9984  144.3181  158.2880 C   0  0  0  0  0  0  0  0  0  0  0  0
  151.2332  142.7967  158.2136 C   0  0  1  0  0  0  0  0  0  0  0  0
  151.3849  142.4047  156.8099 N   0  0  0  0  0  0  0  0  0  0  0  0
  150.4103  141.1257  156.1880 S   0  0  0  0  0  0  0  0  0  0  0  0
  151.2868  140.2250  155.4234 O   0  0  0  0  0  0  0  0  0  0  0  0
  149.6061  140.5987  157.3010 O   0  0  0  0  0  0  0  0  0  0  0  0
  149.3074  142.0096  155.0073 C   0  0  0  0  0  0  0  0  0  0  0  0
  148.4326  141.0168  154.2976 C   0  0  0  0  0  0  0  0  0  0  0  0
  147.2429  141.2588  153.5564 C   0  0  0  0  0  0  0  0  0  0  0  0
  146.8696  140.0140  153.1383 C   0  0  0  0  0  0  0  0  0  0  0  0
  147.7474  139.0799  153.5838 O   0  0  0  0  0  0  0  0  0  0  0  0
  148.7414  139.7297  154.3245 N   0  0  0  0  0  0  0  0  0  0  0  0
  154.2952  139.3072  160.3293 H   0  0  0  0  0  0  0  0  0  0  0  0
  153.8185  140.7884  161.1681 H   0  0  0  0  0  0  0  0  0  0  0  0
  154.9586  140.8603  159.8152 H   0  0  0  0  0  0  0  0  0  0  0  0
  153.3697  142.7974  158.5732 H   0  0  0  0  0  0  0  0  0  0  0  0
  151.5698  142.3918  160.9955 H   0  0  0  0  0  0  0  0  0  0  0  0
  153.2999  142.6292  161.0182 H   0  0  0  0  0  0  0  0  0  0  0  0
  152.0873  144.7360  161.5614 H   0  0  0  0  0  0  0  0  0  0  0  0
  153.0478  144.9166  160.1123 H   0  0  0  0  0  0  0  0  0  0  0  0
  150.0353  144.3917  160.2220 H   0  0  0  0  0  0  0  0  0  0  0  0
  150.7998  145.8940  159.7598 H   0  0  0  0  0  0  0  0  0  0  0  0
  150.0796  144.5822  157.7632 H   0  0  0  0  0  0  0  0  0  0  0  0
  151.8071  144.8416  157.7757 H   0  0  0  0  0  0  0  0  0  0  0  0
  150.3619  142.2902  158.6309 H   0  0  0  0  0  0  0  0  0  0  0  0
  151.3634  143.2185  156.1960 H   0  0  0  0  0  0  0  0  0  0  0  0
  148.7173  142.7381  155.5641 H   0  0  0  0  0  0  0  0  0  0  0  0
  149.9308  142.5560  154.2996 H   0  0  0  0  0  0  0  0  0  0  0  0
  146.7458  142.1971  153.3594 H   0  0  0  0  0  0  0  0  0  0  0  0
  146.0444  139.6463  152.5466 H   0  0  0  0  0  0  0  0  0  0  0  0
  1  2  1  0  0  0  0
  1 19  1  0  0  0  0
  1 20  1  0  0  0  0
  1 21  1  0  0  0  0
  2  3  1  0  0  0  0
  3  8  1  0  0  0  0
  3  4  1  0  0  0  0
  3 22  1  0  0  0  0
  4  5  1  0  0  0  0
  4 23  1  0  0  0  0
  4 24  1  0  0  0  0
  5  6  1  0  0  0  0
  5 25  1  0  0  0  0
  5 26  1  0  0  0  0
  6  7  1  0  0  0  0
  6 27  1  0  0  0  0
  6 28  1  0  0  0  0
  7  8  1  0  0  0  0
  7 29  1  0  0  0  0
  7 30  1  0  0  0  0
  8  9  1  0  0  0  0
  8 31  1  0  0  0  0
  9 10  1  0  0  0  0
  9 32  1  0  0  0  0
 10 11  2  0  0  0  0
 10 12  2  0  0  0  0
 10 13  1  0  0  0  0
 13 14  1  0  0  0  0
 13 33  1  0  0  0  0
 13 34  1  0  0  0  0
 14 18  2  0  0  0  0
 14 15  1  0  0  0  0
 15 16  2  0  0  0  0
 15 35  1  0  0  0  0
 16 17  1  0  0  0  0
 16 36  1  0  0  0  0
 17 18  1  0  0  0  0
M  END
> <s_m_source_file>
AV-unprocessed.smi

> <i_m_source_file_index>
2889

> <i_lp_mmshare_version>
43012

> <i_f3d_flags>
0

> <s_epik_input>
W0NIM11TW0NAQEhdMVtDSDJdW0NIMl1bQ0gyXVtDSDJdW0NASF0xW05IXVMoPU8pKD1PKVtDSDJdYzJbY0hdW2NIXW9uMg==

> <s_epik_cmdline>
J2VwaWtfcHl0aG9uJywgJy1waCcsICc3LjAnLCAnLXRuJywgJzgnLCAnLW1hJywgJzIwMCcsICctbWV0YWxfYmluZGluZycsICctaW1hZScsICc8aW5maWxlLm1hZT4nLCAnLW9tYWUnLCAnPG91dGZpbGUubWFlPic=

> <r_lp_tautomer_probability>
1

> <r_epik_Ionization_Penalty>
0.000229547

> <r_epik_Ionization_Penalty_Charging>
0

> <r_epik_Ionization_Penalty_Neutral>
0.000229547

> <r_epik_State_Penalty>
-0

> <r_epik_Charging_Adjusted_Penalty>
0

> <i_epik_Tot_Q>
0

> <i_epik_Tot_abs_Q>
0

> <r_epik_Metal_State_Penalty>
0.145979

> <b_epik_Metal_Only>
0

> <s_lp_Force_Field>
OPLS_2005

> <r_lp_Energy>
3.33114

> <b_lp_Chiralities_Consistent>
1

> <s_lp_Variant>
AV-unprocessed.smi:2889-1

> <Gold.Version>
5.8.1

> <Gold.Id.Protein>
6NUR|6NUR_protein|mol2

> <Gold.PLP.Fitness>
38.8196

> <Gold.PLP.PLP>
-34.9986

> <Gold.PLP.part.hbond>
-1.0000

> <Gold.PLP.part.metal>
0.0000

> <Gold.PLP.part.buried>
-1.7412

> <Gold.PLP.part.nonpolar>
-33.6197

> <Gold.PLP.part.repulsive>
0.3885

> <Gold.PLP.ligand.clash>
0.0000

> <Gold.PLP.ligand.torsion>
1.1197

> <Gold.PLP.Chemscore.Hbond>
1.0000

> <Gold.PLP.Chemscore.CHOScore>
0.9672

> <Gold.PLP.Chemscore.Metal>
0.0000

> <Gold.Chemscore.Hbonds>
donor molecule, donor type, donor heavy atom, donor atom, acceptor molecule, acceptor atom, score
      P1  H  7989  7998       L1    11  0.94
      L1  C    16    36       P1 10175  0.98

> <Gold.PLP.Chemscore.Internal.Correction>
0.1586

> <Gold.Rescore>
     Score         DG    S(hbond)    S(metal)    S(lipo)     H(rot)  DE(clash)    DE(int)     intcor
     13.40     -16.13       0.89        0.00     105.22       1.81       0.27       2.45       ----

> <Gold.Chemscore.Fitness>
13.4049

> <Gold.Chemscore.DG>
-16.1269

> <Gold.Chemscore.ZeroCoef>
-5.4800

> <Gold.Chemscore.Hbond>
0.8860

> <Gold.Chemscore.Metal>
0.0000

> <Gold.Chemscore.Lipo>
105.2185

> <Gold.Chemscore.Internal_Hbond>
0.0000

> <Gold.Chemscore.DEClash>
0.2715

> <Gold.Chemscore.DEInternal>
2.4505

> <Gold.Chemscore.Rot>
1.8058

> <Gold.Chemscore.Internal.Correction>
   9.000000E+99

> <Gold.Chemscore.Hbonds>
donor molecule, donor type, donor heavy atom, donor atom, acceptor molecule, acceptor atom, score
      P1  H  7989  7998       L1    11  0.73

> <Gold.Chemscore.Hbond.Weighted>
-2.9591

> <Gold.Chemscore.Metal.Weighted>
-0.0000

> <Gold.Chemscore.Lipo.Weighted>
-12.3106

> <Gold.Chemscore.Internal_Hbond.Weighted>
0.0000

> <Gold.Chemscore.DEClash.Weighted>
0.2715

> <Gold.Chemscore.DEInternal.Weighted>
2.4505

> <Gold.Chemscore.Rot.Weighted>
4.6228

> <Gold.Chemscore.Internal.Correction.Weighted>
   9.000000E+99

> <Gold.Protein.RotatedTorsions>
[ 6907 6896 6895 6894 ] final  144.29 input  -60.11 | X-H torsion
[ 7974 7965 7964 7962 ] final   37.93 input  175.53 | X-H torsion
[ 8008 7997 7996 7995 ] final   -3.49 input   59.86 | X-H torsion
[ 10167 10162 10161 10158 ] final  166.69 input  -65.29 | X-H torsion
[ 10718 10713 10712 10709 ] final   78.75 input   66.30 | X-H torsion
[ 10763 10752 10751 10750 ] final   46.88 input  -60.55 | X-H torsion
[ 11005 11000 10999 10996 ] final  -30.81 input  -57.11 | X-H torsion

> <Gold.Protein.ActiveResidues>
 VAL166  LYS551  ARG553  GLY616  TRP617  ASP618  TYR619  PRO620  LYS621  CYS622 
 ASP623  PHE694  ASN695  SER759  ASP760  ASP761  ALA762  ILE779  LEU786  VAL792 
 PHE793  MET794  SER795  GLU796  ALA797  LYS798  CYS799  TRP800  GLU811  SER814 

> <Gold.Protein.RotatedAtoms>
  152.1955  133.4803  159.5030 H   0  0  0  0  0  0  0  0  0  0  0  0  # atno 6907 bound_to 6896
  150.6959  134.1658  159.4202 H   0  0  0  0  0  0  0  0  0  0  0  0  # atno 6908 bound_to 6896
  151.9574  135.0140  160.0596 H   0  0  0  0  0  0  0  0  0  0  0  0  # atno 6909 bound_to 6896
  146.1100  139.5834  142.9358 H   0  0  0  0  0  0  0  0  0  0  0  0  # atno 7974 bound_to 7965
  154.6243  140.2508  155.7511 H   0  0  0  0  0  0  0  0  0  0  0  0  # atno 8008 bound_to 7997
  156.2444  140.2920  156.0485 H   0  0  0  0  0  0  0  0  0  0  0  0  # atno 8009 bound_to 7997
  155.1846  140.0390  157.2879 H   0  0  0  0  0  0  0  0  0  0  0  0  # atno 8010 bound_to 7997
  139.4930  144.4000  151.9420 H   0  0  0  0  0  0  0  0  0  0  0  0  # atno 10167 bound_to 10162
  157.6755  130.9882  150.1832 H   0  0  0  0  0  0  0  0  0  0  0  0  # atno 10718 bound_to 10713
  152.9806  135.5994  154.3672 H   0  0  0  0  0  0  0  0  0  0  0  0  # atno 10763 bound_to 10752
  154.3348  135.2768  155.2455 H   0  0  0  0  0  0  0  0  0  0  0  0  # atno 10764 bound_to 10752
  154.4562  135.5977  153.6280 H   0  0  0  0  0  0  0  0  0  0  0  0  # atno 10765 bound_to 10752
  140.9414  133.7276  156.1082 H   0  0  0  0  0  0  0  0  0  0  0  0  # atno 11005 bound_to 11000
  145.5682  141.0397  143.2188 LP  0  0  0  0  0  0  0  0  0  0  0  0  # atno 17320 bound_to 7965
  144.7503  139.7210  143.7275 LP  0  0  0  0  0  0  0  0  0  0  0  0  # atno 17321 bound_to 7965
  140.3439  144.3170  150.5962 LP  0  0  0  0  0  0  0  0  0  0  0  0  # atno 17342 bound_to 10162
  140.5542  143.2201  151.7875 LP  0  0  0  0  0  0  0  0  0  0  0  0  # atno 17343 bound_to 10162
  156.2559  130.3705  149.8182 LP  0  0  0  0  0  0  0  0  0  0  0  0  # atno 17370 bound_to 10713
  156.5941  130.8519  151.3415 LP  0  0  0  0  0  0  0  0  0  0  0  0  # atno 17371 bound_to 10713
  140.7728  134.3813  157.5504 LP  0  0  0  0  0  0  0  0  0  0  0  0  # atno 17394 bound_to 11000
  139.8821  134.9033  156.2852 LP  0  0  0  0  0  0  0  0  0  0  0  0  # atno 17395 bound_to 11000

$$$$
