#       Name:                AV-unprocessed.smi:1920
#       Creating user name   scv26
#       Creation time:       Fri Mar 27 09:52:41 2020


#       File generated by GOLD software.
#

@<TRIPOS>MOLECULE
AV-unprocessed.smi:1920
    39    40     1
SMALL
NO_CHARGES


@<TRIPOS>ATOM
      1 ****        -2.7484  -0.6378  -1.1287 C.3            1 S1                 0.0000
      2 ****        -2.2070   0.0496   0.1345 C.3            1 S1                 0.0000
      3 ****        -2.8028  -0.5706   1.4125 C.3            1 S1                 0.0000
      4 ****        -2.4226   0.1591   2.6082 N.pl3          1 S1                 0.0000
      5 ****        -2.9542   1.3593   3.0612 C.2            1 S1                 0.0000
      6 ****        -2.2874   1.6703   4.2247 C.2            1 S1                 0.0000
      7 ****        -1.3490   0.6801   4.5063 N.2            1 S1                 0.0000
      8 ****        -1.4884  -0.1812   3.5068 C.2            1 S1                 0.0000
      9 ****        -0.7489  -0.0437   0.1632 N.am           1 S1                 0.0000
     10 ****         0.0969   0.8115  -0.4312 C.2            1 S1                 0.0000
     11 ****        -0.2732   1.7954  -1.0719 O.2            1 S1                 0.0000
     12 ****         1.5912   0.5071  -0.2835 C.3            1 S1                 0.0000
     13 ****         2.3446   0.4707  -1.6310 C.3            1 S1                 0.0000
     14 ****         1.8469  -0.5947  -2.5786 C.2            1 S1                 0.0000
     15 ****         2.8262  -1.3685  -3.0409 C.2            1 S1                 0.0000
     16 ****         4.1726  -0.9781  -2.4977 C.3            1 S1                 0.0000
     17 ****         3.8516   0.1400  -1.4811 C.3            1 S1                 0.0000
     18 ****        -3.8347  -0.5608  -1.1812 H              1 S1                 0.0000
     19 ****        -2.4882  -1.6966  -1.1470 H              1 S1                 0.0000
     20 ****        -2.3450  -0.1803  -2.0326 H              1 S1                 0.0000
     21 ****        -2.5011   1.1005   0.1005 H              1 S1                 0.0000
     22 ****        -3.8922  -0.5736   1.3561 H              1 S1                 0.0000
     23 ****        -2.4927  -1.6115   1.5182 H              1 S1                 0.0000
     24 ****        -3.7386   1.8793   2.5314 H              1 S1                 0.0000
     25 ****        -2.4106   2.5233   4.8757 H              1 S1                 0.0000
     26 ****        -0.8942  -1.0795   3.4242 H              1 S1                 0.0000
     27 ****        -0.3527  -0.8225   0.6694 H              1 S1                 0.0000
     28 ****         2.0282   1.2725   0.3588 H              1 S1                 0.0000
     29 ****         1.7219  -0.4426   0.2381 H              1 S1                 0.0000
     30 ****         2.2376   1.4307  -2.1384 H              1 S1                 0.0000
     31 ****         0.8056  -0.6867  -2.8513 H              1 S1                 0.0000
     32 ****         2.7002  -2.1813  -3.7408 H              1 S1                 0.0000
     33 ****         4.6623  -1.8300  -2.0252 H              1 S1                 0.0000
     34 ****         4.8054  -0.6161  -3.3084 H              1 S1                 0.0000
     35 ****         4.4713   1.0216  -1.6484 H              1 S1                 0.0000
     36 ****         4.0703  -0.2142  -0.4728 H              1 S1                 0.0000
     37 ****        -0.7181   0.6301   5.2805 LP             1 S1                 0.0000
     38 ****        -1.2492   1.9902  -1.1697 LP             1 S1                 0.0000
     39 ****         0.4021   2.3998  -1.4945 LP             1 S1                 0.0000
@<TRIPOS>BOND
    1    1    2 1     
    2    1   18 1     
    3    1   19 1     
    4    1   20 1     
    5    2    3 1     
    6    2    9 1     
    7    2   21 1     
    8    3    4 1     
    9    3   22 1     
   10    3   23 1     
   11    4    8 1     
   12    4    5 1     
   13    5    6 2     
   14    5   24 1     
   15    6    7 1     
   16    6   25 1     
   17    7    8 2     
   18    8   26 1     
   19    9   10 am    
   20    9   27 1     
   21   10   11 2     
   22   10   12 1     
   23   12   13 1     
   24   12   28 1     
   25   12   29 1     
   26   13   17 1     
   27   13   14 1     
   28   13   30 1     
   29   14   15 2     
   30   14   31 1     
   31   15   16 1     
   32   15   32 1     
   33   16   17 1     
   34   16   33 1     
   35   16   34 1     
   36   17   35 1     
   37   17   36 1     
   38    7   37 1     
   39   11   38 1     
   40   11   39 1     
@<TRIPOS>SUBSTRUCTURE
      1 S1             1
@<TRIPOS>SET
LONE_PAIRS      STATIC     ATOMS    <user>   **** ""
3 37 38 39
DONOR_HYDROGENS      STATIC     ATOMS    <user>   **** ""
1 27
ATOM$BLUE        STATIC     ATOMS    COLORGROUP SYSTEM
3 37 38 39
ATOM$RED        STATIC     ATOMS    COLORGROUP SYSTEM
1 27
