AV-unprocessed.smi:1452|AV-procd|sdf|5906|dock1
  -GOLD-   22720 5593D 1   1.00000     0.00000
 Structure written by MMmdl.
 40 42  0  0  0  0  0  0  0  0  2 V2000
  145.7181  137.9805  154.4983 O   0  0  0  0  0  0  0  0  0  0  0  0
  146.5623  137.3999  153.8184 C   0  0  0  0  0  0  0  0  0  0  0  0
  147.7856  137.9319  153.6136 N   0  0  0  0  0  0  0  0  0  0  0  0
  148.3602  139.1543  154.0707 C   0  0  0  0  0  0  0  0  0  0  0  0
  149.7227  139.0647  154.4352 C   0  0  0  0  0  0  0  0  0  0  0  0
  150.4003  140.2153  154.8831 C   0  0  0  0  0  0  0  0  0  0  0  0
  149.6984  141.4317  154.9507 C   0  0  0  0  0  0  0  0  0  0  0  0
  148.3460  141.4383  154.5642 C   0  0  0  0  0  0  0  0  0  0  0  0
  147.6949  140.3363  154.1353 N   0  0  0  0  0  0  0  0  0  0  0  0
  146.3323  136.2109  153.2374 N   0  0  0  0  0  0  0  0  0  0  0  0
  145.1155  135.4205  153.3906 C   0  0  1  0  0  0  0  0  0  0  0  0
  143.9215  136.0002  152.6432 C   0  0  0  0  0  0  0  0  0  0  0  0
  142.9692  134.8049  152.5372 C   0  0  0  0  0  0  0  0  0  0  0  0
  143.8098  133.5825  152.5629 N   0  3  1  0  0  0  0  0  0  0  0  0
  143.6132  132.6901  151.3889 C   0  0  0  0  0  0  0  0  0  0  0  0
  144.7597  131.6752  151.2713 C   0  0  0  0  0  0  0  0  0  0  0  0
  146.1134  132.3768  151.0527 C   0  0  0  0  0  0  0  0  0  0  0  0
  146.1180  133.8256  151.5763 C   0  0  0  0  0  0  0  0  0  0  0  0
  145.2190  133.9904  152.8275 C   0  0  1  0  0  0  0  0  0  0  0  0
  148.3591  137.4244  152.9555 H   0  0  0  0  0  0  0  0  0  0  0  0
  150.2495  138.1232  154.3740 H   0  0  0  0  0  0  0  0  0  0  0  0
  151.4407  140.1647  155.1682 H   0  0  0  0  0  0  0  0  0  0  0  0
  150.1838  142.3356  155.2880 H   0  0  0  0  0  0  0  0  0  0  0  0
  147.7711  142.3518  154.5984 H   0  0  0  0  0  0  0  0  0  0  0  0
  147.0785  135.8036  152.6910 H   0  0  0  0  0  0  0  0  0  0  0  0
  144.8493  135.3664  154.4486 H   0  0  0  0  0  0  0  0  0  0  0  0
  143.4725  136.8528  153.1536 H   0  0  0  0  0  0  0  0  0  0  0  0
  144.2199  136.3246  151.6448 H   0  0  0  0  0  0  0  0  0  0  0  0
  142.3100  134.7745  153.4053 H   0  0  0  0  0  0  0  0  0  0  0  0
  142.3356  134.8735  151.6518 H   0  0  0  0  0  0  0  0  0  0  0  0
  142.6553  132.1788  151.4884 H   0  0  0  0  0  0  0  0  0  0  0  0
  143.5624  133.2798  150.4719 H   0  0  0  0  0  0  0  0  0  0  0  0
  144.8007  131.0795  152.1845 H   0  0  0  0  0  0  0  0  0  0  0  0
  144.5685  130.9735  150.4587 H   0  0  0  0  0  0  0  0  0  0  0  0
  146.8960  131.7984  151.5450 H   0  0  0  0  0  0  0  0  0  0  0  0
  146.3651  132.3842  149.9916 H   0  0  0  0  0  0  0  0  0  0  0  0
  147.1461  134.1221  151.7861 H   0  0  0  0  0  0  0  0  0  0  0  0
  145.7662  134.4946  150.7897 H   0  0  0  0  0  0  0  0  0  0  0  0
  145.6182  133.3368  153.6046 H   0  0  0  0  0  0  0  0  0  0  0  0
  143.5203  133.0578  153.3760 H   0  0  0  0  0  0  0  0  0  0  0  0
  1  2  2  0  0  0  0
  2  3  1  0  0  0  0
  2 10  1  0  0  0  0
  3  4  1  0  0  0  0
  3 20  1  0  0  0  0
  4  9  1  0  0  0  0
  4  5  2  0  0  0  0
  5  6  1  0  0  0  0
  5 21  1  0  0  0  0
  6  7  2  0  0  0  0
  6 22  1  0  0  0  0
  7  8  1  0  0  0  0
  7 23  1  0  0  0  0
  8  9  2  0  0  0  0
  8 24  1  0  0  0  0
 10 11  1  0  0  0  0
 10 25  1  0  0  0  0
 11 19  1  0  0  0  0
 11 12  1  0  0  0  0
 11 26  1  0  0  0  0
 12 13  1  0  0  0  0
 12 27  1  0  0  0  0
 12 28  1  0  0  0  0
 13 14  1  0  0  0  0
 13 29  1  0  0  0  0
 13 30  1  0  0  0  0
 14 19  1  0  0  0  0
 14 15  1  0  0  0  0
 14 40  1  0  0  0  0
 15 16  1  0  0  0  0
 15 31  1  0  0  0  0
 15 32  1  0  0  0  0
 16 17  1  0  0  0  0
 16 33  1  0  0  0  0
 16 34  1  0  0  0  0
 17 18  1  0  0  0  0
 17 35  1  0  0  0  0
 17 36  1  0  0  0  0
 18 19  1  0  0  0  0
 18 37  1  0  0  0  0
 18 38  1  0  0  0  0
 19 39  1  0  0  0  0
M  CHG  1  14   1
M  END
> <s_m_source_file>
AV-unprocessed.smi

> <i_m_source_file_index>
1452

> <i_lp_mmshare_version>
43012

> <i_f3d_flags>
0

> <s_epik_input>
W0NIMl0xW0NIMl1bQ0gyXVtDSDJdW0NASF0oTjEyKVtDQEBIXShbQ0gyXVtDSDJdMilbTkhdQyg9TylbTkhdYzNbY0hdW2NIXVtjSF1bY0hdbjM=

> <s_epik_cmdline>
J2VwaWtfcHl0aG9uJywgJy1waCcsICc3LjAnLCAnLXRuJywgJzgnLCAnLW1hJywgJzIwMCcsICctbWV0YWxfYmluZGluZycsICctaW1hZScsICc8aW5maWxlLm1hZT4nLCAnLW9tYWUnLCAnPG91dGZpbGUubWFlPic=

> <r_epik_Ionization_Penalty>
0.00100813

> <r_epik_Ionization_Penalty_Charging>
0.000974069

> <r_epik_Ionization_Penalty_Neutral>
3.40643e-05

> <r_epik_State_Penalty>
0.000633842

> <r_epik_Charging_Adjusted_Penalty>
0.00160791

> <i_epik_Tot_Q>
1

> <i_epik_Tot_abs_Q>
1

> <r_epik_Metal_State_Penalty>
-0

> <b_epik_Metal_Only>
0

> <s_lp_Force_Field>
OPLS_2005

> <r_lp_Energy>
45.06

> <b_lp_Chiralities_Consistent>
1

> <s_lp_Variant>
AV-unprocessed.smi:1452-4

> <Gold.Version>
5.8.1

> <Gold.Id.Protein>
6NUR|6NUR_protein|mol2

> <Gold.PLP.Fitness>
41.6960

> <Gold.PLP.PLP>
-30.7208

> <Gold.PLP.part.hbond>
-2.8940

> <Gold.PLP.part.metal>
0.0000

> <Gold.PLP.part.buried>
-3.3355

> <Gold.PLP.part.nonpolar>
-25.0257

> <Gold.PLP.part.repulsive>
0.2121

> <Gold.PLP.ligand.clash>
0.0000

> <Gold.PLP.ligand.torsion>
0.4308

> <Gold.PLP.Chemscore.Hbond>
3.5922

> <Gold.PLP.Chemscore.CHOScore>
0.3522

> <Gold.PLP.Chemscore.Metal>
0.0000

> <Gold.Chemscore.Hbonds>
donor molecule, donor type, donor heavy atom, donor atom, acceptor molecule, acceptor atom, score
      L1  H     3    20       P1  7948  1.00
      L1  H    10    25       P1  7948  0.76
      L1  H    14    40       P1 10957  1.72
      L1  C     8    24       P1  8028  0.29

> <Gold.PLP.Chemscore.Internal.Correction>
0.0035

> <Gold.Rescore>
     Score         DG    S(hbond)    S(metal)    S(lipo)     H(rot)  DE(clash)    DE(int)     intcor
     19.23     -19.67       2.57        0.00      69.76       1.00       0.04       0.40       ----

> <Gold.Chemscore.Fitness>
19.2342

> <Gold.Chemscore.DG>
-19.6677

> <Gold.Chemscore.ZeroCoef>
-5.4800

> <Gold.Chemscore.Hbond>
2.5705

> <Gold.Chemscore.Metal>
0.0000

> <Gold.Chemscore.Lipo>
69.7635

> <Gold.Chemscore.Internal_Hbond>
0.0000

> <Gold.Chemscore.DEClash>
0.0354

> <Gold.Chemscore.DEInternal>
0.3982

> <Gold.Chemscore.Rot>
1.0000

> <Gold.Chemscore.Internal.Correction>
   9.000000E+99

> <Gold.Chemscore.Hbonds>
donor molecule, donor type, donor heavy atom, donor atom, acceptor molecule, acceptor atom, score
      L1  H     3    20       P1  7948  1.00
      L1  H    10    25       P1  7948  0.73
      L1  H    14    40       P1 10957  0.72

> <Gold.Chemscore.Hbond.Weighted>
-8.5854

> <Gold.Chemscore.Metal.Weighted>
-0.0000

> <Gold.Chemscore.Lipo.Weighted>
-8.1623

> <Gold.Chemscore.Internal_Hbond.Weighted>
0.0000

> <Gold.Chemscore.DEClash.Weighted>
0.0354

> <Gold.Chemscore.DEInternal.Weighted>
0.3982

> <Gold.Chemscore.Rot.Weighted>
2.5600

> <Gold.Chemscore.Internal.Correction.Weighted>
   9.000000E+99

> <Gold.Protein.RotatedTorsions>
[ 6907 6896 6895 6894 ] final -178.19 input  -60.11 | X-H torsion
[ 7974 7965 7964 7962 ] final -147.66 input  175.53 | X-H torsion
[ 8008 7997 7996 7995 ] final   99.03 input   59.86 | X-H torsion
[ 10167 10162 10161 10158 ] final -167.94 input  -65.29 | X-H torsion
[ 10718 10713 10712 10709 ] final -161.04 input   66.30 | X-H torsion
[ 10763 10752 10751 10750 ] final -135.95 input  -60.55 | X-H torsion
[ 11005 11000 10999 10996 ] final  175.19 input  -57.11 | X-H torsion

> <Gold.Protein.ActiveResidues>
 VAL166  LYS551  ARG553  GLY616  TRP617  ASP618  TYR619  PRO620  LYS621  CYS622 
 ASP623  PHE694  ASN695  SER759  ASP760  ASP761  ALA762  ILE779  LEU786  VAL792 
 PHE793  MET794  SER795  GLU796  ALA797  LYS798  CYS799  TRP800  GLU811  SER814 

> <Gold.Protein.RotatedAtoms>
  151.6332  133.3330  159.3113 H   0  0  0  0  0  0  0  0  0  0  0  0  # atno 6907 bound_to 6896
  150.8046  134.7166  159.6643 H   0  0  0  0  0  0  0  0  0  0  0  0  # atno 6908 bound_to 6896
  152.4140  134.6078  160.0069 H   0  0  0  0  0  0  0  0  0  0  0  0  # atno 6909 bound_to 6896
  144.8079  140.5298  143.5662 H   0  0  0  0  0  0  0  0  0  0  0  0  # atno 7974 bound_to 7965
  156.1064  140.3235  155.8011 H   0  0  0  0  0  0  0  0  0  0  0  0  # atno 8008 bound_to 7997
  155.4749  140.0549  157.2992 H   0  0  0  0  0  0  0  0  0  0  0  0  # atno 8009 bound_to 7997
  154.4730  140.2020  155.9962 H   0  0  0  0  0  0  0  0  0  0  0  0  # atno 8010 bound_to 7997
  139.6017  144.0997  152.1749 H   0  0  0  0  0  0  0  0  0  0  0  0  # atno 10167 bound_to 10162
  156.5906  130.8768  151.2889 H   0  0  0  0  0  0  0  0  0  0  0  0  # atno 10718 bound_to 10713
  154.8693  135.3687  154.4982 H   0  0  0  0  0  0  0  0  0  0  0  0  # atno 10763 bound_to 10752
  153.5625  135.7022  153.5546 H   0  0  0  0  0  0  0  0  0  0  0  0  # atno 10764 bound_to 10752
  153.3615  135.4045  155.1685 H   0  0  0  0  0  0  0  0  0  0  0  0  # atno 10765 bound_to 10752
  140.3595  134.7125  157.4322 H   0  0  0  0  0  0  0  0  0  0  0  0  # atno 11005 bound_to 11000
  145.5393  139.1475  143.3456 LP  0  0  0  0  0  0  0  0  0  0  0  0  # atno 17320 bound_to 7965
  146.2374  140.5533  142.8949 LP  0  0  0  0  0  0  0  0  0  0  0  0  # atno 17321 bound_to 7965
  140.0595  144.5868  150.7274 LP  0  0  0  0  0  0  0  0  0  0  0  0  # atno 17342 bound_to 10162
  140.7254  143.2631  151.4137 LP  0  0  0  0  0  0  0  0  0  0  0  0  # atno 17343 bound_to 10162
  157.7304  130.9686  150.1834 LP  0  0  0  0  0  0  0  0  0  0  0  0  # atno 17370 bound_to 10713
  156.2553  130.3705  149.8188 LP  0  0  0  0  0  0  0  0  0  0  0  0  # atno 17371 bound_to 10713
  140.0638  134.5958  155.8719 LP  0  0  0  0  0  0  0  0  0  0  0  0  # atno 17394 bound_to 11000
  141.1988  133.6603  156.5812 LP  0  0  0  0  0  0  0  0  0  0  0  0  # atno 17395 bound_to 11000

$$$$
