#       Name:                AV-unprocessed.smi:1157
#       Creating user name   scv26
#       Creation time:       Fri Mar 27 03:48:32 2020


#       File generated by GOLD software.
#

@<TRIPOS>MOLECULE
AV-unprocessed.smi:1157
    60    62     1
SMALL
NO_CHARGES


@<TRIPOS>ATOM
      1 ****        -4.0943  -2.3194   3.2098 C.3            1 S1                 0.0000
      2 ****        -3.4700  -1.7021   1.9351 C.3            1 S1                 0.0000
      3 ****        -4.1139  -0.3057   1.7380 C.3            1 S1                 0.0000
      4 ****        -1.9652  -1.4466   2.2357 C.3            1 S1                 0.0000
      5 ****        -1.2549  -0.9154   1.0747 N.am           1 S1                 0.0000
      6 ****        -0.1396  -0.1763   1.1266 C.2            1 S1                 0.0000
      7 ****         0.4237   0.1323   2.1764 O.2            1 S1                 0.0000
      8 ****         0.2809   0.1566  -0.1060 N.am           1 S1                 0.0000
      9 ****         1.3840   0.9755  -0.4698 C.ar           1 S1                 0.0000
     10 ****         1.8835   0.8659  -1.7846 C.ar           1 S1                 0.0000
     11 ****         2.9631   1.6752  -2.1945 C.ar           1 S1                 0.0000
     12 ****         3.5321   2.5975  -1.2850 C.ar           1 S1                 0.0000
     13 ****         4.6034   3.4442  -1.6263 N.pl3          1 S1                 0.0000
     14 ****         5.4687   3.1620  -2.7626 C.3            1 S1                 0.0000
     15 ****         6.8088   3.8317  -2.4355 C.3            1 S1                 0.0000
     16 ****         6.4549   4.8866  -1.3869 C.3            1 S1                 0.0000
     17 ****         5.2936   4.2458  -0.6284 C.3            1 S1                 0.0000
     18 ****         3.0105   2.6805  -0.0379 N.pl3          1 S1                 1.0000
     19 ****         1.9799   1.9232   0.3964 C.ar           1 S1                 0.0000
     20 ****        -3.6536  -2.5522   0.7249 N.3            1 S1                 0.0000
     21 ****        -3.0028  -3.8663   0.7900 C.3            1 S1                 0.0000
     22 ****        -3.1268  -4.6394  -0.5338 C.3            1 S1                 0.0000
     23 ****        -4.4989  -4.7786  -0.8812 O.3            1 S1                 0.0000
     24 ****        -5.1553  -3.5238  -1.0126 C.3            1 S1                 0.0000
     25 ****        -5.0477  -2.7410   0.3072 C.3            1 S1                 0.0000
     26 ****        -3.9500  -1.6665   4.0713 H              1 S1                 0.0000
     27 ****        -3.6443  -3.2784   3.4659 H              1 S1                 0.0000
     28 ****        -5.1686  -2.4729   3.1107 H              1 S1                 0.0000
     29 ****        -3.8388   0.3793   2.5410 H              1 S1                 0.0000
     30 ****        -5.2029  -0.3484   1.7380 H              1 S1                 0.0000
     31 ****        -3.8019   0.1539   0.7995 H              1 S1                 0.0000
     32 ****        -1.8716  -0.7522   3.0731 H              1 S1                 0.0000
     33 ****        -1.4633  -2.3566   2.5652 H              1 S1                 0.0000
     34 ****        -1.6504  -1.1280   0.1703 H              1 S1                 0.0000
     35 ****        -0.2322  -0.2497  -0.8746 H              1 S1                 0.0000
     36 ****         1.4451   0.1640  -2.4793 H              1 S1                 0.0000
     37 ****         3.3352   1.5845  -3.2044 H              1 S1                 0.0000
     38 ****         5.5977   2.0923  -2.9299 H              1 S1                 0.0000
     39 ****         5.0269   3.5989  -3.6587 H              1 S1                 0.0000
     40 ****         7.4866   3.0979  -1.9971 H              1 S1                 0.0000
     41 ****         7.2964   4.2532  -3.3148 H              1 S1                 0.0000
     42 ****         7.2932   5.1460  -0.7398 H              1 S1                 0.0000
     43 ****         6.1158   5.7976  -1.8816 H              1 S1                 0.0000
     44 ****         4.6369   4.9968  -0.1878 H              1 S1                 0.0000
     45 ****         5.6641   3.5978   0.1670 H              1 S1                 0.0000
     46 ****         1.6691   2.1204   1.4113 H              1 S1                 0.0000
     47 ****        -1.9430  -3.7658   1.0164 H              1 S1                 0.0000
     48 ****        -3.4420  -4.4655   1.5878 H              1 S1                 0.0000
     49 ****        -2.5910  -4.1245  -1.3328 H              1 S1                 0.0000
     50 ****        -2.6822  -5.6298  -0.4368 H              1 S1                 0.0000
     51 ****        -4.7136  -2.9577  -1.8341 H              1 S1                 0.0000
     52 ****        -6.2013  -3.6942  -1.2678 H              1 S1                 0.0000
     53 ****        -5.6038  -3.2746   1.0781 H              1 S1                 0.0000
     54 ****        -5.5445  -1.7831   0.1635 H              1 S1                 0.0000
     55 ****         3.4158   3.3554   0.6109 H              1 S1                 0.0000
     56 ****         0.0498  -0.1719   3.0526 LP             1 S1                 0.0000
     57 ****         1.2552   0.6873   2.1532 LP             1 S1                 0.0000
     58 ****        -3.1885  -2.0021   0.0313 LP             1 S1                 0.0000
     59 ****        -4.9585  -5.3083  -0.1683 LP             1 S1                 0.0000
     60 ****        -4.5618  -5.2666  -1.7518 LP             1 S1                 0.0000
@<TRIPOS>BOND
    1    1    2 1     
    2    1   26 1     
    3    1   27 1     
    4    1   28 1     
    5    2    3 1     
    6    2    4 1     
    7    2   20 1     
    8    3   29 1     
    9    3   30 1     
   10    3   31 1     
   11    4    5 1     
   12    4   32 1     
   13    4   33 1     
   14    5    6 am    
   15    5   34 1     
   16    6    7 2     
   17    6    8 am    
   18    8    9 1     
   19    8   35 1     
   20    9   19 ar    
   21    9   10 ar    
   22   10   11 ar    
   23   10   36 1     
   24   11   12 ar    
   25   11   37 1     
   26   12   13 1     
   27   12   18 ar    
   28   13   17 1     
   29   13   14 1     
   30   14   15 1     
   31   14   38 1     
   32   14   39 1     
   33   15   16 1     
   34   15   40 1     
   35   15   41 1     
   36   16   17 1     
   37   16   42 1     
   38   16   43 1     
   39   17   44 1     
   40   17   45 1     
   41   18   19 ar    
   42   18   55 1     
   43   19   46 1     
   44   20   25 1     
   45   20   21 1     
   46   21   22 1     
   47   21   47 1     
   48   21   48 1     
   49   22   23 1     
   50   22   49 1     
   51   22   50 1     
   52   23   24 1     
   53   24   25 1     
   54   24   51 1     
   55   24   52 1     
   56   25   53 1     
   57   25   54 1     
   58    7   56 1     
   59    7   57 1     
   60   20   58 1     
   61   23   59 1     
   62   23   60 1     
@<TRIPOS>SUBSTRUCTURE
      1 S1             1
@<TRIPOS>SET
LONE_PAIRS      STATIC     ATOMS    <user>   **** ""
5 56 57 58 59 60
DONOR_HYDROGENS      STATIC     ATOMS    <user>   **** ""
3 34 35 55
ATOM$BLUE        STATIC     ATOMS    COLORGROUP SYSTEM
5 56 57 58 59 60
ATOM$RED        STATIC     ATOMS    COLORGROUP SYSTEM
3 34 35 55
