AV-unprocessed.smi:3044|AV-procd|sdf|11605|dock2
  -GOLD-   2272016583D 1   1.00000     0.00000
 Structure written by MMmdl.
 41 42  0  0  0  0  0  0  0  0  1 V2000
  145.1656  146.9208  158.2677 C   0  0  0  0  0  0  0  0  0  0  0  0
  144.6739  145.8753  159.2545 C   0  0  0  0  0  0  0  0  0  0  0  0
  143.3351  145.6913  159.2867 N   0  0  0  0  0  0  0  0  0  0  0  0
  142.8374  144.7734  160.1414 C   0  0  0  0  0  0  0  0  0  0  0  0
  143.6438  143.9950  160.9928 C   0  0  0  0  0  0  0  0  0  0  0  0
  145.0376  144.1881  160.9589 C   0  0  0  0  0  0  0  0  0  0  0  0
  145.5755  145.1591  160.0800 C   0  0  0  0  0  0  0  0  0  0  0  0
  146.9684  145.4160  159.9573 N   0  0  0  0  0  0  0  0  0  0  0  0
  148.0074  144.6075  160.2389 C   0  0  0  0  0  0  0  0  0  0  0  0
  147.9039  143.4469  160.6335 O   0  0  0  0  0  0  0  0  0  0  0  0
  149.4013  145.2095  160.0475 C   0  0  0  0  0  0  0  0  0  0  0  0
  150.3219  144.1736  159.7280 O   0  0  0  0  0  0  0  0  0  0  0  0
  151.6659  144.5968  159.5419 C   0  0  2  0  0  0  0  0  0  0  0  0
  152.4600  143.5741  158.7035 C   0  0  0  0  0  0  0  0  0  0  0  0
  152.5952  142.2270  159.4317 C   0  0  0  0  0  0  0  0  0  0  0  0
  153.2230  142.4047  160.8231 C   0  0  0  0  0  0  0  0  0  0  0  0
  152.4299  143.4115  161.6777 C   0  0  1  0  0  0  0  0  0  0  0  0
  153.0635  143.5942  163.0641 C   0  0  0  0  0  0  0  0  0  0  0  0
  152.2945  144.7590  160.9382 C   0  0  0  0  0  0  0  0  0  0  0  0
  145.7126  147.7076  158.7881 H   0  0  0  0  0  0  0  0  0  0  0  0
  144.3384  147.3859  157.7300 H   0  0  0  0  0  0  0  0  0  0  0  0
  145.8316  146.4667  157.5335 H   0  0  0  0  0  0  0  0  0  0  0  0
  141.7647  144.6504  160.1417 H   0  0  0  0  0  0  0  0  0  0  0  0
  143.2033  143.2628  161.6530 H   0  0  0  0  0  0  0  0  0  0  0  0
  145.6648  143.5809  161.5929 H   0  0  0  0  0  0  0  0  0  0  0  0
  147.2134  146.3658  159.7165 H   0  0  0  0  0  0  0  0  0  0  0  0
  149.3609  145.9564  159.2545 H   0  0  0  0  0  0  0  0  0  0  0  0
  149.6995  145.7125  160.9684 H   0  0  0  0  0  0  0  0  0  0  0  0
  151.6765  145.5693  159.0466 H   0  0  0  0  0  0  0  0  0  0  0  0
  151.9995  143.4259  157.7272 H   0  0  0  0  0  0  0  0  0  0  0  0
  153.4557  143.9733  158.5058 H   0  0  0  0  0  0  0  0  0  0  0  0
  151.6131  141.7624  159.5293 H   0  0  0  0  0  0  0  0  0  0  0  0
  153.2014  141.5438  158.8363 H   0  0  0  0  0  0  0  0  0  0  0  0
  153.2680  141.4396  161.3289 H   0  0  0  0  0  0  0  0  0  0  0  0
  154.2540  142.7444  160.7150 H   0  0  0  0  0  0  0  0  0  0  0  0
  151.4285  143.0060  161.8305 H   0  0  0  0  0  0  0  0  0  0  0  0
  154.0720  144.0016  162.9886 H   0  0  0  0  0  0  0  0  0  0  0  0
  153.1265  142.6440  163.5952 H   0  0  0  0  0  0  0  0  0  0  0  0
  152.4740  144.2757  163.6778 H   0  0  0  0  0  0  0  0  0  0  0  0
  153.2790  145.2173  160.8358 H   0  0  0  0  0  0  0  0  0  0  0  0
  151.6956  145.4521  161.5302 H   0  0  0  0  0  0  0  0  0  0  0  0
  1  2  1  0  0  0  0
  1 20  1  0  0  0  0
  1 21  1  0  0  0  0
  1 22  1  0  0  0  0
  2  7  1  0  0  0  0
  2  3  2  0  0  0  0
  3  4  1  0  0  0  0
  4  5  2  0  0  0  0
  4 23  1  0  0  0  0
  5  6  1  0  0  0  0
  5 24  1  0  0  0  0
  6  7  2  0  0  0  0
  6 25  1  0  0  0  0
  7  8  1  0  0  0  0
  8  9  1  0  0  0  0
  8 26  1  0  0  0  0
  9 10  2  0  0  0  0
  9 11  1  0  0  0  0
 11 12  1  0  0  0  0
 11 27  1  0  0  0  0
 11 28  1  0  0  0  0
 12 13  1  0  0  0  0
 13 19  1  0  0  0  0
 13 14  1  0  0  0  0
 13 29  1  0  0  0  0
 14 15  1  0  0  0  0
 14 30  1  0  0  0  0
 14 31  1  0  0  0  0
 15 16  1  0  0  0  0
 15 32  1  0  0  0  0
 15 33  1  0  0  0  0
 16 17  1  0  0  0  0
 16 34  1  0  0  0  0
 16 35  1  0  0  0  0
 17 18  1  0  0  0  0
 17 19  1  0  0  0  0
 17 36  1  0  0  0  0
 18 37  1  0  0  0  0
 18 38  1  0  0  0  0
 18 39  1  0  0  0  0
 19 40  1  0  0  0  0
 19 41  1  0  0  0  0
M  END
> <s_m_source_file>
AV-unprocessed.smi

> <i_m_source_file_index>
3044

> <i_lp_mmshare_version>
43012

> <i_f3d_flags>
0

> <s_epik_input>
W0NIM11jMW5bY0hdW2NIXVtjSF1jMVtOSF1DKD1PKVtDSDJdT1tDQEBIXTJbQ0gyXVtDSDJdW0NIMl1bQ0BASF0oW0NIM10pW0NIMl0y

> <s_epik_cmdline>
J2VwaWtfcHl0aG9uJywgJy1waCcsICc3LjAnLCAnLXRuJywgJzgnLCAnLW1hJywgJzIwMCcsICctbWV0YWxfYmluZGluZycsICctaW1hZScsICc8aW5maWxlLm1hZT4nLCAnLW9tYWUnLCAnPG91dGZpbGUubWFlPic=

> <r_epik_Ionization_Penalty>
0.0077122

> <r_epik_Ionization_Penalty_Charging>
0

> <r_epik_Ionization_Penalty_Neutral>
0.0077122

> <r_epik_State_Penalty>
0.00577497

> <r_epik_Charging_Adjusted_Penalty>
0.00577497

> <i_epik_Tot_Q>
0

> <i_epik_Tot_abs_Q>
0

> <r_epik_Metal_State_Penalty>
-0

> <b_epik_Metal_Only>
0

> <s_lp_Force_Field>
OPLS_2005

> <r_lp_Energy>
17.2241

> <b_lp_Chiralities_Consistent>
1

> <s_lp_Variant>
AV-unprocessed.smi:3044-1

> <Gold.Version>
5.8.1

> <Gold.Id.Protein>
6NUR|6NUR_protein|mol2

> <Gold.PLP.Fitness>
43.2677

> <Gold.PLP.PLP>
-41.6745

> <Gold.PLP.part.hbond>
-1.7547

> <Gold.PLP.part.metal>
0.0000

> <Gold.PLP.part.buried>
-7.0990

> <Gold.PLP.part.nonpolar>
-34.3608

> <Gold.PLP.part.repulsive>
0.4567

> <Gold.PLP.ligand.clash>
0.0000

> <Gold.PLP.ligand.torsion>
0.7099

> <Gold.PLP.Chemscore.Hbond>
1.0000

> <Gold.PLP.Chemscore.CHOScore>
0.0000

> <Gold.PLP.Chemscore.Metal>
0.0000

> <Gold.Chemscore.Hbonds>
donor molecule, donor type, donor heavy atom, donor atom, acceptor molecule, acceptor atom, score
      P1  H  6933  6944       L1    10  0.88

> <Gold.PLP.Chemscore.Internal.Correction>
0.0129

> <Gold.Rescore>
     Score         DG    S(hbond)    S(metal)    S(lipo)     H(rot)  DE(clash)    DE(int)     intcor
     18.16     -20.03       1.00        0.00     124.46       1.31       0.18       1.70       ----

> <Gold.Chemscore.Fitness>
18.1567

> <Gold.Chemscore.DG>
-20.0339

> <Gold.Chemscore.ZeroCoef>
-5.4800

> <Gold.Chemscore.Hbond>
0.9990

> <Gold.Chemscore.Metal>
0.0000

> <Gold.Chemscore.Lipo>
124.4574

> <Gold.Chemscore.Internal_Hbond>
0.0000

> <Gold.Chemscore.DEClash>
0.1794

> <Gold.Chemscore.DEInternal>
1.6979

> <Gold.Chemscore.Rot>
1.3064

> <Gold.Chemscore.Internal.Correction>
   9.000000E+99

> <Gold.Chemscore.Hbonds>
donor molecule, donor type, donor heavy atom, donor atom, acceptor molecule, acceptor atom, score
      P1  H  6933  6944       L1    10  0.84

> <Gold.Chemscore.Hbond.Weighted>
-3.3367

> <Gold.Chemscore.Metal.Weighted>
-0.0000

> <Gold.Chemscore.Lipo.Weighted>
-14.5615

> <Gold.Chemscore.Internal_Hbond.Weighted>
0.0000

> <Gold.Chemscore.DEClash.Weighted>
0.1794

> <Gold.Chemscore.DEInternal.Weighted>
1.6979

> <Gold.Chemscore.Rot.Weighted>
3.3443

> <Gold.Chemscore.Internal.Correction.Weighted>
   9.000000E+99

> <Gold.Protein.RotatedTorsions>
[ 6907 6896 6895 6894 ] final -130.50 input  -60.11 | X-H torsion
[ 7974 7965 7964 7962 ] final  -52.74 input  175.53 | X-H torsion
[ 8008 7997 7996 7995 ] final   77.96 input   59.86 | X-H torsion
[ 10167 10162 10161 10158 ] final  116.84 input  -65.29 | X-H torsion
[ 10718 10713 10712 10709 ] final  113.60 input   66.30 | X-H torsion
[ 10763 10752 10751 10750 ] final  -75.57 input  -60.55 | X-H torsion
[ 11005 11000 10999 10996 ] final -151.85 input  -57.11 | X-H torsion

> <Gold.Protein.ActiveResidues>
 VAL166  LYS551  ARG553  GLY616  TRP617  ASP618  TYR619  PRO620  LYS621  CYS622 
 ASP623  PHE694  ASN695  SER759  ASP760  ASP761  ALA762  ILE779  LEU786  VAL792 
 PHE793  MET794  SER795  GLU796  ALA797  LYS798  CYS799  TRP800  GLU811  SER814 

> <Gold.Protein.RotatedAtoms>
  150.9404  133.6663  159.2791 H   0  0  0  0  0  0  0  0  0  0  0  0  # atno 6907 bound_to 6896
  151.4054  135.0976  159.9578 H   0  0  0  0  0  0  0  0  0  0  0  0  # atno 6908 bound_to 6896
  152.5067  133.8889  159.7438 H   0  0  0  0  0  0  0  0  0  0  0  0  # atno 6909 bound_to 6896
  145.9046  140.7966  142.9726 H   0  0  0  0  0  0  0  0  0  0  0  0  # atno 7974 bound_to 7965
  155.8490  140.3459  155.5681 H   0  0  0  0  0  0  0  0  0  0  0  0  # atno 8008 bound_to 7997
  155.8058  140.0892  157.1951 H   0  0  0  0  0  0  0  0  0  0  0  0  # atno 8009 bound_to 7997
  154.4007  140.1457  156.3316 H   0  0  0  0  0  0  0  0  0  0  0  0  # atno 8010 bound_to 7997
  139.6219  144.7102  151.2616 H   0  0  0  0  0  0  0  0  0  0  0  0  # atno 10167 bound_to 10162
  157.6329  131.0986  150.7065 H   0  0  0  0  0  0  0  0  0  0  0  0  # atno 10718 bound_to 10713
  154.4883  135.5826  153.6440 H   0  0  0  0  0  0  0  0  0  0  0  0  # atno 10763 bound_to 10752
  152.9858  135.6106  154.3157 H   0  0  0  0  0  0  0  0  0  0  0  0  # atno 10764 bound_to 10752
  154.3054  135.2846  155.2570 H   0  0  0  0  0  0  0  0  0  0  0  0  # atno 10765 bound_to 10752
  140.7251  134.3683  157.5176 H   0  0  0  0  0  0  0  0  0  0  0  0  # atno 11005 bound_to 11000
  144.6738  140.1730  143.7412 LP  0  0  0  0  0  0  0  0  0  0  0  0  # atno 17320 bound_to 7965
  145.8748  139.2291  143.1640 LP  0  0  0  0  0  0  0  0  0  0  0  0  # atno 17321 bound_to 7965
  140.7387  143.6639  150.8140 LP  0  0  0  0  0  0  0  0  0  0  0  0  # atno 17342 bound_to 10162
  140.0252  143.5501  152.2784 LP  0  0  0  0  0  0  0  0  0  0  0  0  # atno 17343 bound_to 10162
  156.7401  130.4736  149.5479 LP  0  0  0  0  0  0  0  0  0  0  0  0  # atno 17370 bound_to 10713
  156.1545  130.6332  151.0639 LP  0  0  0  0  0  0  0  0  0  0  0  0  # atno 17371 bound_to 10713
  139.8839  134.8981  156.2738 LP  0  0  0  0  0  0  0  0  0  0  0  0  # atno 17394 bound_to 11000
  140.9969  133.7174  156.0900 LP  0  0  0  0  0  0  0  0  0  0  0  0  # atno 17395 bound_to 11000

$$$$
