AV-unprocessed.smi:789|AV-procd|sdf|3739|dock10
  -GOLD-   22720 1173D 1   1.00000     0.00000
 Structure written by MMmdl.
 34 35  0  0  0  0  0  0  0  0  1 V2000
  153.7551  141.8589  160.8683 C   0  0  0  0  0  0  0  0  0  0  0  0
  152.8065  142.4537  159.8701 C   0  0  0  0  0  0  0  0  0  0  0  0
  152.1705  141.8076  158.7706 C   0  0  0  0  0  0  0  0  0  0  0  0
  151.4324  142.8163  158.2147 C   0  0  0  0  0  0  0  0  0  0  0  0
  150.6161  142.7770  157.1290 N   0  0  0  0  0  0  0  0  0  0  0  0
  150.3693  141.7540  156.2873 C   0  0  0  0  0  0  0  0  0  0  0  0
  150.8564  140.6293  156.3846 O   0  0  0  0  0  0  0  0  0  0  0  0
  149.5262  142.0626  155.2849 N   0  0  0  0  0  0  0  0  0  0  0  0
  149.0492  141.1948  154.2044 C   0  0  0  0  0  0  0  0  0  0  0  0
  147.6473  141.6299  153.7359 C   0  0  0  0  0  0  0  0  0  0  0  0
  146.8085  140.3532  153.6627 C   0  0  0  0  0  0  0  0  0  0  0  0
  147.4068  139.4485  154.7345 C   0  0  0  0  0  0  0  0  0  0  0  0
  148.9081  139.7286  154.6656 C   0  0  0  0  0  0  0  0  0  0  0  0
  151.6285  143.9676  158.9466 N   0  0  0  0  0  0  0  0  0  0  0  0
  151.0753  145.2964  158.7669 C   0  0  0  0  0  0  0  0  0  0  0  0
  152.4789  143.7370  159.9698 N   0  0  0  0  0  0  0  0  0  0  0  0
  153.9816  140.8204  160.6262 H   0  0  0  0  0  0  0  0  0  0  0  0
  153.3321  141.8807  161.8729 H   0  0  0  0  0  0  0  0  0  0  0  0
  154.6975  142.4067  160.8899 H   0  0  0  0  0  0  0  0  0  0  0  0
  152.2561  140.7771  158.4606 H   0  0  0  0  0  0  0  0  0  0  0  0
  150.1449  143.6437  156.9153 H   0  0  0  0  0  0  0  0  0  0  0  0
  149.1910  143.0148  155.2597 H   0  0  0  0  0  0  0  0  0  0  0  0
  149.7361  141.2472  153.3575 H   0  0  0  0  0  0  0  0  0  0  0  0
  147.1929  142.3092  154.4592 H   0  0  0  0  0  0  0  0  0  0  0  0
  147.6767  142.1530  152.7795 H   0  0  0  0  0  0  0  0  0  0  0  0
  145.7451  140.5399  153.8149 H   0  0  0  0  0  0  0  0  0  0  0  0
  146.9288  139.8894  152.6828 H   0  0  0  0  0  0  0  0  0  0  0  0
  147.0234  139.7372  155.7142 H   0  0  0  0  0  0  0  0  0  0  0  0
  147.1677  138.3961  154.5790 H   0  0  0  0  0  0  0  0  0  0  0  0
  149.3624  139.0742  153.9204 H   0  0  0  0  0  0  0  0  0  0  0  0
  149.4022  139.5197  155.6153 H   0  0  0  0  0  0  0  0  0  0  0  0
  150.4920  145.3510  157.8477 H   0  0  0  0  0  0  0  0  0  0  0  0
  151.8828  146.0271  158.7125 H   0  0  0  0  0  0  0  0  0  0  0  0
  150.4293  145.5411  159.6102 H   0  0  0  0  0  0  0  0  0  0  0  0
  1  2  1  0  0  0  0
  1 17  1  0  0  0  0
  1 18  1  0  0  0  0
  1 19  1  0  0  0  0
  2 16  2  0  0  0  0
  2  3  1  0  0  0  0
  3  4  2  0  0  0  0
  3 20  1  0  0  0  0
  4  5  1  0  0  0  0
  4 14  1  0  0  0  0
  5  6  1  0  0  0  0
  5 21  1  0  0  0  0
  6  7  2  0  0  0  0
  6  8  1  0  0  0  0
  8  9  1  0  0  0  0
  8 22  1  0  0  0  0
  9 13  1  0  0  0  0
  9 10  1  0  0  0  0
  9 23  1  0  0  0  0
 10 11  1  0  0  0  0
 10 24  1  0  0  0  0
 10 25  1  0  0  0  0
 11 12  1  0  0  0  0
 11 26  1  0  0  0  0
 11 27  1  0  0  0  0
 12 13  1  0  0  0  0
 12 28  1  0  0  0  0
 12 29  1  0  0  0  0
 13 30  1  0  0  0  0
 13 31  1  0  0  0  0
 14 15  1  0  0  0  0
 14 16  1  0  0  0  0
 15 32  1  0  0  0  0
 15 33  1  0  0  0  0
 15 34  1  0  0  0  0
M  END
> <s_m_source_file>
AV-unprocessed.smi

> <i_m_source_file_index>
789

> <i_lp_mmshare_version>
43012

> <i_f3d_flags>
0

> <s_epik_input>
W0NIM11jMVtjSF1jKG4objEpW0NIM10pW05IXUMoPU8pW05IXVtDSF0yW0NIMl1bQ0gyXVtDSDJdW0NIMl0y

> <s_epik_cmdline>
J2VwaWtfcHl0aG9uJywgJy1waCcsICc3LjAnLCAnLXRuJywgJzgnLCAnLW1hJywgJzIwMCcsICctbWV0YWxfYmluZGluZycsICctaW1hZScsICc8aW5maWxlLm1hZT4nLCAnLW9tYWUnLCAnPG91dGZpbGUubWFlPic=

> <r_lp_tautomer_probability>
1

> <r_epik_Ionization_Penalty>
0.000101808

> <r_epik_Ionization_Penalty_Charging>
0

> <r_epik_Ionization_Penalty_Neutral>
0.000101808

> <r_epik_State_Penalty>
-0

> <r_epik_Charging_Adjusted_Penalty>
0

> <i_epik_Tot_Q>
0

> <i_epik_Tot_abs_Q>
0

> <r_epik_Metal_State_Penalty>
-0

> <b_epik_Metal_Only>
0

> <s_lp_Force_Field>
OPLS_2005

> <r_lp_Energy>
29.7198

> <b_lp_Chiralities_Consistent>
1

> <s_lp_Variant>
AV-unprocessed.smi:789-1

> <Gold.Version>
5.8.1

> <Gold.Id.Protein>
6NUR|6NUR_protein|mol2

> <Gold.PLP.Fitness>
40.0245

> <Gold.PLP.PLP>
-35.0376

> <Gold.PLP.part.hbond>
-2.0000

> <Gold.PLP.part.metal>
0.0000

> <Gold.PLP.part.buried>
-5.1722

> <Gold.PLP.part.nonpolar>
-28.5054

> <Gold.PLP.part.repulsive>
0.2393

> <Gold.PLP.ligand.clash>
0.0000

> <Gold.PLP.ligand.torsion>
0.3726

> <Gold.PLP.Chemscore.Hbond>
1.9100

> <Gold.PLP.Chemscore.CHOScore>
0.0000

> <Gold.PLP.Chemscore.Metal>
0.0000

> <Gold.Chemscore.Hbonds>
donor molecule, donor type, donor heavy atom, donor atom, acceptor molecule, acceptor atom, score
      L1  H     5    21       P1  8028  0.90
      L1  H     8    22       P1  8028  1.00

> <Gold.PLP.Chemscore.Internal.Correction>
0.0022

> <Gold.Rescore>
     Score         DG    S(hbond)    S(metal)    S(lipo)     H(rot)  DE(clash)    DE(int)     intcor
     15.24     -18.38       1.97        0.00      75.97       1.00       0.16       2.98       ----

> <Gold.Chemscore.Fitness>
15.2428

> <Gold.Chemscore.DG>
-18.3791

> <Gold.Chemscore.ZeroCoef>
-5.4800

> <Gold.Chemscore.Hbond>
1.9671

> <Gold.Chemscore.Metal>
0.0000

> <Gold.Chemscore.Lipo>
75.9741

> <Gold.Chemscore.Internal_Hbond>
0.0000

> <Gold.Chemscore.DEClash>
0.1596

> <Gold.Chemscore.DEInternal>
2.9768

> <Gold.Chemscore.Rot>
1.0000

> <Gold.Chemscore.Internal.Correction>
   9.000000E+99

> <Gold.Chemscore.Hbonds>
donor molecule, donor type, donor heavy atom, donor atom, acceptor molecule, acceptor atom, score
      L1  H     5    21       P1  8028  0.82
      L1  H     8    22       P1  8028  1.00

> <Gold.Chemscore.Hbond.Weighted>
-6.5702

> <Gold.Chemscore.Metal.Weighted>
-0.0000

> <Gold.Chemscore.Lipo.Weighted>
-8.8890

> <Gold.Chemscore.Internal_Hbond.Weighted>
0.0000

> <Gold.Chemscore.DEClash.Weighted>
0.1596

> <Gold.Chemscore.DEInternal.Weighted>
2.9768

> <Gold.Chemscore.Rot.Weighted>
2.5600

> <Gold.Chemscore.Internal.Correction.Weighted>
   9.000000E+99

> <Gold.Protein.RotatedTorsions>
[ 6907 6896 6895 6894 ] final -170.25 input  -60.11 | X-H torsion
[ 7974 7965 7964 7962 ] final -143.67 input  175.53 | X-H torsion
[ 8008 7997 7996 7995 ] final  -89.49 input   59.86 | X-H torsion
[ 10167 10162 10161 10158 ] final  115.65 input  -65.29 | X-H torsion
[ 10718 10713 10712 10709 ] final   43.72 input   66.30 | X-H torsion
[ 10763 10752 10751 10750 ] final -158.20 input  -60.55 | X-H torsion
[ 11005 11000 10999 10996 ] final   75.77 input  -57.11 | X-H torsion

> <Gold.Protein.ActiveResidues>
 VAL166  LYS551  ARG553  GLY616  TRP617  ASP618  TYR619  PRO620  LYS621  CYS622 
 ASP623  PHE694  ASN695  SER759  ASP760  ASP761  ALA762  ILE779  LEU786  VAL792 
 PHE793  MET794  SER795  GLU796  ALA797  LYS798  CYS799  TRP800  GLU811  SER814 

> <Gold.Protein.RotatedAtoms>
  151.5047  133.3497  159.2874 H   0  0  0  0  0  0  0  0  0  0  0  0  # atno 6907 bound_to 6896
  150.8750  134.8134  159.7194 H   0  0  0  0  0  0  0  0  0  0  0  0  # atno 6908 bound_to 6896
  152.4724  134.4937  159.9755 H   0  0  0  0  0  0  0  0  0  0  0  0  # atno 6909 bound_to 6896
  144.8353  140.5806  143.5488 H   0  0  0  0  0  0  0  0  0  0  0  0  # atno 7974 bound_to 7965
  154.6873  140.0541  157.0327 H   0  0  0  0  0  0  0  0  0  0  0  0  # atno 8008 bound_to 7997
  155.0867  140.3215  155.4567 H   0  0  0  0  0  0  0  0  0  0  0  0  # atno 8009 bound_to 7997
  156.2716  140.2055  156.5994 H   0  0  0  0  0  0  0  0  0  0  0  0  # atno 8010 bound_to 7997
  139.6302  144.7114  151.2448 H   0  0  0  0  0  0  0  0  0  0  0  0  # atno 10167 bound_to 10162
  157.4190  130.7958  149.7498 H   0  0  0  0  0  0  0  0  0  0  0  0  # atno 10718 bound_to 10713
  154.7576  135.3109  154.8441 H   0  0  0  0  0  0  0  0  0  0  0  0  # atno 10763 bound_to 10752
  153.9210  135.6795  153.4752 H   0  0  0  0  0  0  0  0  0  0  0  0  # atno 10764 bound_to 10752
  153.1174  135.4838  154.9069 H   0  0  0  0  0  0  0  0  0  0  0  0  # atno 10765 bound_to 10752
  139.9328  134.7545  156.1312 H   0  0  0  0  0  0  0  0  0  0  0  0  # atno 11005 bound_to 11000
  145.4809  139.1495  143.3762 LP  0  0  0  0  0  0  0  0  0  0  0  0  # atno 17320 bound_to 7965
  146.2652  140.4945  142.8837 LP  0  0  0  0  0  0  0  0  0  0  0  0  # atno 17321 bound_to 7965
  140.7435  143.6493  150.8263 LP  0  0  0  0  0  0  0  0  0  0  0  0  # atno 17342 bound_to 10162
  140.0117  143.5635  152.2836 LP  0  0  0  0  0  0  0  0  0  0  0  0  # atno 17343 bound_to 10162
  155.9874  130.3967  150.3164 LP  0  0  0  0  0  0  0  0  0  0  0  0  # atno 17370 bound_to 10713
  157.1310  131.0272  151.2969 LP  0  0  0  0  0  0  0  0  0  0  0  0  # atno 17371 bound_to 10713
  141.0927  133.6708  156.2576 LP  0  0  0  0  0  0  0  0  0  0  0  0  # atno 17394 bound_to 11000
  140.6154  134.5415  157.5540 LP  0  0  0  0  0  0  0  0  0  0  0  0  # atno 17395 bound_to 11000

$$$$
