AV-unprocessed.smi:193|AV-procd|sdf|1499|dock3
  -GOLD-   2262019323D 1   1.00000     0.00000
 Structure written by MMmdl.
 62 66  0  0  0  0  0  0  0  0  2 V2000
  144.0009  131.8703  150.3688 C   0  0  0  0  0  0  0  0  0  0  0  0
  145.3013  131.7450  151.1794 C   0  0  1  0  0  0  0  0  0  0  0  0
  145.3014  132.7907  152.3137 C   0  0  0  0  0  0  0  0  0  0  0  0
  146.6337  133.1394  152.8125 N   0  0  0  0  0  0  0  0  0  0  0  0
  146.7940  134.3373  153.4353 C   0  0  0  0  0  0  0  0  0  0  0  0
  145.8979  135.3298  153.1888 N   0  0  0  0  0  0  0  0  0  0  0  0
  146.0200  136.5180  153.7877 C   0  0  0  0  0  0  0  0  0  0  0  0
  146.9510  136.9238  154.6520 N   0  0  0  0  0  0  0  0  0  0  0  0
  147.8601  135.9381  154.8985 C   0  0  0  0  0  0  0  0  0  0  0  0
  147.8578  134.6282  154.3391 C   0  0  0  0  0  0  0  0  0  0  0  0
  148.9515  133.9134  154.8160 N   0  0  0  0  0  0  0  0  0  0  0  0
  149.5560  134.7470  155.6179 C   0  0  0  0  0  0  0  0  0  0  0  0
  148.9655  135.9848  155.7297 N   0  0  0  0  0  0  0  0  0  0  0  0
  149.4271  137.1005  156.5417 C   0  0  0  0  0  0  0  0  0  0  0  0
  150.3700  138.0761  155.7949 C   0  0  0  0  0  0  0  0  0  0  0  0
  149.6711  138.5673  154.6636 O   0  0  0  0  0  0  0  0  0  0  0  0
  150.7318  139.2699  156.7015 C   0  0  0  0  0  0  0  0  0  0  0  0
  151.7980  140.1801  156.0669 C   0  0  0  0  0  0  0  0  0  0  0  0
  152.9512  139.4172  155.7336 O   0  0  0  0  0  0  0  0  0  0  0  0
  152.6853  138.4150  154.7598 C   0  0  0  0  0  0  0  0  0  0  0  0
  151.6698  137.3974  155.3093 C   0  0  0  0  0  0  0  0  0  0  0  0
  147.7178  132.1624  152.9064 C   0  0  0  0  0  0  0  0  0  0  0  0
  147.2502  130.7670  153.3411 C   0  0  0  0  0  0  0  0  0  0  0  0
  146.7995  129.9597  152.1828 N   0  3  1  0  0  0  0  0  0  0  0  0
  146.9275  128.5084  152.4468 C   0  0  2  0  0  0  0  0  0  0  0  0
  148.2361  128.1266  153.0996 C   0  0  0  0  0  0  0  0  0  0  0  0
  148.0069  127.8286  151.6333 C   0  0  1  0  0  0  0  0  0  0  0  0
  147.8294  126.4015  151.1623 C   0  0  0  0  0  0  0  0  0  0  0  0
  145.4332  130.3039  151.7187 C   0  0  0  0  0  0  0  0  0  0  0  0
  143.1256  131.6797  150.9908 H   0  0  0  0  0  0  0  0  0  0  0  0
  143.9805  131.1629  149.5391 H   0  0  0  0  0  0  0  0  0  0  0  0
  143.8953  132.8689  149.9436 H   0  0  0  0  0  0  0  0  0  0  0  0
  146.1220  131.9535  150.4912 H   0  0  0  0  0  0  0  0  0  0  0  0
  144.8438  133.7058  151.9339 H   0  0  0  0  0  0  0  0  0  0  0  0
  144.6745  132.4574  153.1417 H   0  0  0  0  0  0  0  0  0  0  0  0
  145.2634  137.2479  153.5391 H   0  0  0  0  0  0  0  0  0  0  0  0
  150.4556  134.4812  156.1544 H   0  0  0  0  0  0  0  0  0  0  0  0
  148.5521  137.6323  156.9187 H   0  0  0  0  0  0  0  0  0  0  0  0
  149.9312  136.6922  157.4187 H   0  0  0  0  0  0  0  0  0  0  0  0
  150.2878  138.6805  153.9566 H   0  0  0  0  0  0  0  0  0  0  0  0
  149.8411  139.8500  156.9465 H   0  0  0  0  0  0  0  0  0  0  0  0
  151.1216  138.8963  157.6495 H   0  0  0  0  0  0  0  0  0  0  0  0
  151.4106  140.6836  155.1800 H   0  0  0  0  0  0  0  0  0  0  0  0
  152.0863  140.9609  156.7711 H   0  0  0  0  0  0  0  0  0  0  0  0
  152.3235  138.8747  153.8388 H   0  0  0  0  0  0  0  0  0  0  0  0
  153.6195  137.9104  154.5132 H   0  0  0  0  0  0  0  0  0  0  0  0
  152.1299  136.8668  156.1437 H   0  0  0  0  0  0  0  0  0  0  0  0
  151.4572  136.6460  154.5480 H   0  0  0  0  0  0  0  0  0  0  0  0
  148.2593  132.1178  151.9608 H   0  0  0  0  0  0  0  0  0  0  0  0
  148.4372  132.4976  153.6539 H   0  0  0  0  0  0  0  0  0  0  0  0
  148.1114  130.2674  153.7870 H   0  0  0  0  0  0  0  0  0  0  0  0
  146.4899  130.8108  154.1226 H   0  0  0  0  0  0  0  0  0  0  0  0
  146.0094  127.9819  152.7032 H   0  0  0  0  0  0  0  0  0  0  0  0
  148.9408  128.9190  153.3455 H   0  0  0  0  0  0  0  0  0  0  0  0
  148.2231  127.2876  153.7927 H   0  0  0  0  0  0  0  0  0  0  0  0
  148.5581  128.4519  150.9309 H   0  0  0  0  0  0  0  0  0  0  0  0
  147.2903  125.8118  151.9047 H   0  0  0  0  0  0  0  0  0  0  0  0
  148.8018  125.9395  150.9911 H   0  0  0  0  0  0  0  0  0  0  0  0
  147.2661  126.3836  150.2292 H   0  0  0  0  0  0  0  0  0  0  0  0
  144.7116  130.1227  152.5173 H   0  0  0  0  0  0  0  0  0  0  0  0
  145.1764  129.6106  150.9166 H   0  0  0  0  0  0  0  0  0  0  0  0
  147.4317  130.1619  151.4215 H   0  0  0  0  0  0  0  0  0  0  0  0
  1  2  1  0  0  0  0
  1 30  1  0  0  0  0
  1 31  1  0  0  0  0
  1 32  1  0  0  0  0
  2 29  1  0  0  0  0
  2  3  1  0  0  0  0
  2 33  1  0  0  0  0
  3  4  1  0  0  0  0
  3 34  1  0  0  0  0
  3 35  1  0  0  0  0
  4  5  1  0  0  0  0
  4 22  1  0  0  0  0
  5 10  1  0  0  0  0
  5  6  2  0  0  0  0
  6  7  1  0  0  0  0
  7  8  2  0  0  0  0
  7 36  1  0  0  0  0
  8  9  1  0  0  0  0
  9 13  1  0  0  0  0
  9 10  2  0  0  0  0
 10 11  1  0  0  0  0
 11 12  2  0  0  0  0
 12 13  1  0  0  0  0
 12 37  1  0  0  0  0
 13 14  1  0  0  0  0
 14 15  1  0  0  0  0
 14 38  1  0  0  0  0
 14 39  1  0  0  0  0
 15 21  1  0  0  0  0
 15 16  1  0  0  0  0
 15 17  1  0  0  0  0
 16 40  1  0  0  0  0
 17 18  1  0  0  0  0
 17 41  1  0  0  0  0
 17 42  1  0  0  0  0
 18 19  1  0  0  0  0
 18 43  1  0  0  0  0
 18 44  1  0  0  0  0
 19 20  1  0  0  0  0
 20 21  1  0  0  0  0
 20 45  1  0  0  0  0
 20 46  1  0  0  0  0
 21 47  1  0  0  0  0
 21 48  1  0  0  0  0
 22 23  1  0  0  0  0
 22 49  1  0  0  0  0
 22 50  1  0  0  0  0
 23 24  1  0  0  0  0
 23 51  1  0  0  0  0
 23 52  1  0  0  0  0
 24 25  1  0  0  0  0
 24 29  1  0  0  0  0
 24 62  1  0  0  0  0
 25 27  1  0  0  0  0
 25 26  1  0  0  0  0
 25 53  1  0  0  0  0
 26 27  1  0  0  0  0
 26 54  1  0  0  0  0
 26 55  1  0  0  0  0
 27 28  1  0  0  0  0
 27 56  1  0  0  0  0
 28 57  1  0  0  0  0
 28 58  1  0  0  0  0
 28 59  1  0  0  0  0
 29 60  1  0  0  0  0
 29 61  1  0  0  0  0
M  CHG  1  24   1
M  END
> <s_m_source_file>
AV-unprocessed.smi

> <i_m_source_file_index>
193

> <i_lp_mmshare_version>
43012

> <i_f3d_flags>
0

> <s_epik_input>
W0NIM11bQ0BASF0xW0NIMl1bQ0BIXTFOKFtDSDJdMilbQ0gyXVtDSDJdTihbQ0gyXVtDQEhdMltDSDNdKWMobltjSF1uMyljKGMzNCluW2NIXW40W0NIMl1DNShbT0hdKVtDSDJdW0NIMl1PW0NIMl1bQ0gyXTU=

> <s_epik_cmdline>
J2VwaWtfcHl0aG9uJywgJy1waCcsICc3LjAnLCAnLXRuJywgJzgnLCAnLW1hJywgJzIwMCcsICctbWV0YWxfYmluZGluZycsICctaW1hZScsICc8aW5maWxlLm1hZT4nLCAnLW9tYWUnLCAnPG91dGZpbGUubWFlPic=

> <r_lp_tautomer_probability>
1

> <r_epik_Ionization_Penalty>
0.0540825

> <r_epik_Ionization_Penalty_Charging>
0.0538476

> <r_epik_Ionization_Penalty_Neutral>
0.000234891

> <r_epik_State_Penalty>
0.0200719

> <r_epik_Charging_Adjusted_Penalty>
0.0739194

> <i_epik_Tot_Q>
1

> <i_epik_Tot_abs_Q>
1

> <r_epik_Metal_State_Penalty>
0.0199414

> <b_epik_Metal_Only>
0

> <s_lp_Force_Field>
OPLS_2005

> <r_lp_Energy>
52.398

> <b_lp_Chiralities_Consistent>
1

> <s_lp_Variant>
AV-unprocessed.smi:193-4

> <Gold.Version>
5.8.1

> <Gold.Id.Protein>
6NUR|6NUR_protein|mol2

> <Gold.PLP.Fitness>
49.5270

> <Gold.PLP.PLP>
-44.8057

> <Gold.PLP.part.hbond>
-2.0000

> <Gold.PLP.part.metal>
0.0000

> <Gold.PLP.part.buried>
-5.1289

> <Gold.PLP.part.nonpolar>
-37.6057

> <Gold.PLP.part.repulsive>
0.2623

> <Gold.PLP.ligand.clash>
0.0000

> <Gold.PLP.ligand.torsion>
1.3034

> <Gold.PLP.Chemscore.Hbond>
2.0000

> <Gold.PLP.Chemscore.CHOScore>
0.0000

> <Gold.PLP.Chemscore.Metal>
0.0000

> <Gold.Chemscore.Hbonds>
donor molecule, donor type, donor heavy atom, donor atom, acceptor molecule, acceptor atom, score
      L1  H    24    62       P1 10747  1.00
      P1  H  7997  8010       L1    19  1.00

> <Gold.PLP.Chemscore.Internal.Correction>
1.3281

> <Gold.Rescore>
     Score         DG    S(hbond)    S(metal)    S(lipo)     H(rot)  DE(clash)    DE(int)     intcor
     17.86     -20.47       1.98        0.00     113.90       1.93       0.11       2.51       ----

> <Gold.Chemscore.Fitness>
17.8576

> <Gold.Chemscore.DG>
-20.4749

> <Gold.Chemscore.ZeroCoef>
-5.4800

> <Gold.Chemscore.Hbond>
1.9780

> <Gold.Chemscore.Metal>
0.0000

> <Gold.Chemscore.Lipo>
113.9040

> <Gold.Chemscore.Internal_Hbond>
0.0000

> <Gold.Chemscore.DEClash>
0.1110

> <Gold.Chemscore.DEInternal>
2.5063

> <Gold.Chemscore.Rot>
1.9290

> <Gold.Chemscore.Internal.Correction>
   9.000000E+99

> <Gold.Chemscore.Hbonds>
donor molecule, donor type, donor heavy atom, donor atom, acceptor molecule, acceptor atom, score
      L1  H    24    62       P1 10747  0.93
      P1  H  7997  8010       L1    19  0.78

> <Gold.Chemscore.Hbond.Weighted>
-6.6064

> <Gold.Chemscore.Metal.Weighted>
-0.0000

> <Gold.Chemscore.Lipo.Weighted>
-13.3268

> <Gold.Chemscore.Internal_Hbond.Weighted>
0.0000

> <Gold.Chemscore.DEClash.Weighted>
0.1110

> <Gold.Chemscore.DEInternal.Weighted>
2.5063

> <Gold.Chemscore.Rot.Weighted>
4.9383

> <Gold.Chemscore.Internal.Correction.Weighted>
   9.000000E+99

> <Gold.Protein.RotatedTorsions>
[ 6907 6896 6895 6894 ] final   27.88 input  -60.11 | X-H torsion
[ 7974 7965 7964 7962 ] final -122.66 input  175.53 | X-H torsion
[ 8008 7997 7996 7995 ] final   74.64 input   59.86 | X-H torsion
[ 10167 10162 10161 10158 ] final  -62.50 input  -65.29 | X-H torsion
[ 10718 10713 10712 10709 ] final -134.63 input   66.30 | X-H torsion
[ 10763 10752 10751 10750 ] final  -67.50 input  -60.55 | X-H torsion
[ 11005 11000 10999 10996 ] final  158.46 input  -57.11 | X-H torsion

> <Gold.Protein.ActiveResidues>
 VAL166  LYS551  ARG553  GLY616  TRP617  ASP618  TYR619  PRO620  LYS621  CYS622 
 ASP623  PHE694  ASN695  SER759  ASP760  ASP761  ALA762  ILE779  LEU786  VAL792 
 PHE793  MET794  SER795  GLU796  ALA797  LYS798  CYS799  TRP800  GLU811  SER814 

> <Gold.Protein.RotatedAtoms>
  152.0087  134.9888  160.0567 H   0  0  0  0  0  0  0  0  0  0  0  0  # atno 6907 bound_to 6896
  152.1450  133.4482  159.4793 H   0  0  0  0  0  0  0  0  0  0  0  0  # atno 6908 bound_to 6896
  150.6869  134.2177  159.4427 H   0  0  0  0  0  0  0  0  0  0  0  0  # atno 6909 bound_to 6896
  145.0270  140.8036  143.4346 H   0  0  0  0  0  0  0  0  0  0  0  0  # atno 7974 bound_to 7965
  155.8013  140.3476  155.5404 H   0  0  0  0  0  0  0  0  0  0  0  0  # atno 8008 bound_to 7997
  155.8535  140.0960  157.1680 H   0  0  0  0  0  0  0  0  0  0  0  0  # atno 8009 bound_to 7997
  154.4008  140.1372  156.3860 H   0  0  0  0  0  0  0  0  0  0  0  0  # atno 8010 bound_to 7997
  140.5934  143.2346  151.6088 H   0  0  0  0  0  0  0  0  0  0  0  0  # atno 10167 bound_to 10162
  156.2575  130.7190  151.1111 H   0  0  0  0  0  0  0  0  0  0  0  0  # atno 10718 bound_to 10713
  154.3754  135.6086  153.5762 H   0  0  0  0  0  0  0  0  0  0  0  0  # atno 10763 bound_to 10752
  152.9789  135.5848  154.4473 H   0  0  0  0  0  0  0  0  0  0  0  0  # atno 10764 bound_to 10752
  154.4233  135.2846  155.1938 H   0  0  0  0  0  0  0  0  0  0  0  0  # atno 10765 bound_to 10752
  140.1867  134.8437  157.2865 H   0  0  0  0  0  0  0  0  0  0  0  0  # atno 11005 bound_to 11000
  145.1820  139.2346  143.5287 LP  0  0  0  0  0  0  0  0  0  0  0  0  # atno 17320 bound_to 7965
  146.3493  140.1596  142.8591 LP  0  0  0  0  0  0  0  0  0  0  0  0  # atno 17321 bound_to 7965
  139.5242  144.3109  152.0993 LP  0  0  0  0  0  0  0  0  0  0  0  0  # atno 17342 bound_to 10162
  140.2277  144.4400  150.6313 LP  0  0  0  0  0  0  0  0  0  0  0  0  # atno 17343 bound_to 10162
  157.7238  131.0664  150.6022 LP  0  0  0  0  0  0  0  0  0  0  0  0  # atno 17370 bound_to 10713
  156.6107  130.4379  149.5860 LP  0  0  0  0  0  0  0  0  0  0  0  0  # atno 17371 bound_to 10713
  140.2206  134.4028  155.7568 LP  0  0  0  0  0  0  0  0  0  0  0  0  # atno 17394 bound_to 11000
  141.2225  133.7164  156.8484 LP  0  0  0  0  0  0  0  0  0  0  0  0  # atno 17395 bound_to 11000

$$$$
