AV-unprocessed.smi:2964|AV-procd|sdf|11321|dock6
  -GOLD-   2272016223D 1   1.00000     0.00000
 Structure written by MMmdl.
 35 36  0  0  0  0  0  0  0  0  1 V2000
  152.9000  139.3042  156.5175 O   0  0  0  0  0  0  0  0  0  0  0  0
  151.9763  139.6512  157.2552 C   0  0  0  0  0  0  0  0  0  0  0  0
  152.0790  139.4897  158.7789 C   0  0  0  0  0  0  0  0  0  0  0  0
  152.5168  140.7148  159.4696 N   0  0  0  0  0  0  0  0  0  0  0  0
  151.8985  141.9222  159.0885 C   0  0  0  0  0  0  0  0  0  0  0  0
  152.2138  143.1111  159.6385 C   0  0  0  0  0  0  0  0  0  0  0  0
  151.5259  144.4064  159.2373 C   0  0  0  0  0  0  0  0  0  0  0  0
  152.0708  145.4383  159.8815 F   0  0  0  0  0  0  0  0  0  0  0  0
  151.6748  144.6142  157.9296 F   0  0  0  0  0  0  0  0  0  0  0  0
  150.2209  144.3815  159.5122 F   0  0  0  0  0  0  0  0  0  0  0  0
  153.2274  143.0958  160.6733 C   0  0  0  0  0  0  0  0  0  0  0  0
  153.8297  141.9505  161.0482 C   0  0  0  0  0  0  0  0  0  0  0  0
  153.4860  140.6667  160.4323 C   0  0  0  0  0  0  0  0  0  0  0  0
  154.0334  139.6144  160.7620 O   0  0  0  0  0  0  0  0  0  0  0  0
  150.8414  140.2024  156.7994 N   0  0  0  0  0  0  0  0  0  0  0  0
  150.5349  140.4468  155.3926 C   0  0  0  0  0  0  0  0  0  0  0  0
  149.2227  141.2399  155.2190 C   0  0  0  0  0  0  0  0  0  0  0  0
  148.4116  140.4893  154.1619 C   0  0  0  0  0  0  0  0  0  0  0  0
  148.8392  139.0345  154.3242 C   0  0  0  0  0  0  0  0  0  0  0  0
  150.3326  139.1173  154.6425 C   0  0  0  0  0  0  0  0  0  0  0  0
  151.1061  139.1673  159.1522 H   0  0  0  0  0  0  0  0  0  0  0  0
  152.7580  138.6661  159.0081 H   0  0  0  0  0  0  0  0  0  0  0  0
  151.1534  141.8165  158.3133 H   0  0  0  0  0  0  0  0  0  0  0  0
  153.5096  144.0221  161.1519 H   0  0  0  0  0  0  0  0  0  0  0  0
  154.5839  141.9774  161.8210 H   0  0  0  0  0  0  0  0  0  0  0  0
  150.1359  140.4645  157.4726 H   0  0  0  0  0  0  0  0  0  0  0  0
  151.3646  140.9869  154.9325 H   0  0  0  0  0  0  0  0  0  0  0  0
  148.6572  141.2567  156.1522 H   0  0  0  0  0  0  0  0  0  0  0  0
  149.4039  142.2769  154.9343 H   0  0  0  0  0  0  0  0  0  0  0  0
  147.3368  140.6280  154.2804 H   0  0  0  0  0  0  0  0  0  0  0  0
  148.6863  140.8437  153.1675 H   0  0  0  0  0  0  0  0  0  0  0  0
  148.3065  138.5874  155.1647 H   0  0  0  0  0  0  0  0  0  0  0  0
  148.6308  138.4334  153.4388 H   0  0  0  0  0  0  0  0  0  0  0  0
  150.8963  139.1431  153.7089 H   0  0  0  0  0  0  0  0  0  0  0  0
  150.6804  138.2467  155.2004 H   0  0  0  0  0  0  0  0  0  0  0  0
  1  2  2  0  0  0  0
  2  3  1  0  0  0  0
  2 15  1  0  0  0  0
  3  4  1  0  0  0  0
  3 21  1  0  0  0  0
  3 22  1  0  0  0  0
  4 13  1  0  0  0  0
  4  5  1  0  0  0  0
  5  6  2  0  0  0  0
  5 23  1  0  0  0  0
  6  7  1  0  0  0  0
  6 11  1  0  0  0  0
  7  8  1  0  0  0  0
  7  9  1  0  0  0  0
  7 10  1  0  0  0  0
 11 12  2  0  0  0  0
 11 24  1  0  0  0  0
 12 13  1  0  0  0  0
 12 25  1  0  0  0  0
 13 14  2  0  0  0  0
 15 16  1  0  0  0  0
 15 26  1  0  0  0  0
 16 20  1  0  0  0  0
 16 17  1  0  0  0  0
 16 27  1  0  0  0  0
 17 18  1  0  0  0  0
 17 28  1  0  0  0  0
 17 29  1  0  0  0  0
 18 19  1  0  0  0  0
 18 30  1  0  0  0  0
 18 31  1  0  0  0  0
 19 20  1  0  0  0  0
 19 32  1  0  0  0  0
 19 33  1  0  0  0  0
 20 34  1  0  0  0  0
 20 35  1  0  0  0  0
M  END
> <s_m_source_file>
AV-unprocessed.smi

> <i_m_source_file_index>
2964

> <i_lp_mmshare_version>
43012

> <i_f3d_flags>
0

> <s_epik_input>
W0NIMl0xW0NIMl1bQ0gyXVtDSDJdW0NIXTFbTkhdQyg9TylbQ0gyXW4yW2NIXWMoQyhGKShGKUYpW2NIXVtjSF1jMj1P

> <s_epik_cmdline>
J2VwaWtfcHl0aG9uJywgJy1waCcsICc3LjAnLCAnLXRuJywgJzgnLCAnLW1hJywgJzIwMCcsICctbWV0YWxfYmluZGluZycsICctaW1hZScsICc8aW5maWxlLm1hZT4nLCAnLW9tYWUnLCAnPG91dGZpbGUubWFlPic=

> <r_lp_tautomer_probability>
1

> <r_epik_Ionization_Penalty>
3.84201e-08

> <r_epik_Ionization_Penalty_Charging>
1.91184e-08

> <r_epik_Ionization_Penalty_Neutral>
1.93017e-08

> <r_epik_State_Penalty>
-0

> <r_epik_Charging_Adjusted_Penalty>
1.91184e-08

> <i_epik_Tot_Q>
0

> <i_epik_Tot_abs_Q>
0

> <r_epik_Metal_State_Penalty>
-0

> <b_epik_Metal_Only>
0

> <s_lp_Force_Field>
OPLS_2005

> <r_lp_Energy>
29.7678

> <b_lp_Chiralities_Consistent>
1

> <s_lp_Variant>
AV-unprocessed.smi:2964-1

> <Gold.Version>
5.8.1

> <Gold.Id.Protein>
6NUR|6NUR_protein|mol2

> <Gold.PLP.Fitness>
50.3320

> <Gold.PLP.PLP>
-49.2324

> <Gold.PLP.part.hbond>
-1.0000

> <Gold.PLP.part.metal>
0.0000

> <Gold.PLP.part.buried>
-4.6326

> <Gold.PLP.part.nonpolar>
-42.6267

> <Gold.PLP.part.repulsive>
0.0633

> <Gold.PLP.ligand.clash>
0.7319

> <Gold.PLP.ligand.torsion>
0.5921

> <Gold.PLP.Chemscore.Hbond>
1.0000

> <Gold.PLP.Chemscore.CHOScore>
0.0000

> <Gold.PLP.Chemscore.Metal>
0.0000

> <Gold.Chemscore.Hbonds>
donor molecule, donor type, donor heavy atom, donor atom, acceptor molecule, acceptor atom, score
      P1  H  7997  8010       L1     1  1.00

> <Gold.PLP.Chemscore.Internal.Correction>
0.0157

> <Gold.Rescore>
     Score         DG    S(hbond)    S(metal)    S(lipo)     H(rot)  DE(clash)    DE(int)     intcor
     15.24     -15.72       1.00        0.00      93.07       1.56       0.08       0.41       ----

> <Gold.Chemscore.Fitness>
15.2403

> <Gold.Chemscore.DG>
-15.7238

> <Gold.Chemscore.ZeroCoef>
-5.4800

> <Gold.Chemscore.Hbond>
0.9999

> <Gold.Chemscore.Metal>
0.0000

> <Gold.Chemscore.Lipo>
93.0727

> <Gold.Chemscore.Internal_Hbond>
0.0000

> <Gold.Chemscore.DEClash>
0.0781

> <Gold.Chemscore.DEInternal>
0.4054

> <Gold.Chemscore.Rot>
1.5568

> <Gold.Chemscore.Internal.Correction>
   9.000000E+99

> <Gold.Chemscore.Hbonds>
donor molecule, donor type, donor heavy atom, donor atom, acceptor molecule, acceptor atom, score
      P1  H  7997  8010       L1     1  0.99

> <Gold.Chemscore.Hbond.Weighted>
-3.3397

> <Gold.Chemscore.Metal.Weighted>
-0.0000

> <Gold.Chemscore.Lipo.Weighted>
-10.8895

> <Gold.Chemscore.Internal_Hbond.Weighted>
0.0000

> <Gold.Chemscore.DEClash.Weighted>
0.0781

> <Gold.Chemscore.DEInternal.Weighted>
0.4054

> <Gold.Chemscore.Rot.Weighted>
3.9854

> <Gold.Chemscore.Internal.Correction.Weighted>
   9.000000E+99

> <Gold.Protein.RotatedTorsions>
[ 6907 6896 6895 6894 ] final -174.11 input  -60.11 | X-H torsion
[ 7974 7965 7964 7962 ] final  -96.58 input  175.53 | X-H torsion
[ 8008 7997 7996 7995 ] final   71.69 input   59.86 | X-H torsion
[ 10167 10162 10161 10158 ] final    2.04 input  -65.29 | X-H torsion
[ 10718 10713 10712 10709 ] final   85.98 input   66.30 | X-H torsion
[ 10763 10752 10751 10750 ] final   91.36 input  -60.55 | X-H torsion
[ 11005 11000 10999 10996 ] final   22.05 input  -57.11 | X-H torsion

> <Gold.Protein.ActiveResidues>
 VAL166  LYS551  ARG553  GLY616  TRP617  ASP618  TYR619  PRO620  LYS621  CYS622 
 ASP623  PHE694  ASN695  SER759  ASP760  ASP761  ALA762  ILE779  LEU786  VAL792 
 PHE793  MET794  SER795  GLU796  ALA797  LYS798  CYS799  TRP800  GLU811  SER814 

> <Gold.Protein.RotatedAtoms>
  151.5671  133.3395  159.2982 H   0  0  0  0  0  0  0  0  0  0  0  0  # atno 6907 bound_to 6896
  150.8389  134.7676  159.6927 H   0  0  0  0  0  0  0  0  0  0  0  0  # atno 6908 bound_to 6896
  152.4460  134.5500  159.9915 H   0  0  0  0  0  0  0  0  0  0  0  0  # atno 6909 bound_to 6896
  145.3450  140.9466  143.2586 H   0  0  0  0  0  0  0  0  0  0  0  0  # atno 7974 bound_to 7965
  155.7576  140.3487  155.5182 H   0  0  0  0  0  0  0  0  0  0  0  0  # atno 8008 bound_to 7997
  155.8944  140.1023  157.1416 H   0  0  0  0  0  0  0  0  0  0  0  0  # atno 8009 bound_to 7997
  154.4037  140.1298  156.4344 H   0  0  0  0  0  0  0  0  0  0  0  0  # atno 8010 bound_to 7997
  140.6654  143.7193  150.7817 H   0  0  0  0  0  0  0  0  0  0  0  0  # atno 10167 bound_to 10162
  157.6922  131.0197  150.2904 H   0  0  0  0  0  0  0  0  0  0  0  0  # atno 10718 bound_to 10713
  153.2075  135.4400  155.0340 H   0  0  0  0  0  0  0  0  0  0  0  0  # atno 10763 bound_to 10752
  154.8181  135.3325  154.7119 H   0  0  0  0  0  0  0  0  0  0  0  0  # atno 10764 bound_to 10752
  153.7560  135.6995  153.4991 H   0  0  0  0  0  0  0  0  0  0  0  0  # atno 10765 bound_to 10752
  140.3848  134.1882  155.7663 H   0  0  0  0  0  0  0  0  0  0  0  0  # atno 11005 bound_to 11000
  144.8761  139.4969  143.6745 LP  0  0  0  0  0  0  0  0  0  0  0  0  # atno 17320 bound_to 7965
  146.2992  139.7372  142.9104 LP  0  0  0  0  0  0  0  0  0  0  0  0  # atno 17321 bound_to 7965
  140.0869  143.4914  152.2500 LP  0  0  0  0  0  0  0  0  0  0  0  0  # atno 17342 bound_to 10162
  139.5901  144.7547  151.3422 LP  0  0  0  0  0  0  0  0  0  0  0  0  # atno 17343 bound_to 10162
  156.3436  130.3819  149.7388 LP  0  0  0  0  0  0  0  0  0  0  0  0  # atno 17370 bound_to 10713
  156.4889  130.8075  151.3086 LP  0  0  0  0  0  0  0  0  0  0  0  0  # atno 17371 bound_to 10713
  141.1911  133.8202  157.0892 LP  0  0  0  0  0  0  0  0  0  0  0  0  # atno 17394 bound_to 11000
  140.0451  134.9834  157.1034 LP  0  0  0  0  0  0  0  0  0  0  0  0  # atno 17395 bound_to 11000

$$$$
