AV-unprocessed.smi:2150|AV-procd|sdf|8756|dock5
  -GOLD-   2272011533D 1   1.00000     0.00000
 Structure written by MMmdl.
 35 36  0  0  0  0  0  0  0  0  1 V2000
  151.1416  141.0284  157.6740 O   0  0  0  0  0  0  0  0  0  0  0  0
  150.9816  142.2044  157.3444 C   0  0  0  0  0  0  0  0  0  0  0  0
  151.8492  143.3138  157.9544 C   0  0  0  0  0  0  0  0  0  0  0  0
  152.2164  143.0483  159.3548 N   0  0  0  0  0  0  0  0  0  0  0  0
  151.7878  143.9687  160.3260 C   0  0  0  0  0  0  0  0  0  0  0  0
  152.0961  143.7978  161.6195 C   0  0  0  0  0  0  0  0  0  0  0  0
  152.8954  142.6103  161.9487 C   0  0  0  0  0  0  0  0  0  0  0  0
  153.2889  141.7702  161.0658 N   0  0  0  0  0  0  0  0  0  0  0  0
  152.9661  141.9533  159.7078 C   0  0  0  0  0  0  0  0  0  0  0  0
  153.3460  141.1528  158.8528 O   0  0  0  0  0  0  0  0  0  0  0  0
  150.0703  142.5972  156.4402 N   0  0  0  0  0  0  0  0  0  0  0  0
  149.1097  141.7180  155.7699 C   0  0  2  0  0  0  0  0  0  0  0  0
  148.2236  141.0705  156.8588 C   0  0  0  0  0  0  0  0  0  0  0  0
  146.8677  140.5660  156.3343 C   0  0  0  0  0  0  0  0  0  0  0  0
  146.9497  139.4145  155.3203 C   0  0  0  0  0  0  0  0  0  0  0  0
  147.6861  139.7838  154.0211 C   0  0  0  0  0  0  0  0  0  0  0  0
  149.1327  139.7893  154.1949 N   0  0  0  0  0  0  0  0  0  0  0  0
  149.8452  140.6053  154.9859 C   0  0  0  0  0  0  0  0  0  0  0  0
  151.0639  140.4640  155.0875 O   0  0  0  0  0  0  0  0  0  0  0  0
  152.7419  143.4239  157.3371 H   0  0  0  0  0  0  0  0  0  0  0  0
  151.3290  144.2710  157.8818 H   0  0  0  0  0  0  0  0  0  0  0  0
  151.2129  144.8052  159.9559 H   0  0  0  0  0  0  0  0  0  0  0  0
  151.8027  144.4671  162.4145 H   0  0  0  0  0  0  0  0  0  0  0  0
  153.1360  142.4881  163.0077 H   0  0  0  0  0  0  0  0  0  0  0  0
  150.0073  143.5825  156.2301 H   0  0  0  0  0  0  0  0  0  0  0  0
  148.4954  142.3122  155.0908 H   0  0  0  0  0  0  0  0  0  0  0  0
  148.7550  140.2648  157.3686 H   0  0  0  0  0  0  0  0  0  0  0  0
  148.0106  141.8119  157.6307 H   0  0  0  0  0  0  0  0  0  0  0  0
  146.2691  140.2359  157.1837 H   0  0  0  0  0  0  0  0  0  0  0  0
  146.3189  141.3983  155.8921 H   0  0  0  0  0  0  0  0  0  0  0  0
  147.4118  138.5394  155.7796 H   0  0  0  0  0  0  0  0  0  0  0  0
  145.9323  139.1154  155.0661 H   0  0  0  0  0  0  0  0  0  0  0  0
  147.4581  139.0411  153.2564 H   0  0  0  0  0  0  0  0  0  0  0  0
  147.3427  140.7422  153.6294 H   0  0  0  0  0  0  0  0  0  0  0  0
  149.6448  139.0816  153.6881 H   0  0  0  0  0  0  0  0  0  0  0  0
  1  2  2  0  0  0  0
  2  3  1  0  0  0  0
  2 11  1  0  0  0  0
  3  4  1  0  0  0  0
  3 20  1  0  0  0  0
  3 21  1  0  0  0  0
  4  9  1  0  0  0  0
  4  5  1  0  0  0  0
  5  6  2  0  0  0  0
  5 22  1  0  0  0  0
  6  7  1  0  0  0  0
  6 23  1  0  0  0  0
  7  8  2  0  0  0  0
  7 24  1  0  0  0  0
  8  9  1  0  0  0  0
  9 10  2  0  0  0  0
 11 12  1  0  0  0  0
 11 25  1  0  0  0  0
 12 18  1  0  0  0  0
 12 13  1  0  0  0  0
 12 26  1  0  0  0  0
 13 14  1  0  0  0  0
 13 27  1  0  0  0  0
 13 28  1  0  0  0  0
 14 15  1  0  0  0  0
 14 29  1  0  0  0  0
 14 30  1  0  0  0  0
 15 16  1  0  0  0  0
 15 31  1  0  0  0  0
 15 32  1  0  0  0  0
 16 17  1  0  0  0  0
 16 33  1  0  0  0  0
 16 34  1  0  0  0  0
 17 18  1  0  0  0  0
 17 35  1  0  0  0  0
 18 19  2  0  0  0  0
M  END
> <s_m_source_file>
AV-unprocessed.smi

> <i_m_source_file_index>
2150

> <i_lp_mmshare_version>
43012

> <i_f3d_flags>
0

> <s_epik_input>
Tz1jMW5bY0hdW2NIXVtjSF1uMVtDSDJdQyg9TylbTkhdW0NAQEhdMltDSDJdW0NIMl1bQ0gyXVtDSDJdW05IXUMyPU8=

> <s_epik_cmdline>
J2VwaWtfcHl0aG9uJywgJy1waCcsICc3LjAnLCAnLXRuJywgJzgnLCAnLW1hJywgJzIwMCcsICctbWV0YWxfYmluZGluZycsICctaW1hZScsICc8aW5maWxlLm1hZT4nLCAnLW9tYWUnLCAnPG91dGZpbGUubWFlPic=

> <r_lp_tautomer_probability>
1

> <r_epik_Ionization_Penalty>
6.25431e-06

> <r_epik_Ionization_Penalty_Charging>
1.47848e-08

> <r_epik_Ionization_Penalty_Neutral>
6.23953e-06

> <r_epik_State_Penalty>
-0

> <r_epik_Charging_Adjusted_Penalty>
1.47848e-08

> <i_epik_Tot_Q>
0

> <i_epik_Tot_abs_Q>
0

> <r_epik_Metal_State_Penalty>
-0

> <b_epik_Metal_Only>
0

> <s_lp_Force_Field>
OPLS_2005

> <r_lp_Energy>
13.567

> <b_lp_Chiralities_Consistent>
1

> <s_lp_Variant>
AV-unprocessed.smi:2150-1

> <Gold.Version>
5.8.1

> <Gold.Id.Protein>
6NUR|6NUR_protein|mol2

> <Gold.PLP.Fitness>
39.6374

> <Gold.PLP.PLP>
-34.7317

> <Gold.PLP.part.hbond>
-3.5956

> <Gold.PLP.part.metal>
0.0000

> <Gold.PLP.part.buried>
-2.6658

> <Gold.PLP.part.nonpolar>
-28.0145

> <Gold.PLP.part.repulsive>
0.2387

> <Gold.PLP.ligand.clash>
0.0000

> <Gold.PLP.ligand.torsion>
0.3646

> <Gold.PLP.Chemscore.Hbond>
1.8772

> <Gold.PLP.Chemscore.CHOScore>
0.0000

> <Gold.PLP.Chemscore.Metal>
0.0000

> <Gold.Chemscore.Hbonds>
donor molecule, donor type, donor heavy atom, donor atom, acceptor molecule, acceptor atom, score
      L1  H    11    25       P1  8028  0.82
      P1  H  7989  7998       L1    19  1.00

> <Gold.PLP.Chemscore.Internal.Correction>
0.0032

> <Gold.Rescore>
     Score         DG    S(hbond)    S(metal)    S(lipo)     H(rot)  DE(clash)    DE(int)     intcor
      9.60     -16.50       2.71        0.00      53.79       1.69       0.02       6.88       ----

> <Gold.Chemscore.Fitness>
9.5974

> <Gold.Chemscore.DG>
-16.4965

> <Gold.Chemscore.ZeroCoef>
-5.4800

> <Gold.Chemscore.Hbond>
2.7131

> <Gold.Chemscore.Metal>
0.0000

> <Gold.Chemscore.Lipo>
53.7895

> <Gold.Chemscore.Internal_Hbond>
0.0000

> <Gold.Chemscore.DEClash>
0.0222

> <Gold.Chemscore.DEInternal>
6.8770

> <Gold.Chemscore.Rot>
1.6947

> <Gold.Chemscore.Internal.Correction>
   9.000000E+99

> <Gold.Chemscore.Hbonds>
donor molecule, donor type, donor heavy atom, donor atom, acceptor molecule, acceptor atom, score
      L1  H    11    25       P1  8028  0.81
      P1  H  7989  7998       L1    19  0.38
      P1  H  7997  8009       L1    10  0.03

> <Gold.Chemscore.Hbond.Weighted>
-9.0616

> <Gold.Chemscore.Metal.Weighted>
-0.0000

> <Gold.Chemscore.Lipo.Weighted>
-6.2934

> <Gold.Chemscore.Internal_Hbond.Weighted>
0.0000

> <Gold.Chemscore.DEClash.Weighted>
0.0222

> <Gold.Chemscore.DEInternal.Weighted>
6.8770

> <Gold.Chemscore.Rot.Weighted>
4.3385

> <Gold.Chemscore.Internal.Correction.Weighted>
   9.000000E+99

> <Gold.Protein.RotatedTorsions>
[ 6907 6896 6895 6894 ] final  -89.41 input  -60.11 | X-H torsion
[ 7974 7965 7964 7962 ] final  132.00 input  175.53 | X-H torsion
[ 8008 7997 7996 7995 ] final  147.44 input   59.86 | X-H torsion
[ 10167 10162 10161 10158 ] final  -20.21 input  -65.29 | X-H torsion
[ 10718 10713 10712 10709 ] final   21.31 input   66.30 | X-H torsion
[ 10763 10752 10751 10750 ] final -118.38 input  -60.55 | X-H torsion
[ 11005 11000 10999 10996 ] final  158.59 input  -57.11 | X-H torsion

> <Gold.Protein.ActiveResidues>
 VAL166  LYS551  ARG553  GLY616  TRP617  ASP618  TYR619  PRO620  LYS621  CYS622 
 ASP623  PHE694  ASN695  SER759  ASP760  ASP761  ALA762  ILE779  LEU786  VAL792 
 PHE793  MET794  SER795  GLU796  ALA797  LYS798  CYS799  TRP800  GLU811  SER814 

> <Gold.Protein.RotatedAtoms>
  150.6874  134.2591  159.4541 H   0  0  0  0  0  0  0  0  0  0  0  0  # atno 6907 bound_to 6896
  152.0522  134.9644  160.0584 H   0  0  0  0  0  0  0  0  0  0  0  0  # atno 6908 bound_to 6896
  152.1103  133.4262  159.4665 H   0  0  0  0  0  0  0  0  0  0  0  0  # atno 6909 bound_to 6896
  145.0014  139.4308  143.5290 H   0  0  0  0  0  0  0  0  0  0  0  0  # atno 7974 bound_to 7965
  156.2824  140.2155  156.5537 H   0  0  0  0  0  0  0  0  0  0  0  0  # atno 8008 bound_to 7997
  154.7270  140.0498  157.0714 H   0  0  0  0  0  0  0  0  0  0  0  0  # atno 8009 bound_to 7997
  155.0404  140.3145  155.4730 H   0  0  0  0  0  0  0  0  0  0  0  0  # atno 8010 bound_to 7997
  140.7274  143.4744  151.0202 H   0  0  0  0  0  0  0  0  0  0  0  0  # atno 10167 bound_to 10162
  157.1367  130.6615  149.5968 H   0  0  0  0  0  0  0  0  0  0  0  0  # atno 10718 bound_to 10713
  154.8585  135.4276  154.2130 H   0  0  0  0  0  0  0  0  0  0  0  0  # atno 10763 bound_to 10752
  153.3152  135.6978  153.7086 H   0  0  0  0  0  0  0  0  0  0  0  0  # atno 10764 bound_to 10752
  153.6163  135.3510  155.2969 H   0  0  0  0  0  0  0  0  0  0  0  0  # atno 10765 bound_to 10752
  140.1880  134.8428  157.2879 H   0  0  0  0  0  0  0  0  0  0  0  0  # atno 11005 bound_to 11000
  146.3452  139.9405  142.8741 LP  0  0  0  0  0  0  0  0  0  0  0  0  # atno 17320 bound_to 7965
  145.2148  140.9910  143.4080 LP  0  0  0  0  0  0  0  0  0  0  0  0  # atno 17321 bound_to 7965
  139.8439  143.7528  152.3180 LP  0  0  0  0  0  0  0  0  0  0  0  0  # atno 17342 bound_to 10162
  139.7686  144.7484  151.0258 LP  0  0  0  0  0  0  0  0  0  0  0  0  # atno 17343 bound_to 10162
  155.9797  130.4792  150.6728 LP  0  0  0  0  0  0  0  0  0  0  0  0  # atno 17370 bound_to 10713
  157.4344  131.0853  151.1007 LP  0  0  0  0  0  0  0  0  0  0  0  0  # atno 17371 bound_to 10713
  140.2192  134.4044  155.7574 LP  0  0  0  0  0  0  0  0  0  0  0  0  # atno 17394 bound_to 11000
  141.2225  133.7157  156.8463 LP  0  0  0  0  0  0  0  0  0  0  0  0  # atno 17395 bound_to 11000

$$$$
