#       Name:                AV-unprocessed.smi:3237
#       Creating user name   scv26
#       Creation time:       Fri Mar 27 18:23:35 2020


#       File generated by GOLD software.
#

@<TRIPOS>MOLECULE
AV-unprocessed.smi:3237
    42    44     1
SMALL
NO_CHARGES


@<TRIPOS>ATOM
      1 ****        -7.0732  -2.4891   1.1283 C.3            1 S1                 0.0000
      2 ****        -5.8067  -1.7227   0.9580 C.2            1 S1                 0.0000
      3 ****        -4.4909  -2.0908   0.9493 C.2            1 S1                 0.0000
      4 ****        -3.8139  -0.8597   0.7404 C.2            1 S1                 0.0000
      5 ****        -2.3963  -0.8167   0.6679 N.am           1 S1                 0.0000
      6 ****        -1.5939   0.2445   0.4659 C.2            1 S1                 0.0000
      7 ****        -2.0768   1.3737   0.3223 O.2            1 S1                 0.0000
      8 ****        -0.2771  -0.1023   0.4469 N.pl3          1 S1                -1.0000
      9 ****         0.8341   0.8295   0.2461 C.3            1 S1                 0.0000
     10 ****         1.8005   0.8215   1.4313 C.3            1 S1                 0.0000
     11 ****         3.1505   1.2284   0.8234 C.3            1 S1                 0.0000
     12 ****         3.0240   1.0635  -0.6440 N.4            1 S1                 1.0000
     13 ****         4.1884   0.4183  -1.2879 C.3            1 S1                 0.0000
     14 ****         5.3087   1.3794  -1.6059 C.3            1 S1                 0.0000
     15 ****         4.4156   0.8625  -2.7130 C.3            1 S1                 0.0000
     16 ****         1.7361   0.3913  -0.9061 C.3            1 S1                 0.0000
     17 ****        -4.6438   0.1673   0.6311 N.2            1 S1                 0.0000
     18 ****        -5.9245  -0.3804   0.7705 O.3            1 S1                 0.0000
     19 ****        -6.8760  -3.5597   1.1863 H              1 S1                 0.0000
     20 ****        -7.7466  -2.3149   0.2890 H              1 S1                 0.0000
     21 ****        -7.5858  -2.1896   2.0424 H              1 S1                 0.0000
     22 ****        -4.0804  -3.0819   1.0723 H              1 S1                 0.0000
     23 ****        -1.9282  -1.7037   0.7790 H              1 S1                 0.0000
     24 ****         0.5175   1.8578   0.0635 H              1 S1                 0.0000
     25 ****         1.4834   1.4902   2.2322 H              1 S1                 0.0000
     26 ****         1.8847  -0.1822   1.8522 H              1 S1                 0.0000
     27 ****         3.3901   2.2703   1.0415 H              1 S1                 0.0000
     28 ****         3.9550   0.6158   1.2338 H              1 S1                 0.0000
     29 ****         4.4060  -0.6044  -0.9847 H              1 S1                 0.0000
     30 ****         5.1932   2.4211  -1.3114 H              1 S1                 0.0000
     31 ****         6.3259   0.9950  -1.5652 H              1 S1                 0.0000
     32 ****         4.8462   0.1394  -3.4028 H              1 S1                 0.0000
     33 ****         3.7053   1.5598  -3.1539 H              1 S1                 0.0000
     34 ****         1.8808  -0.6911  -0.8904 H              1 S1                 0.0000
     35 ****         1.3330   0.6650  -1.8816 H              1 S1                 0.0000
     36 ****         2.9363   1.9946  -1.0250 H              1 S1                 0.0000
     37 ****        -3.0680   1.5016   0.3560 LP             1 S1                 0.0000
     38 ****        -1.4762   2.1590   0.1724 LP             1 S1                 0.0000
     39 ****        -0.0519  -1.0674   0.5803 LP             1 S1                 0.0000
     40 ****        -4.4064   1.1271   0.4812 LP             1 S1                 0.0000
     41 ****        -6.3823   0.0306   1.5588 LP             1 S1                 0.0000
     42 ****        -6.4588  -0.2016  -0.0558 LP             1 S1                 0.0000
@<TRIPOS>BOND
    1    1    2 1     
    2    1   19 1     
    3    1   20 1     
    4    1   21 1     
    5    2   18 1     
    6    2    3 2     
    7    3    4 1     
    8    3   22 1     
    9    4    5 1     
   10    4   17 2     
   11    5    6 am    
   12    5   23 1     
   13    6    7 2     
   14    6    8 1     
   15    8    9 1     
   16    9   16 1     
   17    9   10 1     
   18    9   24 1     
   19   10   11 1     
   20   10   25 1     
   21   10   26 1     
   22   11   12 1     
   23   11   27 1     
   24   11   28 1     
   25   12   13 1     
   26   12   16 1     
   27   12   36 1     
   28   13   15 1     
   29   13   14 1     
   30   13   29 1     
   31   14   15 1     
   32   14   30 1     
   33   14   31 1     
   34   15   32 1     
   35   15   33 1     
   36   16   34 1     
   37   16   35 1     
   38   17   18 1     
   39    7   37 1     
   40    7   38 1     
   41    8   39 1     
   42   17   40 1     
   43   18   41 1     
   44   18   42 1     
@<TRIPOS>SUBSTRUCTURE
      1 S1             1
@<TRIPOS>SET
LONE_PAIRS      STATIC     ATOMS    <user>   **** ""
6 37 38 39 40 41 42
DONOR_HYDROGENS      STATIC     ATOMS    <user>   **** ""
2 23 36
ATOM$BLUE        STATIC     ATOMS    COLORGROUP SYSTEM
6 37 38 39 40 41 42
ATOM$RED        STATIC     ATOMS    COLORGROUP SYSTEM
2 23 36
