AV-unprocessed.smi:177|AV-procd|sdf|1438|dock7
  -GOLD-   2262019223D 1   1.00000     0.00000
 Structure written by MMmdl.
 61 65  0  0  0  0  0  0  0  0  1 V2000
  148.8159  133.5431  152.5238 C   0  0  0  0  0  0  0  0  0  0  0  0
  147.4905  133.0406  152.4512 O   0  0  0  0  0  0  0  0  0  0  0  0
  146.6377  133.7353  151.5465 C   0  0  1  0  0  0  0  0  0  0  0  0
  145.4390  132.8195  151.2373 C   0  0  0  0  0  0  0  0  0  0  0  0
  144.5216  132.6401  152.4588 C   0  0  0  0  0  0  0  0  0  0  0  0
  144.0656  134.0005  153.0065 C   0  0  1  0  0  0  0  0  0  0  0  0
  143.2440  133.7941  154.1500 O   0  0  0  0  0  0  0  0  0  0  0  0
  142.7135  135.0191  154.6418 C   0  0  0  0  0  0  0  0  0  0  0  0
  143.8671  135.9364  155.0744 C   0  0  0  0  0  0  0  0  0  0  0  0
  144.8099  136.1364  153.9773 N   0  0  0  0  0  0  0  0  0  0  0  0
  145.7404  137.0561  154.3289 C   0  0  0  0  0  0  0  0  0  0  0  0
  145.9179  138.1796  153.5831 N   0  0  0  0  0  0  0  0  0  0  0  0
  146.8579  139.0663  153.9228 C   0  0  0  0  0  0  0  0  0  0  0  0
  147.7211  139.0191  154.9399 N   0  0  0  0  0  0  0  0  0  0  0  0
  147.5548  137.8864  155.6814 C   0  0  0  0  0  0  0  0  0  0  0  0
  146.5917  136.8653  155.4493 C   0  0  0  0  0  0  0  0  0  0  0  0
  146.7056  135.8728  156.4131 N   0  0  0  0  0  0  0  0  0  0  0  0
  147.6826  136.2841  157.1740 C   0  0  0  0  0  0  0  0  0  0  0  0
  148.2683  137.4722  156.7936 N   0  0  0  0  0  0  0  0  0  0  0  0
  149.3777  138.1481  157.4529 C   0  0  0  0  0  0  0  0  0  0  0  0
  150.7822  137.8735  156.8257 C   0  0  0  0  0  0  0  0  0  0  0  0
  151.3519  136.5122  157.3074 C   0  0  0  0  0  0  0  0  0  0  0  0
  151.6716  136.5228  158.6845 O   0  0  0  0  0  0  0  0  0  0  0  0
  150.7231  137.8342  155.2777 C   0  0  0  0  0  0  0  0  0  0  0  0
  150.4724  139.2192  154.6543 C   0  0  0  0  0  0  0  0  0  0  0  0
  151.4794  140.1279  155.0792 O   0  0  0  0  0  0  0  0  0  0  0  0
  151.4775  140.3296  156.4864 C   0  0  0  0  0  0  0  0  0  0  0  0
  151.7715  139.0026  157.2099 C   0  0  0  0  0  0  0  0  0  0  0  0
  145.2812  134.8781  153.3876 C   0  0  2  0  0  0  0  0  0  0  0  0
  146.1602  135.0837  152.1299 C   0  0  0  0  0  0  0  0  0  0  0  0
  149.4090  132.8994  153.1730 H   0  0  0  0  0  0  0  0  0  0  0  0
  148.8483  134.5482  152.9428 H   0  0  0  0  0  0  0  0  0  0  0  0
  149.2913  133.5543  151.5424 H   0  0  0  0  0  0  0  0  0  0  0  0
  147.1772  133.9117  150.6145 H   0  0  0  0  0  0  0  0  0  0  0  0
  144.8615  133.2485  150.4175 H   0  0  0  0  0  0  0  0  0  0  0  0
  145.7904  131.8482  150.8880 H   0  0  0  0  0  0  0  0  0  0  0  0
  143.6539  132.0399  152.1835 H   0  0  0  0  0  0  0  0  0  0  0  0
  145.0469  132.0861  153.2378 H   0  0  0  0  0  0  0  0  0  0  0  0
  143.4745  134.5012  152.2367 H   0  0  0  0  0  0  0  0  0  0  0  0
  142.0986  135.4987  153.8787 H   0  0  0  0  0  0  0  0  0  0  0  0
  142.0621  134.8094  155.4901 H   0  0  0  0  0  0  0  0  0  0  0  0
  143.4649  136.8935  155.4097 H   0  0  0  0  0  0  0  0  0  0  0  0
  144.3910  135.4945  155.9233 H   0  0  0  0  0  0  0  0  0  0  0  0
  146.9326  139.9356  153.2862 H   0  0  0  0  0  0  0  0  0  0  0  0
  148.0121  135.7213  158.0353 H   0  0  0  0  0  0  0  0  0  0  0  0
  149.1536  139.2138  157.4650 H   0  0  0  0  0  0  0  0  0  0  0  0
  149.3714  137.8449  158.5006 H   0  0  0  0  0  0  0  0  0  0  0  0
  150.6495  135.7012  157.1157 H   0  0  0  0  0  0  0  0  0  0  0  0
  152.2587  136.2587  156.7569 H   0  0  0  0  0  0  0  0  0  0  0  0
  151.1860  137.2193  159.0993 H   0  0  0  0  0  0  0  0  0  0  0  0
  151.6732  137.4645  154.8891 H   0  0  0  0  0  0  0  0  0  0  0  0
  149.9721  137.1246  154.9316 H   0  0  0  0  0  0  0  0  0  0  0  0
  150.5051  139.1474  153.5674 H   0  0  0  0  0  0  0  0  0  0  0  0
  149.4866  139.6065  154.9109 H   0  0  0  0  0  0  0  0  0  0  0  0
  152.2466  141.0623  156.7317 H   0  0  0  0  0  0  0  0  0  0  0  0
  150.5274  140.7590  156.8050 H   0  0  0  0  0  0  0  0  0  0  0  0
  151.7675  139.1653  158.2881 H   0  0  0  0  0  0  0  0  0  0  0  0
  152.7878  138.6987  156.9550 H   0  0  0  0  0  0  0  0  0  0  0  0
  145.8635  134.3488  154.1439 H   0  0  0  0  0  0  0  0  0  0  0  0
  147.0171  135.7217  152.3377 H   0  0  0  0  0  0  0  0  0  0  0  0
  145.5823  135.6153  151.3725 H   0  0  0  0  0  0  0  0  0  0  0  0
  1  2  1  0  0  0  0
  1 31  1  0  0  0  0
  1 32  1  0  0  0  0
  1 33  1  0  0  0  0
  2  3  1  0  0  0  0
  3 30  1  0  0  0  0
  3  4  1  0  0  0  0
  3 34  1  0  0  0  0
  4  5  1  0  0  0  0
  4 35  1  0  0  0  0
  4 36  1  0  0  0  0
  5  6  1  0  0  0  0
  5 37  1  0  0  0  0
  5 38  1  0  0  0  0
  6 29  1  0  0  0  0
  6  7  1  0  0  0  0
  6 39  1  0  0  0  0
  7  8  1  0  0  0  0
  8  9  1  0  0  0  0
  8 40  1  0  0  0  0
  8 41  1  0  0  0  0
  9 10  1  0  0  0  0
  9 42  1  0  0  0  0
  9 43  1  0  0  0  0
 10 11  1  0  0  0  0
 10 29  1  0  0  0  0
 11 16  1  0  0  0  0
 11 12  2  0  0  0  0
 12 13  1  0  0  0  0
 13 14  2  0  0  0  0
 13 44  1  0  0  0  0
 14 15  1  0  0  0  0
 15 19  1  0  0  0  0
 15 16  2  0  0  0  0
 16 17  1  0  0  0  0
 17 18  2  0  0  0  0
 18 19  1  0  0  0  0
 18 45  1  0  0  0  0
 19 20  1  0  0  0  0
 20 21  1  0  0  0  0
 20 46  1  0  0  0  0
 20 47  1  0  0  0  0
 21 28  1  0  0  0  0
 21 22  1  0  0  0  0
 21 24  1  0  0  0  0
 22 23  1  0  0  0  0
 22 48  1  0  0  0  0
 22 49  1  0  0  0  0
 23 50  1  0  0  0  0
 24 25  1  0  0  0  0
 24 51  1  0  0  0  0
 24 52  1  0  0  0  0
 25 26  1  0  0  0  0
 25 53  1  0  0  0  0
 25 54  1  0  0  0  0
 26 27  1  0  0  0  0
 27 28  1  0  0  0  0
 27 55  1  0  0  0  0
 27 56  1  0  0  0  0
 28 57  1  0  0  0  0
 28 58  1  0  0  0  0
 29 30  1  0  0  0  0
 29 59  1  0  0  0  0
 30 60  1  0  0  0  0
 30 61  1  0  0  0  0
M  END
> <s_m_source_file>
AV-unprocessed.smi

> <i_m_source_file_index>
177

> <i_lp_mmshare_version>
43012

> <i_f3d_flags>
0

> <s_epik_input>
W0NIM11PW0NASF0oW0NIMl1bQ0gyXTEpW0NIMl1bQ0BIXShbQ0BASF0xMilOKFtDSDJdW0NIMl1PMiljKG5bY0hdbjMpYyhjMzQpbltjSF1uNFtDSDJdQzUoW0NIMl1bT0hdKVtDSDJdW0NIMl1PW0NIMl1bQ0gyXTU=

> <s_epik_cmdline>
J2VwaWtfcHl0aG9uJywgJy1waCcsICc3LjAnLCAnLXRuJywgJzgnLCAnLW1hJywgJzIwMCcsICctbWV0YWxfYmluZGluZycsICctaW1hZScsICc8aW5maWxlLm1hZT4nLCAnLW9tYWUnLCAnPG91dGZpbGUubWFlPic=

> <r_lp_tautomer_probability>
1

> <r_epik_Ionization_Penalty>
0.0065899

> <r_epik_Ionization_Penalty_Charging>
0

> <r_epik_Ionization_Penalty_Neutral>
0.0065899

> <r_epik_State_Penalty>
0.00470042

> <r_epik_Charging_Adjusted_Penalty>
0.00470042

> <i_epik_Tot_Q>
0

> <i_epik_Tot_abs_Q>
0

> <r_epik_Metal_State_Penalty>
-0

> <b_epik_Metal_Only>
0

> <s_lp_Force_Field>
OPLS_2005

> <r_lp_Energy>
42.9311

> <b_lp_Chiralities_Consistent>
1

> <s_lp_Variant>
AV-unprocessed.smi:177-2

> <Gold.Version>
5.8.1

> <Gold.Id.Protein>
6NUR|6NUR_protein|mol2

> <Gold.PLP.Fitness>
40.5720

> <Gold.PLP.PLP>
-33.3903

> <Gold.PLP.part.hbond>
-2.0000

> <Gold.PLP.part.metal>
0.0000

> <Gold.PLP.part.buried>
-6.8087

> <Gold.PLP.part.nonpolar>
-26.1062

> <Gold.PLP.part.repulsive>
1.0424

> <Gold.PLP.ligand.clash>
0.0000

> <Gold.PLP.ligand.torsion>
0.9914

> <Gold.PLP.Chemscore.Hbond>
2.0000

> <Gold.PLP.Chemscore.CHOScore>
1.0000

> <Gold.PLP.Chemscore.Metal>
0.0000

> <Gold.Chemscore.Hbonds>
donor molecule, donor type, donor heavy atom, donor atom, acceptor molecule, acceptor atom, score
      P1  H  6896  6907       L1    23  0.48
      P1  H  7989  7998       L1    26  0.70

> <Gold.PLP.Chemscore.Internal.Correction>
0.1646

> <Gold.Rescore>
     Score         DG    S(hbond)    S(metal)    S(lipo)     H(rot)  DE(clash)    DE(int)     intcor
     10.60     -13.08       1.45        0.00      79.95       2.58       0.03       2.45       ----

> <Gold.Chemscore.Fitness>
10.5961

> <Gold.Chemscore.DG>
-13.0782

> <Gold.Chemscore.ZeroCoef>
-5.4800

> <Gold.Chemscore.Hbond>
1.4521

> <Gold.Chemscore.Metal>
0.0000

> <Gold.Chemscore.Lipo>
79.9531

> <Gold.Chemscore.Internal_Hbond>
0.0000

> <Gold.Chemscore.DEClash>
0.0285

> <Gold.Chemscore.DEInternal>
2.4536

> <Gold.Chemscore.Rot>
2.5806

> <Gold.Chemscore.Internal.Correction>
   9.000000E+99

> <Gold.Chemscore.Hbonds>
donor molecule, donor type, donor heavy atom, donor atom, acceptor molecule, acceptor atom, score
      P1  H  6896  6907       L1    23  0.11
      P1  H  7989  7998       L1    26  0.07

> <Gold.Chemscore.Hbond.Weighted>
-4.8499

> <Gold.Chemscore.Metal.Weighted>
-0.0000

> <Gold.Chemscore.Lipo.Weighted>
-9.3545

> <Gold.Chemscore.Internal_Hbond.Weighted>
0.0000

> <Gold.Chemscore.DEClash.Weighted>
0.0285

> <Gold.Chemscore.DEInternal.Weighted>
2.4536

> <Gold.Chemscore.Rot.Weighted>
6.6062

> <Gold.Chemscore.Internal.Correction.Weighted>
   9.000000E+99

> <Gold.Protein.RotatedTorsions>
[ 6907 6896 6895 6894 ] final  -38.49 input  -60.11 | X-H torsion
[ 7974 7965 7964 7962 ] final  -91.26 input  175.53 | X-H torsion
[ 8008 7997 7996 7995 ] final -161.74 input   59.86 | X-H torsion
[ 10167 10162 10161 10158 ] final   10.30 input  -65.29 | X-H torsion
[ 10718 10713 10712 10709 ] final -136.92 input   66.30 | X-H torsion
[ 10763 10752 10751 10750 ] final   -3.51 input  -60.55 | X-H torsion
[ 11005 11000 10999 10996 ] final -157.78 input  -57.11 | X-H torsion

> <Gold.Protein.ActiveResidues>
 VAL166  LYS551  ARG553  GLY616  TRP617  ASP618  TYR619  PRO620  LYS621  CYS622 
 ASP623  PHE694  ASN695  SER759  ASP760  ASP761  ALA762  ILE779  LEU786  VAL792 
 PHE793  MET794  SER795  GLU796  ALA797  LYS798  CYS799  TRP800  GLU811  SER814 

> <Gold.Protein.RotatedAtoms>
  151.0017  134.9327  159.7957 H   0  0  0  0  0  0  0  0  0  0  0  0  # atno 6907 bound_to 6896
  152.5279  134.3145  159.9135 H   0  0  0  0  0  0  0  0  0  0  0  0  # atno 6908 bound_to 6896
  151.3150  133.4022  159.2684 H   0  0  0  0  0  0  0  0  0  0  0  0  # atno 6909 bound_to 6896
  145.4154  140.9548  143.2210 H   0  0  0  0  0  0  0  0  0  0  0  0  # atno 7974 bound_to 7965
  155.7966  140.0886  157.1980 H   0  0  0  0  0  0  0  0  0  0  0  0  # atno 8008 bound_to 7997
  154.3983  140.1480  156.3284 H   0  0  0  0  0  0  0  0  0  0  0  0  # atno 8009 bound_to 7997
  155.8505  140.3435  155.5693 H   0  0  0  0  0  0  0  0  0  0  0  0  # atno 8010 bound_to 7997
  140.6202  143.8220  150.7166 H   0  0  0  0  0  0  0  0  0  0  0  0  # atno 10167 bound_to 10162
  156.2823  130.7328  151.1329 H   0  0  0  0  0  0  0  0  0  0  0  0  # atno 10718 bound_to 10713
  153.3724  135.6995  153.6628 H   0  0  0  0  0  0  0  0  0  0  0  0  # atno 10763 bound_to 10752
  153.5273  135.3599  155.2660 H   0  0  0  0  0  0  0  0  0  0  0  0  # atno 10764 bound_to 10752
  154.8683  135.4172  154.3004 H   0  0  0  0  0  0  0  0  0  0  0  0  # atno 10765 bound_to 10752
  140.6608  134.4351  157.5234 H   0  0  0  0  0  0  0  0  0  0  0  0  # atno 11005 bound_to 11000
  144.8280  139.5676  143.6956 LP  0  0  0  0  0  0  0  0  0  0  0  0  # atno 17320 bound_to 7965
  146.2683  139.6574  142.9313 LP  0  0  0  0  0  0  0  0  0  0  0  0  # atno 17321 bound_to 7965
  140.1808  143.4116  152.1934 LP  0  0  0  0  0  0  0  0  0  0  0  0  # atno 17342 bound_to 10162
  139.5432  144.7276  151.4665 LP  0  0  0  0  0  0  0  0  0  0  0  0  # atno 17343 bound_to 10162
  157.7318  131.0605  150.5659 LP  0  0  0  0  0  0  0  0  0  0  0  0  # atno 17370 bound_to 10713
  156.5766  130.4293  149.5995 LP  0  0  0  0  0  0  0  0  0  0  0  0  # atno 17371 bound_to 10713
  139.9013  134.8549  156.1883 LP  0  0  0  0  0  0  0  0  0  0  0  0  # atno 17394 bound_to 11000
  141.0466  133.6910  156.1695 LP  0  0  0  0  0  0  0  0  0  0  0  0  # atno 17395 bound_to 11000

$$$$
