AV-unprocessed.smi:1855|AV-procd|sdf|7531|dock6
  -GOLD-   22720 9243D 1   1.00000     0.00000
 Structure written by MMmdl.
 43 45  0  0  0  0  0  0  0  0  1 V2000
  155.3432  143.3257  165.3296 C   0  0  0  0  0  0  0  0  0  0  0  0
  155.2152  142.5510  164.1471 O   0  0  0  0  0  0  0  0  0  0  0  0
  155.3892  141.1849  164.2353 C   0  0  0  0  0  0  0  0  0  0  0  0
  155.7242  140.5091  165.4358 C   0  0  0  0  0  0  0  0  0  0  0  0
  155.8861  139.1114  165.4462 C   0  0  0  0  0  0  0  0  0  0  0  0
  155.7162  138.3751  164.2612 C   0  0  0  0  0  0  0  0  0  0  0  0
  155.3845  139.0356  163.0644 C   0  0  0  0  0  0  0  0  0  0  0  0
  155.2193  140.4430  163.0440 C   0  0  0  0  0  0  0  0  0  0  0  0
  154.8936  141.1586  161.9127 O   0  0  0  0  0  0  0  0  0  0  0  0
  154.7955  140.4768  160.6707 C   0  0  0  0  0  0  0  0  0  0  0  0
  153.3191  140.1487  160.4063 C   0  0  0  0  0  0  0  0  0  0  0  0
  152.6789  141.1530  159.5672 N   0  0  0  0  0  0  0  0  0  0  0  0
  152.2166  141.0184  158.2983 C   0  0  0  0  0  0  0  0  0  0  0  0
  152.3041  139.7228  157.5451 C   0  0  0  0  0  0  0  0  0  0  0  0
  151.0244  139.4548  156.8964 N   0  0  0  0  0  0  0  0  0  0  0  0
  150.8041  139.5001  155.5747 C   0  0  0  0  0  0  0  0  0  0  0  0
  151.6611  139.7667  154.7338 O   0  0  0  0  0  0  0  0  0  0  0  0
  151.6814  142.1132  157.7568 N   0  0  0  0  0  0  0  0  0  0  0  0
  151.8082  143.0459  158.7672 C   0  0  0  0  0  0  0  0  0  0  0  0
  151.4316  144.4073  158.8119 C   0  0  0  0  0  0  0  0  0  0  0  0
  151.6744  145.1775  159.9681 C   0  0  0  0  0  0  0  0  0  0  0  0
  152.2941  144.5984  161.0942 C   0  0  0  0  0  0  0  0  0  0  0  0
  152.6715  143.2421  161.0724 C   0  0  0  0  0  0  0  0  0  0  0  0
  152.4290  142.4777  159.9151 C   0  0  0  0  0  0  0  0  0  0  0  0
  155.1855  144.3765  165.0871 H   0  0  0  0  0  0  0  0  0  0  0  0
  156.3405  143.2335  165.7613 H   0  0  0  0  0  0  0  0  0  0  0  0
  154.5977  143.0432  166.0740 H   0  0  0  0  0  0  0  0  0  0  0  0
  155.8621  141.0413  166.3646 H   0  0  0  0  0  0  0  0  0  0  0  0
  156.1402  138.6041  166.3652 H   0  0  0  0  0  0  0  0  0  0  0  0
  155.8394  137.3021  164.2693 H   0  0  0  0  0  0  0  0  0  0  0  0
  155.2592  138.4392  162.1737 H   0  0  0  0  0  0  0  0  0  0  0  0
  155.1851  141.0981  159.8630 H   0  0  0  0  0  0  0  0  0  0  0  0
  155.3769  139.5544  160.7003 H   0  0  0  0  0  0  0  0  0  0  0  0
  153.2250  139.1674  159.9424 H   0  0  0  0  0  0  0  0  0  0  0  0
  152.7761  140.0911  161.3502 H   0  0  0  0  0  0  0  0  0  0  0  0
  153.1113  139.7720  156.8121 H   0  0  0  0  0  0  0  0  0  0  0  0
  152.5480  138.9090  158.2279 H   0  0  0  0  0  0  0  0  0  0  0  0
  150.2472  139.2258  157.4988 H   0  0  0  0  0  0  0  0  0  0  0  0
  149.7532  139.2663  155.3447 H   0  0  0  0  0  0  0  0  0  0  0  0
  150.9584  144.8604  157.9532 H   0  0  0  0  0  0  0  0  0  0  0  0
  151.3856  146.2180  159.9902 H   0  0  0  0  0  0  0  0  0  0  0  0
  152.4812  145.1957  161.9745 H   0  0  0  0  0  0  0  0  0  0  0  0
  153.1511  142.7972  161.9315 H   0  0  0  0  0  0  0  0  0  0  0  0
  1  2  1  0  0  0  0
  1 25  1  0  0  0  0
  1 26  1  0  0  0  0
  1 27  1  0  0  0  0
  2  3  1  0  0  0  0
  3  8  1  0  0  0  0
  3  4  2  0  0  0  0
  4  5  1  0  0  0  0
  4 28  1  0  0  0  0
  5  6  2  0  0  0  0
  5 29  1  0  0  0  0
  6  7  1  0  0  0  0
  6 30  1  0  0  0  0
  7  8  2  0  0  0  0
  7 31  1  0  0  0  0
  8  9  1  0  0  0  0
  9 10  1  0  0  0  0
 10 11  1  0  0  0  0
 10 32  1  0  0  0  0
 10 33  1  0  0  0  0
 11 12  1  0  0  0  0
 11 34  1  0  0  0  0
 11 35  1  0  0  0  0
 12 24  1  0  0  0  0
 12 13  1  0  0  0  0
 13 14  1  0  0  0  0
 13 18  2  0  0  0  0
 14 15  1  0  0  0  0
 14 36  1  0  0  0  0
 14 37  1  0  0  0  0
 15 16  1  0  0  0  0
 15 38  1  0  0  0  0
 16 17  2  0  0  0  0
 16 39  1  0  0  0  0
 18 19  1  0  0  0  0
 19 24  2  0  0  0  0
 19 20  1  0  0  0  0
 20 21  2  0  0  0  0
 20 40  1  0  0  0  0
 21 22  1  0  0  0  0
 21 41  1  0  0  0  0
 22 23  2  0  0  0  0
 22 42  1  0  0  0  0
 23 24  1  0  0  0  0
 23 43  1  0  0  0  0
M  END
> <s_m_source_file>
AV-unprocessed.smi

> <i_m_source_file_index>
1855

> <i_lp_mmshare_version>
43012

> <i_f3d_flags>
0

> <s_epik_input>
W0NIM11PYzFbY0hdW2NIXVtjSF1bY0hdYzFPW0NIMl1bQ0gyXW4oYyhuMilbQ0gyXVtOSF1bQ0hdPU8pYyhjMjMpW2NIXVtjSF1bY0hdW2NIXTM=

> <s_epik_cmdline>
J2VwaWtfcHl0aG9uJywgJy1waCcsICc3LjAnLCAnLXRuJywgJzgnLCAnLW1hJywgJzIwMCcsICctbWV0YWxfYmluZGluZycsICctaW1hZScsICc8aW5maWxlLm1hZT4nLCAnLW9tYWUnLCAnPG91dGZpbGUubWFlPic=

> <r_lp_tautomer_probability>
1

> <r_epik_Ionization_Penalty>
0.0587233

> <r_epik_Ionization_Penalty_Charging>
0

> <r_epik_Ionization_Penalty_Neutral>
0.0587233

> <r_epik_State_Penalty>
0.0508012

> <r_epik_Charging_Adjusted_Penalty>
0.0508012

> <i_epik_Tot_Q>
0

> <i_epik_Tot_abs_Q>
0

> <r_epik_Metal_State_Penalty>
0.0461886

> <b_epik_Metal_Only>
0

> <s_lp_Force_Field>
OPLS_2005

> <r_lp_Energy>
14.9723

> <b_lp_Chiralities_Consistent>
1

> <s_lp_Variant>
AV-unprocessed.smi:1855-1

> <Gold.Version>
5.8.1

> <Gold.Id.Protein>
6NUR|6NUR_protein|mol2

> <Gold.PLP.Fitness>
52.8408

> <Gold.PLP.PLP>
-51.3518

> <Gold.PLP.part.hbond>
-3.0000

> <Gold.PLP.part.metal>
0.0000

> <Gold.PLP.part.buried>
-3.6752

> <Gold.PLP.part.nonpolar>
-43.4775

> <Gold.PLP.part.repulsive>
0.1423

> <Gold.PLP.ligand.clash>
0.0000

> <Gold.PLP.ligand.torsion>
0.7803

> <Gold.PLP.Chemscore.Hbond>
0.9920

> <Gold.PLP.Chemscore.CHOScore>
0.0000

> <Gold.PLP.Chemscore.Metal>
0.0000

> <Gold.Chemscore.Hbonds>
donor molecule, donor type, donor heavy atom, donor atom, acceptor molecule, acceptor atom, score
      P1  H  7989  7998       L1    17  1.00

> <Gold.PLP.Chemscore.Internal.Correction>
0.0735

> <Gold.Rescore>
     Score         DG    S(hbond)    S(metal)    S(lipo)     H(rot)  DE(clash)    DE(int)     intcor
     15.53     -16.99       0.99        0.00     130.00       2.74       0.66       0.81       ----

> <Gold.Chemscore.Fitness>
15.5278

> <Gold.Chemscore.DG>
-16.9912

> <Gold.Chemscore.ZeroCoef>
-5.4800

> <Gold.Chemscore.Hbond>
0.9914

> <Gold.Chemscore.Metal>
0.0000

> <Gold.Chemscore.Lipo>
129.9990

> <Gold.Chemscore.Internal_Hbond>
0.0000

> <Gold.Chemscore.DEClash>
0.6552

> <Gold.Chemscore.DEInternal>
0.8081

> <Gold.Chemscore.Rot>
2.7383

> <Gold.Chemscore.Internal.Correction>
   9.000000E+99

> <Gold.Chemscore.Hbonds>
donor molecule, donor type, donor heavy atom, donor atom, acceptor molecule, acceptor atom, score
      P1  H  7989  7998       L1    17  0.98

> <Gold.Chemscore.Hbond.Weighted>
-3.3114

> <Gold.Chemscore.Metal.Weighted>
-0.0000

> <Gold.Chemscore.Lipo.Weighted>
-15.2099

> <Gold.Chemscore.Internal_Hbond.Weighted>
0.0000

> <Gold.Chemscore.DEClash.Weighted>
0.6552

> <Gold.Chemscore.DEInternal.Weighted>
0.8081

> <Gold.Chemscore.Rot.Weighted>
7.0102

> <Gold.Chemscore.Internal.Correction.Weighted>
   9.000000E+99

> <Gold.Protein.RotatedTorsions>
[ 6907 6896 6895 6894 ] final -102.46 input  -60.11 | X-H torsion
[ 7974 7965 7964 7962 ] final  -98.15 input  175.53 | X-H torsion
[ 8008 7997 7996 7995 ] final  103.20 input   59.86 | X-H torsion
[ 10167 10162 10161 10158 ] final  -36.70 input  -65.29 | X-H torsion
[ 10718 10713 10712 10709 ] final  -98.44 input   66.30 | X-H torsion
[ 10763 10752 10751 10750 ] final  -35.03 input  -60.55 | X-H torsion
[ 11005 11000 10999 10996 ] final  169.34 input  -57.11 | X-H torsion

> <Gold.Protein.ActiveResidues>
 VAL166  LYS551  ARG553  GLY616  TRP617  ASP618  TYR619  PRO620  LYS621  CYS622 
 ASP623  PHE694  ASN695  SER759  ASP760  ASP761  ALA762  ILE779  LEU786  VAL792 
 PHE793  MET794  SER795  GLU796  ALA797  LYS798  CYS799  TRP800  GLU811  SER814 

> <Gold.Protein.RotatedAtoms>
  150.7197  134.0578  159.3820 H   0  0  0  0  0  0  0  0  0  0  0  0  # atno 6907 bound_to 6896
  151.8557  135.0540  160.0473 H   0  0  0  0  0  0  0  0  0  0  0  0  # atno 6908 bound_to 6896
  152.2756  133.5387  159.5502 H   0  0  0  0  0  0  0  0  0  0  0  0  # atno 6909 bound_to 6896
  145.3243  140.9428  143.2697 H   0  0  0  0  0  0  0  0  0  0  0  0  # atno 7974 bound_to 7965
  156.1462  140.3168  155.8574 H   0  0  0  0  0  0  0  0  0  0  0  0  # atno 8008 bound_to 7997
  155.4059  140.0502  157.3051 H   0  0  0  0  0  0  0  0  0  0  0  0  # atno 8009 bound_to 7997
  154.5019  140.2132  155.9342 H   0  0  0  0  0  0  0  0  0  0  0  0  # atno 8010 bound_to 7997
  140.7136  143.3391  151.2398 H   0  0  0  0  0  0  0  0  0  0  0  0  # atno 10167 bound_to 10162
  156.0108  130.5238  150.6523 H   0  0  0  0  0  0  0  0  0  0  0  0  # atno 10718 bound_to 10713
  153.8564  135.6844  153.4787 H   0  0  0  0  0  0  0  0  0  0  0  0  # atno 10763 bound_to 10752
  153.1367  135.4675  154.9431 H   0  0  0  0  0  0  0  0  0  0  0  0  # atno 10764 bound_to 10752
  154.7779  135.3259  154.8002 H   0  0  0  0  0  0  0  0  0  0  0  0  # atno 10765 bound_to 10752
  140.2967  134.7629  157.3883 H   0  0  0  0  0  0  0  0  0  0  0  0  # atno 11005 bound_to 11000
  144.8914  139.4770  143.6676 LP  0  0  0  0  0  0  0  0  0  0  0  0  # atno 17320 bound_to 7965
  146.3070  139.7614  142.9048 LP  0  0  0  0  0  0  0  0  0  0  0  0  # atno 17321 bound_to 7965
  139.6893  143.9719  152.2851 LP  0  0  0  0  0  0  0  0  0  0  0  0  # atno 17342 bound_to 10162
  139.9375  144.6702  150.8300 LP  0  0  0  0  0  0  0  0  0  0  0  0  # atno 17343 bound_to 10162
  157.4282  131.0846  151.1064 LP  0  0  0  0  0  0  0  0  0  0  0  0  # atno 17370 bound_to 10713
  157.1645  130.6240  149.5621 LP  0  0  0  0  0  0  0  0  0  0  0  0  # atno 17371 bound_to 10713
  140.1146  134.5300  155.8236 LP  0  0  0  0  0  0  0  0  0  0  0  0  # atno 17394 bound_to 11000
  141.2136  133.6736  156.6752 LP  0  0  0  0  0  0  0  0  0  0  0  0  # atno 17395 bound_to 11000

$$$$
