AV-unprocessed.smi:102|AV-procd|sdf|950|dock4
  -GOLD-   2262017473D 1   1.00000     0.00000
 Structure written by MMmdl.
 44 45  0  0  0  0  0  0  0  0  1 V2000
  147.5996  135.4776  162.5815 C   0  0  0  0  0  0  0  0  0  0  0  0
  147.5735  136.5412  161.4919 C   0  0  0  0  0  0  0  0  0  0  0  0
  146.8270  137.5175  161.5614 O   0  0  0  0  0  0  0  0  0  0  0  0
  148.4332  136.2743  160.4994 O   0  0  0  0  0  0  0  0  0  0  0  0
  148.1457  136.7108  159.1794 C   0  0  0  0  0  0  0  0  0  0  0  0
  149.4453  136.9546  158.3950 C   0  0  1  0  0  0  0  0  0  0  0  0
  150.1997  135.7630  158.2556 O   0  0  0  0  0  0  0  0  0  0  0  0
  151.1063  135.9330  157.2146 C   0  0  1  0  0  0  0  0  0  0  0  0
  151.2390  134.6004  156.5132 N   0  0  0  0  0  0  0  0  0  0  0  0
  150.5694  134.3678  155.3185 C   0  0  0  0  0  0  0  0  0  0  0  0
  150.5780  133.1720  154.6847 C   0  0  0  0  0  0  0  0  0  0  0  0
  149.9050  133.0275  153.5305 F   0  0  0  0  0  0  0  0  0  0  0  0
  151.2900  132.0336  155.2562 C   0  0  0  0  0  0  0  0  0  0  0  0
  151.3683  130.9155  154.7515 O   0  0  0  0  0  0  0  0  0  0  0  0
  151.9016  132.2953  156.4854 N   0  0  0  0  0  0  0  0  0  0  0  0
  151.8894  133.5208  157.1549 C   0  0  0  0  0  0  0  0  0  0  0  0
  152.4392  133.6194  158.2509 O   0  0  0  0  0  0  0  0  0  0  0  0
  150.5896  137.0441  156.2787 C   0  0  2  0  0  0  0  0  0  0  0  0
  151.5580  138.0791  156.1636 O   0  0  0  0  0  0  0  0  0  0  0  0
  151.3799  139.0736  155.2767 C   0  0  0  0  0  0  0  0  0  0  0  0
  152.5133  140.0900  155.3086 C   0  0  0  0  0  0  0  0  0  0  0  0
  150.4262  139.1968  154.5080 O   0  0  0  0  0  0  0  0  0  0  0  0
  149.3301  137.5451  156.9803 C   0  0  1  0  0  0  0  0  0  0  0  0
  148.1992  137.0897  156.2445 O   0  0  0  0  0  0  0  0  0  0  0  0
  146.9679  137.5647  156.5048 C   0  0  0  0  0  0  0  0  0  0  0  0
  145.8992  136.9013  155.6468 C   0  0  0  0  0  0  0  0  0  0  0  0
  146.6801  138.4229  157.3387 O   0  0  0  0  0  0  0  0  0  0  0  0
  152.3843  131.5292  156.9323 H   0  0  0  0  0  0  0  0  0  0  0  0
  147.3964  134.4943  162.1570 H   0  0  0  0  0  0  0  0  0  0  0  0
  146.8466  135.6886  163.3410 H   0  0  0  0  0  0  0  0  0  0  0  0
  148.5776  135.4531  163.0623 H   0  0  0  0  0  0  0  0  0  0  0  0
  147.5349  135.9704  158.6606 H   0  0  0  0  0  0  0  0  0  0  0  0
  147.5653  137.6328  159.2302 H   0  0  0  0  0  0  0  0  0  0  0  0
  150.0625  137.6402  158.9779 H   0  0  0  0  0  0  0  0  0  0  0  0
  152.0782  136.1934  157.6359 H   0  0  0  0  0  0  0  0  0  0  0  0
  149.9979  135.1662  154.8692 H   0  0  0  0  0  0  0  0  0  0  0  0
  150.3691  136.6339  155.2921 H   0  0  0  0  0  0  0  0  0  0  0  0
  153.4280  139.6480  154.9135 H   0  0  0  0  0  0  0  0  0  0  0  0
  152.7001  140.4200  156.3306 H   0  0  0  0  0  0  0  0  0  0  0  0
  152.2623  140.9623  154.7046 H   0  0  0  0  0  0  0  0  0  0  0  0
  149.3337  138.6350  157.0315 H   0  0  0  0  0  0  0  0  0  0  0  0
  145.5980  135.9514  156.0887 H   0  0  0  0  0  0  0  0  0  0  0  0
  146.2770  136.7125  154.6417 H   0  0  0  0  0  0  0  0  0  0  0  0
  145.0206  137.5418  155.5696 H   0  0  0  0  0  0  0  0  0  0  0  0
  1  2  1  0  0  0  0
  1 29  1  0  0  0  0
  1 30  1  0  0  0  0
  1 31  1  0  0  0  0
  2  3  2  0  0  0  0
  2  4  1  0  0  0  0
  4  5  1  0  0  0  0
  5  6  1  0  0  0  0
  5 32  1  0  0  0  0
  5 33  1  0  0  0  0
  6 23  1  0  0  0  0
  6  7  1  0  0  0  0
  6 34  1  0  0  0  0
  7  8  1  0  0  0  0
  8  9  1  0  0  0  0
  8 18  1  0  0  0  0
  8 35  1  0  0  0  0
  9 16  1  0  0  0  0
  9 10  1  0  0  0  0
 10 11  2  0  0  0  0
 10 36  1  0  0  0  0
 11 12  1  0  0  0  0
 11 13  1  0  0  0  0
 13 14  2  0  0  0  0
 13 15  1  0  0  0  0
 15 28  1  0  0  0  0
 15 16  1  0  0  0  0
 16 17  2  0  0  0  0
 18 19  1  0  0  0  0
 18 23  1  0  0  0  0
 18 37  1  0  0  0  0
 19 20  1  0  0  0  0
 20 21  1  0  0  0  0
 20 22  2  0  0  0  0
 21 38  1  0  0  0  0
 21 39  1  0  0  0  0
 21 40  1  0  0  0  0
 23 24  1  0  0  0  0
 23 41  1  0  0  0  0
 24 25  1  0  0  0  0
 25 26  1  0  0  0  0
 25 27  2  0  0  0  0
 26 42  1  0  0  0  0
 26 43  1  0  0  0  0
 26 44  1  0  0  0  0
M  END
> <s_m_source_file>
AV-unprocessed.smi

> <i_m_source_file_index>
102

> <i_lp_mmshare_version>
43012

> <i_f3d_flags>
0

> <s_epik_input>
W0NIM11DKD1PKU9bQ0gyXVtDQEBIXTFPW0NASF0oW0NAQEhdKE9DKD1PKVtDSDNdKVtDQEhdMU9DKD1PKVtDSDNdKW4yW2NIXWMoRiljKD1PKVtuSF1jMj1P

> <s_epik_cmdline>
J2VwaWtfcHl0aG9uJywgJy1waCcsICc3LjAnLCAnLXRuJywgJzgnLCAnLW1hJywgJzIwMCcsICctbWV0YWxfYmluZGluZycsICctaW1hZScsICc8aW5maWxlLm1hZT4nLCAnLW9tYWUnLCAnPG91dGZpbGUubWFlPic=

> <r_lp_tautomer_probability>
0.999537

> <r_epik_Ionization_Penalty>
0.058267

> <r_epik_Ionization_Penalty_Charging>
0.058267

> <r_epik_Ionization_Penalty_Neutral>
6.57791e-16

> <r_epik_State_Penalty>
0.0503774

> <r_epik_Charging_Adjusted_Penalty>
0.108644

> <i_epik_Tot_Q>
0

> <i_epik_Tot_abs_Q>
0

> <r_epik_Metal_State_Penalty>
2.6644

> <b_epik_Metal_Only>
0

> <s_epik_Chemistry_Notes>
This compound has an ester and may undergo hydrolysis at high or low pH. This compound contains an acetal/aminal-like group ( X-CH(R)-Y where X, Y are N, S, or O) that may be acid/base labile, releasing an aldehyde.

> <s_lp_Force_Field>
OPLS_2005

> <r_lp_Energy>
13.4822

> <b_lp_Chiralities_Consistent>
1

> <s_lp_Variant>
AV-unprocessed.smi:102-6

> <Gold.Version>
5.8.1

> <Gold.Id.Protein>
6NUR|6NUR_protein|mol2

> <Gold.PLP.Fitness>
46.8576

> <Gold.PLP.PLP>
-38.3219

> <Gold.PLP.part.hbond>
-4.0000

> <Gold.PLP.part.metal>
0.0000

> <Gold.PLP.part.buried>
-5.9116

> <Gold.PLP.part.nonpolar>
-28.9000

> <Gold.PLP.part.repulsive>
0.3831

> <Gold.PLP.ligand.clash>
0.0000

> <Gold.PLP.ligand.torsion>
1.0671

> <Gold.PLP.Chemscore.Hbond>
3.2878

> <Gold.PLP.Chemscore.CHOScore>
0.1901

> <Gold.PLP.Chemscore.Metal>
0.0000

> <Gold.Chemscore.Hbonds>
donor molecule, donor type, donor heavy atom, donor atom, acceptor molecule, acceptor atom, score
      P1  H  6896  6907       L1     7  0.86
      P1  H  6896  6909       L1    17  0.10
      P1  H  6934  6947       L1     3  1.00
      P1  H  7989  7998       L1    22  0.12

> <Gold.PLP.Chemscore.Internal.Correction>
0.2364

> <Gold.Rescore>
     Score         DG    S(hbond)    S(metal)    S(lipo)     H(rot)  DE(clash)    DE(int)     intcor
      6.89      -8.51       2.56        0.00      41.42       4.05       0.01       1.61       ----

> <Gold.Chemscore.Fitness>
6.8868

> <Gold.Chemscore.DG>
-8.5063

> <Gold.Chemscore.ZeroCoef>
-5.4800

> <Gold.Chemscore.Hbond>
2.5608

> <Gold.Chemscore.Metal>
0.0000

> <Gold.Chemscore.Lipo>
41.4225

> <Gold.Chemscore.Internal_Hbond>
0.0000

> <Gold.Chemscore.DEClash>
0.0126

> <Gold.Chemscore.DEInternal>
1.6068

> <Gold.Chemscore.Rot>
4.0520

> <Gold.Chemscore.Internal.Correction>
   9.000000E+99

> <Gold.Chemscore.Hbonds>
donor molecule, donor type, donor heavy atom, donor atom, acceptor molecule, acceptor atom, score
      P1  H  6896  6907       L1     7  0.77
      P1  H  6896  6909       L1    17  0.10
      P1  H  6934  6947       L1     3  0.94

> <Gold.Chemscore.Hbond.Weighted>
-8.5530

> <Gold.Chemscore.Metal.Weighted>
-0.0000

> <Gold.Chemscore.Lipo.Weighted>
-4.8464

> <Gold.Chemscore.Internal_Hbond.Weighted>
0.0000

> <Gold.Chemscore.DEClash.Weighted>
0.0126

> <Gold.Chemscore.DEInternal.Weighted>
1.6068

> <Gold.Chemscore.Rot.Weighted>
10.3732

> <Gold.Chemscore.Internal.Correction.Weighted>
   9.000000E+99

> <Gold.Protein.RotatedTorsions>
[ 6907 6896 6895 6894 ] final  -67.22 input  -60.11 | X-H torsion
[ 7974 7965 7964 7962 ] final  -29.15 input  175.53 | X-H torsion
[ 8008 7997 7996 7995 ] final  -49.83 input   59.86 | X-H torsion
[ 10167 10162 10161 10158 ] final  129.78 input  -65.29 | X-H torsion
[ 10718 10713 10712 10709 ] final -140.96 input   66.30 | X-H torsion
[ 10763 10752 10751 10750 ] final  -49.82 input  -60.55 | X-H torsion
[ 11005 11000 10999 10996 ] final  -81.48 input  -57.11 | X-H torsion

> <Gold.Protein.ActiveResidues>
 VAL166  LYS551  ARG553  GLY616  TRP617  ASP618  TYR619  PRO620  LYS621  CYS622 
 ASP623  PHE694  ASN695  SER759  ASP760  ASP761  ALA762  ILE779  LEU786  VAL792 
 PHE793  MET794  SER795  GLU796  ALA797  LYS798  CYS799  TRP800  GLU811  SER814 

> <Gold.Protein.RotatedAtoms>
  150.7422  134.5912  159.5987 H   0  0  0  0  0  0  0  0  0  0  0  0  # atno 6907 bound_to 6896
  152.3299  134.7270  160.0301 H   0  0  0  0  0  0  0  0  0  0  0  0  # atno 6908 bound_to 6896
  151.7757  133.3309  159.3493 H   0  0  0  0  0  0  0  0  0  0  0  0  # atno 6909 bound_to 6896
  146.1237  140.5375  142.8724 H   0  0  0  0  0  0  0  0  0  0  0  0  # atno 7974 bound_to 7965
  154.4051  140.1287  156.4567 H   0  0  0  0  0  0  0  0  0  0  0  0  # atno 8008 bound_to 7997
  155.7313  140.3491  155.5041 H   0  0  0  0  0  0  0  0  0  0  0  0  # atno 8009 bound_to 7997
  155.9125  140.1038  157.1259 H   0  0  0  0  0  0  0  0  0  0  0  0  # atno 8010 bound_to 7997
  139.5461  144.6774  151.4468 H   0  0  0  0  0  0  0  0  0  0  0  0  # atno 10167 bound_to 10162
  156.3284  130.7573  151.1685 H   0  0  0  0  0  0  0  0  0  0  0  0  # atno 10718 bound_to 10713
  154.1004  135.6564  153.4867 H   0  0  0  0  0  0  0  0  0  0  0  0  # atno 10763 bound_to 10752
  153.0291  135.5223  154.7292 H   0  0  0  0  0  0  0  0  0  0  0  0  # atno 10764 bound_to 10752
  154.6442  135.2992  155.0035 H   0  0  0  0  0  0  0  0  0  0  0  0  # atno 10765 bound_to 10752
  141.1666  133.7198  156.8429 H   0  0  0  0  0  0  0  0  0  0  0  0  # atno 11005 bound_to 11000
  144.7622  140.5448  143.6728 LP  0  0  0  0  0  0  0  0  0  0  0  0  # atno 17320 bound_to 7965
  145.5410  139.1475  143.3447 LP  0  0  0  0  0  0  0  0  0  0  0  0  # atno 17321 bound_to 7965
  140.6710  143.8294  150.6999 LP  0  0  0  0  0  0  0  0  0  0  0  0  # atno 17342 bound_to 10162
  140.1718  143.4188  152.1995 LP  0  0  0  0  0  0  0  0  0  0  0  0  # atno 17343 bound_to 10162
  157.7426  131.0488  150.5014 LP  0  0  0  0  0  0  0  0  0  0  0  0  # atno 17370 bound_to 10713
  156.5176  130.4154  149.6267 LP  0  0  0  0  0  0  0  0  0  0  0  0  # atno 17371 bound_to 10713
  140.1970  134.8924  157.3126 LP  0  0  0  0  0  0  0  0  0  0  0  0  # atno 17394 bound_to 11000
  140.2228  134.4003  155.7558 LP  0  0  0  0  0  0  0  0  0  0  0  0  # atno 17395 bound_to 11000

$$$$
