AV-unprocessed.smi:3091|AV-procd|sdf|11778|dock8
  -GOLD-   2272017163D 1   1.00000     0.00000
 Structure written by MMmdl.
 29 30  0  0  0  0  0  0  0  0  2 V2000
  146.7171  137.5251  152.9907 N   0  3  0  0  0  0  0  0  0  0  0  0
  146.5401  138.9001  152.4975 C   0  0  0  0  0  0  0  0  0  0  0  0
  147.3721  139.8712  153.3093 C   0  0  0  0  0  0  0  0  0  0  0  0
  146.8230  141.0907  153.7540 C   0  0  0  0  0  0  0  0  0  0  0  0
  147.6412  141.9605  154.5009 C   0  0  0  0  0  0  0  0  0  0  0  0
  148.9258  141.6848  154.8096 N   0  0  0  0  0  0  0  0  0  0  0  0
  149.4548  140.5119  154.3809 C   0  0  0  0  0  0  0  0  0  0  0  0
  150.7671  140.2128  154.6904 O   0  0  0  0  0  0  0  0  0  0  0  0
  151.0781  138.9662  155.3167 C   0  0  2  0  0  0  0  0  0  0  0  0
  152.5049  138.9639  155.8507 C   0  0  0  0  0  0  0  0  0  0  0  0
  153.3056  138.4881  154.6475 C   0  0  0  0  0  0  0  0  0  0  0  0
  152.4763  137.4808  154.0945 O   0  0  0  0  0  0  0  0  0  0  0  0
  151.1164  137.8828  154.2282 C   0  0  0  0  0  0  0  0  0  0  0  0
  148.7137  139.5776  153.6283 C   0  0  0  0  0  0  0  0  0  0  0  0
  147.0269  137.5470  153.9518 H   0  0  0  0  0  0  0  0  0  0  0  0
  147.4065  137.0521  152.4239 H   0  0  0  0  0  0  0  0  0  0  0  0
  146.8301  138.9474  151.4472 H   0  0  0  0  0  0  0  0  0  0  0  0
  145.4857  139.1720  152.5547 H   0  0  0  0  0  0  0  0  0  0  0  0
  145.7998  141.3572  153.5322 H   0  0  0  0  0  0  0  0  0  0  0  0
  147.2538  142.9028  154.8590 H   0  0  0  0  0  0  0  0  0  0  0  0
  150.3459  138.7058  156.0827 H   0  0  0  0  0  0  0  0  0  0  0  0
  152.8397  139.9305  156.2276 H   0  0  0  0  0  0  0  0  0  0  0  0
  152.5949  138.2381  156.6598 H   0  0  0  0  0  0  0  0  0  0  0  0
  153.4380  139.2936  153.9235 H   0  0  0  0  0  0  0  0  0  0  0  0
  154.2874  138.0989  154.9176 H   0  0  0  0  0  0  0  0  0  0  0  0
  150.5125  137.0173  154.5025 H   0  0  0  0  0  0  0  0  0  0  0  0
  150.7434  138.2586  153.2745 H   0  0  0  0  0  0  0  0  0  0  0  0
  149.1711  138.6535  153.3053 H   0  0  0  0  0  0  0  0  0  0  0  0
  145.8377  137.0323  152.9299 H   0  0  0  0  0  0  0  0  0  0  0  0
  1  2  1  0  0  0  0
  1 15  1  0  0  0  0
  1 16  1  0  0  0  0
  1 29  1  0  0  0  0
  2  3  1  0  0  0  0
  2 17  1  0  0  0  0
  2 18  1  0  0  0  0
  3 14  1  0  0  0  0
  3  4  2  0  0  0  0
  4  5  1  0  0  0  0
  4 19  1  0  0  0  0
  5  6  2  0  0  0  0
  5 20  1  0  0  0  0
  6  7  1  0  0  0  0
  7  8  1  0  0  0  0
  7 14  2  0  0  0  0
  8  9  1  0  0  0  0
  9 13  1  0  0  0  0
  9 10  1  0  0  0  0
  9 21  1  0  0  0  0
 10 11  1  0  0  0  0
 10 22  1  0  0  0  0
 10 23  1  0  0  0  0
 11 12  1  0  0  0  0
 11 24  1  0  0  0  0
 11 25  1  0  0  0  0
 12 13  1  0  0  0  0
 13 26  1  0  0  0  0
 13 27  1  0  0  0  0
 14 28  1  0  0  0  0
M  CHG  1   1   1
M  END
> <s_m_source_file>
AV-unprocessed.smi

> <i_m_source_file_index>
3091

> <i_lp_mmshare_version>
43012

> <i_f3d_flags>
0

> <s_epik_input>
W05IMl1bQ0gyXWMxW2NIXVtjSF1uYyhbY0hdMSlPW0NAQEhdMltDSDJdW0NIMl1PW0NIMl0y

> <s_epik_cmdline>
J2VwaWtfcHl0aG9uJywgJy1waCcsICc3LjAnLCAnLXRuJywgJzgnLCAnLW1hJywgJzIwMCcsICctbWV0YWxfYmluZGluZycsICctaW1hZScsICc8aW5maWxlLm1hZT4nLCAnLW9tYWUnLCAnPG91dGZpbGUubWFlPic=

> <r_lp_tautomer_probability>
1

> <r_epik_Ionization_Penalty>
0.0773124

> <r_epik_Ionization_Penalty_Charging>
0.0773118

> <r_epik_Ionization_Penalty_Neutral>
5.92883e-07

> <r_epik_State_Penalty>
0.0682686

> <r_epik_Charging_Adjusted_Penalty>
0.14558

> <i_epik_Tot_Q>
1

> <i_epik_Tot_abs_Q>
1

> <r_epik_Metal_State_Penalty>
0.0682821

> <b_epik_Metal_Only>
0

> <s_lp_Force_Field>
OPLS_2005

> <r_lp_Energy>
12.9222

> <b_lp_Chiralities_Consistent>
1

> <s_lp_Variant>
AV-unprocessed.smi:3091-1

> <Gold.Version>
5.8.1

> <Gold.Id.Protein>
6NUR|6NUR_protein|mol2

> <Gold.PLP.Fitness>
40.6691

> <Gold.PLP.PLP>
-27.9133

> <Gold.PLP.part.hbond>
-3.0000

> <Gold.PLP.part.metal>
0.0000

> <Gold.PLP.part.buried>
2.2593

> <Gold.PLP.part.nonpolar>
-27.8717

> <Gold.PLP.part.repulsive>
0.3860

> <Gold.PLP.ligand.clash>
0.0000

> <Gold.PLP.ligand.torsion>
0.3739

> <Gold.PLP.Chemscore.Hbond>
3.6880

> <Gold.PLP.Chemscore.CHOScore>
0.8076

> <Gold.PLP.Chemscore.Metal>
0.0000

> <Gold.Chemscore.Hbonds>
donor molecule, donor type, donor heavy atom, donor atom, acceptor molecule, acceptor atom, score
      L1  H     1    16       P1  7948  2.00
      P1  H  7989  7998       L1     8  1.00
      P1  H 10752 10765       L1    12  0.69
      L1  C     5    20       P1  8028  0.81

> <Gold.PLP.Chemscore.Internal.Correction>
0.0168

> <Gold.Rescore>
     Score         DG    S(hbond)    S(metal)    S(lipo)     H(rot)  DE(clash)    DE(int)     intcor
     15.19     -17.63       2.57        0.00      65.42       1.59       1.38       1.05       ----

> <Gold.Chemscore.Fitness>
15.1868

> <Gold.Chemscore.DG>
-17.6252

> <Gold.Chemscore.ZeroCoef>
-5.4800

> <Gold.Chemscore.Hbond>
2.5651

> <Gold.Chemscore.Metal>
0.0000

> <Gold.Chemscore.Lipo>
65.4213

> <Gold.Chemscore.Internal_Hbond>
0.0000

> <Gold.Chemscore.DEClash>
1.3841

> <Gold.Chemscore.DEInternal>
1.0544

> <Gold.Chemscore.Rot>
1.5924

> <Gold.Chemscore.Internal.Correction>
   9.000000E+99

> <Gold.Chemscore.Hbonds>
donor molecule, donor type, donor heavy atom, donor atom, acceptor molecule, acceptor atom, score
      L1  H     1    16       P1  7948  1.00
      P1  H  7989  7998       L1     8  0.49
      P1  H 10752 10765       L1    12  0.68

> <Gold.Chemscore.Hbond.Weighted>
-8.5675

> <Gold.Chemscore.Metal.Weighted>
-0.0000

> <Gold.Chemscore.Lipo.Weighted>
-7.6543

> <Gold.Chemscore.Internal_Hbond.Weighted>
0.0000

> <Gold.Chemscore.DEClash.Weighted>
1.3841

> <Gold.Chemscore.DEInternal.Weighted>
1.0544

> <Gold.Chemscore.Rot.Weighted>
4.0765

> <Gold.Chemscore.Internal.Correction.Weighted>
   9.000000E+99

> <Gold.Protein.RotatedTorsions>
[ 6907 6896 6895 6894 ] final -106.70 input  -60.11 | X-H torsion
[ 7974 7965 7964 7962 ] final -123.95 input  175.53 | X-H torsion
[ 8008 7997 7996 7995 ] final  111.96 input   59.86 | X-H torsion
[ 10167 10162 10161 10158 ] final -121.51 input  -65.29 | X-H torsion
[ 10718 10713 10712 10709 ] final -108.99 input   66.30 | X-H torsion
[ 10763 10752 10751 10750 ] final  156.40 input  -60.55 | X-H torsion
[ 11005 11000 10999 10996 ] final  156.01 input  -57.11 | X-H torsion

> <Gold.Protein.ActiveResidues>
 VAL166  LYS551  ARG553  GLY616  TRP617  ASP618  TYR619  PRO620  LYS621  CYS622 
 ASP623  PHE694  ASN695  SER759  ASP760  ASP761  ALA762  ILE779  LEU786  VAL792 
 PHE793  MET794  SER795  GLU796  ALA797  LYS798  CYS799  TRP800  GLU811  SER814 

> <Gold.Protein.RotatedAtoms>
  150.7403  133.9938  159.3615 H   0  0  0  0  0  0  0  0  0  0  0  0  # atno 6907 bound_to 6896
  151.7887  135.0739  160.0393 H   0  0  0  0  0  0  0  0  0  0  0  0  # atno 6908 bound_to 6896
  152.3223  133.5830  159.5789 H   0  0  0  0  0  0  0  0  0  0  0  0  # atno 6909 bound_to 6896
  145.0133  140.7924  143.4425 H   0  0  0  0  0  0  0  0  0  0  0  0  # atno 7974 bound_to 7965
  156.2160  140.3009  155.9840 H   0  0  0  0  0  0  0  0  0  0  0  0  # atno 8008 bound_to 7997
  155.2605  140.0429  157.3014 H   0  0  0  0  0  0  0  0  0  0  0  0  # atno 8009 bound_to 7997
  154.5768  140.2364  155.8119 H   0  0  0  0  0  0  0  0  0  0  0  0  # atno 8010 bound_to 7997
  140.0243  143.5313  152.2206 H   0  0  0  0  0  0  0  0  0  0  0  0  # atno 10167 bound_to 10162
  156.0514  130.5741  150.8038 H   0  0  0  0  0  0  0  0  0  0  0  0  # atno 10718 bound_to 10713
  154.1838  135.2798  155.3044 H   0  0  0  0  0  0  0  0  0  0  0  0  # atno 10763 bound_to 10752
  154.5982  135.5538  153.7351 H   0  0  0  0  0  0  0  0  0  0  0  0  # atno 10764 bound_to 10752
  153.0131  135.6385  154.1976 H   0  0  0  0  0  0  0  0  0  0  0  0  # atno 10765 bound_to 10752
  140.1634  134.8593  157.2603 H   0  0  0  0  0  0  0  0  0  0  0  0  # atno 11005 bound_to 11000
  145.1994  139.2260  143.5201 LP  0  0  0  0  0  0  0  0  0  0  0  0  # atno 17320 bound_to 7965
  146.3473  140.1808  142.8589 LP  0  0  0  0  0  0  0  0  0  0  0  0  # atno 17321 bound_to 7965
  139.6119  144.7610  151.2933 LP  0  0  0  0  0  0  0  0  0  0  0  0  # atno 17342 bound_to 10162
  140.7329  143.6809  150.8002 LP  0  0  0  0  0  0  0  0  0  0  0  0  # atno 17343 bound_to 10162
  157.5443  131.0942  150.9784 LP  0  0  0  0  0  0  0  0  0  0  0  0  # atno 17370 bound_to 10713
  157.0059  130.5618  149.5316 LP  0  0  0  0  0  0  0  0  0  0  0  0  # atno 17371 bound_to 10713
  140.2462  134.3737  155.7460 LP  0  0  0  0  0  0  0  0  0  0  0  0  # atno 17394 bound_to 11000
  141.2211  133.7292  156.8865 LP  0  0  0  0  0  0  0  0  0  0  0  0  # atno 17395 bound_to 11000

$$$$
