#       Name:                AV-unprocessed.smi:1916
#       Creating user name   scv26
#       Creation time:       Fri Mar 27 09:51:10 2020


#       File generated by GOLD software.
#

@<TRIPOS>MOLECULE
AV-unprocessed.smi:1916
    50    52     1
SMALL
NO_CHARGES


@<TRIPOS>ATOM
      1 ****         1.6105   1.6685  -0.2024 O.2            1 S1                 0.0000
      2 ****         1.1085   0.5936  -0.5314 C.2            1 S1                 0.0000
      3 ****         1.8200  -0.4364  -1.0129 N.am           1 S1                 0.0000
      4 ****         3.2654  -0.4422  -1.2211 C.3            1 S1                 0.0000
      5 ****         3.6606  -1.1713  -2.5178 C.3            1 S1                 0.0000
      6 ****         3.1283  -2.5911  -2.6078 C.ar           1 S1                 0.0000
      7 ****         3.8424  -3.6906  -2.0840 C.ar           1 S1                 0.0000
      8 ****         3.2883  -4.9839  -2.1842 C.ar           1 S1                 0.0000
      9 ****         2.0327  -5.1504  -2.8044 C.ar           1 S1                 0.0000
     10 ****         1.3620  -4.0180  -3.3096 C.ar           1 S1                 0.0000
     11 ****         1.9255  -2.7953  -3.1935 N.pl3          1 S1                 1.0000
     12 ****        -0.4075   0.3752  -0.4003 C.3            1 S1                 0.0000
     13 ****        -1.1939   1.3485  -1.2954 C.3            1 S1                 0.0000
     14 ****        -1.8702   2.2869  -0.3108 C.2            1 S1                 0.0000
     15 ****        -2.4610   3.3033  -0.6726 O.2            1 S1                 0.0000
     16 ****        -1.7113   1.8720   0.9542 N.am           1 S1                 0.0000
     17 ****        -2.1478   2.6195   2.1467 C.3            1 S1                 0.0000
     18 ****        -1.8436   1.9395   3.4958 C.3            1 S1                 0.0000
     19 ****        -2.9035   2.4867   4.4469 C.3            1 S1                 0.0000
     20 ****        -4.1617   2.5627   3.5858 C.3            1 S1                 0.0000
     21 ****        -3.6697   2.8934   2.1709 C.3            1 S1                 0.0000
     22 ****        -0.9240   0.6454   1.0290 C.3            1 S1                 0.0000
     23 ****         1.3222  -1.2837  -1.2440 H              1 S1                 0.0000
     24 ****         3.6675   0.5719  -1.2466 H              1 S1                 0.0000
     25 ****         3.7260  -0.9375  -0.3656 H              1 S1                 0.0000
     26 ****         3.3024  -0.6051  -3.3789 H              1 S1                 0.0000
     27 ****         4.7474  -1.1961  -2.6061 H              1 S1                 0.0000
     28 ****         4.8017  -3.5459  -1.6081 H              1 S1                 0.0000
     29 ****         3.8194  -5.8375  -1.7886 H              1 S1                 0.0000
     30 ****         1.5908  -6.1323  -2.8911 H              1 S1                 0.0000
     31 ****         0.3995  -4.0530  -3.7987 H              1 S1                 0.0000
     32 ****        -0.6438  -0.6527  -0.6810 H              1 S1                 0.0000
     33 ****        -0.5678   1.9101  -1.9910 H              1 S1                 0.0000
     34 ****        -1.9537   0.8234  -1.8749 H              1 S1                 0.0000
     35 ****        -1.6324   3.5816   2.1406 H              1 S1                 0.0000
     36 ****        -1.9766   0.8590   3.4367 H              1 S1                 0.0000
     37 ****        -0.8284   2.1325   3.8440 H              1 S1                 0.0000
     38 ****        -3.0369   1.8644   5.3322 H              1 S1                 0.0000
     39 ****        -2.6205   3.4863   4.7795 H              1 S1                 0.0000
     40 ****        -4.6579   1.5913   3.5812 H              1 S1                 0.0000
     41 ****        -4.8772   3.2954   3.9604 H              1 S1                 0.0000
     42 ****        -3.8636   3.9389   1.9284 H              1 S1                 0.0000
     43 ****        -4.2132   2.2898   1.4427 H              1 S1                 0.0000
     44 ****        -1.5639  -0.1736   1.3597 H              1 S1                 0.0000
     45 ****        -0.1131   0.7449   1.7527 H              1 S1                 0.0000
     46 ****         1.4223  -1.9899  -3.5668 H              1 S1                 0.0000
     47 ****         2.5971   1.8068  -0.2886 LP             1 S1                 0.0000
     48 ****         1.0316   2.4034   0.1511 LP             1 S1                 0.0000
     49 ****        -2.5077   3.5354  -1.6441 LP             1 S1                 0.0000
     50 ****        -2.8946   3.8975   0.0049 LP             1 S1                 0.0000
@<TRIPOS>BOND
    1    1    2 2     
    2    2    3 am    
    3    2   12 1     
    4    3    4 1     
    5    3   23 1     
    6    4    5 1     
    7    4   24 1     
    8    4   25 1     
    9    5    6 1     
   10    5   26 1     
   11    5   27 1     
   12    6   11 ar    
   13    6    7 ar    
   14    7    8 ar    
   15    7   28 1     
   16    8    9 ar    
   17    8   29 1     
   18    9   10 ar    
   19    9   30 1     
   20   10   11 ar    
   21   10   31 1     
   22   11   46 1     
   23   12   22 1     
   24   12   13 1     
   25   12   32 1     
   26   13   14 1     
   27   13   33 1     
   28   13   34 1     
   29   14   15 2     
   30   14   16 am    
   31   16   17 1     
   32   16   22 1     
   33   17   21 1     
   34   17   18 1     
   35   17   35 1     
   36   18   19 1     
   37   18   36 1     
   38   18   37 1     
   39   19   20 1     
   40   19   38 1     
   41   19   39 1     
   42   20   21 1     
   43   20   40 1     
   44   20   41 1     
   45   21   42 1     
   46   21   43 1     
   47   22   44 1     
   48   22   45 1     
   49    1   47 1     
   50    1   48 1     
   51   15   49 1     
   52   15   50 1     
@<TRIPOS>SUBSTRUCTURE
      1 S1             1
@<TRIPOS>SET
LONE_PAIRS      STATIC     ATOMS    <user>   **** ""
4 47 48 49 50
DONOR_HYDROGENS      STATIC     ATOMS    <user>   **** ""
2 23 46
ATOM$BLUE        STATIC     ATOMS    COLORGROUP SYSTEM
4 47 48 49 50
ATOM$RED        STATIC     ATOMS    COLORGROUP SYSTEM
2 23 46
