#       Name:                AV-unprocessed.smi:49
#       Creating user name   scv26
#       Creation time:       Thu Mar 26 16:34:09 2020


#       File generated by GOLD software.
#

@<TRIPOS>MOLECULE
AV-unprocessed.smi:49
    32    33     1
SMALL
NO_CHARGES


@<TRIPOS>ATOM
      1 ****        -3.9342   1.2993  -1.0411 C.3            1 S1                 0.0000
      2 ****        -3.2804  -0.0793  -1.1885 C.3            1 S1                 0.0000
      3 ****        -1.7949   0.0101  -1.3092 C.2            1 S1                 0.0000
      4 ****        -0.9652   0.0179  -0.2229 N.2            1 S1                 0.0000
      5 ****         0.2127   0.1569  -0.8258 C.2            1 S1                 0.0000
      6 ****         1.5441   0.2179  -0.1422 C.3            1 S1                 0.0000
      7 ****         2.0050  -1.1625   0.3632 C.3            1 S1                 0.0000
      8 ****         1.9292  -1.0491   1.8828 C.3            1 S1                 0.0000
      9 ****         2.8529  -1.8871   2.5442 O.3            1 S1                 0.0000
     10 ****         2.2190   0.4281   2.1116 C.3            1 S1                 0.0000
     11 ****         1.5266   1.1065   1.0251 N.3            1 S1                 0.0000
     12 ****         0.0976   0.2301  -2.1535 N.pl3          1 S1                 0.0000
     13 ****        -1.2053   0.1472  -2.4960 N.2            1 S1                 0.0000
     14 ****         2.2771   0.5852  -0.8617 H              1 S1                 0.0000
     15 ****         0.9187  -1.2830   2.2220 H              1 S1                 0.0000
     16 ****         0.8400   0.3394  -2.8294 H              1 S1                 0.0000
     17 ****        -5.0169   1.2085  -0.9531 H              1 S1                 0.0000
     18 ****        -3.7219   1.9308  -1.9045 H              1 S1                 0.0000
     19 ****        -3.5693   1.8134  -0.1514 H              1 S1                 0.0000
     20 ****        -3.5307  -0.7005  -0.3279 H              1 S1                 0.0000
     21 ****        -3.6831  -0.5888  -2.0649 H              1 S1                 0.0000
     22 ****         1.4163  -1.9935  -0.0285 H              1 S1                 0.0000
     23 ****         3.0397  -1.3224   0.0558 H              1 S1                 0.0000
     24 ****         2.6291  -2.7861   2.3574 H              1 S1                 0.0000
     25 ****         1.8870   0.7773   3.0896 H              1 S1                 0.0000
     26 ****         3.2915   0.6137   2.0355 H              1 S1                 0.0000
     27 ****         2.0156   1.9699   0.8122 H              1 S1                 0.0000
     28 ****        -1.1823  -0.0591   0.7503 LP             1 S1                 0.0000
     29 ****         2.8084  -1.7262   3.5302 LP             1 S1                 0.0000
     30 ****         3.7778  -1.6946   2.2165 LP             1 S1                 0.0000
     31 ****         0.5831   1.3214   1.2775 LP             1 S1                 0.0000
     32 ****        -1.6205   0.1802  -3.4051 LP             1 S1                 0.0000
@<TRIPOS>BOND
    1    1    2 1     
    2    1   17 1     
    3    1   18 1     
    4    1   19 1     
    5    2   20 1     
    6    2   21 1     
    7    2    3 1     
    8    3    4 1     
    9    3   13 2     
   10    4    5 2     
   11    5    6 1     
   12    5   12 1     
   13    6   14 1     
   14    6   11 1     
   15    6    7 1     
   16    7    8 1     
   17    7   22 1     
   18    7   23 1     
   19    8   15 1     
   20    8    9 1     
   21    8   10 1     
   22    9   24 1     
   23   10   11 1     
   24   10   25 1     
   25   10   26 1     
   26   11   27 1     
   27   12   13 1     
   28   12   16 1     
   29    4   28 1     
   30    9   29 1     
   31    9   30 1     
   32   11   31 1     
   33   13   32 1     
@<TRIPOS>SUBSTRUCTURE
      1 S1             1
@<TRIPOS>SET
LONE_PAIRS      STATIC     ATOMS    <user>   **** ""
5 28 29 30 31 32
DONOR_HYDROGENS      STATIC     ATOMS    <user>   **** ""
3 24 27 16
ATOM$BLUE        STATIC     ATOMS    COLORGROUP SYSTEM
5 28 29 30 31 32
ATOM$RED        STATIC     ATOMS    COLORGROUP SYSTEM
3 24 27 16
