AV-unprocessed.smi:65|AV-procd|sdf|615|dock2
  -GOLD-   2262016503D 1   1.00000     0.00000
 Structure written by MMmdl.
 26 27  0  0  0  0  0  0  0  0  2 V2000
  142.4330  134.7084  155.1288 N   0  0  0  0  0  0  0  0  0  0  0  0
  143.0483  135.0218  153.9415 C   0  0  0  0  0  0  0  0  0  0  0  0
  143.1860  136.3108  153.6183 N   0  0  0  0  0  0  0  0  0  0  0  0
  143.7860  136.6254  152.4546 C   0  0  0  0  0  0  0  0  0  0  0  0
  144.2671  135.6337  151.5839 C   0  0  0  0  0  0  0  0  0  0  0  0
  144.0985  134.2879  151.9807 C   0  0  0  0  0  0  0  0  0  0  0  0
  144.5344  133.2066  151.1916 N   0  0  0  0  0  0  0  0  0  0  0  0
  145.1467  133.4195  149.8863 C   0  0  0  0  0  0  0  0  0  0  0  0
  146.0908  132.2293  149.6736 C   0  0  0  0  0  0  0  0  0  0  0  0
  145.5398  131.1569  150.6151 C   0  0  1  0  0  0  0  0  0  0  0  0
  146.5221  130.2227  151.0084 O   0  0  0  0  0  0  0  0  0  0  0  0
  145.0191  131.9753  151.7953 C   0  0  0  0  0  0  0  0  0  0  0  0
  143.4814  134.0203  153.1631 N   0  3  0  0  0  0  0  0  0  0  0  0
  142.3129  133.7437  155.4026 H   0  0  0  0  0  0  0  0  0  0  0  0
  142.0812  135.4352  155.7351 H   0  0  0  0  0  0  0  0  0  0  0  0
  143.8810  137.6747  152.2167 H   0  0  0  0  0  0  0  0  0  0  0  0
  144.7373  135.9077  150.6511 H   0  0  0  0  0  0  0  0  0  0  0  0
  144.3631  133.4324  149.1283 H   0  0  0  0  0  0  0  0  0  0  0  0
  145.6924  134.3622  149.8326 H   0  0  0  0  0  0  0  0  0  0  0  0
  146.1367  131.9034  148.6340 H   0  0  0  0  0  0  0  0  0  0  0  0
  147.0991  132.5125  149.9806 H   0  0  0  0  0  0  0  0  0  0  0  0
  144.7114  130.6351  150.1335 H   0  0  0  0  0  0  0  0  0  0  0  0
  147.3217  130.4088  150.5400 H   0  0  0  0  0  0  0  0  0  0  0  0
  145.8240  132.2100  152.4938 H   0  0  0  0  0  0  0  0  0  0  0  0
  144.2316  131.4492  152.3362 H   0  0  0  0  0  0  0  0  0  0  0  0
  143.3530  133.0509  153.4527 H   0  0  0  0  0  0  0  0  0  0  0  0
  1  2  1  0  0  0  0
  1 14  1  0  0  0  0
  1 15  1  0  0  0  0
  2 13  1  0  0  0  0
  2  3  2  0  0  0  0
  3  4  1  0  0  0  0
  4  5  2  0  0  0  0
  4 16  1  0  0  0  0
  5  6  1  0  0  0  0
  5 17  1  0  0  0  0
  6  7  1  0  0  0  0
  6 13  2  0  0  0  0
  7 12  1  0  0  0  0
  7  8  1  0  0  0  0
  8  9  1  0  0  0  0
  8 18  1  0  0  0  0
  8 19  1  0  0  0  0
  9 10  1  0  0  0  0
  9 20  1  0  0  0  0
  9 21  1  0  0  0  0
 10 11  1  0  0  0  0
 10 12  1  0  0  0  0
 10 22  1  0  0  0  0
 11 23  1  0  0  0  0
 12 24  1  0  0  0  0
 12 25  1  0  0  0  0
 13 26  1  0  0  0  0
M  CHG  1  13   1
M  END
> <s_m_source_file>
AV-unprocessed.smi

> <i_m_source_file_index>
65

> <i_lp_mmshare_version>
43012

> <i_f3d_flags>
0

> <s_epik_input>
W05IMl1jMW5bY0hdW2NIXWMobjEpTjJbQ0gyXVtDSDJdW0NAQEhdKFtPSF0pW0NIMl0y

> <s_epik_cmdline>
J2VwaWtfcHl0aG9uJywgJy1waCcsICc3LjAnLCAnLXRuJywgJzgnLCAnLW1hJywgJzIwMCcsICctbWV0YWxfYmluZGluZycsICctaW1hZScsICc8aW5maWxlLm1hZT4nLCAnLW9tYWUnLCAnPG91dGZpbGUubWFlPic=

> <r_lp_tautomer_probability>
0.424989

> <r_epik_Ionization_Penalty>
0.57487

> <r_epik_Ionization_Penalty_Charging>
0.574865

> <r_epik_Ionization_Penalty_Neutral>
4.40886e-06

> <r_epik_State_Penalty>
0.845539

> <r_epik_Charging_Adjusted_Penalty>
1.4204

> <i_epik_Tot_Q>
1

> <i_epik_Tot_abs_Q>
1

> <r_epik_Metal_State_Penalty>
1.14248

> <b_epik_Metal_Only>
0

> <s_lp_Force_Field>
OPLS_2005

> <r_lp_Energy>
20.8145

> <b_lp_Chiralities_Consistent>
1

> <s_lp_Variant>
AV-unprocessed.smi:65-5

> <Gold.Version>
5.8.1

> <Gold.Id.Protein>
6NUR|6NUR_protein|mol2

> <Gold.PLP.Fitness>
40.3629

> <Gold.PLP.PLP>
-23.1265

> <Gold.PLP.part.hbond>
-4.0000

> <Gold.PLP.part.metal>
0.0000

> <Gold.PLP.part.buried>
-1.1002

> <Gold.PLP.part.nonpolar>
-17.2337

> <Gold.PLP.part.repulsive>
0.1383

> <Gold.PLP.ligand.clash>
0.0000

> <Gold.PLP.ligand.torsion>
0.2279

> <Gold.PLP.Chemscore.Hbond>
4.5856

> <Gold.PLP.Chemscore.CHOScore>
1.2410

> <Gold.PLP.Chemscore.Metal>
0.0000

> <Gold.Chemscore.Hbonds>
donor molecule, donor type, donor heavy atom, donor atom, acceptor molecule, acceptor atom, score
      L1  H     1    14       P1 10957  1.54
      L1  H    11    23       P1 10747  1.00
      L1  H    13    26       P1 10957  1.98
      L1  C     4    16       P1 10171  0.80
      L1  C     4    16       P1 10175  0.38

> <Gold.PLP.Chemscore.Internal.Correction>
0.2123

> <Gold.Rescore>
     Score         DG    S(hbond)    S(metal)    S(lipo)     H(rot)  DE(clash)    DE(int)     intcor
     16.60     -17.06       2.60        0.00      46.68       1.00       0.26       0.20       ----

> <Gold.Chemscore.Fitness>
16.6007

> <Gold.Chemscore.DG>
-17.0622

> <Gold.Chemscore.ZeroCoef>
-5.4800

> <Gold.Chemscore.Hbond>
2.5990

> <Gold.Chemscore.Metal>
0.0000

> <Gold.Chemscore.Lipo>
46.6786

> <Gold.Chemscore.Internal_Hbond>
0.0000

> <Gold.Chemscore.DEClash>
0.2633

> <Gold.Chemscore.DEInternal>
0.1982

> <Gold.Chemscore.Rot>
1.0000

> <Gold.Chemscore.Internal.Correction>
   9.000000E+99

> <Gold.Chemscore.Hbonds>
donor molecule, donor type, donor heavy atom, donor atom, acceptor molecule, acceptor atom, score
      L1  H     1    14       P1 10957  0.74
      L1  H    11    23       P1 10747  1.00
      L1  H    13    26       P1 10957  0.81

> <Gold.Chemscore.Hbond.Weighted>
-8.6808

> <Gold.Chemscore.Metal.Weighted>
-0.0000

> <Gold.Chemscore.Lipo.Weighted>
-5.4614

> <Gold.Chemscore.Internal_Hbond.Weighted>
0.0000

> <Gold.Chemscore.DEClash.Weighted>
0.2633

> <Gold.Chemscore.DEInternal.Weighted>
0.1982

> <Gold.Chemscore.Rot.Weighted>
2.5600

> <Gold.Chemscore.Internal.Correction.Weighted>
   9.000000E+99

> <Gold.Protein.RotatedTorsions>
[ 6907 6896 6895 6894 ] final -165.73 input  -60.11 | X-H torsion
[ 7974 7965 7964 7962 ] final -106.23 input  175.53 | X-H torsion
[ 8008 7997 7996 7995 ] final -102.20 input   59.86 | X-H torsion
[ 10167 10162 10161 10158 ] final -145.74 input  -65.29 | X-H torsion
[ 10718 10713 10712 10709 ] final -134.77 input   66.30 | X-H torsion
[ 10763 10752 10751 10750 ] final   50.45 input  -60.55 | X-H torsion
[ 11005 11000 10999 10996 ] final  137.94 input  -57.11 | X-H torsion

> <Gold.Protein.ActiveResidues>
 VAL166  LYS551  ARG553  GLY616  TRP617  ASP618  TYR619  PRO620  LYS621  CYS622 
 ASP623  PHE694  ASN695  SER759  ASP760  ASP761  ALA762  ILE779  LEU786  VAL792 
 PHE793  MET794  SER795  GLU796  ALA797  LYS798  CYS799  TRP800  GLU811  SER814 

> <Gold.Protein.RotatedAtoms>
  151.4323  133.3667  159.2770 H   0  0  0  0  0  0  0  0  0  0  0  0  # atno 6907 bound_to 6896
  150.9216  134.8635  159.7503 H   0  0  0  0  0  0  0  0  0  0  0  0  # atno 6908 bound_to 6896
  152.4985  134.4261  159.9548 H   0  0  0  0  0  0  0  0  0  0  0  0  # atno 6909 bound_to 6896
  145.2205  140.9132  143.3262 H   0  0  0  0  0  0  0  0  0  0  0  0  # atno 7974 bound_to 7965
  154.8533  140.0430  157.1618 H   0  0  0  0  0  0  0  0  0  0  0  0  # atno 8008 bound_to 7997
  154.8919  140.2987  155.5345 H   0  0  0  0  0  0  0  0  0  0  0  0  # atno 8009 bound_to 7997
  156.2997  140.2392  156.3936 H   0  0  0  0  0  0  0  0  0  0  0  0  # atno 8010 bound_to 7997
  139.7777  143.8145  152.2634 H   0  0  0  0  0  0  0  0  0  0  0  0  # atno 10167 bound_to 10162
  156.2589  130.7198  151.1125 H   0  0  0  0  0  0  0  0  0  0  0  0  # atno 10718 bound_to 10713
  152.9785  135.5878  154.4254 H   0  0  0  0  0  0  0  0  0  0  0  0  # atno 10763 bound_to 10752
  154.3873  135.2767  155.2178 H   0  0  0  0  0  0  0  0  0  0  0  0  # atno 10764 bound_to 10752
  154.4065  135.6091  153.5982 H   0  0  0  0  0  0  0  0  0  0  0  0  # atno 10765 bound_to 10752
  140.0149  134.9422  157.0355 H   0  0  0  0  0  0  0  0  0  0  0  0  # atno 11005 bound_to 11000
  144.9770  139.3822  143.6281 LP  0  0  0  0  0  0  0  0  0  0  0  0  # atno 17320 bound_to 7965
  146.3377  139.8893  142.8811 LP  0  0  0  0  0  0  0  0  0  0  0  0  # atno 17321 bound_to 7965
  139.8199  144.7300  150.9587 LP  0  0  0  0  0  0  0  0  0  0  0  0  # atno 17342 bound_to 10162
  140.7817  143.4169  151.0903 LP  0  0  0  0  0  0  0  0  0  0  0  0  # atno 17343 bound_to 10162
  157.7243  131.0660  150.6000 LP  0  0  0  0  0  0  0  0  0  0  0  0  # atno 17370 bound_to 10713
  156.6086  130.4374  149.5868 LP  0  0  0  0  0  0  0  0  0  0  0  0  # atno 17371 bound_to 10713
  140.4488  134.1603  155.7180 LP  0  0  0  0  0  0  0  0  0  0  0  0  # atno 17394 bound_to 11000
  141.1736  133.8559  157.1493 LP  0  0  0  0  0  0  0  0  0  0  0  0  # atno 17395 bound_to 11000

$$$$
