AV-unprocessed.smi:81|AV-procd|sdf|792|dock7
  -GOLD-   2262017163D 1   1.00000     0.00000
 Structure written by MMmdl.
 64 67  0  0  0  0  0  0  0  0  2 V2000
  148.8515  134.9243  154.8625 C   0  0  0  0  0  0  0  0  0  0  0  0
  148.5668  135.9551  155.9674 C   0  0  0  0  0  0  0  0  0  0  0  0
  148.2883  135.2489  157.3015 C   0  0  0  0  0  0  0  0  0  0  0  0
  147.3883  136.8847  155.5960 C   0  0  0  0  0  0  0  0  0  0  0  0
  147.6634  137.8011  154.4836 N   0  0  0  0  0  0  0  0  0  0  0  0
  148.7836  138.5543  154.6045 C   0  0  0  0  0  0  0  0  0  0  0  0
  149.9397  138.0290  154.1275 N   0  0  0  0  0  0  0  0  0  0  0  0
  151.0857  138.7043  154.2508 C   0  0  0  0  0  0  0  0  0  0  0  0
  151.2946  139.8966  154.8116 N   0  0  0  0  0  0  0  0  0  0  0  0
  150.1373  140.4244  155.3029 C   0  0  0  0  0  0  0  0  0  0  0  0
  148.8476  139.8246  155.2462 C   0  0  0  0  0  0  0  0  0  0  0  0
  147.9136  140.6571  155.8513 N   0  0  0  0  0  0  0  0  0  0  0  0
  148.6104  141.6880  156.2436 C   0  0  0  0  0  0  0  0  0  0  0  0
  149.9533  141.6354  155.9470 N   0  0  0  0  0  0  0  0  0  0  0  0
  150.9517  142.6448  156.2635 C   0  0  0  0  0  0  0  0  0  0  0  0
  151.1471  142.8676  157.7826 C   0  0  1  0  0  0  0  0  0  0  0  0
  149.9531  143.4171  158.3182 O   0  0  0  0  0  0  0  0  0  0  0  0
  151.4479  141.5736  158.5236 C   0  0  0  0  0  0  0  0  0  0  0  0
  152.1725  142.0659  159.7696 C   0  0  0  0  0  0  0  0  0  0  0  0
  152.9683  143.1475  159.3071 O   0  0  0  0  0  0  0  0  0  0  0  0
  152.3729  143.7385  158.1529 C   0  0  2  0  0  0  0  0  0  0  0  0
  152.1153  145.2348  158.3973 C   0  0  0  0  0  0  0  0  0  0  0  0
  146.4962  138.3862  153.8028 C   0  0  2  0  0  0  0  0  0  0  0  0
  145.1336  137.7248  154.1218 C   0  0  0  0  0  0  0  0  0  0  0  0
  144.7562  136.5663  153.1785 C   0  0  0  0  0  0  0  0  0  0  0  0
  144.8578  136.9836  151.7613 N   0  3  2  0  0  0  0  0  0  0  0  0
  144.3316  135.9614  150.8318 C   0  0  0  0  0  0  0  0  0  0  0  0
  146.2350  137.4081  151.4192 C   0  0  0  0  0  0  0  0  0  0  0  0
  146.6733  138.6066  152.2809 C   0  0  0  0  0  0  0  0  0  0  0  0
  147.9816  134.2941  154.6752 H   0  0  0  0  0  0  0  0  0  0  0  0
  149.6812  134.2727  155.1385 H   0  0  0  0  0  0  0  0  0  0  0  0
  149.1192  135.4089  153.9235 H   0  0  0  0  0  0  0  0  0  0  0  0
  149.4680  136.5515  156.1119 H   0  0  0  0  0  0  0  0  0  0  0  0
  147.3964  134.6245  157.2411 H   0  0  0  0  0  0  0  0  0  0  0  0
  148.1353  135.9712  158.1040 H   0  0  0  0  0  0  0  0  0  0  0  0
  149.1231  134.6098  157.5906 H   0  0  0  0  0  0  0  0  0  0  0  0
  146.5272  136.2678  155.3367 H   0  0  0  0  0  0  0  0  0  0  0  0
  147.0831  137.4576  156.4708 H   0  0  0  0  0  0  0  0  0  0  0  0
  151.9605  138.2187  153.8444 H   0  0  0  0  0  0  0  0  0  0  0  0
  148.1609  142.5247  156.7589 H   0  0  0  0  0  0  0  0  0  0  0  0
  151.8947  142.3458  155.8035 H   0  0  0  0  0  0  0  0  0  0  0  0
  150.6601  143.5773  155.7784 H   0  0  0  0  0  0  0  0  0  0  0  0
  149.5390  143.9405  157.6488 H   0  0  0  0  0  0  0  0  0  0  0  0
  150.5611  140.9793  158.7492 H   0  0  0  0  0  0  0  0  0  0  0  0
  152.1265  140.9508  157.9387 H   0  0  0  0  0  0  0  0  0  0  0  0
  151.4615  142.4372  160.5090 H   0  0  0  0  0  0  0  0  0  0  0  0
  152.7803  141.2922  160.2391 H   0  0  0  0  0  0  0  0  0  0  0  0
  153.1222  143.6426  157.3667 H   0  0  0  0  0  0  0  0  0  0  0  0
  151.6462  145.7047  157.5336 H   0  0  0  0  0  0  0  0  0  0  0  0
  153.0529  145.7571  158.5886 H   0  0  0  0  0  0  0  0  0  0  0  0
  151.4698  145.3961  159.2608 H   0  0  0  0  0  0  0  0  0  0  0  0
  146.4312  139.3829  154.2414 H   0  0  0  0  0  0  0  0  0  0  0  0
  145.0922  137.4055  155.1635 H   0  0  0  0  0  0  0  0  0  0  0  0
  144.3621  138.4894  154.0232 H   0  0  0  0  0  0  0  0  0  0  0  0
  145.3872  135.6934  153.3429 H   0  0  0  0  0  0  0  0  0  0  0  0
  143.7339  136.2525  153.3931 H   0  0  0  0  0  0  0  0  0  0  0  0
  144.9138  135.0423  150.8909 H   0  0  0  0  0  0  0  0  0  0  0  0
  144.3633  136.3220  149.8031 H   0  0  0  0  0  0  0  0  0  0  0  0
  143.2939  135.7237  151.0681 H   0  0  0  0  0  0  0  0  0  0  0  0
  146.9134  136.5653  151.5379 H   0  0  0  0  0  0  0  0  0  0  0  0
  146.2768  137.6919  150.3671 H   0  0  0  0  0  0  0  0  0  0  0  0
  146.0592  139.4606  151.9925 H   0  0  0  0  0  0  0  0  0  0  0  0
  147.6972  138.8914  152.0385 H   0  0  0  0  0  0  0  0  0  0  0  0
  144.2677  137.7965  151.6541 H   0  0  0  0  0  0  0  0  0  0  0  0
  1  2  1  0  0  0  0
  1 30  1  0  0  0  0
  1 31  1  0  0  0  0
  1 32  1  0  0  0  0
  2  3  1  0  0  0  0
  2  4  1  0  0  0  0
  2 33  1  0  0  0  0
  3 34  1  0  0  0  0
  3 35  1  0  0  0  0
  3 36  1  0  0  0  0
  4  5  1  0  0  0  0
  4 37  1  0  0  0  0
  4 38  1  0  0  0  0
  5  6  1  0  0  0  0
  5 23  1  0  0  0  0
  6 11  1  0  0  0  0
  6  7  2  0  0  0  0
  7  8  1  0  0  0  0
  8  9  2  0  0  0  0
  8 39  1  0  0  0  0
  9 10  1  0  0  0  0
 10 14  1  0  0  0  0
 10 11  2  0  0  0  0
 11 12  1  0  0  0  0
 12 13  2  0  0  0  0
 13 14  1  0  0  0  0
 13 40  1  0  0  0  0
 14 15  1  0  0  0  0
 15 16  1  0  0  0  0
 15 41  1  0  0  0  0
 15 42  1  0  0  0  0
 16 21  1  0  0  0  0
 16 17  1  0  0  0  0
 16 18  1  0  0  0  0
 17 43  1  0  0  0  0
 18 19  1  0  0  0  0
 18 44  1  0  0  0  0
 18 45  1  0  0  0  0
 19 20  1  0  0  0  0
 19 46  1  0  0  0  0
 19 47  1  0  0  0  0
 20 21  1  0  0  0  0
 21 22  1  0  0  0  0
 21 48  1  0  0  0  0
 22 49  1  0  0  0  0
 22 50  1  0  0  0  0
 22 51  1  0  0  0  0
 23 29  1  0  0  0  0
 23 24  1  0  0  0  0
 23 52  1  0  0  0  0
 24 25  1  0  0  0  0
 24 53  1  0  0  0  0
 24 54  1  0  0  0  0
 25 26  1  0  0  0  0
 25 55  1  0  0  0  0
 25 56  1  0  0  0  0
 26 27  1  0  0  0  0
 26 28  1  0  0  0  0
 26 64  1  0  0  0  0
 27 57  1  0  0  0  0
 27 58  1  0  0  0  0
 27 59  1  0  0  0  0
 28 29  1  0  0  0  0
 28 60  1  0  0  0  0
 28 61  1  0  0  0  0
 29 62  1  0  0  0  0
 29 63  1  0  0  0  0
M  CHG  1  26   1
M  END
> <s_m_source_file>
AV-unprocessed.smi

> <i_m_source_file_index>
81

> <i_lp_mmshare_version>
43012

> <i_f3d_flags>
0

> <s_epik_input>
W0NIMl0xW0NIMl1OKFtDSDNdKVtDSDJdW0NIMl1bQ0hdMU4oW0NIMl1bQ0hdKFtDSDNdKVtDSDNdKWMobltjSF1uMiljKGMyMyluW2NIXW4zW0NIMl1bQ0BAXTQoW09IXSlbQ0gyXVtDSDJdT1tDQEhdNFtDSDNd

> <s_epik_cmdline>
J2VwaWtfcHl0aG9uJywgJy1waCcsICc3LjAnLCAnLXRuJywgJzgnLCAnLW1hJywgJzIwMCcsICctbWV0YWxfYmluZGluZycsICctaW1hZScsICc8aW5maWxlLm1hZT4nLCAnLW9tYWUnLCAnPG91dGZpbGUubWFlPic=

> <r_lp_tautomer_probability>
1

> <r_epik_Ionization_Penalty>
0.00272708

> <r_epik_Ionization_Penalty_Charging>
0.00158983

> <r_epik_Ionization_Penalty_Neutral>
0.00113725

> <r_epik_State_Penalty>
-0

> <r_epik_Charging_Adjusted_Penalty>
0.00158983

> <i_epik_Tot_Q>
1

> <i_epik_Tot_abs_Q>
1

> <r_epik_Metal_State_Penalty>
-0

> <b_epik_Metal_Only>
0

> <s_lp_Force_Field>
OPLS_2005

> <r_lp_Energy>
48.65

> <b_lp_Chiralities_Consistent>
1

> <s_lp_Variant>
AV-unprocessed.smi:81-7

> <Gold.Version>
5.8.1

> <Gold.Id.Protein>
6NUR|6NUR_protein|mol2

> <Gold.PLP.Fitness>
44.7295

> <Gold.PLP.PLP>
-37.3046

> <Gold.PLP.part.hbond>
-3.2373

> <Gold.PLP.part.metal>
0.0000

> <Gold.PLP.part.buried>
2.2294

> <Gold.PLP.part.nonpolar>
-36.3313

> <Gold.PLP.part.repulsive>
0.8736

> <Gold.PLP.ligand.clash>
0.0000

> <Gold.PLP.ligand.torsion>
1.9806

> <Gold.PLP.Chemscore.Hbond>
2.6473

> <Gold.PLP.Chemscore.CHOScore>
0.6769

> <Gold.PLP.Chemscore.Metal>
0.0000

> <Gold.Chemscore.Hbonds>
donor molecule, donor type, donor heavy atom, donor atom, acceptor molecule, acceptor atom, score
      L1  H    17    43       P1  8028  0.55
      L1  H    26    64       P1 10171  0.42
      P1  H  7989  7998       L1     9  1.00
      L1  C    13    40       P1  8028  0.59

> <Gold.PLP.Chemscore.Internal.Correction>
1.4136

> <Gold.Rescore>
     Score         DG    S(hbond)    S(metal)    S(lipo)     H(rot)  DE(clash)    DE(int)     intcor
     10.30     -15.48       1.11        0.00     104.60       2.32       2.35       2.83       ----

> <Gold.Chemscore.Fitness>
10.3040

> <Gold.Chemscore.DG>
-15.4817

> <Gold.Chemscore.ZeroCoef>
-5.4800

> <Gold.Chemscore.Hbond>
1.1059

> <Gold.Chemscore.Metal>
0.0000

> <Gold.Chemscore.Lipo>
104.5963

> <Gold.Chemscore.Internal_Hbond>
0.0000

> <Gold.Chemscore.DEClash>
2.3493

> <Gold.Chemscore.DEInternal>
2.8283

> <Gold.Chemscore.Rot>
2.3163

> <Gold.Chemscore.Internal.Correction>
   9.000000E+99

> <Gold.Chemscore.Hbonds>
donor molecule, donor type, donor heavy atom, donor atom, acceptor molecule, acceptor atom, score
      L1  H    17    43       P1  8028  0.14
      L1  H    26    64       P1 10171  0.40
      P1  H  7989  7998       L1     9  0.18

> <Gold.Chemscore.Hbond.Weighted>
-3.6937

> <Gold.Chemscore.Metal.Weighted>
-0.0000

> <Gold.Chemscore.Lipo.Weighted>
-12.2378

> <Gold.Chemscore.Internal_Hbond.Weighted>
0.0000

> <Gold.Chemscore.DEClash.Weighted>
2.3493

> <Gold.Chemscore.DEInternal.Weighted>
2.8283

> <Gold.Chemscore.Rot.Weighted>
5.9297

> <Gold.Chemscore.Internal.Correction.Weighted>
   9.000000E+99

> <Gold.Protein.RotatedTorsions>
[ 6907 6896 6895 6894 ] final  122.59 input  -60.11 | X-H torsion
[ 7974 7965 7964 7962 ] final  137.99 input  175.53 | X-H torsion
[ 8008 7997 7996 7995 ] final -179.88 input   59.86 | X-H torsion
[ 10167 10162 10161 10158 ] final  -43.21 input  -65.29 | X-H torsion
[ 10718 10713 10712 10709 ] final  -47.78 input   66.30 | X-H torsion
[ 10763 10752 10751 10750 ] final -159.68 input  -60.55 | X-H torsion
[ 11005 11000 10999 10996 ] final  172.01 input  -57.11 | X-H torsion

> <Gold.Protein.ActiveResidues>
 VAL166  LYS551  ARG553  GLY616  TRP617  ASP618  TYR619  PRO620  LYS621  CYS622 
 ASP623  PHE694  ASN695  SER759  ASP760  ASP761  ALA762  ILE779  LEU786  VAL792 
 PHE793  MET794  SER795  GLU796  ALA797  LYS798  CYS799  TRP800  GLU811  SER814 

> <Gold.Protein.RotatedAtoms>
  152.4231  133.7149  159.6499 H   0  0  0  0  0  0  0  0  0  0  0  0  # atno 6907 bound_to 6896
  150.8107  133.8416  159.3189 H   0  0  0  0  0  0  0  0  0  0  0  0  # atno 6908 bound_to 6896
  151.6127  135.1041  160.0136 H   0  0  0  0  0  0  0  0  0  0  0  0  # atno 6909 bound_to 6896
  144.9415  139.4925  143.5569 H   0  0  0  0  0  0  0  0  0  0  0  0  # atno 7974 bound_to 7965
  156.0356  140.1292  157.0211 H   0  0  0  0  0  0  0  0  0  0  0  0  # atno 8008 bound_to 7997
  154.4368  140.1040  156.6233 H   0  0  0  0  0  0  0  0  0  0  0  0  # atno 8009 bound_to 7997
  155.5742  140.3467  155.4525 H   0  0  0  0  0  0  0  0  0  0  0  0  # atno 8010 bound_to 7997
  140.6942  143.2995  151.3319 H   0  0  0  0  0  0  0  0  0  0  0  0  # atno 10167 bound_to 10162
  156.2051  130.4158  149.9188 H   0  0  0  0  0  0  0  0  0  0  0  0  # atno 10718 bound_to 10713
  154.7454  135.3079  154.8654 H   0  0  0  0  0  0  0  0  0  0  0  0  # atno 10763 bound_to 10752
  153.9456  135.6770  153.4748 H   0  0  0  0  0  0  0  0  0  0  0  0  # atno 10764 bound_to 10752
  153.1051  135.4893  154.8862 H   0  0  0  0  0  0  0  0  0  0  0  0  # atno 10765 bound_to 10752
  140.3251  134.7404  157.4093 H   0  0  0  0  0  0  0  0  0  0  0  0  # atno 11005 bound_to 11000
  146.3287  139.8438  142.8885 LP  0  0  0  0  0  0  0  0  0  0  0  0  # atno 17320 bound_to 7965
  145.2983  141.0187  143.3623 LP  0  0  0  0  0  0  0  0  0  0  0  0  # atno 17321 bound_to 7965
  139.6378  144.0598  152.2529 LP  0  0  0  0  0  0  0  0  0  0  0  0  # atno 17342 bound_to 10162
  140.0093  144.6235  150.7661 LP  0  0  0  0  0  0  0  0  0  0  0  0  # atno 17343 bound_to 10162
  156.6885  130.8886  151.3585 LP  0  0  0  0  0  0  0  0  0  0  0  0  # atno 17370 bound_to 10713
  157.7008  130.9331  150.0779 LP  0  0  0  0  0  0  0  0  0  0  0  0  # atno 17371 bound_to 10713
  140.0908  134.5603  155.8446 LP  0  0  0  0  0  0  0  0  0  0  0  0  # atno 17394 bound_to 11000
  141.2077  133.6667  156.6323 LP  0  0  0  0  0  0  0  0  0  0  0  0  # atno 17395 bound_to 11000

$$$$
