#       Name:                AV-unprocessed.smi:114
#       Creating user name   scv26
#       Creation time:       Thu Mar 26 18:22:20 2020


#       File generated by GOLD software.
#

@<TRIPOS>MOLECULE
AV-unprocessed.smi:114
    43    45     1
SMALL
NO_CHARGES


@<TRIPOS>ATOM
      1 ****        -5.2764   1.1983  -0.1245 N.pl3          1 S1                 0.0000
      2 ****        -3.9902   1.5750  -0.1061 C.ar           1 S1                 0.0000
      3 ****        -3.7054   2.8914   0.0288 N.ar           1 S1                 0.0000
      4 ****        -2.4335   3.3105   0.0530 C.ar           1 S1                 0.0000
      5 ****        -2.2428   4.6434   0.1921 F              1 S1                 0.0000
      6 ****        -1.3300   2.5606  -0.0454 N.ar           1 S1                 0.0000
      7 ****        -1.6164   1.2339  -0.1824 C.ar           1 S1                 0.0000
      8 ****        -2.9147   0.6608  -0.2203 C.ar           1 S1                 0.0000
      9 ****        -2.8197  -0.7174  -0.3646 N.2            1 S1                 0.0000
     10 ****        -1.5328  -0.9408  -0.4082 C.2            1 S1                 0.0000
     11 ****        -0.7381   0.1815  -0.3061 N.pl3          1 S1                 0.0000
     12 ****         0.7525   0.2848  -0.3127 C.3            1 S1                 0.0000
     13 ****         1.2603  -0.8206  -0.9808 O.3            1 S1                 0.0000
     14 ****         2.6007  -1.0001  -0.5541 C.3            1 S1                 0.0000
     15 ****         3.0777  -2.4166  -0.9074 C.3            1 S1                 0.0000
     16 ****         3.4846  -2.4649  -2.2581 O.3            1 S1                 0.0000
     17 ****         2.5130  -0.7398   0.9568 C.3            1 S1                 0.0000
     18 ****         3.7271  -0.1869   1.4241 O.3            1 S1                 0.0000
     19 ****         1.3716   0.2688   1.1000 C.3            1 S1                 0.0000
     20 ****         0.4739  -0.1284   2.1218 O.3            1 S1                 0.0000
     21 ****         0.9798   1.1948  -0.8706 H              1 S1                 0.0000
     22 ****         3.2280  -0.2422  -1.0294 H              1 S1                 0.0000
     23 ****         2.2882  -1.6646   1.4910 H              1 S1                 0.0000
     24 ****         1.7322   1.2750   1.3189 H              1 S1                 0.0000
     25 ****        -5.5134   0.2215  -0.2236 H              1 S1                 0.0000
     26 ****        -6.0060   1.8913  -0.0406 H              1 S1                 0.0000
     27 ****        -1.1272  -1.9365  -0.5138 H              1 S1                 0.0000
     28 ****         3.9396  -2.6850  -0.2960 H              1 S1                 0.0000
     29 ****         2.3008  -3.1574  -0.7163 H              1 S1                 0.0000
     30 ****         3.7897  -3.3386  -2.4497 H              1 S1                 0.0000
     31 ****         3.6332   0.0070   2.3445 H              1 S1                 0.0000
     32 ****         0.0943  -0.9593   1.8803 H              1 S1                 0.0000
     33 ****        -4.4490   3.5550   0.1109 LP             1 S1                 0.0000
     34 ****        -0.4012   2.9304  -0.0213 LP             1 S1                 0.0000
     35 ****        -3.5632  -1.3837  -0.4218 LP             1 S1                 0.0000
     36 ****         1.2347  -0.6639  -1.9681 LP             1 S1                 0.0000
     37 ****         0.7198  -1.6319  -0.7579 LP             1 S1                 0.0000
     38 ****         4.2236  -1.8088  -2.4111 LP             1 S1                 0.0000
     39 ****         2.7114  -2.2403  -2.8512 LP             1 S1                 0.0000
     40 ****         3.9309   0.6532   0.9213 LP             1 S1                 0.0000
     41 ****         4.4698  -0.8432   1.2916 LP             1 S1                 0.0000
     42 ****        -0.2482   0.5562   2.2215 LP             1 S1                 0.0000
     43 ****         0.9669  -0.2213   2.9868 LP             1 S1                 0.0000
@<TRIPOS>BOND
    1    1    2 1     
    2    1   25 1     
    3    1   26 1     
    4    2    8 ar    
    5    2    3 ar    
    6    3    4 ar    
    7    4    5 1     
    8    4    6 ar    
    9    6    7 ar    
   10    7   11 1     
   11    7    8 ar    
   12    8    9 1     
   13    9   10 2     
   14   10   11 1     
   15   10   27 1     
   16   11   12 1     
   17   12   21 1     
   18   12   19 1     
   19   12   13 1     
   20   13   14 1     
   21   14   22 1     
   22   14   15 1     
   23   14   17 1     
   24   15   16 1     
   25   15   28 1     
   26   15   29 1     
   27   16   30 1     
   28   17   23 1     
   29   17   18 1     
   30   17   19 1     
   31   18   31 1     
   32   19   24 1     
   33   19   20 1     
   34   20   32 1     
   35    3   33 1     
   36    6   34 1     
   37    9   35 1     
   38   13   36 1     
   39   13   37 1     
   40   16   38 1     
   41   16   39 1     
   42   18   40 1     
   43   18   41 1     
   44   20   42 1     
   45   20   43 1     
@<TRIPOS>SUBSTRUCTURE
      1 S1             1
@<TRIPOS>SET
LONE_PAIRS      STATIC     ATOMS    <user>   **** ""
11 33 34 35 36 37 38 39 40 41 42 43
DONOR_HYDROGENS      STATIC     ATOMS    <user>   **** ""
5 25 26 30 31 32
ATOM$BLUE        STATIC     ATOMS    COLORGROUP SYSTEM
11 33 34 35 36 37 38 39 40 41 42 43
ATOM$RED        STATIC     ATOMS    COLORGROUP SYSTEM
5 25 26 30 31 32
