AV-unprocessed.smi:1184|AV-procd|sdf|4971|dock4
  -GOLD-   22720 3563D 1   1.00000     0.00000
 Structure written by MMmdl.
 43 44  0  0  0  0  0  0  0  0  2 V2000
  145.1457  132.1539  150.4970 C   0  0  0  0  0  0  0  0  0  0  0  0
  143.8580  132.8252  149.9995 C   0  0  0  0  0  0  0  0  0  0  0  0
  143.6013  134.1177  150.6783 N   0  3  1  0  0  0  0  0  0  0  0  0
  143.3694  134.0210  152.1374 C   0  0  0  0  0  0  0  0  0  0  0  0
  143.8977  135.3275  152.7229 C   0  0  0  0  0  0  0  0  0  0  0  0
  145.1120  135.6164  151.8458 C   0  0  2  0  0  0  0  0  0  0  0  0
  145.5968  137.0775  151.9137 C   0  0  0  0  0  0  0  0  0  0  0  0
  146.5890  137.2788  152.9651 N   0  0  0  0  0  0  0  0  0  0  0  0
  146.3908  137.9508  154.1100 C   0  0  0  0  0  0  0  0  0  0  0  0
  145.3294  138.5023  154.3993 O   0  0  0  0  0  0  0  0  0  0  0  0
  147.5712  138.0109  155.0795 C   0  0  0  0  0  0  0  0  0  0  0  0
  148.5280  139.0934  154.6495 C   0  0  0  0  0  0  0  0  0  0  0  0
  149.9418  139.0102  154.4861 C   0  0  0  0  0  0  0  0  0  0  0  0
  150.8496  137.8325  154.6970 C   0  0  0  0  0  0  0  0  0  0  0  0
  150.4619  140.1600  154.0924 N   0  0  0  0  0  0  0  0  0  0  0  0
  149.3891  141.0495  153.9836 O   0  0  0  0  0  0  0  0  0  0  0  0
  148.2506  140.3924  154.3201 C   0  0  0  0  0  0  0  0  0  0  0  0
  146.9864  141.1814  154.2656 C   0  0  0  0  0  0  0  0  0  0  0  0
  144.6520  135.1407  150.4584 C   0  0  0  0  0  0  0  0  0  0  0  0
  145.2803  131.1815  150.0230 H   0  0  0  0  0  0  0  0  0  0  0  0
  145.1161  131.9952  151.5755 H   0  0  0  0  0  0  0  0  0  0  0  0
  146.0276  132.7530  150.2689 H   0  0  0  0  0  0  0  0  0  0  0  0
  143.8970  132.9724  148.9192 H   0  0  0  0  0  0  0  0  0  0  0  0
  143.0195  132.1556  150.1954 H   0  0  0  0  0  0  0  0  0  0  0  0
  142.3159  133.8573  152.3659 H   0  0  0  0  0  0  0  0  0  0  0  0
  143.9372  133.1859  152.5511 H   0  0  0  0  0  0  0  0  0  0  0  0
  143.1512  136.1154  152.6121 H   0  0  0  0  0  0  0  0  0  0  0  0
  144.1483  135.2443  153.7810 H   0  0  0  0  0  0  0  0  0  0  0  0
  145.9205  134.9625  152.1778 H   0  0  0  0  0  0  0  0  0  0  0  0
  145.9843  137.4029  150.9466 H   0  0  0  0  0  0  0  0  0  0  0  0
  144.7512  137.7290  152.1355 H   0  0  0  0  0  0  0  0  0  0  0  0
  147.4939  136.8543  152.8208 H   0  0  0  0  0  0  0  0  0  0  0  0
  147.2022  138.1779  156.0921 H   0  0  0  0  0  0  0  0  0  0  0  0
  148.0606  137.0363  155.0981 H   0  0  0  0  0  0  0  0  0  0  0  0
  150.3502  137.0345  155.2457 H   0  0  0  0  0  0  0  0  0  0  0  0
  151.7361  138.1152  155.2652 H   0  0  0  0  0  0  0  0  0  0  0  0
  151.1822  137.4213  153.7437 H   0  0  0  0  0  0  0  0  0  0  0  0
  146.1973  140.6983  154.8416 H   0  0  0  0  0  0  0  0  0  0  0  0
  146.6401  141.2832  153.2372 H   0  0  0  0  0  0  0  0  0  0  0  0
  147.1353  142.1811  154.6741 H   0  0  0  0  0  0  0  0  0  0  0  0
  145.4914  134.7682  149.8690 H   0  0  0  0  0  0  0  0  0  0  0  0
  144.1971  135.9587  149.8992 H   0  0  0  0  0  0  0  0  0  0  0  0
  142.7583  134.5006  150.2742 H   0  0  0  0  0  0  0  0  0  0  0  0
  1  2  1  0  0  0  0
  1 20  1  0  0  0  0
  1 21  1  0  0  0  0
  1 22  1  0  0  0  0
  2  3  1  0  0  0  0
  2 23  1  0  0  0  0
  2 24  1  0  0  0  0
  3 19  1  0  0  0  0
  3  4  1  0  0  0  0
  3 43  1  0  0  0  0
  4  5  1  0  0  0  0
  4 25  1  0  0  0  0
  4 26  1  0  0  0  0
  5  6  1  0  0  0  0
  5 27  1  0  0  0  0
  5 28  1  0  0  0  0
  6  7  1  0  0  0  0
  6 19  1  0  0  0  0
  6 29  1  0  0  0  0
  7  8  1  0  0  0  0
  7 30  1  0  0  0  0
  7 31  1  0  0  0  0
  8  9  1  0  0  0  0
  8 32  1  0  0  0  0
  9 10  2  0  0  0  0
  9 11  1  0  0  0  0
 11 12  1  0  0  0  0
 11 33  1  0  0  0  0
 11 34  1  0  0  0  0
 12 17  2  0  0  0  0
 12 13  1  0  0  0  0
 13 14  1  0  0  0  0
 13 15  2  0  0  0  0
 14 35  1  0  0  0  0
 14 36  1  0  0  0  0
 14 37  1  0  0  0  0
 15 16  1  0  0  0  0
 16 17  1  0  0  0  0
 17 18  1  0  0  0  0
 18 38  1  0  0  0  0
 18 39  1  0  0  0  0
 18 40  1  0  0  0  0
 19 41  1  0  0  0  0
 19 42  1  0  0  0  0
M  CHG  1   3   1
M  END
> <s_m_source_file>
AV-unprocessed.smi

> <i_m_source_file_index>
1184

> <i_lp_mmshare_version>
43012

> <i_f3d_flags>
0

> <s_epik_input>
W0NIM11bQ0gyXU4xW0NIMl1bQ0gyXVtDQEhdKFtDSDJdMSlbQ0gyXVtOSF1DKD1PKVtDSDJdYzJjKFtDSDNdKW5vYzJbQ0gzXQ==

> <s_epik_cmdline>
J2VwaWtfcHl0aG9uJywgJy1waCcsICc3LjAnLCAnLXRuJywgJzgnLCAnLW1hJywgJzIwMCcsICctbWV0YWxfYmluZGluZycsICctaW1hZScsICc8aW5maWxlLm1hZT4nLCAnLW9tYWUnLCAnPG91dGZpbGUubWFlPic=

> <r_epik_Ionization_Penalty>
0.000590726

> <r_epik_Ionization_Penalty_Charging>
0.000590692

> <r_epik_Ionization_Penalty_Neutral>
3.44741e-08

> <r_epik_State_Penalty>
0.000371644

> <r_epik_Charging_Adjusted_Penalty>
0.000962336

> <i_epik_Tot_Q>
1

> <i_epik_Tot_abs_Q>
1

> <r_epik_Metal_State_Penalty>
-0

> <b_epik_Metal_Only>
0

> <s_lp_Force_Field>
OPLS_2005

> <r_lp_Energy>
22.6293

> <b_lp_Chiralities_Consistent>
1

> <s_lp_Variant>
AV-unprocessed.smi:1184-3

> <Gold.Version>
5.8.1

> <Gold.Id.Protein>
6NUR|6NUR_protein|mol2

> <Gold.PLP.Fitness>
44.2058

> <Gold.PLP.PLP>
-32.7464

> <Gold.PLP.part.hbond>
-4.4679

> <Gold.PLP.part.metal>
0.0000

> <Gold.PLP.part.buried>
-4.2750

> <Gold.PLP.part.nonpolar>
-25.9367

> <Gold.PLP.part.repulsive>
1.3939

> <Gold.PLP.ligand.clash>
0.0000

> <Gold.PLP.ligand.torsion>
0.8296

> <Gold.PLP.Chemscore.Hbond>
4.3460

> <Gold.PLP.Chemscore.CHOScore>
0.0000

> <Gold.PLP.Chemscore.Metal>
0.0000

> <Gold.Chemscore.Hbonds>
donor molecule, donor type, donor heavy atom, donor atom, acceptor molecule, acceptor atom, score
      L1  H     3    43       P1 10186  2.00
      L1  H     8    32       P1  7948  1.00
      P1  H  7989  7998       L1    15  0.88
      P1  H  8011  8017       L1    16  0.56

> <Gold.PLP.Chemscore.Internal.Correction>
0.0806

> <Gold.Rescore>
     Score         DG    S(hbond)    S(metal)    S(lipo)     H(rot)  DE(clash)    DE(int)     intcor
     18.31     -19.45       2.68        0.00      79.49       1.67       0.26       0.88       ----

> <Gold.Chemscore.Fitness>
18.3054

> <Gold.Chemscore.DG>
-19.4459

> <Gold.Chemscore.ZeroCoef>
-5.4800

> <Gold.Chemscore.Hbond>
2.6758

> <Gold.Chemscore.Metal>
0.0000

> <Gold.Chemscore.Lipo>
79.4857

> <Gold.Chemscore.Internal_Hbond>
0.0000

> <Gold.Chemscore.DEClash>
0.2595

> <Gold.Chemscore.DEInternal>
0.8810

> <Gold.Chemscore.Rot>
1.6684

> <Gold.Chemscore.Internal.Correction>
   9.000000E+99

> <Gold.Chemscore.Hbonds>
donor molecule, donor type, donor heavy atom, donor atom, acceptor molecule, acceptor atom, score
      L1  H     3    43       P1 10186  0.64
      L1  H     8    32       P1  7948  0.98
      P1  H  7989  7998       L1    15  0.41
      P1  H  8011  8017       L1    16  0.35

> <Gold.Chemscore.Hbond.Weighted>
-8.9373

> <Gold.Chemscore.Metal.Weighted>
-0.0000

> <Gold.Chemscore.Lipo.Weighted>
-9.2998

> <Gold.Chemscore.Internal_Hbond.Weighted>
0.0000

> <Gold.Chemscore.DEClash.Weighted>
0.2595

> <Gold.Chemscore.DEInternal.Weighted>
0.8810

> <Gold.Chemscore.Rot.Weighted>
4.2712

> <Gold.Chemscore.Internal.Correction.Weighted>
   9.000000E+99

> <Gold.Protein.RotatedTorsions>
[ 6907 6896 6895 6894 ] final    7.99 input  -60.11 | X-H torsion
[ 7974 7965 7964 7962 ] final   83.02 input  175.53 | X-H torsion
[ 8008 7997 7996 7995 ] final   49.97 input   59.86 | X-H torsion
[ 10167 10162 10161 10158 ] final -157.45 input  -65.29 | X-H torsion
[ 10718 10713 10712 10709 ] final   86.45 input   66.30 | X-H torsion
[ 10763 10752 10751 10750 ] final -138.85 input  -60.55 | X-H torsion
[ 11005 11000 10999 10996 ] final   53.60 input  -57.11 | X-H torsion

> <Gold.Protein.ActiveResidues>
 VAL166  LYS551  ARG553  GLY616  TRP617  ASP618  TYR619  PRO620  LYS621  CYS622 
 ASP623  PHE694  ASN695  SER759  ASP760  ASP761  ALA762  ILE779  LEU786  VAL792 
 PHE793  MET794  SER795  GLU796  ALA797  LYS798  CYS799  TRP800  GLU811  SER814 

> <Gold.Protein.RotatedAtoms>
  151.6988  135.0934  160.0246 H   0  0  0  0  0  0  0  0  0  0  0  0  # atno 6907 bound_to 6896
  152.3733  133.6444  159.6113 H   0  0  0  0  0  0  0  0  0  0  0  0  # atno 6908 bound_to 6896
  150.7690  133.9150  159.3422 H   0  0  0  0  0  0  0  0  0  0  0  0  # atno 6909 bound_to 6896
  145.6174  139.2379  143.2158 H   0  0  0  0  0  0  0  0  0  0  0  0  # atno 7974 bound_to 7965
  155.4110  140.3442  155.4263 H   0  0  0  0  0  0  0  0  0  0  0  0  # atno 8008 bound_to 7997
  156.1449  140.1553  156.8894 H   0  0  0  0  0  0  0  0  0  0  0  0  # atno 8009 bound_to 7997
  154.5002  140.0817  156.7762 H   0  0  0  0  0  0  0  0  0  0  0  0  # atno 8010 bound_to 7997
  139.6769  143.9647  152.2315 H   0  0  0  0  0  0  0  0  0  0  0  0  # atno 10167 bound_to 10162
  157.6929  131.0216  150.2975 H   0  0  0  0  0  0  0  0  0  0  0  0  # atno 10718 bound_to 10713
  154.8626  135.3600  154.5451 H   0  0  0  0  0  0  0  0  0  0  0  0  # atno 10763 bound_to 10752
  153.6071  135.7010  153.5366 H   0  0  0  0  0  0  0  0  0  0  0  0  # atno 10764 bound_to 10752
  153.3241  135.4143  155.1402 H   0  0  0  0  0  0  0  0  0  0  0  0  # atno 10765 bound_to 10752
  140.0754  134.5411  155.9002 H   0  0  0  0  0  0  0  0  0  0  0  0  # atno 11005 bound_to 11000
  146.1458  140.6995  142.9345 LP  0  0  0  0  0  0  0  0  0  0  0  0  # atno 17320 bound_to 7965
  144.7245  140.4480  143.6983 LP  0  0  0  0  0  0  0  0  0  0  0  0  # atno 17321 bound_to 7965
  139.9427  144.6671  150.8250 LP  0  0  0  0  0  0  0  0  0  0  0  0  # atno 17342 bound_to 10162
  140.7639  143.3234  151.2571 LP  0  0  0  0  0  0  0  0  0  0  0  0  # atno 17343 bound_to 10162
  156.3496  130.3829  149.7340 LP  0  0  0  0  0  0  0  0  0  0  0  0  # atno 17370 bound_to 10713
  156.4822  130.8046  151.3060 LP  0  0  0  0  0  0  0  0  0  0  0  0  # atno 17371 bound_to 10713
  141.2027  133.6627  156.6024 LP  0  0  0  0  0  0  0  0  0  0  0  0  # atno 17394 bound_to 11000
  140.3565  134.7724  157.4504 LP  0  0  0  0  0  0  0  0  0  0  0  0  # atno 17395 bound_to 11000

$$$$
