#       Name:                AV-unprocessed.smi:72
#       Creating user name   scv26
#       Creation time:       Thu Mar 26 17:04:15 2020


#       File generated by GOLD software.
#

@<TRIPOS>MOLECULE
AV-unprocessed.smi:72
    41    42     1
SMALL
NO_CHARGES


@<TRIPOS>ATOM
      1 ****        -4.0392   2.9843   1.9045 N.2            1 S1                 0.0000
      2 ****        -3.1116   2.4024   1.2803 C.2            1 S1                 0.0000
      3 ****        -1.9143   1.9886   1.9786 N.2            1 S1                 0.0000
      4 ****        -0.9889   1.3925   1.2918 C.2            1 S1                 0.0000
      5 ****        -1.1335   1.1360  -0.1359 N.am           1 S1                 0.0000
      6 ****        -0.0533   0.4402  -0.9489 C.3            1 S1                 0.0000
      7 ****         1.1746   0.5170  -0.2805 O.3            1 S1                 0.0000
      8 ****         1.5424  -0.7652   0.2154 C.3            1 S1                 0.0000
      9 ****         3.0569  -0.8432   0.4756 C.3            1 S1                 0.0000
     10 ****         3.3935  -2.0889   1.0486 O.3            1 S1                 0.0000
     11 ****         0.9613  -1.7324  -0.8232 C.3            1 S1                 0.0000
     12 ****         1.8110  -1.8488  -1.9497 O.3            1 S1                 0.0000
     13 ****        -0.3492  -1.0590  -1.2103 C.3            1 S1                 0.0000
     14 ****        -1.4039  -1.5835  -0.4218 O.3            1 S1                 0.0000
     15 ****        -2.3211   1.5539  -0.7943 C.2            1 S1                 0.0000
     16 ****        -2.4276   1.3231  -1.9992 O.2            1 S1                 0.0000
     17 ****        -3.2869   2.1835  -0.0680 N.pl3          1 S1                -1.0000
     18 ****         0.0435   1.0241  -1.8657 H              1 S1                 0.0000
     19 ****         1.0148  -0.9160   1.1587 H              1 S1                 0.0000
     20 ****         0.8154  -2.7318  -0.4107 H              1 S1                 0.0000
     21 ****        -0.6006  -1.2085  -2.2613 H              1 S1                 0.0000
     22 ****        -4.8156   3.2193   1.3033 H              1 S1                 0.0000
     23 ****        -0.0570   1.0517   1.7417 H              1 S1                 0.0000
     24 ****         3.6310  -0.6910  -0.4385 H              1 S1                 0.0000
     25 ****         3.3532  -0.0560   1.1691 H              1 S1                 0.0000
     26 ****         4.3212  -2.0953   1.2290 H              1 S1                 0.0000
     27 ****         2.6254  -2.2376  -1.6691 H              1 S1                 0.0000
     28 ****        -1.2426  -1.3597   0.4818 H              1 S1                 0.0000
     29 ****        -4.0095   3.1896   2.8827 LP             1 S1                 0.0000
     30 ****        -1.8035   2.1564   2.9581 LP             1 S1                 0.0000
     31 ****         1.0957   1.1571   0.4837 LP             1 S1                 0.0000
     32 ****         1.8769   0.8402  -0.9149 LP             1 S1                 0.0000
     33 ****         3.1689  -2.8254   0.4105 LP             1 S1                 0.0000
     34 ****         2.8836  -2.2177   1.8991 LP             1 S1                 0.0000
     35 ****         1.9846  -0.9434  -2.3371 LP             1 S1                 0.0000
     36 ****         1.3795  -2.4295  -2.6400 LP             1 S1                 0.0000
     37 ****        -1.4377  -2.5779  -0.5222 LP             1 S1                 0.0000
     38 ****        -2.2740  -1.1889  -0.7169 LP             1 S1                 0.0000
     39 ****        -1.6903   0.8541  -2.4856 LP             1 S1                 0.0000
     40 ****        -3.2513   1.6047  -2.4914 LP             1 S1                 0.0000
     41 ****        -4.1272   2.4882  -0.5163 LP             1 S1                 0.0000
@<TRIPOS>BOND
    1    1    2 2     
    2    1   22 1     
    3    2   17 1     
    4    2    3 1     
    5    3    4 2     
    6    4    5 1     
    7    4   23 1     
    8    5    6 1     
    9    5   15 am    
   10    6   18 1     
   11    6   13 1     
   12    6    7 1     
   13    7    8 1     
   14    8   19 1     
   15    8    9 1     
   16    8   11 1     
   17    9   10 1     
   18    9   24 1     
   19    9   25 1     
   20   10   26 1     
   21   11   20 1     
   22   11   12 1     
   23   11   13 1     
   24   12   27 1     
   25   13   21 1     
   26   13   14 1     
   27   14   28 1     
   28   15   16 2     
   29   15   17 1     
   30    1   29 1     
   31    3   30 1     
   32    7   31 1     
   33    7   32 1     
   34   10   33 1     
   35   10   34 1     
   36   12   35 1     
   37   12   36 1     
   38   14   37 1     
   39   14   38 1     
   40   16   39 1     
   41   16   40 1     
   42   17   41 1     
@<TRIPOS>SUBSTRUCTURE
      1 S1             1
@<TRIPOS>SET
LONE_PAIRS      STATIC     ATOMS    <user>   **** ""
13 29 30 31 32 33 34 35 36 37 38 39 40 41
DONOR_HYDROGENS      STATIC     ATOMS    <user>   **** ""
4 22 26 27 28
ATOM$BLUE        STATIC     ATOMS    COLORGROUP SYSTEM
13 29 30 31 32 33 34 35 36 37 38 39 40 41
ATOM$RED        STATIC     ATOMS    COLORGROUP SYSTEM
4 22 26 27 28
