AV-unprocessed.smi:72|AV-procd|sdf|680|dock5
  -GOLD-   2262016593D 1   1.00000     0.00000
 Structure written by MMmdl.
 29 30  0  0  0  0  0  0  0  0  1 V2000
  150.9367  136.8803  159.6393 N   0  0  0  0  0  0  0  0  0  0  0  0
  150.6163  137.4297  158.5232 C   0  0  0  0  0  0  0  0  0  0  0  0
  149.4168  137.2158  157.8280 N   0  0  0  0  0  0  0  0  0  0  0  0
  149.2285  137.8404  156.7063 C   0  0  0  0  0  0  0  0  0  0  0  0
  150.2202  138.7495  156.1484 N   0  0  0  0  0  0  0  0  0  0  0  0
  149.9993  139.4833  154.8388 C   0  0  1  0  0  0  0  0  0  0  0  0
  148.8905  138.9420  154.1751 O   0  0  0  0  0  0  0  0  0  0  0  0
  147.8453  139.9059  154.1224 C   0  0  2  0  0  0  0  0  0  0  0  0
  146.8666  139.5893  152.9770 C   0  0  0  0  0  0  0  0  0  0  0  0
  147.4721  138.8260  151.9541 O   0  0  0  0  0  0  0  0  0  0  0  0
  148.5844  141.2431  154.0638 C   0  0  1  0  0  0  0  0  0  0  0  0
  147.7717  142.3462  154.4191 O   0  0  0  0  0  0  0  0  0  0  0  0
  149.7465  141.0018  155.0231 C   0  0  1  0  0  0  0  0  0  0  0  0
  149.4274  141.3652  156.3586 O   0  0  0  0  0  0  0  0  0  0  0  0
  151.4305  138.9838  156.8452 C   0  0  0  0  0  0  0  0  0  0  0  0
  152.2903  139.7599  156.4290 O   0  0  0  0  0  0  0  0  0  0  0  0
  151.5781  138.3052  158.0034 N   0  0  0  0  0  0  0  0  0  0  0  0
  150.8768  139.2681  154.2265 H   0  0  0  0  0  0  0  0  0  0  0  0
  147.3031  139.8402  155.0674 H   0  0  0  0  0  0  0  0  0  0  0  0
  148.9896  141.4107  153.0654 H   0  0  0  0  0  0  0  0  0  0  0  0
  150.6337  141.5592  154.7214 H   0  0  0  0  0  0  0  0  0  0  0  0
  151.8496  137.1982  159.9323 H   0  0  0  0  0  0  0  0  0  0  0  0
  148.3177  137.7226  156.1192 H   0  0  0  0  0  0  0  0  0  0  0  0
  145.9900  139.0638  153.3566 H   0  0  0  0  0  0  0  0  0  0  0  0
  146.5121  140.5187  152.5312 H   0  0  0  0  0  0  0  0  0  0  0  0
  148.2174  139.3037  151.6230 H   0  0  0  0  0  0  0  0  0  0  0  0
  148.3251  143.0223  154.7785 H   0  0  0  0  0  0  0  0  0  0  0  0
  149.8469  142.1895  156.5521 H   0  0  0  0  0  0  0  0  0  0  0  0
  152.4315  138.4459  158.5242 H   0  0  0  0  0  0  0  0  0  0  0  0
  1  2  2  0  0  0  0
  1 22  1  0  0  0  0
  2 17  1  0  0  0  0
  2  3  1  0  0  0  0
  3  4  2  0  0  0  0
  4  5  1  0  0  0  0
  4 23  1  0  0  0  0
  5  6  1  0  0  0  0
  5 15  1  0  0  0  0
  6 18  1  0  0  0  0
  6 13  1  0  0  0  0
  6  7  1  0  0  0  0
  7  8  1  0  0  0  0
  8 19  1  0  0  0  0
  8  9  1  0  0  0  0
  8 11  1  0  0  0  0
  9 10  1  0  0  0  0
  9 24  1  0  0  0  0
  9 25  1  0  0  0  0
 10 26  1  0  0  0  0
 11 20  1  0  0  0  0
 11 12  1  0  0  0  0
 11 13  1  0  0  0  0
 12 27  1  0  0  0  0
 13 21  1  0  0  0  0
 13 14  1  0  0  0  0
 14 28  1  0  0  0  0
 15 16  2  0  0  0  0
 15 17  1  0  0  0  0
 17 29  1  0  0  0  0
M  END
> <s_m_source_file>
AV-unprocessed.smi

> <i_m_source_file_index>
72

> <i_lp_mmshare_version>
43012

> <i_f3d_flags>
0

> <s_epik_input>
W05IMl1jMW5bY0hdbihjKD1PKW4xKVtDQEBIXTJPW0NASF0oW0NIMl1bT0hdKVtDQEBIXShbT0hdKVtDQEhdMltPSF0=

> <s_epik_cmdline>
J2VwaWtfcHl0aG9uJywgJy1waCcsICc3LjAnLCAnLXRuJywgJzgnLCAnLW1hJywgJzIwMCcsICctbWV0YWxfYmluZGluZycsICctaW1hZScsICc8aW5maWxlLm1hZT4nLCAnLW9tYWUnLCAnPG91dGZpbGUubWFlPic=

> <r_lp_tautomer_probability>
7.17554e-07

> <r_epik_Ionization_Penalty>
0.0066451

> <r_epik_Ionization_Penalty_Charging>
0.00663793

> <r_epik_Ionization_Penalty_Neutral>
7.17052e-06

> <r_epik_State_Penalty>
0.419231

> <r_epik_Charging_Adjusted_Penalty>
0.425868

> <i_epik_Tot_Q>
0

> <i_epik_Tot_abs_Q>
0

> <r_epik_Metal_State_Penalty>
1.44144

> <b_epik_Metal_Only>
0

> <s_epik_Chemistry_Notes>
This compound contains an acetal/aminal-like group ( X-CH(R)-Y where X, Y are N, S, or O) that may be acid/base labile, releasing an aldehyde.

> <s_lp_Force_Field>
OPLS_2005

> <r_lp_Energy>
48.597

> <b_lp_Chiralities_Consistent>
1

> <s_lp_Variant>
AV-unprocessed.smi:72-18

> <Gold.Version>
5.8.1

> <Gold.Id.Protein>
6NUR|6NUR_protein|mol2

> <Gold.PLP.Fitness>
33.6381

> <Gold.PLP.PLP>
-23.0160

> <Gold.PLP.part.hbond>
-5.1799

> <Gold.PLP.part.metal>
0.0000

> <Gold.PLP.part.buried>
-3.6466

> <Gold.PLP.part.nonpolar>
-14.4217

> <Gold.PLP.part.repulsive>
0.2509

> <Gold.PLP.ligand.clash>
0.0000

> <Gold.PLP.ligand.torsion>
0.7131

> <Gold.PLP.Chemscore.Hbond>
4.0000

> <Gold.PLP.Chemscore.CHOScore>
0.0000

> <Gold.PLP.Chemscore.Metal>
0.0000

> <Gold.Chemscore.Hbonds>
donor molecule, donor type, donor heavy atom, donor atom, acceptor molecule, acceptor atom, score
      L1  H    10    26       P1  7957  1.00
      L1  H    12    27       P1  8028  1.00
      P1  H  6896  6907       L1     1  0.30
      P1  H  7997  8010       L1    16  0.78

> <Gold.PLP.Chemscore.Internal.Correction>
0.0482

> <Gold.Rescore>
     Score         DG    S(hbond)    S(metal)    S(lipo)     H(rot)  DE(clash)    DE(int)     intcor
     10.26     -11.16       3.91        0.00      25.61       4.06       0.22       0.67       ----

> <Gold.Chemscore.Fitness>
10.2610

> <Gold.Chemscore.DG>
-11.1555

> <Gold.Chemscore.ZeroCoef>
-5.4800

> <Gold.Chemscore.Hbond>
3.9139

> <Gold.Chemscore.Metal>
0.0000

> <Gold.Chemscore.Lipo>
25.6130

> <Gold.Chemscore.Internal_Hbond>
0.0000

> <Gold.Chemscore.DEClash>
0.2213

> <Gold.Chemscore.DEInternal>
0.6732

> <Gold.Chemscore.Rot>
4.0600

> <Gold.Chemscore.Internal.Correction>
   9.000000E+99

> <Gold.Chemscore.Hbonds>
donor molecule, donor type, donor heavy atom, donor atom, acceptor molecule, acceptor atom, score
      L1  H    10    26       P1  7957  0.96
      L1  H    12    27       P1  8028  0.97
      P1  H  7997  8010       L1    16  0.76

> <Gold.Chemscore.Hbond.Weighted>
-13.0724

> <Gold.Chemscore.Metal.Weighted>
-0.0000

> <Gold.Chemscore.Lipo.Weighted>
-2.9967

> <Gold.Chemscore.Internal_Hbond.Weighted>
0.0000

> <Gold.Chemscore.DEClash.Weighted>
0.2213

> <Gold.Chemscore.DEInternal.Weighted>
0.6732

> <Gold.Chemscore.Rot.Weighted>
10.3936

> <Gold.Chemscore.Internal.Correction.Weighted>
   9.000000E+99

> <Gold.Protein.RotatedTorsions>
[ 6907 6896 6895 6894 ] final    1.22 input  -60.11 | X-H torsion
[ 7974 7965 7964 7962 ] final -101.40 input  175.53 | X-H torsion
[ 8008 7997 7996 7995 ] final   88.51 input   59.86 | X-H torsion
[ 10167 10162 10161 10158 ] final  174.71 input  -65.29 | X-H torsion
[ 10718 10713 10712 10709 ] final    0.12 input   66.30 | X-H torsion
[ 10763 10752 10751 10750 ] final -168.99 input  -60.55 | X-H torsion
[ 11005 11000 10999 10996 ] final  134.00 input  -57.11 | X-H torsion

> <Gold.Protein.ActiveResidues>
 VAL166  LYS551  ARG553  GLY616  TRP617  ASP618  TYR619  PRO620  LYS621  CYS622 
 ASP623  PHE694  ASN695  SER759  ASP760  ASP761  ALA762  ILE779  LEU786  VAL792 
 PHE793  MET794  SER795  GLU796  ALA797  LYS798  CYS799  TRP800  GLU811  SER814 

> <Gold.Protein.RotatedAtoms>
  151.5890  135.1054  160.0034 H   0  0  0  0  0  0  0  0  0  0  0  0  # atno 6907 bound_to 6896
  152.4316  133.7283  159.6583 H   0  0  0  0  0  0  0  0  0  0  0  0  # atno 6908 bound_to 6896
  150.8209  133.8184  159.3162 H   0  0  0  0  0  0  0  0  0  0  0  0  # atno 6909 bound_to 6896
  145.2821  140.9329  143.2926 H   0  0  0  0  0  0  0  0  0  0  0  0  # atno 7974 bound_to 7965
  155.9887  140.3371  155.6732 H   0  0  0  0  0  0  0  0  0  0  0  0  # atno 8008 bound_to 7997
  155.6451  140.0699  157.2624 H   0  0  0  0  0  0  0  0  0  0  0  0  # atno 8009 bound_to 7997
  154.4213  140.1736  156.1602 H   0  0  0  0  0  0  0  0  0  0  0  0  # atno 8010 bound_to 7997
  139.5151  144.3115  152.0287 H   0  0  0  0  0  0  0  0  0  0  0  0  # atno 10167 bound_to 10162
  156.8287  130.5481  149.5689 H   0  0  0  0  0  0  0  0  0  0  0  0  # atno 10718 bound_to 10713
  154.6570  135.2919  154.9914 H   0  0  0  0  0  0  0  0  0  0  0  0  # atno 10763 bound_to 10752
  154.0987  135.6580  153.4868 H   0  0  0  0  0  0  0  0  0  0  0  0  # atno 10764 bound_to 10752
  153.0408  135.5237  154.7504 H   0  0  0  0  0  0  0  0  0  0  0  0  # atno 10765 bound_to 10752
  139.9887  134.9523  156.9804 H   0  0  0  0  0  0  0  0  0  0  0  0  # atno 11005 bound_to 11000
  144.9244  139.4373  143.6525 LP  0  0  0  0  0  0  0  0  0  0  0  0  # atno 17320 bound_to 7965
  146.3213  139.8122  142.8943 LP  0  0  0  0  0  0  0  0  0  0  0  0  # atno 17321 bound_to 7965
  140.2560  144.4119  150.6204 LP  0  0  0  0  0  0  0  0  0  0  0  0  # atno 17342 bound_to 10162
  140.6191  143.2175  151.6730 LP  0  0  0  0  0  0  0  0  0  0  0  0  # atno 17343 bound_to 10162
  156.0946  130.5922  150.9792 LP  0  0  0  0  0  0  0  0  0  0  0  0  # atno 17370 bound_to 10713
  157.6418  131.0909  150.8235 LP  0  0  0  0  0  0  0  0  0  0  0  0  # atno 17371 bound_to 10713
  140.4951  134.1153  155.7240 LP  0  0  0  0  0  0  0  0  0  0  0  0  # atno 17394 bound_to 11000
  141.1547  133.8905  157.2008 LP  0  0  0  0  0  0  0  0  0  0  0  0  # atno 17395 bound_to 11000

$$$$
