#       Name:                AV-unprocessed.smi:1581
#       Creating user name   scv26
#       Creation time:       Fri Mar 27 06:58:29 2020


#       File generated by GOLD software.
#

@<TRIPOS>MOLECULE
AV-unprocessed.smi:1581
    40    41     1
SMALL
NO_CHARGES


@<TRIPOS>ATOM
      1 ****        -3.9797   0.4249   2.0272 C.3            1 S1                 0.0000
      2 ****        -2.7790   1.3572   1.9109 C.2            1 S1                 0.0000
      3 ****        -2.8176   2.3238   1.1505 O.2            1 S1                 0.0000
      4 ****        -1.7149   1.0504   2.6680 N.am           1 S1                 0.0000
      5 ****        -0.4653   1.8048   2.7000 C.3            1 S1                 0.0000
      6 ****         0.4689   1.5568   1.5216 C.ar           1 S1                 0.0000
      7 ****         1.4782   2.4946   1.2287 C.ar           1 S1                 0.0000
      8 ****         2.3399   2.2398   0.1461 C.ar           1 S1                 0.0000
      9 ****         2.2483   1.1399  -0.6296 N.ar           1 S1                 0.0000
     10 ****         1.2799   0.2295  -0.3616 C.ar           1 S1                 0.0000
     11 ****         1.1859  -0.9124  -1.1854 N.3            1 S1                 0.0000
     12 ****        -0.1233  -1.1347  -1.7940 C.3            1 S1                 0.0000
     13 ****        -0.1925  -2.5383  -2.4208 C.3            1 S1                 0.0000
     14 ****         0.8840  -2.7141  -3.3361 O.3            1 S1                 0.0000
     15 ****         2.1496  -2.6029  -2.6937 C.3            1 S1                 0.0000
     16 ****         2.2993  -1.1973  -2.0882 C.3            1 S1                 0.0000
     17 ****         0.3769   0.4002   0.7144 C.ar           1 S1                 0.0000
     18 ****        -3.7251  -0.5693   1.6592 H              1 S1                 0.0000
     19 ****        -4.8207   0.8006   1.4433 H              1 S1                 0.0000
     20 ****        -4.2976   0.3389   3.0665 H              1 S1                 0.0000
     21 ****        -1.7708   0.2352   3.2610 H              1 S1                 0.0000
     22 ****        -0.6852   2.8715   2.7702 H              1 S1                 0.0000
     23 ****         0.0646   1.5401   3.6150 H              1 S1                 0.0000
     24 ****         1.5934   3.3908   1.8205 H              1 S1                 0.0000
     25 ****         3.1247   2.9382  -0.1039 H              1 S1                 0.0000
     26 ****        -0.9282  -1.0296  -1.0678 H              1 S1                 0.0000
     27 ****        -0.2873  -0.3761  -2.5604 H              1 S1                 0.0000
     28 ****        -0.1575  -3.3096  -1.6499 H              1 S1                 0.0000
     29 ****        -1.1349  -2.6644  -2.9540 H              1 S1                 0.0000
     30 ****         2.2483  -3.3709  -1.9246 H              1 S1                 0.0000
     31 ****         2.9371  -2.7823  -3.4256 H              1 S1                 0.0000
     32 ****         2.3228  -0.4500  -2.8827 H              1 S1                 0.0000
     33 ****         3.2461  -1.1328  -1.5503 H              1 S1                 0.0000
     34 ****        -0.3678  -0.3527   0.9239 H              1 S1                 0.0000
     35 ****        -3.6381   2.4997   0.6067 LP             1 S1                 0.0000
     36 ****        -2.0285   2.9335   1.0764 LP             1 S1                 0.0000
     37 ****         2.8834   0.9985  -1.3889 LP             1 S1                 0.0000
     38 ****         1.2904  -1.6244  -0.4910 LP             1 S1                 0.0000
     39 ****         0.8203  -2.0151  -4.0484 LP             1 S1                 0.0000
     40 ****         0.8106  -3.6208  -3.7513 LP             1 S1                 0.0000
@<TRIPOS>BOND
    1    1    2 1     
    2    1   18 1     
    3    1   19 1     
    4    1   20 1     
    5    2    3 2     
    6    2    4 am    
    7    4    5 1     
    8    4   21 1     
    9    5    6 1     
   10    5   22 1     
   11    5   23 1     
   12    6   17 ar    
   13    6    7 ar    
   14    7    8 ar    
   15    7   24 1     
   16    8    9 ar    
   17    8   25 1     
   18    9   10 ar    
   19   10   11 1     
   20   10   17 ar    
   21   11   16 1     
   22   11   12 1     
   23   12   13 1     
   24   12   26 1     
   25   12   27 1     
   26   13   14 1     
   27   13   28 1     
   28   13   29 1     
   29   14   15 1     
   30   15   16 1     
   31   15   30 1     
   32   15   31 1     
   33   16   32 1     
   34   16   33 1     
   35   17   34 1     
   36    3   35 1     
   37    3   36 1     
   38    9   37 1     
   39   11   38 1     
   40   14   39 1     
   41   14   40 1     
@<TRIPOS>SUBSTRUCTURE
      1 S1             1
@<TRIPOS>SET
LONE_PAIRS      STATIC     ATOMS    <user>   **** ""
6 35 36 37 38 39 40
DONOR_HYDROGENS      STATIC     ATOMS    <user>   **** ""
1 21
ATOM$BLUE        STATIC     ATOMS    COLORGROUP SYSTEM
6 35 36 37 38 39 40
ATOM$RED        STATIC     ATOMS    COLORGROUP SYSTEM
1 21
