AV-unprocessed.smi:1994|AV-procd|sdf|8073|dock2
  -GOLD-   2272010283D 1   1.00000     0.00000
 Structure written by MMmdl.
 39 41  0  0  0  0  0  0  0  0  1 V2000
  150.5083  145.6913  160.1143 C   0  0  0  0  0  0  0  0  0  0  0  0
  151.4035  144.5309  160.4132 C   0  0  0  0  0  0  0  0  0  0  0  0
  151.7779  144.2246  161.6558 N   0  0  0  0  0  0  0  0  0  0  0  0
  152.5831  143.1180  161.4657 C   0  0  0  0  0  0  0  0  0  0  0  0
  153.2879  142.3227  162.3977 C   0  0  0  0  0  0  0  0  0  0  0  0
  154.0591  141.2255  161.9610 C   0  0  0  0  0  0  0  0  0  0  0  0
  154.1366  140.9080  160.5894 C   0  0  0  0  0  0  0  0  0  0  0  0
  153.4423  141.6873  159.6441 C   0  0  0  0  0  0  0  0  0  0  0  0
  152.6740  142.7813  160.0852 C   0  0  0  0  0  0  0  0  0  0  0  0
  151.8886  143.7271  159.4345 N   0  0  0  0  0  0  0  0  0  0  0  0
  151.6591  143.8114  157.9988 C   0  0  0  0  0  0  0  0  0  0  0  0
  150.6950  142.7198  157.4914 C   0  0  1  0  0  0  0  0  0  0  0  0
  149.3532  143.1656  157.4968 O   0  0  0  0  0  0  0  0  0  0  0  0
  151.0500  142.1850  156.0942 C   0  0  0  0  0  0  0  0  0  0  0  0
  150.2655  141.0358  155.7988 O   0  0  0  0  0  0  0  0  0  0  0  0
  149.2133  141.1677  154.9178 C   0  0  0  0  0  0  0  0  0  0  0  0
  148.5977  142.4034  154.5925 C   0  0  0  0  0  0  0  0  0  0  0  0
  147.5233  142.4476  153.6824 C   0  0  0  0  0  0  0  0  0  0  0  0
  147.0520  141.2631  153.0869 C   0  0  0  0  0  0  0  0  0  0  0  0
  147.6573  140.0329  153.4025 C   0  0  0  0  0  0  0  0  0  0  0  0
  148.7312  139.9872  154.3124 C   0  0  0  0  0  0  0  0  0  0  0  0
  149.3043  138.7959  154.6085 F   0  0  0  0  0  0  0  0  0  0  0  0
  150.1511  146.1474  161.0384 H   0  0  0  0  0  0  0  0  0  0  0  0
  149.6429  145.3663  159.5369 H   0  0  0  0  0  0  0  0  0  0  0  0
  151.0501  146.4468  159.5450 H   0  0  0  0  0  0  0  0  0  0  0  0
  153.2355  142.5582  163.4503 H   0  0  0  0  0  0  0  0  0  0  0  0
  154.5940  140.6246  162.6819 H   0  0  0  0  0  0  0  0  0  0  0  0
  154.7298  140.0661  160.2635 H   0  0  0  0  0  0  0  0  0  0  0  0
  153.4990  141.4479  158.5926 H   0  0  0  0  0  0  0  0  0  0  0  0
  151.2871  144.8048  157.7483 H   0  0  0  0  0  0  0  0  0  0  0  0
  152.6228  143.7151  157.4974 H   0  0  0  0  0  0  0  0  0  0  0  0
  150.7325  141.8771  158.1827 H   0  0  0  0  0  0  0  0  0  0  0  0
  149.2728  143.8852  156.8899 H   0  0  0  0  0  0  0  0  0  0  0  0
  150.8321  142.9620  155.3599 H   0  0  0  0  0  0  0  0  0  0  0  0
  152.1159  141.9592  156.0324 H   0  0  0  0  0  0  0  0  0  0  0  0
  148.9301  143.3331  155.0283 H   0  0  0  0  0  0  0  0  0  0  0  0
  147.0600  143.3931  153.4418 H   0  0  0  0  0  0  0  0  0  0  0  0
  146.2278  141.2980  152.3898 H   0  0  0  0  0  0  0  0  0  0  0  0
  147.2971  139.1220  152.9471 H   0  0  0  0  0  0  0  0  0  0  0  0
  1  2  1  0  0  0  0
  1 23  1  0  0  0  0
  1 24  1  0  0  0  0
  1 25  1  0  0  0  0
  2 10  1  0  0  0  0
  2  3  2  0  0  0  0
  3  4  1  0  0  0  0
  4  9  2  0  0  0  0
  4  5  1  0  0  0  0
  5  6  2  0  0  0  0
  5 26  1  0  0  0  0
  6  7  1  0  0  0  0
  6 27  1  0  0  0  0
  7  8  2  0  0  0  0
  7 28  1  0  0  0  0
  8  9  1  0  0  0  0
  8 29  1  0  0  0  0
  9 10  1  0  0  0  0
 10 11  1  0  0  0  0
 11 12  1  0  0  0  0
 11 30  1  0  0  0  0
 11 31  1  0  0  0  0
 12 13  1  0  0  0  0
 12 14  1  0  0  0  0
 12 32  1  0  0  0  0
 13 33  1  0  0  0  0
 14 15  1  0  0  0  0
 14 34  1  0  0  0  0
 14 35  1  0  0  0  0
 15 16  1  0  0  0  0
 16 21  1  0  0  0  0
 16 17  2  0  0  0  0
 17 18  1  0  0  0  0
 17 36  1  0  0  0  0
 18 19  2  0  0  0  0
 18 37  1  0  0  0  0
 19 20  1  0  0  0  0
 19 38  1  0  0  0  0
 20 21  2  0  0  0  0
 20 39  1  0  0  0  0
 21 22  1  0  0  0  0
M  END
> <s_m_source_file>
AV-unprocessed.smi

> <i_m_source_file_index>
1994

> <i_lp_mmshare_version>
43012

> <i_f3d_flags>
0

> <s_epik_input>
W2NIXTFbY0hdW2NIXVtjSF1jKGMxMiluKGMobjIpW0NIM10pW0NIMl1bQ0BIXShbT0hdKVtDSDJdT2MzW2NIXVtjSF1bY0hdW2NIXWMzRg==

> <s_epik_cmdline>
J2VwaWtfcHl0aG9uJywgJy1waCcsICc3LjAnLCAnLXRuJywgJzgnLCAnLW1hJywgJzIwMCcsICctbWV0YWxfYmluZGluZycsICctaW1hZScsICc8aW5maWxlLm1hZT4nLCAnLW9tYWUnLCAnPG91dGZpbGUubWFlPic=

> <r_lp_tautomer_probability>
1

> <r_epik_Ionization_Penalty>
0.112614

> <r_epik_Ionization_Penalty_Charging>
0

> <r_epik_Ionization_Penalty_Neutral>
0.112614

> <r_epik_State_Penalty>
0.10231

> <r_epik_Charging_Adjusted_Penalty>
0.10231

> <i_epik_Tot_Q>
0

> <i_epik_Tot_abs_Q>
0

> <r_epik_Metal_State_Penalty>
0.000111664

> <b_epik_Metal_Only>
0

> <s_lp_Force_Field>
OPLS_2005

> <r_lp_Energy>
17.3721

> <b_lp_Chiralities_Consistent>
1

> <s_lp_Variant>
AV-unprocessed.smi:1994-2

> <Gold.Version>
5.8.1

> <Gold.Id.Protein>
6NUR|6NUR_protein|mol2

> <Gold.PLP.Fitness>
54.8218

> <Gold.PLP.PLP>
-54.2495

> <Gold.PLP.part.hbond>
-1.0000

> <Gold.PLP.part.metal>
0.0000

> <Gold.PLP.part.buried>
-4.7269

> <Gold.PLP.part.nonpolar>
-47.7442

> <Gold.PLP.part.repulsive>
0.1954

> <Gold.PLP.ligand.clash>
0.0000

> <Gold.PLP.ligand.torsion>
1.2522

> <Gold.PLP.Chemscore.Hbond>
1.0000

> <Gold.PLP.Chemscore.CHOScore>
0.0000

> <Gold.PLP.Chemscore.Metal>
0.0000

> <Gold.Chemscore.Hbonds>
donor molecule, donor type, donor heavy atom, donor atom, acceptor molecule, acceptor atom, score
      L1  H    13    33       P1  8028  0.98

> <Gold.PLP.Chemscore.Internal.Correction>
0.0766

> <Gold.Rescore>
     Score         DG    S(hbond)    S(metal)    S(lipo)     H(rot)  DE(clash)    DE(int)     intcor
     17.31     -18.59       0.92        0.00     133.75       2.19       0.39       0.90       ----

> <Gold.Chemscore.Fitness>
17.3105

> <Gold.Chemscore.DG>
-18.5911

> <Gold.Chemscore.ZeroCoef>
-5.4800

> <Gold.Chemscore.Hbond>
0.9178

> <Gold.Chemscore.Metal>
0.0000

> <Gold.Chemscore.Lipo>
133.7474

> <Gold.Chemscore.Internal_Hbond>
0.0000

> <Gold.Chemscore.DEClash>
0.3852

> <Gold.Chemscore.DEInternal>
0.8954

> <Gold.Chemscore.Rot>
2.1886

> <Gold.Chemscore.Internal.Correction>
   9.000000E+99

> <Gold.Chemscore.Hbonds>
donor molecule, donor type, donor heavy atom, donor atom, acceptor molecule, acceptor atom, score
      L1  H    13    33       P1  8028  0.64

> <Gold.Chemscore.Hbond.Weighted>
-3.0655

> <Gold.Chemscore.Metal.Weighted>
-0.0000

> <Gold.Chemscore.Lipo.Weighted>
-15.6484

> <Gold.Chemscore.Internal_Hbond.Weighted>
0.0000

> <Gold.Chemscore.DEClash.Weighted>
0.3852

> <Gold.Chemscore.DEInternal.Weighted>
0.8954

> <Gold.Chemscore.Rot.Weighted>
5.6028

> <Gold.Chemscore.Internal.Correction.Weighted>
   9.000000E+99

> <Gold.Protein.RotatedTorsions>
[ 6907 6896 6895 6894 ] final  -30.22 input  -60.11 | X-H torsion
[ 7974 7965 7964 7962 ] final -119.53 input  175.53 | X-H torsion
[ 8008 7997 7996 7995 ] final -167.47 input   59.86 | X-H torsion
[ 10167 10162 10161 10158 ] final  -54.56 input  -65.29 | X-H torsion
[ 10718 10713 10712 10709 ] final  -21.52 input   66.30 | X-H torsion
[ 10763 10752 10751 10750 ] final  -73.06 input  -60.55 | X-H torsion
[ 11005 11000 10999 10996 ] final -129.04 input  -57.11 | X-H torsion

> <Gold.Protein.ActiveResidues>
 VAL166  LYS551  ARG553  GLY616  TRP617  ASP618  TYR619  PRO620  LYS621  CYS622 
 ASP623  PHE694  ASN695  SER759  ASP760  ASP761  ALA762  ILE779  LEU786  VAL792 
 PHE793  MET794  SER795  GLU796  ALA797  LYS798  CYS799  TRP800  GLU811  SER814 

> <Gold.Protein.RotatedAtoms>
  151.1086  135.0013  159.8482 H   0  0  0  0  0  0  0  0  0  0  0  0  # atno 6907 bound_to 6896
  152.5442  134.1864  159.8666 H   0  0  0  0  0  0  0  0  0  0  0  0  # atno 6908 bound_to 6896
  151.1912  133.4621  159.2628 H   0  0  0  0  0  0  0  0  0  0  0  0  # atno 6909 bound_to 6896
  145.0615  140.8293  143.4150 H   0  0  0  0  0  0  0  0  0  0  0  0  # atno 7974 bound_to 7965
  155.8781  140.1004  157.1504 H   0  0  0  0  0  0  0  0  0  0  0  0  # atno 8008 bound_to 7997
  154.4002  140.1334  156.4225 H   0  0  0  0  0  0  0  0  0  0  0  0  # atno 8009 bound_to 7997
  155.7674  140.3461  155.5231 H   0  0  0  0  0  0  0  0  0  0  0  0  # atno 8010 bound_to 7997
  140.6423  143.2515  151.4954 H   0  0  0  0  0  0  0  0  0  0  0  0  # atno 10167 bound_to 10162
  156.5170  130.4623  149.6617 H   0  0  0  0  0  0  0  0  0  0  0  0  # atno 10718 bound_to 10713
  154.4543  135.5909  153.6213 H   0  0  0  0  0  0  0  0  0  0  0  0  # atno 10763 bound_to 10752
  152.9816  135.6028  154.3565 H   0  0  0  0  0  0  0  0  0  0  0  0  # atno 10764 bound_to 10752
  154.3430  135.2841  155.2391 H   0  0  0  0  0  0  0  0  0  0  0  0  # atno 10765 bound_to 10752
  140.9465  134.1123  157.4102 H   0  0  0  0  0  0  0  0  0  0  0  0  # atno 11005 bound_to 11000
  145.1403  139.2576  143.5493 LP  0  0  0  0  0  0  0  0  0  0  0  0  # atno 17320 bound_to 7965
  146.3524  140.1079  142.8605 LP  0  0  0  0  0  0  0  0  0  0  0  0  # atno 17321 bound_to 7965
  139.5633  144.2103  152.1725 LP  0  0  0  0  0  0  0  0  0  0  0  0  # atno 17342 bound_to 10162
  140.1378  144.5230  150.6763 LP  0  0  0  0  0  0  0  0  0  0  0  0  # atno 17343 bound_to 10162
  156.3186  130.7268  151.2175 LP  0  0  0  0  0  0  0  0  0  0  0  0  # atno 17370 bound_to 10713
  157.7442  131.0462  150.4881 LP  0  0  0  0  0  0  0  0  0  0  0  0  # atno 17371 bound_to 10713
  139.8835  135.0053  156.6304 LP  0  0  0  0  0  0  0  0  0  0  0  0  # atno 17394 bound_to 11000
  140.7662  133.8776  155.8456 LP  0  0  0  0  0  0  0  0  0  0  0  0  # atno 17395 bound_to 11000

$$$$
