AV-unprocessed.smi:1582|AV-procd|sdf|6362|dock3
  -GOLD-   22720 6583D 1   1.00000     0.00000
 Structure written by MMmdl.
 41 42  0  0  0  0  0  0  0  0  2 V2000
  151.4241  134.6505  155.4904 O   0  0  0  0  0  0  0  0  0  0  0  0
  150.7366  134.9592  154.5176 C   0  0  0  0  0  0  0  0  0  0  0  0
  149.8961  134.1122  153.9069 N   0  0  0  0  0  0  0  0  0  0  0  0
  149.6385  132.7364  154.3218 C   0  0  0  0  0  0  0  0  0  0  0  0
  149.5548  131.7507  153.1372 C   0  0  1  0  0  0  0  0  0  0  0  0
  150.4449  130.6855  153.4038 O   0  0  0  0  0  0  0  0  0  0  0  0
  148.1401  131.1703  152.9221 C   0  0  0  0  0  0  0  0  0  0  0  0
  147.3727  131.9102  151.8871 N   0  3  0  0  0  0  0  0  0  0  0  0
  146.0665  131.2669  151.5888 C   0  0  0  0  0  0  0  0  0  0  0  0
  145.3562  131.9641  150.4162 C   0  0  0  0  0  0  0  0  0  0  0  0
  145.1753  133.4619  150.6936 C   0  0  0  0  0  0  0  0  0  0  0  0
  146.5297  134.0984  151.0311 C   0  0  0  0  0  0  0  0  0  0  0  0
  147.2126  133.3578  152.1935 C   0  0  0  0  0  0  0  0  0  0  0  0
  150.7247  136.1664  153.9300 N   0  0  0  0  0  0  0  0  0  0  0  0
  151.4639  137.3137  154.3122 C   0  0  0  0  0  0  0  0  0  0  0  0
  151.1333  138.6926  154.1608 C   0  0  0  0  0  0  0  0  0  0  0  0
  152.0897  139.4711  154.6471 N   0  0  0  0  0  0  0  0  0  0  0  0
  153.0234  138.6070  155.1051 N   0  0  0  0  0  0  0  0  0  0  0  0
  152.6826  137.2851  154.9218 C   0  0  0  0  0  0  0  0  0  0  0  0
  153.8779  138.9320  155.5352 H   0  0  0  0  0  0  0  0  0  0  0  0
  149.3693  134.4550  153.1167 H   0  0  0  0  0  0  0  0  0  0  0  0
  150.4152  132.4225  155.0216 H   0  0  0  0  0  0  0  0  0  0  0  0
  148.7015  132.7291  154.8801 H   0  0  0  0  0  0  0  0  0  0  0  0
  149.9039  132.2533  152.2362 H   0  0  0  0  0  0  0  0  0  0  0  0
  150.8987  130.4608  152.6056 H   0  0  0  0  0  0  0  0  0  0  0  0
  148.2392  130.1227  152.6336 H   0  0  0  0  0  0  0  0  0  0  0  0
  147.5684  131.1738  153.8511 H   0  0  0  0  0  0  0  0  0  0  0  0
  146.2216  130.2173  151.3358 H   0  0  0  0  0  0  0  0  0  0  0  0
  145.4367  131.2894  152.4799 H   0  0  0  0  0  0  0  0  0  0  0  0
  145.9373  131.8279  149.5032 H   0  0  0  0  0  0  0  0  0  0  0  0
  144.3863  131.4988  150.2379 H   0  0  0  0  0  0  0  0  0  0  0  0
  144.7309  133.9554  149.8287 H   0  0  0  0  0  0  0  0  0  0  0  0
  144.4830  133.6033  151.5248 H   0  0  0  0  0  0  0  0  0  0  0  0
  147.1755  134.0750  150.1521 H   0  0  0  0  0  0  0  0  0  0  0  0
  146.3937  135.1497  151.2868 H   0  0  0  0  0  0  0  0  0  0  0  0
  146.6271  133.4756  153.1067 H   0  0  0  0  0  0  0  0  0  0  0  0
  148.1817  133.8184  152.3817 H   0  0  0  0  0  0  0  0  0  0  0  0
  150.1092  136.2834  153.1384 H   0  0  0  0  0  0  0  0  0  0  0  0
  150.2576  139.1528  153.7279 H   0  0  0  0  0  0  0  0  0  0  0  0
  153.3184  136.4685  155.2309 H   0  0  0  0  0  0  0  0  0  0  0  0
  147.9163  131.8475  151.0375 H   0  0  0  0  0  0  0  0  0  0  0  0
  1  2  2  0  0  0  0
  2  3  1  0  0  0  0
  2 14  1  0  0  0  0
  3  4  1  0  0  0  0
  3 21  1  0  0  0  0
  4  5  1  0  0  0  0
  4 22  1  0  0  0  0
  4 23  1  0  0  0  0
  5  6  1  0  0  0  0
  5  7  1  0  0  0  0
  5 24  1  0  0  0  0
  6 25  1  0  0  0  0
  7  8  1  0  0  0  0
  7 26  1  0  0  0  0
  7 27  1  0  0  0  0
  8 13  1  0  0  0  0
  8  9  1  0  0  0  0
  8 41  1  0  0  0  0
  9 10  1  0  0  0  0
  9 28  1  0  0  0  0
  9 29  1  0  0  0  0
 10 11  1  0  0  0  0
 10 30  1  0  0  0  0
 10 31  1  0  0  0  0
 11 12  1  0  0  0  0
 11 32  1  0  0  0  0
 11 33  1  0  0  0  0
 12 13  1  0  0  0  0
 12 34  1  0  0  0  0
 12 35  1  0  0  0  0
 13 36  1  0  0  0  0
 13 37  1  0  0  0  0
 14 15  1  0  0  0  0
 14 38  1  0  0  0  0
 15 19  2  0  0  0  0
 15 16  1  0  0  0  0
 16 17  2  0  0  0  0
 16 39  1  0  0  0  0
 17 18  1  0  0  0  0
 18 20  1  0  0  0  0
 18 19  1  0  0  0  0
 19 40  1  0  0  0  0
M  CHG  1   8   1
M  END
> <s_m_source_file>
AV-unprocessed.smi

> <i_m_source_file_index>
1582

> <i_lp_mmshare_version>
43012

> <i_f3d_flags>
0

> <s_epik_input>
W2NIXTFbbkhdbltjSF1jMVtOSF1DKD1PKVtOSF1bQ0gyXVtDQEhdKFtPSF0pW0NIMl1OMltDSDJdW0NIMl1bQ0gyXVtDSDJdW0NIMl0y

> <s_epik_cmdline>
J2VwaWtfcHl0aG9uJywgJy1waCcsICc3LjAnLCAnLXRuJywgJzgnLCAnLW1hJywgJzIwMCcsICctbWV0YWxfYmluZGluZycsICctaW1hZScsICc8aW5maWxlLm1hZT4nLCAnLW9tYWUnLCAnPG91dGZpbGUubWFlPic=

> <r_lp_tautomer_probability>
0.5

> <r_epik_Ionization_Penalty>
0.00519658

> <r_epik_Ionization_Penalty_Charging>
0.00515354

> <r_epik_Ionization_Penalty_Neutral>
4.30332e-05

> <r_epik_State_Penalty>
0.00375424

> <r_epik_Charging_Adjusted_Penalty>
0.00890779

> <i_epik_Tot_Q>
1

> <i_epik_Tot_abs_Q>
1

> <r_epik_Metal_State_Penalty>
-0

> <b_epik_Metal_Only>
0

> <s_lp_Force_Field>
OPLS_2005

> <r_lp_Energy>
21.3928

> <b_lp_Chiralities_Consistent>
1

> <s_lp_Variant>
AV-unprocessed.smi:1582-2

> <Gold.Version>
5.8.1

> <Gold.Id.Protein>
6NUR|6NUR_protein|mol2

> <Gold.PLP.Fitness>
44.4079

> <Gold.PLP.PLP>
-33.7009

> <Gold.PLP.part.hbond>
-5.0000

> <Gold.PLP.part.metal>
0.0000

> <Gold.PLP.part.buried>
-4.9864

> <Gold.PLP.part.nonpolar>
-23.7366

> <Gold.PLP.part.repulsive>
0.3764

> <Gold.PLP.ligand.clash>
0.0000

> <Gold.PLP.ligand.torsion>
1.5310

> <Gold.PLP.Chemscore.Hbond>
3.5629

> <Gold.PLP.Chemscore.CHOScore>
1.0000

> <Gold.PLP.Chemscore.Metal>
0.0000

> <Gold.Chemscore.Hbonds>
donor molecule, donor type, donor heavy atom, donor atom, acceptor molecule, acceptor atom, score
      L1  H     3    21       P1  7948  0.09
      L1  H     8    41       P1 10747  0.83
      L1  H    14    38       P1  7948  0.25
      P1  H  7989  7998       L1    17  0.56
      P1  H 10752 10763       L1     1  0.44
      L1  C    16    39       P1  7957  0.37

> <Gold.PLP.Chemscore.Internal.Correction>
0.0803

> <Gold.Rescore>
     Score         DG    S(hbond)    S(metal)    S(lipo)     H(rot)  DE(clash)    DE(int)     intcor
     13.60     -16.52       2.54        0.00      78.51       2.59       0.05       2.87       ----

> <Gold.Chemscore.Fitness>
13.6012

> <Gold.Chemscore.DG>
-16.5231

> <Gold.Chemscore.ZeroCoef>
-5.4800

> <Gold.Chemscore.Hbond>
2.5394

> <Gold.Chemscore.Metal>
0.0000

> <Gold.Chemscore.Lipo>
78.5110

> <Gold.Chemscore.Internal_Hbond>
0.0000

> <Gold.Chemscore.DEClash>
0.0494

> <Gold.Chemscore.DEInternal>
2.8725

> <Gold.Chemscore.Rot>
2.5876

> <Gold.Chemscore.Internal.Correction>
   9.000000E+99

> <Gold.Chemscore.Hbonds>
donor molecule, donor type, donor heavy atom, donor atom, acceptor molecule, acceptor atom, score
      L1  H     8    41       P1 10747  0.81
      P1  H  7989  7998       L1    17  0.05
      P1  H 10752 10763       L1     1  0.04

> <Gold.Chemscore.Hbond.Weighted>
-8.4815

> <Gold.Chemscore.Metal.Weighted>
-0.0000

> <Gold.Chemscore.Lipo.Weighted>
-9.1858

> <Gold.Chemscore.Internal_Hbond.Weighted>
0.0000

> <Gold.Chemscore.DEClash.Weighted>
0.0494

> <Gold.Chemscore.DEInternal.Weighted>
2.8725

> <Gold.Chemscore.Rot.Weighted>
6.6242

> <Gold.Chemscore.Internal.Correction.Weighted>
   9.000000E+99

> <Gold.Protein.RotatedTorsions>
[ 6907 6896 6895 6894 ] final  132.35 input  -60.11 | X-H torsion
[ 7974 7965 7964 7962 ] final   51.49 input  175.53 | X-H torsion
[ 8008 7997 7996 7995 ] final  136.96 input   59.86 | X-H torsion
[ 10167 10162 10161 10158 ] final    9.74 input  -65.29 | X-H torsion
[ 10718 10713 10712 10709 ] final    5.51 input   66.30 | X-H torsion
[ 10763 10752 10751 10750 ] final   71.10 input  -60.55 | X-H torsion
[ 11005 11000 10999 10996 ] final -149.64 input  -57.11 | X-H torsion

> <Gold.Protein.ActiveResidues>
 VAL166  LYS551  ARG553  GLY616  TRP617  ASP618  TYR619  PRO620  LYS621  CYS622 
 ASP623  PHE694  ASN695  SER759  ASP760  ASP761  ALA762  ILE779  LEU786  VAL792 
 PHE793  MET794  SER795  GLU796  ALA797  LYS798  CYS799  TRP800  GLU811  SER814 

> <Gold.Protein.RotatedAtoms>
  152.3333  133.5983  159.5824 H   0  0  0  0  0  0  0  0  0  0  0  0  # atno 6907 bound_to 6896
  150.7436  133.9834  159.3592 H   0  0  0  0  0  0  0  0  0  0  0  0  # atno 6908 bound_to 6896
  151.7707  135.0788  160.0410 H   0  0  0  0  0  0  0  0  0  0  0  0  # atno 6909 bound_to 6896
  145.9908  139.4337  143.0074 H   0  0  0  0  0  0  0  0  0  0  0  0  # atno 7974 bound_to 7965
  156.3003  140.2432  156.3831 H   0  0  0  0  0  0  0  0  0  0  0  0  # atno 8008 bound_to 7997
  154.8683  140.0417  157.1728 H   0  0  0  0  0  0  0  0  0  0  0  0  # atno 8009 bound_to 7997
  154.8823  140.2951  155.5422 H   0  0  0  0  0  0  0  0  0  0  0  0  # atno 8010 bound_to 7997
  140.6236  143.8149  150.7206 H   0  0  0  0  0  0  0  0  0  0  0  0  # atno 10167 bound_to 10162
  156.9085  130.5747  149.5647 H   0  0  0  0  0  0  0  0  0  0  0  0  # atno 10718 bound_to 10713
  153.0379  135.5149  154.7541 H   0  0  0  0  0  0  0  0  0  0  0  0  # atno 10763 bound_to 10752
  154.6503  135.2924  154.9998 H   0  0  0  0  0  0  0  0  0  0  0  0  # atno 10764 bound_to 10752
  154.0884  135.6654  153.4901 H   0  0  0  0  0  0  0  0  0  0  0  0  # atno 10765 bound_to 10752
  140.7486  134.3432  157.5131 H   0  0  0  0  0  0  0  0  0  0  0  0  # atno 11005 bound_to 11000
  145.7632  140.9926  143.1188 LP  0  0  0  0  0  0  0  0  0  0  0  0  # atno 17320 bound_to 7965
  144.6888  139.9356  143.7473 LP  0  0  0  0  0  0  0  0  0  0  0  0  # atno 17321 bound_to 7965
  140.1745  143.4166  152.1977 LP  0  0  0  0  0  0  0  0  0  0  0  0  # atno 17342 bound_to 10162
  139.5460  144.7299  151.4581 LP  0  0  0  0  0  0  0  0  0  0  0  0  # atno 17343 bound_to 10162
  156.0547  130.5611  150.9066 LP  0  0  0  0  0  0  0  0  0  0  0  0  # atno 17370 bound_to 10713
  157.5982  131.0942  150.9005 LP  0  0  0  0  0  0  0  0  0  0  0  0  # atno 17371 bound_to 10713
  139.8792  134.9127  156.3067 LP  0  0  0  0  0  0  0  0  0  0  0  0  # atno 17394 bound_to 11000
  140.9771  133.7290  156.0618 LP  0  0  0  0  0  0  0  0  0  0  0  0  # atno 17395 bound_to 11000

$$$$
