#       Name:                AV-unprocessed.smi:2192
#       Creating user name   scv26
#       Creation time:       Fri Mar 27 12:10:29 2020


#       File generated by GOLD software.
#

@<TRIPOS>MOLECULE
AV-unprocessed.smi:2192
    51    53     1
SMALL
NO_CHARGES


@<TRIPOS>ATOM
      1 ****        -1.2647   2.5424   3.4676 C.3            1 S1                 0.0000
      2 ****        -1.3961   2.7403   2.0119 N.am           1 S1                 0.0000
      3 ****        -1.0224   1.7151   1.1830 C.2            1 S1                 0.0000
      4 ****        -0.5824   0.6274   1.5576 O.2            1 S1                 0.0000
      5 ****        -1.1881   2.0159  -0.2416 C.2            1 S1                 0.0000
      6 ****        -1.6700   3.1974  -0.6960 C.2            1 S1                 0.0000
      7 ****        -1.7265   3.2210  -2.0850 N.2            1 S1                 0.0000
      8 ****        -1.2600   2.0123  -2.4023 C.2            1 S1                 0.0000
      9 ****        -0.9118   1.2312  -1.3590 N.pl3          1 S1                 0.0000
     10 ****        -0.3762  -0.1192  -1.4287 C.3            1 S1                 0.0000
     11 ****         1.1528  -0.1614  -1.2336 C.3            1 S1                 0.0000
     12 ****         1.7875   0.5946  -2.2465 O.3            1 S1                 0.0000
     13 ****         1.7078  -1.5922  -1.2718 C.3            1 S1                 0.0000
     14 ****         1.2234  -2.3009  -0.1387 O.3            1 S1                 0.0000
     15 ****         1.5813  -3.6236   0.0077 C.ar           1 S1                 0.0000
     16 ****         1.0567  -4.3075   1.1241 C.ar           1 S1                 0.0000
     17 ****         1.3683  -5.6618   1.3522 C.ar           1 S1                 0.0000
     18 ****         2.2142  -6.3481   0.4617 C.ar           1 S1                 0.0000
     19 ****         2.5160  -7.6500   0.6792 F              1 S1                 0.0000
     20 ****         2.7463  -5.6778  -0.6556 C.ar           1 S1                 0.0000
     21 ****         2.4331  -4.3236  -0.8844 C.ar           1 S1                 0.0000
     22 ****        -2.0299   4.1918   0.2469 N.am           1 S1                 0.0000
     23 ****        -2.5482   5.4574  -0.2811 C.3            1 S1                 0.0000
     24 ****        -1.8929   3.9645   1.5955 C.2            1 S1                 0.0000
     25 ****        -2.2055   4.8324   2.4151 O.2            1 S1                 0.0000
     26 ****        -0.8766   1.5680   3.7662 H              1 S1                 0.0000
     27 ****        -2.2345   2.6512   3.9560 H              1 S1                 0.0000
     28 ****        -0.5896   3.2873   3.8922 H              1 S1                 0.0000
     29 ****        -1.1640   1.6861  -3.4277 H              1 S1                 0.0000
     30 ****        -0.8794  -0.7290  -0.6778 H              1 S1                 0.0000
     31 ****        -0.6440  -0.5491  -2.3951 H              1 S1                 0.0000
     32 ****         1.4169   0.2914  -0.2775 H              1 S1                 0.0000
     33 ****         1.4944   1.4907  -2.1811 H              1 S1                 0.0000
     34 ****         1.4068  -2.0866  -2.1971 H              1 S1                 0.0000
     35 ****         2.7984  -1.5633  -1.2415 H              1 S1                 0.0000
     36 ****         0.4069  -3.7876   1.8128 H              1 S1                 0.0000
     37 ****         0.9581  -6.1731   2.2106 H              1 S1                 0.0000
     38 ****         3.3966  -6.2028  -1.3395 H              1 S1                 0.0000
     39 ****         2.8606  -3.8443  -1.7519 H              1 S1                 0.0000
     40 ****        -2.7971   6.1963   0.4811 H              1 S1                 0.0000
     41 ****        -3.4523   5.2742  -0.8626 H              1 S1                 0.0000
     42 ****        -1.8120   5.9134  -0.9441 H              1 S1                 0.0000
     43 ****        -0.4753   0.4409   2.5342 LP             1 S1                 0.0000
     44 ****        -0.3323  -0.0692   0.8851 LP             1 S1                 0.0000
     45 ****        -2.0367   3.9545  -2.6898 LP             1 S1                 0.0000
     46 ****         1.5460   0.2256  -3.1440 LP             1 S1                 0.0000
     47 ****         2.7793   0.5546  -2.1256 LP             1 S1                 0.0000
     48 ****         0.2245  -2.2667  -0.1731 LP             1 S1                 0.0000
     49 ****         1.5457  -1.8155   0.6739 LP             1 S1                 0.0000
     50 ****        -2.1015   4.6564   3.3939 LP             1 S1                 0.0000
     51 ****        -2.5629   5.7117   2.1004 LP             1 S1                 0.0000
@<TRIPOS>BOND
    1    1    2 1     
    2    1   26 1     
    3    1   27 1     
    4    1   28 1     
    5    2   24 am    
    6    2    3 am    
    7    3    4 2     
    8    3    5 1     
    9    5    9 1     
   10    5    6 2     
   11    6    7 1     
   12    6   22 1     
   13    7    8 2     
   14    8    9 1     
   15    8   29 1     
   16    9   10 1     
   17   10   11 1     
   18   10   30 1     
   19   10   31 1     
   20   11   12 1     
   21   11   13 1     
   22   11   32 1     
   23   12   33 1     
   24   13   14 1     
   25   13   34 1     
   26   13   35 1     
   27   14   15 1     
   28   15   21 ar    
   29   15   16 ar    
   30   16   17 ar    
   31   16   36 1     
   32   17   18 ar    
   33   17   37 1     
   34   18   19 1     
   35   18   20 ar    
   36   20   21 ar    
   37   20   38 1     
   38   21   39 1     
   39   22   23 1     
   40   22   24 am    
   41   23   40 1     
   42   23   41 1     
   43   23   42 1     
   44   24   25 2     
   45    4   43 1     
   46    4   44 1     
   47    7   45 1     
   48   12   46 1     
   49   12   47 1     
   50   14   48 1     
   51   14   49 1     
   52   25   50 1     
   53   25   51 1     
@<TRIPOS>SUBSTRUCTURE
      1 S1             1
@<TRIPOS>SET
LONE_PAIRS      STATIC     ATOMS    <user>   **** ""
9 43 44 45 46 47 48 49 50 51
DONOR_HYDROGENS      STATIC     ATOMS    <user>   **** ""
1 33
ATOM$BLUE        STATIC     ATOMS    COLORGROUP SYSTEM
9 43 44 45 46 47 48 49 50 51
ATOM$RED        STATIC     ATOMS    COLORGROUP SYSTEM
1 33
