AV-unprocessed.smi:3173|AV-procd|sdf|12118|dock4
  -GOLD-   2272017553D 1   1.00000     0.00000
 Structure written by MMmdl.
 35 36  0  0  0  0  0  0  0  0  1 V2000
  153.8003  140.1939  158.7152 O   0  0  0  0  0  0  0  0  0  0  0  0
  152.6364  140.5161  158.4754 C   0  0  0  0  0  0  0  0  0  0  0  0
  151.9543  141.6281  159.2803 C   0  0  0  0  0  0  0  0  0  0  0  0
  152.9359  142.4867  160.1057 C   0  0  1  0  0  0  0  0  0  0  0  0
  152.2315  143.5672  160.8852 C   0  0  0  0  0  0  0  0  0  0  0  0
  152.5676  143.5764  162.1731 C   0  0  0  0  0  0  0  0  0  0  0  0
  153.5630  142.5032  162.5155 C   0  0  0  0  0  0  0  0  0  0  0  0
  153.7124  141.7063  161.2007 C   0  0  0  0  0  0  0  0  0  0  0  0
  151.8979  139.9406  157.5142 N   0  0  0  0  0  0  0  0  0  0  0  0
  152.3538  138.8688  156.6367 C   0  0  0  0  0  0  0  0  0  0  0  0
  152.1033  139.2022  155.1565 C   0  0  0  0  0  0  0  0  0  0  0  0
  150.7008  139.7272  154.9153 C   0  0  0  0  0  0  0  0  0  0  0  0
  149.7218  138.9137  154.3056 C   0  0  0  0  0  0  0  0  0  0  0  0
  148.4333  139.4474  154.1094 C   0  0  0  0  0  0  0  0  0  0  0  0
  148.1742  140.7663  154.5293 C   0  0  0  0  0  0  0  0  0  0  0  0
  149.2197  141.4960  155.1299 C   0  0  0  0  0  0  0  0  0  0  0  0
  150.4588  140.9940  155.3222 N   0  0  0  0  0  0  0  0  0  0  0  0
  151.4132  142.2629  158.5777 H   0  0  0  0  0  0  0  0  0  0  0  0
  151.2039  141.1908  159.9412 H   0  0  0  0  0  0  0  0  0  0  0  0
  153.6411  142.9871  159.4401 H   0  0  0  0  0  0  0  0  0  0  0  0
  151.5443  144.2580  160.4191 H   0  0  0  0  0  0  0  0  0  0  0  0
  152.1949  144.2732  162.9095 H   0  0  0  0  0  0  0  0  0  0  0  0
  154.5055  142.9579  162.8214 H   0  0  0  0  0  0  0  0  0  0  0  0
  153.1950  141.8784  163.3298 H   0  0  0  0  0  0  0  0  0  0  0  0
  153.2916  140.7092  161.3367 H   0  0  0  0  0  0  0  0  0  0  0  0
  154.7602  141.5751  160.9281 H   0  0  0  0  0  0  0  0  0  0  0  0
  150.9517  140.2676  157.3822 H   0  0  0  0  0  0  0  0  0  0  0  0
  153.4126  138.6677  156.8094 H   0  0  0  0  0  0  0  0  0  0  0  0
  151.8176  137.9594  156.9091 H   0  0  0  0  0  0  0  0  0  0  0  0
  152.8232  139.9470  154.8138 H   0  0  0  0  0  0  0  0  0  0  0  0
  152.2617  138.3174  154.5384 H   0  0  0  0  0  0  0  0  0  0  0  0
  149.9506  137.9044  153.9960 H   0  0  0  0  0  0  0  0  0  0  0  0
  147.6579  138.8555  153.6458 H   0  0  0  0  0  0  0  0  0  0  0  0
  147.1980  141.2079  154.3953 H   0  0  0  0  0  0  0  0  0  0  0  0
  149.0560  142.5095  155.4655 H   0  0  0  0  0  0  0  0  0  0  0  0
  1  2  2  0  0  0  0
  2  3  1  0  0  0  0
  2  9  1  0  0  0  0
  3  4  1  0  0  0  0
  3 18  1  0  0  0  0
  3 19  1  0  0  0  0
  4  8  1  0  0  0  0
  4  5  1  0  0  0  0
  4 20  1  0  0  0  0
  5  6  2  0  0  0  0
  5 21  1  0  0  0  0
  6  7  1  0  0  0  0
  6 22  1  0  0  0  0
  7  8  1  0  0  0  0
  7 23  1  0  0  0  0
  7 24  1  0  0  0  0
  8 25  1  0  0  0  0
  8 26  1  0  0  0  0
  9 10  1  0  0  0  0
  9 27  1  0  0  0  0
 10 11  1  0  0  0  0
 10 28  1  0  0  0  0
 10 29  1  0  0  0  0
 11 12  1  0  0  0  0
 11 30  1  0  0  0  0
 11 31  1  0  0  0  0
 12 17  1  0  0  0  0
 12 13  2  0  0  0  0
 13 14  1  0  0  0  0
 13 32  1  0  0  0  0
 14 15  2  0  0  0  0
 14 33  1  0  0  0  0
 15 16  1  0  0  0  0
 15 34  1  0  0  0  0
 16 17  2  0  0  0  0
 16 35  1  0  0  0  0
M  END
> <s_m_source_file>
AV-unprocessed.smi

> <i_m_source_file_index>
3173

> <i_lp_mmshare_version>
43012

> <i_f3d_flags>
0

> <s_epik_input>
W0NIMl0xW0NIMl1bQ0hdPVtDSF1bQ0BIXTFbQ0gyXUMoPU8pW05IXVtDSDJdW0NIMl1jMltjSF1bY0hdW2NIXVtjSF1uMg==

> <s_epik_cmdline>
J2VwaWtfcHl0aG9uJywgJy1waCcsICc3LjAnLCAnLXRuJywgJzgnLCAnLW1hJywgJzIwMCcsICctbWV0YWxfYmluZGluZycsICctaW1hZScsICc8aW5maWxlLm1hZT4nLCAnLW9tYWUnLCAnPG91dGZpbGUubWFlPic=

> <r_epik_Ionization_Penalty>
0.0258754

> <r_epik_Ionization_Penalty_Charging>
0

> <r_epik_Ionization_Penalty_Neutral>
0.0258754

> <r_epik_State_Penalty>
0.0210899

> <r_epik_Charging_Adjusted_Penalty>
0.0210899

> <i_epik_Tot_Q>
0

> <i_epik_Tot_abs_Q>
0

> <r_epik_Metal_State_Penalty>
0.0202045

> <b_epik_Metal_Only>
0

> <s_lp_Force_Field>
OPLS_2005

> <r_lp_Energy>
13.8907

> <b_lp_Chiralities_Consistent>
1

> <s_lp_Variant>
AV-unprocessed.smi:3173-2

> <Gold.Version>
5.8.1

> <Gold.Id.Protein>
6NUR|6NUR_protein|mol2

> <Gold.PLP.Fitness>
48.4432

> <Gold.PLP.PLP>
-43.2836

> <Gold.PLP.part.hbond>
-2.0000

> <Gold.PLP.part.metal>
0.0000

> <Gold.PLP.part.buried>
-2.2967

> <Gold.PLP.part.nonpolar>
-37.8808

> <Gold.PLP.part.repulsive>
0.1423

> <Gold.PLP.ligand.clash>
0.0000

> <Gold.PLP.ligand.torsion>
0.4358

> <Gold.PLP.Chemscore.Hbond>
1.0000

> <Gold.PLP.Chemscore.CHOScore>
1.0000

> <Gold.PLP.Chemscore.Metal>
0.0000

> <Gold.Chemscore.Hbonds>
donor molecule, donor type, donor heavy atom, donor atom, acceptor molecule, acceptor atom, score
      P1  H  7997  8008       L1     1  0.91
      L1  C    16    35       P1  8028  1.00

> <Gold.PLP.Chemscore.Internal.Correction>
0.0313

> <Gold.Rescore>
     Score         DG    S(hbond)    S(metal)    S(lipo)     H(rot)  DE(clash)    DE(int)     intcor
     16.12     -17.92       0.85        0.00     114.85       1.50       0.13       1.67       ----

> <Gold.Chemscore.Fitness>
16.1178

> <Gold.Chemscore.DG>
-17.9210

> <Gold.Chemscore.ZeroCoef>
-5.4800

> <Gold.Chemscore.Hbond>
0.8541

> <Gold.Chemscore.Metal>
0.0000

> <Gold.Chemscore.Lipo>
114.8504

> <Gold.Chemscore.Internal_Hbond>
0.0000

> <Gold.Chemscore.DEClash>
0.1308

> <Gold.Chemscore.DEInternal>
1.6724

> <Gold.Chemscore.Rot>
1.5037

> <Gold.Chemscore.Internal.Correction>
   9.000000E+99

> <Gold.Chemscore.Hbonds>
donor molecule, donor type, donor heavy atom, donor atom, acceptor molecule, acceptor atom, score
      P1  H  7997  8008       L1     1  0.81

> <Gold.Chemscore.Hbond.Weighted>
-2.8528

> <Gold.Chemscore.Metal.Weighted>
-0.0000

> <Gold.Chemscore.Lipo.Weighted>
-13.4375

> <Gold.Chemscore.Internal_Hbond.Weighted>
0.0000

> <Gold.Chemscore.DEClash.Weighted>
0.1308

> <Gold.Chemscore.DEInternal.Weighted>
1.6724

> <Gold.Chemscore.Rot.Weighted>
3.8494

> <Gold.Chemscore.Internal.Correction.Weighted>
   9.000000E+99

> <Gold.Protein.RotatedTorsions>
[ 6907 6896 6895 6894 ] final  -21.30 input  -60.11 | X-H torsion
[ 7974 7965 7964 7962 ] final   35.68 input  175.53 | X-H torsion
[ 8008 7997 7996 7995 ] final -106.80 input   59.86 | X-H torsion
[ 10167 10162 10161 10158 ] final -140.32 input  -65.29 | X-H torsion
[ 10718 10713 10712 10709 ] final -161.22 input   66.30 | X-H torsion
[ 10763 10752 10751 10750 ] final  150.96 input  -60.55 | X-H torsion
[ 11005 11000 10999 10996 ] final  -18.93 input  -57.11 | X-H torsion

> <Gold.Protein.ActiveResidues>
 VAL166  LYS551  ARG553  GLY616  TRP617  ASP618  TYR619  PRO620  LYS621  CYS622 
 ASP623  PHE694  ASN695  SER759  ASP760  ASP761  ALA762  ILE779  LEU786  VAL792 
 PHE793  MET794  SER795  GLU796  ALA797  LYS798  CYS799  TRP800  GLU811  SER814 

> <Gold.Protein.RotatedAtoms>
  151.2354  135.0569  159.9003 H   0  0  0  0  0  0  0  0  0  0  0  0  # atno 6907 bound_to 6896
  152.5400  134.0492  159.8112 H   0  0  0  0  0  0  0  0  0  0  0  0  # atno 6908 bound_to 6896
  151.0678  133.5442  159.2661 H   0  0  0  0  0  0  0  0  0  0  0  0  # atno 6909 bound_to 6896
  146.1266  139.6112  142.9255 H   0  0  0  0  0  0  0  0  0  0  0  0  # atno 7974 bound_to 7965
  154.9199  140.0407  157.1992 H   0  0  0  0  0  0  0  0  0  0  0  0  # atno 8008 bound_to 7997
  154.8264  140.2892  155.5730 H   0  0  0  0  0  0  0  0  0  0  0  0  # atno 8009 bound_to 7997
  156.2984  140.2509  156.3181 H   0  0  0  0  0  0  0  0  0  0  0  0  # atno 8010 bound_to 7997
  139.8293  143.7469  152.2666 H   0  0  0  0  0  0  0  0  0  0  0  0  # atno 10167 bound_to 10162
  156.5931  130.8779  151.2895 H   0  0  0  0  0  0  0  0  0  0  0  0  # atno 10718 bound_to 10713
  154.0960  135.2849  155.3261 H   0  0  0  0  0  0  0  0  0  0  0  0  # atno 10763 bound_to 10752
  154.6588  135.5342  153.7995 H   0  0  0  0  0  0  0  0  0  0  0  0  # atno 10764 bound_to 10752
  153.0396  135.6528  154.1126 H   0  0  0  0  0  0  0  0  0  0  0  0  # atno 10765 bound_to 10752
  140.8317  133.7992  155.9765 H   0  0  0  0  0  0  0  0  0  0  0  0  # atno 11005 bound_to 11000
  145.5352  141.0424  143.2361 LP  0  0  0  0  0  0  0  0  0  0  0  0  # atno 17320 bound_to 7965
  144.7648  139.6871  143.7219 LP  0  0  0  0  0  0  0  0  0  0  0  0  # atno 17321 bound_to 7965
  139.7671  144.7488  151.0278 LP  0  0  0  0  0  0  0  0  0  0  0  0  # atno 17342 bound_to 10162
  140.7808  143.4686  151.0178 LP  0  0  0  0  0  0  0  0  0  0  0  0  # atno 17343 bound_to 10162
  157.7298  130.9677  150.1806 LP  0  0  0  0  0  0  0  0  0  0  0  0  # atno 17370 bound_to 10713
  156.2533  130.3703  149.8209 LP  0  0  0  0  0  0  0  0  0  0  0  0  # atno 17371 bound_to 10713
  140.8991  134.2400  157.5052 LP  0  0  0  0  0  0  0  0  0  0  0  0  # atno 17394 bound_to 11000
  139.8705  134.9698  156.4679 LP  0  0  0  0  0  0  0  0  0  0  0  0  # atno 17395 bound_to 11000

$$$$
