AV-unprocessed.smi:3143|AV-procd|sdf|11977|dock7
  -GOLD-   2272017373D 1   1.00000     0.00000
 Structure written by MMmdl.
 37 38  0  0  0  0  0  0  0  0  1 V2000
  151.0775  141.7366  157.1056 C   0  0  0  0  0  0  0  0  0  0  0  0
  151.2325  140.3581  157.7660 C   0  0  1  0  0  0  0  0  0  0  0  0
  151.1355  139.3042  156.7388 N   0  0  0  0  0  0  0  0  0  0  0  0
  149.7938  139.1538  156.1858 C   0  0  0  0  0  0  0  0  0  0  0  0
  149.7881  139.6338  154.7274 C   0  0  0  0  0  0  0  0  0  0  0  0
  148.5618  140.3353  154.4009 N   0  0  0  0  0  0  0  0  0  0  0  0
  148.1955  141.6224  154.7344 C   0  0  0  0  0  0  0  0  0  0  0  0
  146.9536  141.8399  154.2102 C   0  0  0  0  0  0  0  0  0  0  0  0
  146.6392  140.6110  153.5650 C   0  0  0  0  0  0  0  0  0  0  0  0
  147.6040  139.7127  153.6805 N   0  0  0  0  0  0  0  0  0  0  0  0
  152.5504  140.3106  158.5727 C   0  0  0  0  0  0  0  0  0  0  0  0
  153.3909  139.4573  158.2829 O   0  0  0  0  0  0  0  0  0  0  0  0
  152.7538  141.1963  159.5726 N   0  0  0  0  0  0  0  0  0  0  0  0
  153.9575  141.1989  160.4031 C   0  0  0  0  0  0  0  0  0  0  0  0
  153.6721  142.1701  161.5482 C   0  0  0  0  0  0  0  0  0  0  0  0
  152.6401  143.1278  160.9713 C   0  0  0  0  0  0  0  0  0  0  0  0
  151.8510  142.2733  159.9790 C   0  0  0  0  0  0  0  0  0  0  0  0
  151.1053  142.5369  157.8463 H   0  0  0  0  0  0  0  0  0  0  0  0
  150.1255  141.8141  156.5796 H   0  0  0  0  0  0  0  0  0  0  0  0
  151.8714  141.9264  156.3818 H   0  0  0  0  0  0  0  0  0  0  0  0
  150.3801  140.2225  158.4301 H   0  0  0  0  0  0  0  0  0  0  0  0
  151.7890  139.4652  155.9861 H   0  0  0  0  0  0  0  0  0  0  0  0
  149.4673  138.1142  156.2300 H   0  0  0  0  0  0  0  0  0  0  0  0
  149.0880  139.7435  156.7727 H   0  0  0  0  0  0  0  0  0  0  0  0
  150.6286  140.3043  154.5419 H   0  0  0  0  0  0  0  0  0  0  0  0
  149.8987  138.7898  154.0444 H   0  0  0  0  0  0  0  0  0  0  0  0
  148.8412  142.2685  155.3108 H   0  0  0  0  0  0  0  0  0  0  0  0
  146.3602  142.7395  154.2772 H   0  0  0  0  0  0  0  0  0  0  0  0
  145.7454  140.3470  153.0191 H   0  0  0  0  0  0  0  0  0  0  0  0
  154.1998  140.2038  160.7797 H   0  0  0  0  0  0  0  0  0  0  0  0
  154.7998  141.5493  159.8048 H   0  0  0  0  0  0  0  0  0  0  0  0
  153.2365  141.6272  162.3881 H   0  0  0  0  0  0  0  0  0  0  0  0
  154.5684  142.6773  161.9064 H   0  0  0  0  0  0  0  0  0  0  0  0
  152.0085  143.5810  161.7359 H   0  0  0  0  0  0  0  0  0  0  0  0
  153.1482  143.9324  160.4381 H   0  0  0  0  0  0  0  0  0  0  0  0
  151.5149  142.8721  159.1312 H   0  0  0  0  0  0  0  0  0  0  0  0
  150.9749  141.8402  160.4642 H   0  0  0  0  0  0  0  0  0  0  0  0
  1  2  1  0  0  0  0
  1 18  1  0  0  0  0
  1 19  1  0  0  0  0
  1 20  1  0  0  0  0
  2  3  1  0  0  0  0
  2 11  1  0  0  0  0
  2 21  1  0  0  0  0
  3  4  1  0  0  0  0
  3 22  1  0  0  0  0
  4  5  1  0  0  0  0
  4 23  1  0  0  0  0
  4 24  1  0  0  0  0
  5  6  1  0  0  0  0
  5 25  1  0  0  0  0
  5 26  1  0  0  0  0
  6 10  1  0  0  0  0
  6  7  1  0  0  0  0
  7  8  2  0  0  0  0
  7 27  1  0  0  0  0
  8  9  1  0  0  0  0
  8 28  1  0  0  0  0
  9 10  2  0  0  0  0
  9 29  1  0  0  0  0
 11 12  2  0  0  0  0
 11 13  1  0  0  0  0
 13 17  1  0  0  0  0
 13 14  1  0  0  0  0
 14 15  1  0  0  0  0
 14 30  1  0  0  0  0
 14 31  1  0  0  0  0
 15 16  1  0  0  0  0
 15 32  1  0  0  0  0
 15 33  1  0  0  0  0
 16 17  1  0  0  0  0
 16 34  1  0  0  0  0
 16 35  1  0  0  0  0
 17 36  1  0  0  0  0
 17 37  1  0  0  0  0
M  END
> <s_m_source_file>
AV-unprocessed.smi

> <i_m_source_file_index>
3143

> <i_lp_mmshare_version>
43012

> <i_f3d_flags>
0

> <s_epik_input>
W0NIMl0xW0NIMl1bQ0gyXVtDSDJdTjFDKD1PKVtDQEhdKFtDSDNdKVtOSF1bQ0gyXVtDSDJdbjJbY0hdW2NIXVtjSF1uMg==

> <s_epik_cmdline>
J2VwaWtfcHl0aG9uJywgJy1waCcsICc3LjAnLCAnLXRuJywgJzgnLCAnLW1hJywgJzIwMCcsICctbWV0YWxfYmluZGluZycsICctaW1hZScsICc8aW5maWxlLm1hZT4nLCAnLW9tYWUnLCAnPG91dGZpbGUubWFlPic=

> <r_lp_tautomer_probability>
1

> <r_epik_Ionization_Penalty>
0.733724

> <r_epik_Ionization_Penalty_Charging>
0

> <r_epik_Ionization_Penalty_Neutral>
0.733724

> <r_epik_State_Penalty>
0.75825

> <r_epik_Charging_Adjusted_Penalty>
0.75825

> <i_epik_Tot_Q>
0

> <i_epik_Tot_abs_Q>
0

> <r_epik_Metal_State_Penalty>
0.757598

> <b_epik_Metal_Only>
0

> <s_lp_Force_Field>
OPLS_2005

> <r_lp_Energy>
31.5048

> <b_lp_Chiralities_Consistent>
1

> <s_lp_Variant>
AV-unprocessed.smi:3143-4

> <Gold.Version>
5.8.1

> <Gold.Id.Protein>
6NUR|6NUR_protein|mol2

> <Gold.PLP.Fitness>
42.7954

> <Gold.PLP.PLP>
-35.5965

> <Gold.PLP.part.hbond>
-1.0000

> <Gold.PLP.part.metal>
0.0000

> <Gold.PLP.part.buried>
-4.1832

> <Gold.PLP.part.nonpolar>
-31.5847

> <Gold.PLP.part.repulsive>
1.2063

> <Gold.PLP.ligand.clash>
0.0000

> <Gold.PLP.ligand.torsion>
0.9122

> <Gold.PLP.Chemscore.Hbond>
1.0000

> <Gold.PLP.Chemscore.CHOScore>
1.9951

> <Gold.PLP.Chemscore.Metal>
0.0000

> <Gold.Chemscore.Hbonds>
donor molecule, donor type, donor heavy atom, donor atom, acceptor molecule, acceptor atom, score
      P1  H  7997  8008       L1    12  1.00
      L1  C     7    27       P1  8028  1.00
      L1  C     9    29       P1 10175  1.00

> <Gold.PLP.Chemscore.Internal.Correction>
0.0380

> <Gold.Rescore>
     Score         DG    S(hbond)    S(metal)    S(lipo)     H(rot)  DE(clash)    DE(int)     intcor
     13.21     -14.12       0.98        0.00      84.54       1.77       0.01       0.89       ----

> <Gold.Chemscore.Fitness>
13.2126

> <Gold.Chemscore.DG>
-14.1180

> <Gold.Chemscore.ZeroCoef>
-5.4800

> <Gold.Chemscore.Hbond>
0.9836

> <Gold.Chemscore.Metal>
0.0000

> <Gold.Chemscore.Lipo>
84.5361

> <Gold.Chemscore.Internal_Hbond>
0.0000

> <Gold.Chemscore.DEClash>
0.0112

> <Gold.Chemscore.DEInternal>
0.8941

> <Gold.Chemscore.Rot>
1.7726

> <Gold.Chemscore.Internal.Correction>
   9.000000E+99

> <Gold.Chemscore.Hbonds>
donor molecule, donor type, donor heavy atom, donor atom, acceptor molecule, acceptor atom, score
      P1  H  7997  8008       L1    12  0.92

> <Gold.Chemscore.Hbond.Weighted>
-3.2851

> <Gold.Chemscore.Metal.Weighted>
-0.0000

> <Gold.Chemscore.Lipo.Weighted>
-9.8907

> <Gold.Chemscore.Internal_Hbond.Weighted>
0.0000

> <Gold.Chemscore.DEClash.Weighted>
0.0112

> <Gold.Chemscore.DEInternal.Weighted>
0.8941

> <Gold.Chemscore.Rot.Weighted>
4.5378

> <Gold.Chemscore.Internal.Correction.Weighted>
   9.000000E+99

> <Gold.Protein.RotatedTorsions>
[ 6907 6896 6895 6894 ] final   48.23 input  -60.11 | X-H torsion
[ 7974 7965 7964 7962 ] final -108.78 input  175.53 | X-H torsion
[ 8008 7997 7996 7995 ] final -101.92 input   59.86 | X-H torsion
[ 10167 10162 10161 10158 ] final  152.41 input  -65.29 | X-H torsion
[ 10718 10713 10712 10709 ] final  -46.37 input   66.30 | X-H torsion
[ 10763 10752 10751 10750 ] final -159.51 input  -60.55 | X-H torsion
[ 11005 11000 10999 10996 ] final  122.09 input  -57.11 | X-H torsion

> <Gold.Protein.ActiveResidues>
 VAL166  LYS551  ARG553  GLY616  TRP617  ASP618  TYR619  PRO620  LYS621  CYS622 
 ASP623  PHE694  ASN695  SER759  ASP760  ASP761  ALA762  ILE779  LEU786  VAL792 
 PHE793  MET794  SER795  GLU796  ALA797  LYS798  CYS799  TRP800  GLU811  SER814 

> <Gold.Protein.RotatedAtoms>
  152.2772  134.7869  160.0403 H   0  0  0  0  0  0  0  0  0  0  0  0  # atno 6907 bound_to 6896
  151.8461  133.3426  159.3666 H   0  0  0  0  0  0  0  0  0  0  0  0  # atno 6908 bound_to 6896
  150.7175  134.5273  159.5727 H   0  0  0  0  0  0  0  0  0  0  0  0  # atno 6909 bound_to 6896
  145.1886  140.9004  143.3438 H   0  0  0  0  0  0  0  0  0  0  0  0  # atno 7974 bound_to 7965
  154.8494  140.0431  157.1594 H   0  0  0  0  0  0  0  0  0  0  0  0  # atno 8008 bound_to 7997
  154.8959  140.2993  155.5324 H   0  0  0  0  0  0  0  0  0  0  0  0  # atno 8009 bound_to 7997
  156.2995  140.2385  156.3981 H   0  0  0  0  0  0  0  0  0  0  0  0  # atno 8010 bound_to 7997
  139.4833  144.5360  151.7644 H   0  0  0  0  0  0  0  0  0  0  0  0  # atno 10167 bound_to 10162
  156.2189  130.4165  149.9018 H   0  0  0  0  0  0  0  0  0  0  0  0  # atno 10718 bound_to 10713
  154.7468  135.3082  154.8629 H   0  0  0  0  0  0  0  0  0  0  0  0  # atno 10763 bound_to 10752
  153.9428  135.6773  153.4748 H   0  0  0  0  0  0  0  0  0  0  0  0  # atno 10764 bound_to 10752
  153.1065  135.4887  154.8886 H   0  0  0  0  0  0  0  0  0  0  0  0  # atno 10765 bound_to 10752
  139.9253  134.9640  156.8056 H   0  0  0  0  0  0  0  0  0  0  0  0  # atno 11005 bound_to 11000
  145.0064  139.3551  143.6142 LP  0  0  0  0  0  0  0  0  0  0  0  0  # atno 17320 bound_to 7965
  146.3440  139.9308  142.8754 LP  0  0  0  0  0  0  0  0  0  0  0  0  # atno 17321 bound_to 7965
  140.4892  144.1335  150.5947 LP  0  0  0  0  0  0  0  0  0  0  0  0  # atno 17342 bound_to 10162
  140.4190  143.2620  151.9739 LP  0  0  0  0  0  0  0  0  0  0  0  0  # atno 17343 bound_to 10162
  156.6671  130.8805  151.3556 LP  0  0  0  0  0  0  0  0  0  0  0  0  # atno 17370 bound_to 10713
  157.7077  130.9404  150.0986 LP  0  0  0  0  0  0  0  0  0  0  0  0  # atno 17371 bound_to 10713
  140.6354  133.9867  155.7681 LP  0  0  0  0  0  0  0  0  0  0  0  0  # atno 17394 bound_to 11000
  141.0806  134.0068  157.3391 LP  0  0  0  0  0  0  0  0  0  0  0  0  # atno 17395 bound_to 11000

$$$$
