AV-unprocessed.smi:102|AV-procd|sdf|971|dock1
  -GOLD-   2262017523D 1   1.00000     0.00000
 Structure written by MMmdl.
 43 44  0  0  0  0  0  0  0  0  2 V2000
  145.1498  135.5402  151.1047 C   0  0  0  0  0  0  0  0  0  0  0  0
  145.4623  134.4887  152.1615 C   0  0  0  0  0  0  0  0  0  0  0  0
  145.3372  133.2860  151.9292 O   0  0  0  0  0  0  0  0  0  0  0  0
  145.8691  135.0306  153.3190 O   0  0  0  0  0  0  0  0  0  0  0  0
  146.6038  134.2420  154.2404 C   0  0  0  0  0  0  0  0  0  0  0  0
  146.9818  135.0958  155.4584 C   0  0  2  0  0  0  0  0  0  0  0  0
  147.6532  136.2835  155.0692 O   0  0  0  0  0  0  0  0  0  0  0  0
  148.3100  136.7907  156.1861 C   0  0  2  0  0  0  0  0  0  0  0  0
  149.5518  137.5102  155.7061 N   0  0  0  0  0  0  0  0  0  0  0  0
  149.7893  138.8175  156.0979 C   0  0  0  0  0  0  0  0  0  0  0  0
  150.9218  139.4619  155.7521 C   0  0  0  0  0  0  0  0  0  0  0  0
  151.1174  140.7315  156.1480 F   0  0  0  0  0  0  0  0  0  0  0  0
  151.9368  138.7650  154.9659 C   0  0  0  0  0  0  0  0  0  0  0  0
  152.9542  139.3660  154.6242 O   0  0  0  0  0  0  0  0  0  0  0  0
  151.7088  137.4577  154.6497 N   0  5  0  0  0  0  0  0  0  0  0  0
  150.5704  136.7964  155.0133 C   0  0  0  0  0  0  0  0  0  0  0  0
  150.3855  135.6057  154.7626 O   0  0  0  0  0  0  0  0  0  0  0  0
  148.6190  135.6160  157.1366 C   0  0  1  0  0  0  0  0  0  0  0  0
  148.0135  135.8153  158.4072 O   0  0  0  0  0  0  0  0  0  0  0  0
  148.7619  136.1982  159.4566 C   0  0  0  0  0  0  0  0  0  0  0  0
  147.9796  136.1845  160.7630 C   0  0  0  0  0  0  0  0  0  0  0  0
  149.9456  136.5346  159.4192 O   0  0  0  0  0  0  0  0  0  0  0  0
  147.9604  134.4321  156.4347 C   0  0  2  0  0  0  0  0  0  0  0  0
  148.9366  133.6595  155.7431 O   0  0  0  0  0  0  0  0  0  0  0  0
  149.8909  133.0009  156.4233 C   0  0  0  0  0  0  0  0  0  0  0  0
  150.8916  132.3176  155.5012 C   0  0  0  0  0  0  0  0  0  0  0  0
  149.9925  132.9331  157.6482 O   0  0  0  0  0  0  0  0  0  0  0  0
  145.9604  136.2664  151.0395 H   0  0  0  0  0  0  0  0  0  0  0  0
  144.2298  136.0678  151.3571 H   0  0  0  0  0  0  0  0  0  0  0  0
  145.0245  135.0749  150.1268 H   0  0  0  0  0  0  0  0  0  0  0  0
  145.9818  133.4036  154.5570 H   0  0  0  0  0  0  0  0  0  0  0  0
  147.4972  133.8298  153.7689 H   0  0  0  0  0  0  0  0  0  0  0  0
  146.0820  135.3749  156.0099 H   0  0  0  0  0  0  0  0  0  0  0  0
  147.6693  137.5243  156.6761 H   0  0  0  0  0  0  0  0  0  0  0  0
  149.0656  139.3396  156.7045 H   0  0  0  0  0  0  0  0  0  0  0  0
  149.6909  135.4575  157.2565 H   0  0  0  0  0  0  0  0  0  0  0  0
  147.5820  135.1881  160.9561 H   0  0  0  0  0  0  0  0  0  0  0  0
  147.1480  136.8873  160.7128 H   0  0  0  0  0  0  0  0  0  0  0  0
  148.6222  136.4680  161.5968 H   0  0  0  0  0  0  0  0  0  0  0  0
  147.4184  133.7916  157.1327 H   0  0  0  0  0  0  0  0  0  0  0  0
  150.3882  131.5790  154.8774 H   0  0  0  0  0  0  0  0  0  0  0  0
  151.6649  131.8124  156.0805 H   0  0  0  0  0  0  0  0  0  0  0  0
  151.3698  133.0520  154.8526 H   0  0  0  0  0  0  0  0  0  0  0  0
  1  2  1  0  0  0  0
  1 28  1  0  0  0  0
  1 29  1  0  0  0  0
  1 30  1  0  0  0  0
  2  3  2  0  0  0  0
  2  4  1  0  0  0  0
  4  5  1  0  0  0  0
  5  6  1  0  0  0  0
  5 31  1  0  0  0  0
  5 32  1  0  0  0  0
  6 23  1  0  0  0  0
  6  7  1  0  0  0  0
  6 33  1  0  0  0  0
  7  8  1  0  0  0  0
  8  9  1  0  0  0  0
  8 18  1  0  0  0  0
  8 34  1  0  0  0  0
  9 16  1  0  0  0  0
  9 10  1  0  0  0  0
 10 11  2  0  0  0  0
 10 35  1  0  0  0  0
 11 12  1  0  0  0  0
 11 13  1  0  0  0  0
 13 14  2  0  0  0  0
 13 15  1  0  0  0  0
 15 16  1  0  0  0  0
 16 17  2  0  0  0  0
 18 19  1  0  0  0  0
 18 23  1  0  0  0  0
 18 36  1  0  0  0  0
 19 20  1  0  0  0  0
 20 21  1  0  0  0  0
 20 22  2  0  0  0  0
 21 37  1  0  0  0  0
 21 38  1  0  0  0  0
 21 39  1  0  0  0  0
 23 24  1  0  0  0  0
 23 40  1  0  0  0  0
 24 25  1  0  0  0  0
 25 26  1  0  0  0  0
 25 27  2  0  0  0  0
 26 41  1  0  0  0  0
 26 42  1  0  0  0  0
 26 43  1  0  0  0  0
M  CHG  1  15  -1
M  END
> <s_m_source_file>
AV-unprocessed.smi

> <i_m_source_file_index>
102

> <i_lp_mmshare_version>
43012

> <i_f3d_flags>
0

> <s_epik_input>
W0NIM11DKD1PKU9bQ0gyXVtDQEBIXTFPW0NASF0oW0NAQEhdKE9DKD1PKVtDSDNdKVtDQEhdMU9DKD1PKVtDSDNdKW4yW2NIXWMoRiljKD1PKVtuSF1jMj1P

> <s_epik_cmdline>
J2VwaWtfcHl0aG9uJywgJy1waCcsICc3LjAnLCAnLXRuJywgJzgnLCAnLW1hJywgJzIwMCcsICctbWV0YWxfYmluZGluZycsICctaW1hZScsICc8aW5maWxlLm1hZT4nLCAnLW9tYWUnLCAnPG91dGZpbGUubWFlPic=

> <r_epik_Ionization_Penalty>
1.40304

> <r_epik_Ionization_Penalty_Charging>
1.43915e-08

> <r_epik_Ionization_Penalty_Neutral>
1.40304

> <r_epik_State_Penalty>
1.48536

> <r_epik_Charging_Adjusted_Penalty>
1.48536

> <i_epik_Tot_Q>
-1

> <i_epik_Tot_abs_Q>
1

> <r_epik_Metal_State_Penalty>
0.00663881

> <b_epik_Metal_Only>
0

> <s_epik_Chemistry_Notes>
This compound has an ester and may undergo hydrolysis at high or low pH. This compound contains an acetal/aminal-like group ( X-CH(R)-Y where X, Y are N, S, or O) that may be acid/base labile, releasing an aldehyde.

> <s_lp_Force_Field>
OPLS_2005

> <r_lp_Energy>
22.9576

> <b_lp_Chiralities_Consistent>
1

> <s_lp_Variant>
AV-unprocessed.smi:102-27

> <Gold.Version>
5.8.1

> <Gold.Id.Protein>
6NUR|6NUR_protein|mol2

> <Gold.PLP.Fitness>
42.5678

> <Gold.PLP.PLP>
-31.0754

> <Gold.PLP.part.hbond>
-4.8593

> <Gold.PLP.part.metal>
0.0000

> <Gold.PLP.part.buried>
-7.1903

> <Gold.PLP.part.nonpolar>
-21.2719

> <Gold.PLP.part.repulsive>
0.6463

> <Gold.PLP.ligand.clash>
0.0000

> <Gold.PLP.ligand.torsion>
1.0208

> <Gold.PLP.Chemscore.Hbond>
4.4080

> <Gold.PLP.Chemscore.CHOScore>
0.0000

> <Gold.PLP.Chemscore.Metal>
0.0000

> <Gold.Chemscore.Hbonds>
donor molecule, donor type, donor heavy atom, donor atom, acceptor molecule, acceptor atom, score
      P1  H  6896  6908       L1    27  1.00
      P1  H  6896  6909       L1    22  1.00
      P1  H  7989  7998       L1    14  0.09
      P1  H  7997  8008       L1    14  0.73
      P1  H 10752 10765       L1    15  0.94

> <Gold.PLP.Chemscore.Internal.Correction>
0.3101

> <Gold.Rescore>
     Score         DG    S(hbond)    S(metal)    S(lipo)     H(rot)  DE(clash)    DE(int)     intcor
      4.33      -9.01       2.90        0.00      34.70       4.00       0.04       4.64       ----

> <Gold.Chemscore.Fitness>
4.3280

> <Gold.Chemscore.DG>
-9.0079

> <Gold.Chemscore.ZeroCoef>
-5.4800

> <Gold.Chemscore.Hbond>
2.9030

> <Gold.Chemscore.Metal>
0.0000

> <Gold.Chemscore.Lipo>
34.6957

> <Gold.Chemscore.Internal_Hbond>
0.0000

> <Gold.Chemscore.DEClash>
0.0389

> <Gold.Chemscore.DEInternal>
4.6410

> <Gold.Chemscore.Rot>
3.9951

> <Gold.Chemscore.Internal.Correction>
   9.000000E+99

> <Gold.Chemscore.Hbonds>
donor molecule, donor type, donor heavy atom, donor atom, acceptor molecule, acceptor atom, score
      P1  H  6896  6908       L1    27  0.89
      P1  H  6896  6909       L1    22  0.70
      P1  H  7997  8008       L1    14  0.73
      P1  H 10752 10765       L1    15  0.07

> <Gold.Chemscore.Hbond.Weighted>
-9.6959

> <Gold.Chemscore.Metal.Weighted>
-0.0000

> <Gold.Chemscore.Lipo.Weighted>
-4.0594

> <Gold.Chemscore.Internal_Hbond.Weighted>
0.0000

> <Gold.Chemscore.DEClash.Weighted>
0.0389

> <Gold.Chemscore.DEInternal.Weighted>
4.6410

> <Gold.Chemscore.Rot.Weighted>
10.2274

> <Gold.Chemscore.Internal.Correction.Weighted>
   9.000000E+99

> <Gold.Protein.RotatedTorsions>
[ 6907 6896 6895 6894 ] final   86.63 input  -60.11 | X-H torsion
[ 7974 7965 7964 7962 ] final  139.17 input  175.53 | X-H torsion
[ 8008 7997 7996 7995 ] final   -1.47 input   59.86 | X-H torsion
[ 10167 10162 10161 10158 ] final  137.61 input  -65.29 | X-H torsion
[ 10718 10713 10712 10709 ] final   45.25 input   66.30 | X-H torsion
[ 10763 10752 10751 10750 ] final  168.79 input  -60.55 | X-H torsion
[ 11005 11000 10999 10996 ] final   18.29 input  -57.11 | X-H torsion

> <Gold.Protein.ActiveResidues>
 VAL166  LYS551  ARG553  GLY616  TRP617  ASP618  TYR619  PRO620  LYS621  CYS622 
 ASP623  PHE694  ASN695  SER759  ASP760  ASP761  ALA762  ILE779  LEU786  VAL792 
 PHE793  MET794  SER795  GLU796  ALA797  LYS798  CYS799  TRP800  GLU811  SER814 

> <Gold.Protein.RotatedAtoms>
  152.5397  134.2402  159.8858 H   0  0  0  0  0  0  0  0  0  0  0  0  # atno 6907 bound_to 6896
  151.2370  133.4413  159.2613 H   0  0  0  0  0  0  0  0  0  0  0  0  # atno 6908 bound_to 6896
  151.0662  134.9783  159.8342 H   0  0  0  0  0  0  0  0  0  0  0  0  # atno 6909 bound_to 6896
  144.9304  139.5055  143.5620 H   0  0  0  0  0  0  0  0  0  0  0  0  # atno 7974 bound_to 7965
  154.6464  140.2558  155.7263 H   0  0  0  0  0  0  0  0  0  0  0  0  # atno 8008 bound_to 7997
  156.2554  140.2877  156.0800 H   0  0  0  0  0  0  0  0  0  0  0  0  # atno 8009 bound_to 7997
  155.1517  140.0382  157.2813 H   0  0  0  0  0  0  0  0  0  0  0  0  # atno 8010 bound_to 7997
  139.5138  144.6400  151.5595 H   0  0  0  0  0  0  0  0  0  0  0  0  # atno 10167 bound_to 10162
  157.4355  130.8050  149.7644 H   0  0  0  0  0  0  0  0  0  0  0  0  # atno 10718 bound_to 10713
  154.3737  135.2753  155.2251 H   0  0  0  0  0  0  0  0  0  0  0  0  # atno 10763 bound_to 10752
  154.4388  135.5959  153.6119 H   0  0  0  0  0  0  0  0  0  0  0  0  # atno 10764 bound_to 10752
  152.9837  135.6013  154.3971 H   0  0  0  0  0  0  0  0  0  0  0  0  # atno 10765 bound_to 10752
  140.4264  134.1465  155.7677 H   0  0  0  0  0  0  0  0  0  0  0  0  # atno 11005 bound_to 11000
  146.3244  139.8250  142.8919 LP  0  0  0  0  0  0  0  0  0  0  0  0  # atno 17320 bound_to 7965
  145.3151  141.0230  143.3532 LP  0  0  0  0  0  0  0  0  0  0  0  0  # atno 17321 bound_to 7965
  140.6163  143.9342  150.6491 LP  0  0  0  0  0  0  0  0  0  0  0  0  # atno 17342 bound_to 10162
  140.2601  143.3530  152.1330 LP  0  0  0  0  0  0  0  0  0  0  0  0  # atno 17343 bound_to 10162
  155.9929  130.3928  150.2923 LP  0  0  0  0  0  0  0  0  0  0  0  0  # atno 17370 bound_to 10713
  157.1084  131.0214  151.3058 LP  0  0  0  0  0  0  0  0  0  0  0  0  # atno 17371 bound_to 10713
  141.1763  133.8507  157.1409 LP  0  0  0  0  0  0  0  0  0  0  0  0  # atno 17394 bound_to 11000
  140.0164  134.9965  157.0502 LP  0  0  0  0  0  0  0  0  0  0  0  0  # atno 17395 bound_to 11000

$$$$
