AV-unprocessed.smi:1493|AV-procd|sdf|6051|dock8
  -GOLD-   22720 6163D 1   1.00000     0.00000
 Structure written by MMmdl.
 34 34  0  0  0  0  0  0  0  0  1 V2000
  151.8537  145.2231  160.2750 C   0  0  0  0  0  0  0  0  0  0  0  0
  151.6481  144.1725  159.1785 C   0  0  0  0  0  0  0  0  0  0  0  0
  152.9382  143.3997  158.8523 C   0  0  0  0  0  0  0  0  0  0  0  0
  153.1512  142.1530  159.7322 C   0  0  1  0  0  0  0  0  0  0  0  0
  152.8733  142.4465  161.2132 C   0  0  0  0  0  0  0  0  0  0  0  0
  152.2855  141.0634  159.2850 N   0  0  0  0  0  0  0  0  0  0  0  0
  152.6908  139.9025  158.7474 C   0  0  0  0  0  0  0  0  0  0  0  0
  153.8744  139.6202  158.5550 O   0  0  0  0  0  0  0  0  0  0  0  0
  151.5734  138.9261  158.3508 C   0  0  0  0  0  0  0  0  0  0  0  0
  151.2295  138.9758  156.9225 N   0  0  0  0  0  0  0  0  0  0  0  0
  151.4907  137.7998  156.2357 N   0  0  0  0  0  0  0  0  0  0  0  0
  151.2201  137.7148  154.9772 C   0  0  0  0  0  0  0  0  0  0  0  0
  151.4918  136.5308  154.3370 O   0  0  0  0  0  0  0  0  0  0  0  0
  150.6475  138.8310  154.2572 C   0  0  0  0  0  0  0  0  0  0  0  0
  150.4002  139.9739  154.9340 C   0  0  0  0  0  0  0  0  0  0  0  0
  150.6949  140.1044  156.3622 C   0  0  0  0  0  0  0  0  0  0  0  0
  150.4817  141.1331  157.0033 O   0  0  0  0  0  0  0  0  0  0  0  0
  151.2356  136.6682  153.4380 H   0  0  0  0  0  0  0  0  0  0  0  0
  150.9243  145.7529  160.4846 H   0  0  0  0  0  0  0  0  0  0  0  0
  152.5980  145.9625  159.9778 H   0  0  0  0  0  0  0  0  0  0  0  0
  152.1904  144.7618  161.2036 H   0  0  0  0  0  0  0  0  0  0  0  0
  150.8664  143.4813  159.4946 H   0  0  0  0  0  0  0  0  0  0  0  0
  151.2787  144.6627  158.2770 H   0  0  0  0  0  0  0  0  0  0  0  0
  152.9077  143.0937  157.8058 H   0  0  0  0  0  0  0  0  0  0  0  0
  153.7967  144.0664  158.9472 H   0  0  0  0  0  0  0  0  0  0  0  0
  154.1996  141.8626  159.6459 H   0  0  0  0  0  0  0  0  0  0  0  0
  153.5157  143.2465  161.5821 H   0  0  0  0  0  0  0  0  0  0  0  0
  153.0599  141.5658  161.8290 H   0  0  0  0  0  0  0  0  0  0  0  0
  151.8381  142.7506  161.3713 H   0  0  0  0  0  0  0  0  0  0  0  0
  151.2920  141.2048  159.3970 H   0  0  0  0  0  0  0  0  0  0  0  0
  151.8630  137.9106  158.6282 H   0  0  0  0  0  0  0  0  0  0  0  0
  150.6954  139.1548  158.9575 H   0  0  0  0  0  0  0  0  0  0  0  0
  150.4265  138.7432  153.2036 H   0  0  0  0  0  0  0  0  0  0  0  0
  149.9724  140.8154  154.4092 H   0  0  0  0  0  0  0  0  0  0  0  0
  1  2  1  0  0  0  0
  1 19  1  0  0  0  0
  1 20  1  0  0  0  0
  1 21  1  0  0  0  0
  2  3  1  0  0  0  0
  2 22  1  0  0  0  0
  2 23  1  0  0  0  0
  3  4  1  0  0  0  0
  3 24  1  0  0  0  0
  3 25  1  0  0  0  0
  4  5  1  0  0  0  0
  4  6  1  0  0  0  0
  4 26  1  0  0  0  0
  5 27  1  0  0  0  0
  5 28  1  0  0  0  0
  5 29  1  0  0  0  0
  6  7  1  0  0  0  0
  6 30  1  0  0  0  0
  7  8  2  0  0  0  0
  7  9  1  0  0  0  0
  9 31  1  0  0  0  0
  9 32  1  0  0  0  0
  9 10  1  0  0  0  0
 10 11  1  0  0  0  0
 10 16  1  0  0  0  0
 11 12  2  0  0  0  0
 12 13  1  0  0  0  0
 12 14  1  0  0  0  0
 13 18  1  0  0  0  0
 14 33  1  0  0  0  0
 14 15  2  0  0  0  0
 15 34  1  0  0  0  0
 15 16  1  0  0  0  0
 16 17  2  0  0  0  0
M  END
> <s_m_source_file>
AV-unprocessed.smi

> <i_m_source_file_index>
1493

> <i_lp_mmshare_version>
43012

> <i_f3d_flags>
0

> <s_epik_input>
W0NIM11bQ0gyXVtDSDJdW0NASF0oW0NIM10pW05IXUMoPU8pW0NIMl1uMVtuSF1jKD1PKVtjSF1bY0hdYzE9Tw==

> <s_epik_cmdline>
J2VwaWtfcHl0aG9uJywgJy1waCcsICc3LjAnLCAnLXRuJywgJzgnLCAnLW1hJywgJzIwMCcsICctbWV0YWxfYmluZGluZycsICctaW1hZScsICc8aW5maWxlLm1hZT4nLCAnLW9tYWUnLCAnPG91dGZpbGUubWFlPic=

> <r_lp_tautomer_probability>
0.9996

> <r_epik_Ionization_Penalty>
2.12047

> <r_epik_Ionization_Penalty_Charging>
3.81971e-08

> <r_epik_Ionization_Penalty_Neutral>
2.12047

> <r_epik_State_Penalty>
1.69728

> <r_epik_Charging_Adjusted_Penalty>
1.69728

> <i_epik_Tot_Q>
0

> <i_epik_Tot_abs_Q>
0

> <r_epik_Metal_State_Penalty>
1.69728

> <b_epik_Metal_Only>
0

> <s_lp_Force_Field>
OPLS_2005

> <r_lp_Energy>
15.6532

> <b_lp_Chiralities_Consistent>
1

> <s_lp_Variant>
AV-unprocessed.smi:1493-4

> <Gold.Version>
5.8.1

> <Gold.Id.Protein>
6NUR|6NUR_protein|mol2

> <Gold.PLP.Fitness>
44.7825

> <Gold.PLP.PLP>
-37.2166

> <Gold.PLP.part.hbond>
-3.0000

> <Gold.PLP.part.metal>
0.0000

> <Gold.PLP.part.buried>
-3.0276

> <Gold.PLP.part.nonpolar>
-30.6634

> <Gold.PLP.part.repulsive>
0.1764

> <Gold.PLP.ligand.clash>
0.0000

> <Gold.PLP.ligand.torsion>
0.6366

> <Gold.PLP.Chemscore.Hbond>
2.9357

> <Gold.PLP.Chemscore.CHOScore>
0.0000

> <Gold.PLP.Chemscore.Metal>
0.0000

> <Gold.Chemscore.Hbonds>
donor molecule, donor type, donor heavy atom, donor atom, acceptor molecule, acceptor atom, score
      L1  H    13    18       P1  7949  0.90
      P1  H  7997  8008       L1     8  1.00
      P1  H 10752 10763       L1    13  1.00

> <Gold.PLP.Chemscore.Internal.Correction>
0.0319

> <Gold.Rescore>
     Score         DG    S(hbond)    S(metal)    S(lipo)     H(rot)  DE(clash)    DE(int)     intcor
     15.88     -16.67       2.73        0.00      78.53       2.78       0.01       0.78       ----

> <Gold.Chemscore.Fitness>
15.8822

> <Gold.Chemscore.DG>
-16.6741

> <Gold.Chemscore.ZeroCoef>
-5.4800

> <Gold.Chemscore.Hbond>
2.7303

> <Gold.Chemscore.Metal>
0.0000

> <Gold.Chemscore.Lipo>
78.5288

> <Gold.Chemscore.Internal_Hbond>
0.0000

> <Gold.Chemscore.DEClash>
0.0093

> <Gold.Chemscore.DEInternal>
0.7826

> <Gold.Chemscore.Rot>
2.7785

> <Gold.Chemscore.Internal.Correction>
   9.000000E+99

> <Gold.Chemscore.Hbonds>
donor molecule, donor type, donor heavy atom, donor atom, acceptor molecule, acceptor atom, score
      L1  H    13    18       P1  7949  0.50
      P1  H  7997  8008       L1     8  1.00
      P1  H 10752 10763       L1    13  0.90

> <Gold.Chemscore.Hbond.Weighted>
-9.1192

> <Gold.Chemscore.Metal.Weighted>
-0.0000

> <Gold.Chemscore.Lipo.Weighted>
-9.1879

> <Gold.Chemscore.Internal_Hbond.Weighted>
0.0000

> <Gold.Chemscore.DEClash.Weighted>
0.0093

> <Gold.Chemscore.DEInternal.Weighted>
0.7826

> <Gold.Chemscore.Rot.Weighted>
7.1129

> <Gold.Chemscore.Internal.Correction.Weighted>
   9.000000E+99

> <Gold.Protein.RotatedTorsions>
[ 6907 6896 6895 6894 ] final  -72.99 input  -60.11 | X-H torsion
[ 7974 7965 7964 7962 ] final    1.97 input  175.53 | X-H torsion
[ 8008 7997 7996 7995 ] final -107.49 input   59.86 | X-H torsion
[ 10167 10162 10161 10158 ] final   77.47 input  -65.29 | X-H torsion
[ 10718 10713 10712 10709 ] final  146.71 input   66.30 | X-H torsion
[ 10763 10752 10751 10750 ] final   61.81 input  -60.55 | X-H torsion
[ 11005 11000 10999 10996 ] final  131.13 input  -57.11 | X-H torsion

> <Gold.Protein.ActiveResidues>
 VAL166  LYS551  ARG553  GLY616  TRP617  ASP618  TYR619  PRO620  LYS621  CYS622 
 ASP623  PHE694  ASN695  SER759  ASP760  ASP761  ALA762  ILE779  LEU786  VAL792 
 PHE793  MET794  SER795  GLU796  ALA797  LYS798  CYS799  TRP800  GLU811  SER814 

> <Gold.Protein.RotatedAtoms>
  150.7148  134.5082  159.5594 H   0  0  0  0  0  0  0  0  0  0  0  0  # atno 6907 bound_to 6896
  152.2664  134.7976  160.0431 H   0  0  0  0  0  0  0  0  0  0  0  0  # atno 6908 bound_to 6896
  151.8672  133.3433  159.3759 H   0  0  0  0  0  0  0  0  0  0  0  0  # atno 6909 bound_to 6896
  146.2442  140.0906  142.8352 H   0  0  0  0  0  0  0  0  0  0  0  0  # atno 7974 bound_to 7965
  154.9301  140.0405  157.2043 H   0  0  0  0  0  0  0  0  0  0  0  0  # atno 8008 bound_to 7997
  154.8169  140.2877  155.5792 H   0  0  0  0  0  0  0  0  0  0  0  0  # atno 8009 bound_to 7997
  156.2976  140.2526  156.3068 H   0  0  0  0  0  0  0  0  0  0  0  0  # atno 8010 bound_to 7997
  139.9812  144.5825  150.7899 H   0  0  0  0  0  0  0  0  0  0  0  0  # atno 10167 bound_to 10162
  157.3298  131.0918  151.1172 H   0  0  0  0  0  0  0  0  0  0  0  0  # atno 10718 bound_to 10713
  152.9962  135.5487  154.6093 H   0  0  0  0  0  0  0  0  0  0  0  0  # atno 10763 bound_to 10752
  154.5417  135.2820  155.1091 H   0  0  0  0  0  0  0  0  0  0  0  0  # atno 10764 bound_to 10752
  154.2366  135.6424  153.5245 H   0  0  0  0  0  0  0  0  0  0  0  0  # atno 10765 bound_to 10752
  139.9712  134.9577  156.9394 H   0  0  0  0  0  0  0  0  0  0  0  0  # atno 11005 bound_to 11000
  145.0653  140.9117  143.4914 LP  0  0  0  0  0  0  0  0  0  0  0  0  # atno 17320 bound_to 7965
  145.1030  139.2809  143.5676 LP  0  0  0  0  0  0  0  0  0  0  0  0  # atno 17321 bound_to 7965
  140.7488  143.2929  151.3283 LP  0  0  0  0  0  0  0  0  0  0  0  0  # atno 17342 bound_to 10162
  139.6409  144.0542  152.2553 LP  0  0  0  0  0  0  0  0  0  0  0  0  # atno 17343 bound_to 10162
  157.2424  130.6576  149.5895 LP  0  0  0  0  0  0  0  0  0  0  0  0  # atno 17370 bound_to 10713
  155.9694  130.4564  150.5924 LP  0  0  0  0  0  0  0  0  0  0  0  0  # atno 17371 bound_to 10713
  140.5289  134.0833  155.7310 LP  0  0  0  0  0  0  0  0  0  0  0  0  # atno 17394 bound_to 11000
  141.1392  133.9169  157.2365 LP  0  0  0  0  0  0  0  0  0  0  0  0  # atno 17395 bound_to 11000

$$$$
