AV-unprocessed.smi:2829|AV-procd|sdf|10902|dock2
  -GOLD-   2272015353D 1   1.00000     0.00000
 Structure written by MMmdl.
 50 53  0  0  0  0  0  0  0  0  1 V2000
  145.6765  133.2498  162.3694 C   0  0  0  0  0  0  0  0  0  0  0  0
  146.5133  132.6931  161.1952 C   0  0  0  0  0  0  0  0  0  0  0  0
  147.4973  131.6573  161.7783 C   0  0  0  0  0  0  0  0  0  0  0  0
  145.5396  132.0001  160.2192 C   0  0  0  0  0  0  0  0  0  0  0  0
  147.2950  133.7946  160.4565 C   0  0  0  0  0  0  0  0  0  0  0  0
  147.2023  135.1650  160.7895 C   0  0  0  0  0  0  0  0  0  0  0  0
  147.9673  136.0739  160.0398 C   0  0  0  0  0  0  0  0  0  0  0  0
  148.7814  135.5732  159.0042 C   0  0  0  0  0  0  0  0  0  0  0  0
  149.5265  136.5486  158.2920 N   0  0  0  0  0  0  0  0  0  0  0  0
  149.2610  137.8621  158.1494 C   0  0  0  0  0  0  0  0  0  0  0  0
  148.2964  138.4408  158.6457 O   0  0  0  0  0  0  0  0  0  0  0  0
  150.1731  138.5276  157.4191 N   0  0  0  0  0  0  0  0  0  0  0  0
  150.1802  139.9543  157.0783 C   0  0  2  0  0  0  0  0  0  0  0  0
  150.6413  140.2525  155.6272 C   0  0  2  0  0  0  0  0  0  0  0  0
  150.8129  139.1851  154.5725 C   0  0  0  0  0  0  0  0  0  0  0  0
  152.3219  138.9271  154.5898 C   0  0  0  0  0  0  0  0  0  0  0  0
  152.7559  139.3881  155.8669 O   0  0  0  0  0  0  0  0  0  0  0  0
  152.0281  140.5738  156.1718 C   0  0  2  0  0  0  0  0  0  0  0  0
  151.4529  140.6487  157.5924 C   0  0  0  0  0  0  0  0  0  0  0  0
  152.2596  140.1599  158.8074 C   0  0  0  0  0  0  0  0  0  0  0  0
  152.5934  141.6231  159.1106 C   0  0  0  0  0  0  0  0  0  0  0  0
  151.3638  142.0164  158.2867 C   0  0  0  0  0  0  0  0  0  0  0  0
  148.8220  134.2434  158.7381 N   0  0  0  0  0  0  0  0  0  0  0  0
  148.0954  133.3740  159.4465 N   0  0  0  0  0  0  0  0  0  0  0  0
  145.1349  132.4532  162.8811 H   0  0  0  0  0  0  0  0  0  0  0  0
  144.9332  133.9716  162.0284 H   0  0  0  0  0  0  0  0  0  0  0  0
  146.3041  133.7381  163.1161 H   0  0  0  0  0  0  0  0  0  0  0  0
  148.2008  132.1252  162.4679 H   0  0  0  0  0  0  0  0  0  0  0  0
  148.0797  131.1667  160.9978 H   0  0  0  0  0  0  0  0  0  0  0  0
  146.9720  130.8740  162.3259 H   0  0  0  0  0  0  0  0  0  0  0  0
  144.9549  131.2289  160.7217 H   0  0  0  0  0  0  0  0  0  0  0  0
  146.0664  131.5173  159.3956 H   0  0  0  0  0  0  0  0  0  0  0  0
  144.8382  132.7144  159.7861 H   0  0  0  0  0  0  0  0  0  0  0  0
  146.5747  135.5326  161.5865 H   0  0  0  0  0  0  0  0  0  0  0  0
  147.9271  137.1311  160.2579 H   0  0  0  0  0  0  0  0  0  0  0  0
  150.3603  136.2105  157.8347 H   0  0  0  0  0  0  0  0  0  0  0  0
  150.9701  137.9969  157.0974 H   0  0  0  0  0  0  0  0  0  0  0  0
  149.2748  140.4928  157.3631 H   0  0  0  0  0  0  0  0  0  0  0  0
  150.1573  141.1565  155.2540 H   0  0  0  0  0  0  0  0  0  0  0  0
  150.2576  138.2776  154.8044 H   0  0  0  0  0  0  0  0  0  0  0  0
  150.4843  139.5209  153.5888 H   0  0  0  0  0  0  0  0  0  0  0  0
  152.5711  137.8769  154.4371 H   0  0  0  0  0  0  0  0  0  0  0  0
  152.8192  139.5125  153.8148 H   0  0  0  0  0  0  0  0  0  0  0  0
  152.4683  141.4880  155.7712 H   0  0  0  0  0  0  0  0  0  0  0  0
  151.6347  139.7072  159.5790 H   0  0  0  0  0  0  0  0  0  0  0  0
  153.1211  139.5354  158.5694 H   0  0  0  0  0  0  0  0  0  0  0  0
  152.5434  141.8952  160.1652 H   0  0  0  0  0  0  0  0  0  0  0  0
  153.5294  141.9459  158.6518 H   0  0  0  0  0  0  0  0  0  0  0  0
  151.5087  142.8770  157.6334 H   0  0  0  0  0  0  0  0  0  0  0  0
  150.4669  142.1223  158.8991 H   0  0  0  0  0  0  0  0  0  0  0  0
  1  2  1  0  0  0  0
  1 25  1  0  0  0  0
  1 26  1  0  0  0  0
  1 27  1  0  0  0  0
  2  3  1  0  0  0  0
  2  4  1  0  0  0  0
  2  5  1  0  0  0  0
  3 28  1  0  0  0  0
  3 29  1  0  0  0  0
  3 30  1  0  0  0  0
  4 31  1  0  0  0  0
  4 32  1  0  0  0  0
  4 33  1  0  0  0  0
  5 24  1  0  0  0  0
  5  6  2  0  0  0  0
  6  7  1  0  0  0  0
  6 34  1  0  0  0  0
  7  8  2  0  0  0  0
  7 35  1  0  0  0  0
  8  9  1  0  0  0  0
  8 23  1  0  0  0  0
  9 10  1  0  0  0  0
  9 36  1  0  0  0  0
 10 11  2  0  0  0  0
 10 12  1  0  0  0  0
 12 13  1  0  0  0  0
 12 37  1  0  0  0  0
 13 19  1  0  0  0  0
 13 14  1  0  0  0  0
 13 38  1  0  0  0  0
 14 18  1  0  0  0  0
 14 15  1  0  0  0  0
 14 39  1  0  0  0  0
 15 16  1  0  0  0  0
 15 40  1  0  0  0  0
 15 41  1  0  0  0  0
 16 17  1  0  0  0  0
 16 42  1  0  0  0  0
 16 43  1  0  0  0  0
 17 18  1  0  0  0  0
 18 19  1  0  0  0  0
 18 44  1  0  0  0  0
 19 22  1  0  0  0  0
 19 20  1  0  0  0  0
 20 21  1  0  0  0  0
 20 45  1  0  0  0  0
 20 46  1  0  0  0  0
 21 22  1  0  0  0  0
 21 47  1  0  0  0  0
 21 48  1  0  0  0  0
 22 49  1  0  0  0  0
 22 50  1  0  0  0  0
 23 24  2  0  0  0  0
M  END
> <s_m_source_file>
AV-unprocessed.smi

> <i_m_source_file_index>
2829

> <i_lp_mmshare_version>
43012

> <i_f3d_flags>
0

> <s_epik_input>
W0NIM11DKFtDSDNdKShbQ0gzXSljMVtjSF1bY0hdYyhubjEpW05IXUMoPU8pW05IXVtDQEBIXTJbQ0BIXShbQ0gyXVtDSDJdTzMpW0NAQEhdM0MyNFtDSDJdW0NIMl1bQ0gyXTQ=

> <s_epik_cmdline>
J2VwaWtfcHl0aG9uJywgJy1waCcsICc3LjAnLCAnLXRuJywgJzgnLCAnLW1hJywgJzIwMCcsICctbWV0YWxfYmluZGluZycsICctaW1hZScsICc8aW5maWxlLm1hZT4nLCAnLW9tYWUnLCAnPG91dGZpbGUubWFlPic=

> <r_lp_tautomer_probability>
1

> <r_epik_Ionization_Penalty>
0.011915

> <r_epik_Ionization_Penalty_Charging>
0

> <r_epik_Ionization_Penalty_Neutral>
0.011915

> <r_epik_State_Penalty>
0.00486223

> <r_epik_Charging_Adjusted_Penalty>
0.00486223

> <i_epik_Tot_Q>
0

> <i_epik_Tot_abs_Q>
0

> <r_epik_Metal_State_Penalty>
-0

> <b_epik_Metal_Only>
0

> <s_lp_Force_Field>
OPLS_2005

> <r_lp_Energy>
61.2514

> <b_lp_Chiralities_Consistent>
1

> <s_lp_Variant>
AV-unprocessed.smi:2829-5

> <Gold.Version>
5.8.1

> <Gold.Id.Protein>
6NUR|6NUR_protein|mol2

> <Gold.PLP.Fitness>
39.3651

> <Gold.PLP.PLP>
-33.7484

> <Gold.PLP.part.hbond>
-3.0000

> <Gold.PLP.part.metal>
0.0000

> <Gold.PLP.part.buried>
-3.3703

> <Gold.PLP.part.nonpolar>
-27.2606

> <Gold.PLP.part.repulsive>
0.1593

> <Gold.PLP.ligand.clash>
0.0000

> <Gold.PLP.ligand.torsion>
0.2882

> <Gold.PLP.Chemscore.Hbond>
1.9920

> <Gold.PLP.Chemscore.CHOScore>
0.0000

> <Gold.PLP.Chemscore.Metal>
0.0000

> <Gold.Chemscore.Hbonds>
donor molecule, donor type, donor heavy atom, donor atom, acceptor molecule, acceptor atom, score
      P1  H  6896  6909       L1    23  0.85
      P1  H  7997  8010       L1    17  0.70

> <Gold.PLP.Chemscore.Internal.Correction>
0.2170

> <Gold.Rescore>
     Score         DG    S(hbond)    S(metal)    S(lipo)     H(rot)  DE(clash)    DE(int)     intcor
     13.68     -16.88       0.93        0.00      96.34       1.16       1.52       1.67       ----

> <Gold.Chemscore.Fitness>
13.6794

> <Gold.Chemscore.DG>
-16.8767

> <Gold.Chemscore.ZeroCoef>
-5.4800

> <Gold.Chemscore.Hbond>
0.9277

> <Gold.Chemscore.Metal>
0.0000

> <Gold.Chemscore.Lipo>
96.3438

> <Gold.Chemscore.Internal_Hbond>
0.0000

> <Gold.Chemscore.DEClash>
1.5249

> <Gold.Chemscore.DEInternal>
1.6723

> <Gold.Chemscore.Rot>
1.1618

> <Gold.Chemscore.Internal.Correction>
   9.000000E+99

> <Gold.Chemscore.Hbonds>
donor molecule, donor type, donor heavy atom, donor atom, acceptor molecule, acceptor atom, score
      P1  H  6896  6909       L1    23  0.07
      P1  H  7997  8010       L1    17  0.07

> <Gold.Chemscore.Hbond.Weighted>
-3.0986

> <Gold.Chemscore.Metal.Weighted>
-0.0000

> <Gold.Chemscore.Lipo.Weighted>
-11.2722

> <Gold.Chemscore.Internal_Hbond.Weighted>
0.0000

> <Gold.Chemscore.DEClash.Weighted>
1.5249

> <Gold.Chemscore.DEInternal.Weighted>
1.6723

> <Gold.Chemscore.Rot.Weighted>
2.9741

> <Gold.Chemscore.Internal.Correction.Weighted>
   9.000000E+99

> <Gold.Protein.RotatedTorsions>
[ 6907 6896 6895 6894 ] final    7.46 input  -60.11 | X-H torsion
[ 7974 7965 7964 7962 ] final -108.06 input  175.53 | X-H torsion
[ 8008 7997 7996 7995 ] final   87.98 input   59.86 | X-H torsion
[ 10167 10162 10161 10158 ] final  150.95 input  -65.29 | X-H torsion
[ 10718 10713 10712 10709 ] final   16.65 input   66.30 | X-H torsion
[ 10763 10752 10751 10750 ] final -111.52 input  -60.55 | X-H torsion
[ 11005 11000 10999 10996 ] final   -3.98 input  -57.11 | X-H torsion

> <Gold.Protein.ActiveResidues>
 VAL166  LYS551  ARG553  GLY616  TRP617  ASP618  TYR619  PRO620  LYS621  CYS622 
 ASP623  PHE694  ASN695  SER759  ASP760  ASP761  ALA762  ILE779  LEU786  VAL792 
 PHE793  MET794  SER795  GLU796  ALA797  LYS798  CYS799  TRP800  GLU811  SER814 

> <Gold.Protein.RotatedAtoms>
  151.6903  135.0947  160.0232 H   0  0  0  0  0  0  0  0  0  0  0  0  # atno 6907 bound_to 6896
  152.3782  133.6506  159.6149 H   0  0  0  0  0  0  0  0  0  0  0  0  # atno 6908 bound_to 6896
  150.7726  133.9074  159.3400 H   0  0  0  0  0  0  0  0  0  0  0  0  # atno 6909 bound_to 6896
  145.1975  140.9042  143.3388 H   0  0  0  0  0  0  0  0  0  0  0  0  # atno 7974 bound_to 7965
  155.9821  140.3376  155.6673 H   0  0  0  0  0  0  0  0  0  0  0  0  # atno 8008 bound_to 7997
  155.6534  140.0708  157.2597 H   0  0  0  0  0  0  0  0  0  0  0  0  # atno 8009 bound_to 7997
  154.4195  140.1721  156.1686 H   0  0  0  0  0  0  0  0  0  0  0  0  # atno 8010 bound_to 7997
  139.4845  144.5481  151.7449 H   0  0  0  0  0  0  0  0  0  0  0  0  # atno 10167 bound_to 10162
  157.0708  130.6347  149.5805 H   0  0  0  0  0  0  0  0  0  0  0  0  # atno 10718 bound_to 10713
  154.8304  135.4524  154.1052 H   0  0  0  0  0  0  0  0  0  0  0  0  # atno 10763 bound_to 10752
  153.2330  135.6907  153.7875 H   0  0  0  0  0  0  0  0  0  0  0  0  # atno 10764 bound_to 10752
  153.7250  135.3336  155.3251 H   0  0  0  0  0  0  0  0  0  0  0  0  # atno 10765 bound_to 10752
  140.6753  133.9201  155.8520 H   0  0  0  0  0  0  0  0  0  0  0  0  # atno 11005 bound_to 11000
  144.9980  139.3625  143.6182 LP  0  0  0  0  0  0  0  0  0  0  0  0  # atno 17320 bound_to 7965
  146.3424  139.9191  142.8769 LP  0  0  0  0  0  0  0  0  0  0  0  0  # atno 17321 bound_to 7965
  140.5030  144.1140  150.5976 LP  0  0  0  0  0  0  0  0  0  0  0  0  # atno 17342 bound_to 10162
  140.4039  143.2690  151.9914 LP  0  0  0  0  0  0  0  0  0  0  0  0  # atno 17343 bound_to 10162
  155.9951  130.5016  150.7445 LP  0  0  0  0  0  0  0  0  0  0  0  0  # atno 17370 bound_to 10713
  157.4879  131.0908  151.0461 LP  0  0  0  0  0  0  0  0  0  0  0  0  # atno 17371 bound_to 10713
  141.0360  134.0688  157.3958 LP  0  0  0  0  0  0  0  0  0  0  0  0  # atno 17394 bound_to 11000
  139.8969  135.0148  156.7072 LP  0  0  0  0  0  0  0  0  0  0  0  0  # atno 17395 bound_to 11000

$$$$
