#       Name:                AV-unprocessed.smi:2007
#       Creating user name   scv26
#       Creation time:       Fri Mar 27 10:37:46 2020


#       File generated by GOLD software.
#

@<TRIPOS>MOLECULE
AV-unprocessed.smi:2007
    42    43     1
SMALL
NO_CHARGES


@<TRIPOS>ATOM
      1 ****         0.3109   3.8545  -0.0898 C.3            1 S1                 0.0000
      2 ****         0.1646   2.3479  -0.3411 C.3            1 S1                 0.0000
      3 ****         1.5390   1.6709  -0.5485 C.3            1 S1                 0.0000
      4 ****         1.4336   0.1962  -0.6823 N.4            1 S1                 1.0000
      5 ****         1.0341  -0.2536  -2.0366 C.3            1 S1                 0.0000
      6 ****         0.8282  -1.7772  -2.0400 C.3            1 S1                 0.0000
      7 ****         2.0264  -2.4187  -1.6176 O.3            1 S1                 0.0000
      8 ****         2.3936  -2.0471  -0.2935 C.3            1 S1                 0.0000
      9 ****         2.6414  -0.5301  -0.2296 C.3            1 S1                 0.0000
     10 ****        -0.5488   1.7355   0.7819 N.am           1 S1                 0.0000
     11 ****        -1.4452   0.7392   0.7134 C.2            1 S1                 0.0000
     12 ****        -1.8011   0.3021  -0.3831 O.2            1 S1                 0.0000
     13 ****        -1.8481   0.2884   1.9212 N.pl3          1 S1                -1.0000
     14 ****        -2.6804  -0.7627   1.9976 C.2            1 S1                 0.0000
     15 ****        -2.2520  -2.0205   2.1572 N.2            1 S1                 0.0000
     16 ****        -3.2868  -2.9561   2.2119 C.2            1 S1                 0.0000
     17 ****        -4.5316  -2.3964   2.0971 C.2            1 S1                 0.0000
     18 ****        -4.4411  -0.6676   1.9164 S.3            1 S1                 0.0000
     19 ****         0.8163   4.3431  -0.9232 H              1 S1                 0.0000
     20 ****         0.8889   4.0537   0.8134 H              1 S1                 0.0000
     21 ****        -0.6640   4.3291   0.0275 H              1 S1                 0.0000
     22 ****        -0.4254   2.2359  -1.2516 H              1 S1                 0.0000
     23 ****         2.0549   2.0894  -1.4141 H              1 S1                 0.0000
     24 ****         2.1617   1.9020   0.3172 H              1 S1                 0.0000
     25 ****         0.1130   0.2406  -2.3446 H              1 S1                 0.0000
     26 ****         1.8025   0.0239  -2.7595 H              1 S1                 0.0000
     27 ****        -0.0008  -2.0593  -1.3884 H              1 S1                 0.0000
     28 ****         0.5768  -2.1212  -3.0433 H              1 S1                 0.0000
     29 ****         1.6121  -2.3428   0.4087 H              1 S1                 0.0000
     30 ****         3.2966  -2.5882  -0.0111 H              1 S1                 0.0000
     31 ****         3.4924  -0.2566  -0.8553 H              1 S1                 0.0000
     32 ****         2.8860  -0.2433   0.7939 H              1 S1                 0.0000
     33 ****        -0.3047   2.0650   1.7048 H              1 S1                 0.0000
     34 ****        -3.0454  -4.0013   2.3363 H              1 S1                 0.0000
     35 ****        -5.4910  -2.8912   2.1088 H              1 S1                 0.0000
     36 ****         0.6917  -0.0819  -0.0539 H              1 S1                 0.0000
     37 ****         2.7658  -2.1640  -2.2409 LP             1 S1                 0.0000
     38 ****         1.8905  -3.4090  -1.6488 LP             1 S1                 0.0000
     39 ****        -1.4217   0.6900  -1.2231 LP             1 S1                 0.0000
     40 ****        -2.4691  -0.4404  -0.4325 LP             1 S1                 0.0000
     41 ****        -1.5275   0.7360   2.7560 LP             1 S1                 0.0000
     42 ****        -1.2853  -2.2662   2.2301 LP             1 S1                 0.0000
@<TRIPOS>BOND
    1    1    2 1     
    2    1   19 1     
    3    1   20 1     
    4    1   21 1     
    5    2    3 1     
    6    2   10 1     
    7    2   22 1     
    8    3    4 1     
    9    3   23 1     
   10    3   24 1     
   11    4    9 1     
   12    4    5 1     
   13    4   36 1     
   14    5    6 1     
   15    5   25 1     
   16    5   26 1     
   17    6    7 1     
   18    6   27 1     
   19    6   28 1     
   20    7    8 1     
   21    8    9 1     
   22    8   29 1     
   23    8   30 1     
   24    9   31 1     
   25    9   32 1     
   26   10   11 am    
   27   10   33 1     
   28   11   12 2     
   29   11   13 1     
   30   13   14 1     
   31   14   18 1     
   32   14   15 2     
   33   15   16 1     
   34   16   17 2     
   35   16   34 1     
   36   17   18 1     
   37   17   35 1     
   38    7   37 1     
   39    7   38 1     
   40   12   39 1     
   41   12   40 1     
   42   13   41 1     
   43   15   42 1     
@<TRIPOS>SUBSTRUCTURE
      1 S1             1
@<TRIPOS>SET
LONE_PAIRS      STATIC     ATOMS    <user>   **** ""
6 37 38 39 40 41 42
DONOR_HYDROGENS      STATIC     ATOMS    <user>   **** ""
2 36 33
ATOM$BLUE        STATIC     ATOMS    COLORGROUP SYSTEM
6 37 38 39 40 41 42
ATOM$RED        STATIC     ATOMS    COLORGROUP SYSTEM
2 36 33
