AV-unprocessed.smi:2064|AV-procd|sdf|8416|dock3
  -GOLD-   2272011103D 1   1.00000     0.00000
 Structure written by MMmdl.
 46 48  0  0  0  0  0  0  0  0  1 V2000
  155.1634  140.8456  162.8318 N   0  0  0  0  0  0  0  0  0  0  0  0
  154.4128  141.1306  161.9982 C   0  0  0  0  0  0  0  0  0  0  0  0
  153.4777  141.5047  160.9895 C   0  0  0  0  0  0  0  0  0  0  0  0
  152.8088  142.6752  161.0390 C   0  0  0  0  0  0  0  0  0  0  0  0
  151.8970  143.0495  160.0763 N   0  0  0  0  0  0  0  0  0  0  0  0
  151.3168  144.3628  160.0663 C   0  0  0  0  0  0  0  0  0  0  0  0
  151.5658  145.2654  158.8777 C   0  0  0  0  0  0  0  0  0  0  0  0
  152.1948  145.5909  160.2104 C   0  0  0  0  0  0  0  0  0  0  0  0
  151.6883  142.2349  158.9420 C   0  0  0  0  0  0  0  0  0  0  0  0
  150.9532  142.5987  158.0204 O   0  0  0  0  0  0  0  0  0  0  0  0
  152.3595  140.9892  158.8884 N   0  0  0  0  0  0  0  0  0  0  0  0
  152.1280  140.1118  157.7199 C   0  0  0  0  0  0  0  0  0  0  0  0
  150.6440  139.9464  157.3581 C   0  0  0  0  0  0  0  0  0  0  0  0
  149.8989  139.2373  158.0363 O   0  0  0  0  0  0  0  0  0  0  0  0
  150.2317  140.6191  156.2727 N   0  0  0  0  0  0  0  0  0  0  0  0
  148.8731  140.6189  155.7351 C   0  0  0  0  0  0  0  0  0  0  0  0
  148.9067  141.1076  154.2720 C   0  0  0  0  0  0  0  0  0  0  0  0
  147.5355  141.2081  153.5817 C   0  0  0  0  0  0  0  0  0  0  0  0
  146.7147  142.4162  154.0605 C   0  0  0  0  0  0  0  0  0  0  0  0
  145.8623  142.1778  155.3188 C   0  0  0  0  0  0  0  0  0  0  0  0
  146.4722  141.2672  156.3989 C   0  0  0  0  0  0  0  0  0  0  0  0
  147.9747  141.4642  156.6625 C   0  0  0  0  0  0  0  0  0  0  0  0
  153.2737  140.5673  159.8875 C   0  0  0  0  0  0  0  0  0  0  0  0
  153.8533  139.4833  159.8016 O   0  0  0  0  0  0  0  0  0  0  0  0
  152.9897  143.3454  161.8671 H   0  0  0  0  0  0  0  0  0  0  0  0
  150.3274  144.4348  160.5147 H   0  0  0  0  0  0  0  0  0  0  0  0
  152.2268  144.9077  158.0905 H   0  0  0  0  0  0  0  0  0  0  0  0
  150.7418  145.8927  158.5438 H   0  0  0  0  0  0  0  0  0  0  0  0
  151.7894  146.4341  160.7657 H   0  0  0  0  0  0  0  0  0  0  0  0
  153.2701  145.4486  160.2996 H   0  0  0  0  0  0  0  0  0  0  0  0
  152.6564  140.4800  156.8393 H   0  0  0  0  0  0  0  0  0  0  0  0
  152.5582  139.1232  157.8902 H   0  0  0  0  0  0  0  0  0  0  0  0
  150.9131  141.1754  155.7771 H   0  0  0  0  0  0  0  0  0  0  0  0
  148.4995  139.5931  155.7513 H   0  0  0  0  0  0  0  0  0  0  0  0
  149.4143  142.0717  154.2140 H   0  0  0  0  0  0  0  0  0  0  0  0
  149.5237  140.4192  153.6927 H   0  0  0  0  0  0  0  0  0  0  0  0
  147.7152  141.3296  152.5130 H   0  0  0  0  0  0  0  0  0  0  0  0
  146.9715  140.2804  153.6845 H   0  0  0  0  0  0  0  0  0  0  0  0
  147.3811  143.2635  154.2267 H   0  0  0  0  0  0  0  0  0  0  0  0
  146.0463  142.7318  153.2587 H   0  0  0  0  0  0  0  0  0  0  0  0
  145.6264  143.1476  155.7585 H   0  0  0  0  0  0  0  0  0  0  0  0
  144.9028  141.7522  155.0227 H   0  0  0  0  0  0  0  0  0  0  0  0
  145.9258  141.4417  157.3264 H   0  0  0  0  0  0  0  0  0  0  0  0
  146.2806  140.2229  156.1493 H   0  0  0  0  0  0  0  0  0  0  0  0
  148.1663  141.1559  157.6915 H   0  0  0  0  0  0  0  0  0  0  0  0
  148.2422  142.5206  156.6148 H   0  0  0  0  0  0  0  0  0  0  0  0
  1  2  3  0  0  0  0
  2  3  1  0  0  0  0
  3 23  1  0  0  0  0
  3  4  2  0  0  0  0
  4  5  1  0  0  0  0
  4 25  1  0  0  0  0
  5  6  1  0  0  0  0
  5  9  1  0  0  0  0
  6  8  1  0  0  0  0
  6  7  1  0  0  0  0
  6 26  1  0  0  0  0
  7  8  1  0  0  0  0
  7 27  1  0  0  0  0
  7 28  1  0  0  0  0
  8 29  1  0  0  0  0
  8 30  1  0  0  0  0
  9 10  2  0  0  0  0
  9 11  1  0  0  0  0
 11 12  1  0  0  0  0
 11 23  1  0  0  0  0
 12 13  1  0  0  0  0
 12 31  1  0  0  0  0
 12 32  1  0  0  0  0
 13 14  2  0  0  0  0
 13 15  1  0  0  0  0
 15 16  1  0  0  0  0
 15 33  1  0  0  0  0
 16 22  1  0  0  0  0
 16 17  1  0  0  0  0
 16 34  1  0  0  0  0
 17 18  1  0  0  0  0
 17 35  1  0  0  0  0
 17 36  1  0  0  0  0
 18 19  1  0  0  0  0
 18 37  1  0  0  0  0
 18 38  1  0  0  0  0
 19 20  1  0  0  0  0
 19 39  1  0  0  0  0
 19 40  1  0  0  0  0
 20 21  1  0  0  0  0
 20 41  1  0  0  0  0
 20 42  1  0  0  0  0
 21 22  1  0  0  0  0
 21 43  1  0  0  0  0
 21 44  1  0  0  0  0
 22 45  1  0  0  0  0
 22 46  1  0  0  0  0
 23 24  2  0  0  0  0
M  END
> <s_m_source_file>
AV-unprocessed.smi

> <i_m_source_file_index>
2064

> <i_lp_mmshare_version>
43012

> <i_f3d_flags>
0

> <s_epik_input>
TiNDYzFbY0hdbihbQ0hdMltDSDJdW0NIMl0yKWMoPU8pbihjMT1PKVtDSDJdQyg9TylbTkhdW0NIXTNbQ0gyXVtDSDJdW0NIMl1bQ0gyXVtDSDJdW0NIMl0z

> <s_epik_cmdline>
J2VwaWtfcHl0aG9uJywgJy1waCcsICc3LjAnLCAnLXRuJywgJzgnLCAnLW1hJywgJzIwMCcsICctbWV0YWxfYmluZGluZycsICctaW1hZScsICc8aW5maWxlLm1hZT4nLCAnLW9tYWUnLCAnPG91dGZpbGUubWFlPic=

> <r_lp_tautomer_probability>
1

> <r_epik_Ionization_Penalty>
2.03018e-08

> <r_epik_Ionization_Penalty_Charging>
8.701e-11

> <r_epik_Ionization_Penalty_Neutral>
2.02148e-08

> <r_epik_State_Penalty>
-0

> <r_epik_Charging_Adjusted_Penalty>
8.701e-11

> <i_epik_Tot_Q>
0

> <i_epik_Tot_abs_Q>
0

> <r_epik_Metal_State_Penalty>
-0

> <b_epik_Metal_Only>
0

> <s_lp_Force_Field>
OPLS_2005

> <r_lp_Energy>
40.6124

> <b_lp_Chiralities_Consistent>
1

> <s_lp_Variant>
AV-unprocessed.smi:2064-1

> <Gold.Version>
5.8.1

> <Gold.Id.Protein>
6NUR|6NUR_protein|mol2

> <Gold.PLP.Fitness>
47.9738

> <Gold.PLP.PLP>
-49.0657

> <Gold.PLP.part.hbond>
-1.0000

> <Gold.PLP.part.metal>
0.0000

> <Gold.PLP.part.buried>
-7.0303

> <Gold.PLP.part.nonpolar>
-40.6637

> <Gold.PLP.part.repulsive>
0.1402

> <Gold.PLP.ligand.clash>
0.0000

> <Gold.PLP.ligand.torsion>
0.6568

> <Gold.PLP.Chemscore.Hbond>
0.0000

> <Gold.PLP.Chemscore.CHOScore>
0.0000

> <Gold.PLP.Chemscore.Metal>
0.0000

> <Gold.PLP.Chemscore.Internal.Correction>
0.2217

> <Gold.Rescore>
     Score         DG    S(hbond)    S(metal)    S(lipo)     H(rot)  DE(clash)    DE(int)     intcor
      9.08     -12.59       0.00        0.00      98.03       1.70       0.20       3.31       ----

> <Gold.Chemscore.Fitness>
9.0755

> <Gold.Chemscore.DG>
-12.5882

> <Gold.Chemscore.ZeroCoef>
-5.4800

> <Gold.Chemscore.Hbond>
0.0000

> <Gold.Chemscore.Metal>
0.0000

> <Gold.Chemscore.Lipo>
98.0340

> <Gold.Chemscore.Internal_Hbond>
0.0000

> <Gold.Chemscore.DEClash>
0.2038

> <Gold.Chemscore.DEInternal>
3.3089

> <Gold.Chemscore.Rot>
1.7038

> <Gold.Chemscore.Internal.Correction>
   9.000000E+99

> <Gold.Chemscore.Hbond.Weighted>
-0.0000

> <Gold.Chemscore.Metal.Weighted>
-0.0000

> <Gold.Chemscore.Lipo.Weighted>
-11.4700

> <Gold.Chemscore.Internal_Hbond.Weighted>
0.0000

> <Gold.Chemscore.DEClash.Weighted>
0.2038

> <Gold.Chemscore.DEInternal.Weighted>
3.3089

> <Gold.Chemscore.Rot.Weighted>
4.3618

> <Gold.Chemscore.Internal.Correction.Weighted>
   9.000000E+99

> <Gold.Protein.RotatedTorsions>
[ 6907 6896 6895 6894 ] final  -18.76 input  -60.11 | X-H torsion
[ 7974 7965 7964 7962 ] final   42.71 input  175.53 | X-H torsion
[ 8008 7997 7996 7995 ] final -131.70 input   59.86 | X-H torsion
[ 10167 10162 10161 10158 ] final   72.66 input  -65.29 | X-H torsion
[ 10718 10713 10712 10709 ] final -165.68 input   66.30 | X-H torsion
[ 10763 10752 10751 10750 ] final  -64.15 input  -60.55 | X-H torsion
[ 11005 11000 10999 10996 ] final   82.36 input  -57.11 | X-H torsion

> <Gold.Protein.ActiveResidues>
 VAL166  LYS551  ARG553  GLY616  TRP617  ASP618  TYR619  PRO620  LYS621  CYS622 
 ASP623  PHE694  ASN695  SER759  ASP760  ASP761  ALA762  ILE779  LEU786  VAL792 
 PHE793  MET794  SER795  GLU796  ALA797  LYS798  CYS799  TRP800  GLU811  SER814 

> <Gold.Protein.RotatedAtoms>
  151.2733  135.0691  159.9141 H   0  0  0  0  0  0  0  0  0  0  0  0  # atno 6907 bound_to 6896
  152.5347  134.0107  159.7947 H   0  0  0  0  0  0  0  0  0  0  0  0  # atno 6908 bound_to 6896
  151.0349  133.5707  159.2688 H   0  0  0  0  0  0  0  0  0  0  0  0  # atno 6909 bound_to 6896
  146.0717  139.5269  142.9593 H   0  0  0  0  0  0  0  0  0  0  0  0  # atno 7974 bound_to 7965
  155.3167  140.0460  157.3037 H   0  0  0  0  0  0  0  0  0  0  0  0  # atno 8008 bound_to 7997
  154.5402  140.2285  155.8620 H   0  0  0  0  0  0  0  0  0  0  0  0  # atno 8009 bound_to 7997
  156.1874  140.3059  155.9271 H   0  0  0  0  0  0  0  0  0  0  0  0  # atno 8010 bound_to 7997
  140.0329  144.5451  150.7493 H   0  0  0  0  0  0  0  0  0  0  0  0  # atno 10167 bound_to 10162
  156.6568  130.9030  151.3022 H   0  0  0  0  0  0  0  0  0  0  0  0  # atno 10718 bound_to 10713
  154.3258  135.6187  153.5528 H   0  0  0  0  0  0  0  0  0  0  0  0  # atno 10763 bound_to 10752
  152.9816  135.5735  154.5018 H   0  0  0  0  0  0  0  0  0  0  0  0  # atno 10764 bound_to 10752
  154.4695  135.2859  155.1630 H   0  0  0  0  0  0  0  0  0  0  0  0  # atno 10765 bound_to 10752
  139.9066  134.8065  156.2164 H   0  0  0  0  0  0  0  0  0  0  0  0  # atno 11005 bound_to 11000
  145.6378  141.0290  143.1828 LP  0  0  0  0  0  0  0  0  0  0  0  0  # atno 17320 bound_to 7965
  144.7236  139.7948  143.7373 LP  0  0  0  0  0  0  0  0  0  0  0  0  # atno 17321 bound_to 7965
  140.7294  143.2672  151.4006 LP  0  0  0  0  0  0  0  0  0  0  0  0  # atno 17342 bound_to 10162
  139.6064  144.1188  152.2253 LP  0  0  0  0  0  0  0  0  0  0  0  0  # atno 17343 bound_to 10162
  157.7123  130.9454  150.1131 LP  0  0  0  0  0  0  0  0  0  0  0  0  # atno 17370 bound_to 10713
  156.2041  130.3662  149.8751 LP  0  0  0  0  0  0  0  0  0  0  0  0  # atno 17371 bound_to 10713
  141.0433  133.6926  156.1638 LP  0  0  0  0  0  0  0  0  0  0  0  0  # atno 17394 bound_to 11000
  140.6922  134.4654  157.5588 LP  0  0  0  0  0  0  0  0  0  0  0  0  # atno 17395 bound_to 11000

$$$$
