AV-unprocessed.smi:1807|AV-procd|sdf|7302|dock9
  -GOLD-   22720 8563D 1   1.00000     0.00000
 Structure written by MMmdl.
 44 45  0  0  0  0  0  0  0  0  1 V2000
  151.7948  143.8814  156.7751 C   0  0  0  0  0  0  0  0  0  0  0  0
  152.2522  144.0330  158.2358 C   0  0  1  0  0  0  0  0  0  0  0  0
  151.1525  144.6686  159.1113 C   0  0  0  0  0  0  0  0  0  0  0  0
  151.6337  144.8833  160.5551 C   0  0  0  0  0  0  0  0  0  0  0  0
  152.1371  143.5728  161.1783 C   0  0  0  0  0  0  0  0  0  0  0  0
  153.2315  142.9264  160.3110 C   0  0  0  0  0  0  0  0  0  0  0  0
  152.7719  142.7094  158.8550 C   0  0  1  0  0  0  0  0  0  0  0  0
  151.7625  141.6490  158.8067 N   0  0  0  0  0  0  0  0  0  0  0  0
  151.9745  140.3642  158.4823 C   0  0  0  0  0  0  0  0  0  0  0  0
  153.0808  139.9153  158.1774 O   0  0  0  0  0  0  0  0  0  0  0  0
  150.7369  139.4632  158.5168 C   0  0  0  0  0  0  0  0  0  0  0  0
  150.4513  138.8689  157.2180 N   0  0  0  0  0  0  0  0  0  0  0  0
  149.8532  139.6423  156.2180 C   0  0  0  0  0  0  0  0  0  0  0  0
  149.5069  141.0055  156.4219 C   0  0  0  0  0  0  0  0  0  0  0  0
  148.9672  141.3724  155.2218 C   0  0  0  0  0  0  0  0  0  0  0  0
  149.0103  140.2692  154.3911 N   0  0  0  0  0  0  0  0  0  0  0  0
  148.5608  140.1594  153.0147 C   0  0  0  0  0  0  0  0  0  0  0  0
  148.0376  138.7531  152.7125 C   0  0  0  0  0  0  0  0  0  0  0  0
  148.7129  138.0311  151.8149 N   0  0  0  0  0  0  0  0  0  0  0  0
  147.0380  138.3215  153.2829 O   0  0  0  0  0  0  0  0  0  0  0  0
  149.5539  139.1964  155.0076 N   0  0  0  0  0  0  0  0  0  0  0  0
  150.9074  143.2537  156.6920 H   0  0  0  0  0  0  0  0  0  0  0  0
  152.5790  143.4337  156.1639 H   0  0  0  0  0  0  0  0  0  0  0  0
  151.5520  144.8509  156.3397 H   0  0  0  0  0  0  0  0  0  0  0  0
  153.0933  144.7279  158.2251 H   0  0  0  0  0  0  0  0  0  0  0  0
  150.8453  145.6247  158.6864 H   0  0  0  0  0  0  0  0  0  0  0  0
  150.2641  144.0355  159.1122 H   0  0  0  0  0  0  0  0  0  0  0  0
  152.4347  145.6236  160.5663 H   0  0  0  0  0  0  0  0  0  0  0  0
  150.8247  145.2950  161.1591 H   0  0  0  0  0  0  0  0  0  0  0  0
  152.5237  143.7636  162.1797 H   0  0  0  0  0  0  0  0  0  0  0  0
  151.3031  142.8804  161.2987 H   0  0  0  0  0  0  0  0  0  0  0  0
  154.1125  143.5697  160.3145 H   0  0  0  0  0  0  0  0  0  0  0  0
  153.5478  141.9803  160.7523 H   0  0  0  0  0  0  0  0  0  0  0  0
  153.6489  142.3931  158.2878 H   0  0  0  0  0  0  0  0  0  0  0  0
  150.8186  141.9197  159.0411 H   0  0  0  0  0  0  0  0  0  0  0  0
  150.8974  138.6745  159.2531 H   0  0  0  0  0  0  0  0  0  0  0  0
  149.8757  140.0487  158.8427 H   0  0  0  0  0  0  0  0  0  0  0  0
  150.6111  137.8808  157.0821 H   0  0  0  0  0  0  0  0  0  0  0  0
  149.6354  141.6167  157.3028 H   0  0  0  0  0  0  0  0  0  0  0  0
  148.5630  142.3176  154.8911 H   0  0  0  0  0  0  0  0  0  0  0  0
  147.7701  140.8883  152.8293 H   0  0  0  0  0  0  0  0  0  0  0  0
  149.3923  140.4141  152.3558 H   0  0  0  0  0  0  0  0  0  0  0  0
  148.4083  137.0966  151.5842 H   0  0  0  0  0  0  0  0  0  0  0  0
  149.5306  138.4241  151.3712 H   0  0  0  0  0  0  0  0  0  0  0  0
  1  2  1  0  0  0  0
  1 22  1  0  0  0  0
  1 23  1  0  0  0  0
  1 24  1  0  0  0  0
  2  7  1  0  0  0  0
  2  3  1  0  0  0  0
  2 25  1  0  0  0  0
  3  4  1  0  0  0  0
  3 26  1  0  0  0  0
  3 27  1  0  0  0  0
  4  5  1  0  0  0  0
  4 28  1  0  0  0  0
  4 29  1  0  0  0  0
  5  6  1  0  0  0  0
  5 30  1  0  0  0  0
  5 31  1  0  0  0  0
  6  7  1  0  0  0  0
  6 32  1  0  0  0  0
  6 33  1  0  0  0  0
  7  8  1  0  0  0  0
  7 34  1  0  0  0  0
  8  9  1  0  0  0  0
  8 35  1  0  0  0  0
  9 10  2  0  0  0  0
  9 11  1  0  0  0  0
 11 12  1  0  0  0  0
 11 36  1  0  0  0  0
 11 37  1  0  0  0  0
 12 13  1  0  0  0  0
 12 38  1  0  0  0  0
 13 21  2  0  0  0  0
 13 14  1  0  0  0  0
 14 15  2  0  0  0  0
 14 39  1  0  0  0  0
 15 16  1  0  0  0  0
 15 40  1  0  0  0  0
 16 17  1  0  0  0  0
 16 21  1  0  0  0  0
 17 18  1  0  0  0  0
 17 41  1  0  0  0  0
 17 42  1  0  0  0  0
 18 19  1  0  0  0  0
 18 20  2  0  0  0  0
 19 43  1  0  0  0  0
 19 44  1  0  0  0  0
M  END
> <s_m_source_file>
AV-unprocessed.smi

> <i_m_source_file_index>
1807

> <i_lp_mmshare_version>
43012

> <i_f3d_flags>
0

> <s_epik_input>
W0NIM11bQ0BASF0xW0NIMl1bQ0gyXVtDSDJdW0NIMl1bQ0BIXTFbTkhdQyg9TylbQ0gyXVtOSF1jMltjSF1bY0hdbihuMilbQ0gyXUMoPU8pW05IMl0=

> <s_epik_cmdline>
J2VwaWtfcHl0aG9uJywgJy1waCcsICc3LjAnLCAnLXRuJywgJzgnLCAnLW1hJywgJzIwMCcsICctbWV0YWxfYmluZGluZycsICctaW1hZScsICc8aW5maWxlLm1hZT4nLCAnLW9tYWUnLCAnPG91dGZpbGUubWFlPic=

> <r_lp_tautomer_probability>
1

> <r_epik_Ionization_Penalty>
0.000167642

> <r_epik_Ionization_Penalty_Charging>
0

> <r_epik_Ionization_Penalty_Neutral>
0.000167642

> <r_epik_State_Penalty>
-0

> <r_epik_Charging_Adjusted_Penalty>
0

> <i_epik_Tot_Q>
0

> <i_epik_Tot_abs_Q>
0

> <r_epik_Metal_State_Penalty>
-0

> <b_epik_Metal_Only>
0

> <s_lp_Force_Field>
OPLS_2005

> <r_lp_Energy>
4.94833

> <b_lp_Chiralities_Consistent>
1

> <s_lp_Variant>
AV-unprocessed.smi:1807-2

> <Gold.Version>
5.8.1

> <Gold.Id.Protein>
6NUR|6NUR_protein|mol2

> <Gold.PLP.Fitness>
47.9283

> <Gold.PLP.PLP>
-40.1527

> <Gold.PLP.part.hbond>
-2.9743

> <Gold.PLP.part.metal>
0.0000

> <Gold.PLP.part.buried>
-1.5641

> <Gold.PLP.part.nonpolar>
-35.7664

> <Gold.PLP.part.repulsive>
0.4535

> <Gold.PLP.ligand.clash>
0.0000

> <Gold.PLP.ligand.torsion>
0.7719

> <Gold.PLP.Chemscore.Hbond>
2.1019

> <Gold.PLP.Chemscore.CHOScore>
1.0000

> <Gold.PLP.Chemscore.Metal>
0.0000

> <Gold.Chemscore.Hbonds>
donor molecule, donor type, donor heavy atom, donor atom, acceptor molecule, acceptor atom, score
      P1  H  7997  8010       L1    10  1.00
      L1  C    15    40       P1  8028  1.00

> <Gold.PLP.Chemscore.Internal.Correction>
0.0137

> <Gold.Rescore>
     Score         DG    S(hbond)    S(metal)    S(lipo)     H(rot)  DE(clash)    DE(int)     intcor
     17.31     -19.26       2.47        0.00     105.07       2.64       1.34       0.61       ----

> <Gold.Chemscore.Fitness>
17.3074

> <Gold.Chemscore.DG>
-19.2588

> <Gold.Chemscore.ZeroCoef>
-5.4800

> <Gold.Chemscore.Hbond>
2.4658

> <Gold.Chemscore.Metal>
0.0000

> <Gold.Chemscore.Lipo>
105.0728

> <Gold.Chemscore.Internal_Hbond>
0.0000

> <Gold.Chemscore.DEClash>
1.3417

> <Gold.Chemscore.DEInternal>
0.6097

> <Gold.Chemscore.Rot>
2.6369

> <Gold.Chemscore.Internal.Correction>
   9.000000E+99

> <Gold.Chemscore.Hbonds>
donor molecule, donor type, donor heavy atom, donor atom, acceptor molecule, acceptor atom, score
      P1  H  7997  8010       L1    10  0.98

> <Gold.Chemscore.Hbond.Weighted>
-8.2357

> <Gold.Chemscore.Metal.Weighted>
-0.0000

> <Gold.Chemscore.Lipo.Weighted>
-12.2935

> <Gold.Chemscore.Internal_Hbond.Weighted>
0.0000

> <Gold.Chemscore.DEClash.Weighted>
1.3417

> <Gold.Chemscore.DEInternal.Weighted>
0.6097

> <Gold.Chemscore.Rot.Weighted>
6.7504

> <Gold.Chemscore.Internal.Correction.Weighted>
   9.000000E+99

> <Gold.Protein.RotatedTorsions>
[ 6907 6896 6895 6894 ] final  -51.98 input  -60.11 | X-H torsion
[ 7974 7965 7964 7962 ] final  -95.28 input  175.53 | X-H torsion
[ 8008 7997 7996 7995 ] final   32.33 input   59.86 | X-H torsion
[ 10167 10162 10161 10158 ] final  -98.80 input  -65.29 | X-H torsion
[ 10718 10713 10712 10709 ] final   92.79 input   66.30 | X-H torsion
[ 10763 10752 10751 10750 ] final  112.76 input  -60.55 | X-H torsion
[ 11005 11000 10999 10996 ] final -132.04 input  -57.11 | X-H torsion

> <Gold.Protein.ActiveResidues>
 VAL166  LYS551  ARG553  GLY616  TRP617  ASP618  TYR619  PRO620  LYS621  CYS622 
 ASP623  PHE694  ASN695  SER759  ASP760  ASP761  ALA762  ILE779  LEU786  VAL792 
 PHE793  MET794  SER795  GLU796  ALA797  LYS798  CYS799  TRP800  GLU811  SER814 

> <Gold.Protein.RotatedAtoms>
  150.8561  134.7900  159.7046 H   0  0  0  0  0  0  0  0  0  0  0  0  # atno 6907 bound_to 6896
  152.4612  134.5177  159.9783 H   0  0  0  0  0  0  0  0  0  0  0  0  # atno 6908 bound_to 6896
  151.5289  133.3414  159.2950 H   0  0  0  0  0  0  0  0  0  0  0  0  # atno 6909 bound_to 6896
  145.3621  140.9493  143.2494 H   0  0  0  0  0  0  0  0  0  0  0  0  # atno 7974 bound_to 7965
  155.1208  140.3248  155.4498 H   0  0  0  0  0  0  0  0  0  0  0  0  # atno 8008 bound_to 7997
  156.2663  140.2027  156.6278 H   0  0  0  0  0  0  0  0  0  0  0  0  # atno 8009 bound_to 7997
  154.6685  140.0539  157.0127 H   0  0  0  0  0  0  0  0  0  0  0  0  # atno 8010 bound_to 7997
  140.2692  143.3355  152.0551 H   0  0  0  0  0  0  0  0  0  0  0  0  # atno 10167 bound_to 10162
  157.6957  131.0456  150.3936 H   0  0  0  0  0  0  0  0  0  0  0  0  # atno 10718 bound_to 10713
  153.4826  135.3676  155.2450 H   0  0  0  0  0  0  0  0  0  0  0  0  # atno 10763 bound_to 10752
  154.8755  135.3958  154.3682 H   0  0  0  0  0  0  0  0  0  0  0  0  # atno 10764 bound_to 10752
  153.4288  135.7082  153.6309 H   0  0  0  0  0  0  0  0  0  0  0  0  # atno 10765 bound_to 10752
  140.9206  134.1450  157.4317 H   0  0  0  0  0  0  0  0  0  0  0  0  # atno 11005 bound_to 11000
  144.8638  139.5137  143.6799 LP  0  0  0  0  0  0  0  0  0  0  0  0  # atno 17320 bound_to 7965
  146.2922  139.7174  142.9152 LP  0  0  0  0  0  0  0  0  0  0  0  0  # atno 17321 bound_to 7965
  139.4994  144.6668  151.6338 LP  0  0  0  0  0  0  0  0  0  0  0  0  # atno 17342 bound_to 10162
  140.5904  143.9790  150.6321 LP  0  0  0  0  0  0  0  0  0  0  0  0  # atno 17343 bound_to 10162
  156.4336  130.3977  149.6743 LP  0  0  0  0  0  0  0  0  0  0  0  0  # atno 17370 bound_to 10713
  156.3952  130.7647  151.2651 LP  0  0  0  0  0  0  0  0  0  0  0  0  # atno 17371 bound_to 10713
  139.8774  134.9970  156.5822 LP  0  0  0  0  0  0  0  0  0  0  0  0  # atno 17394 bound_to 11000
  140.7993  133.8518  155.8713 LP  0  0  0  0  0  0  0  0  0  0  0  0  # atno 17395 bound_to 11000

$$$$
