AV-unprocessed.smi:219|AV-procd|sdf|1681|dock5
  -GOLD-   2262020113D 1   1.00000     0.00000
 Structure written by MMmdl.
 50 53  0  0  0  0  0  0  0  0  1 V2000
  154.0814  138.2951  161.5290 N   0  0  0  0  0  0  0  0  0  0  0  0
  153.4630  137.9864  160.3866 C   0  0  0  0  0  0  0  0  0  0  0  0
  152.8861  136.9131  160.2237 O   0  0  0  0  0  0  0  0  0  0  0  0
  153.5323  139.0183  159.2538 C   0  0  0  0  0  0  0  0  0  0  0  0
  152.7263  140.3284  159.5004 C   0  0  1  0  0  0  0  0  0  0  0  0
  153.5160  141.2210  160.4865 C   0  0  0  0  0  0  0  0  0  0  0  0
  152.8024  142.5500  160.7665 C   0  0  0  0  0  0  0  0  0  0  0  0
  152.5243  143.2770  159.4476 C   0  0  0  0  0  0  0  0  0  0  0  0
  151.7212  142.3713  158.5065 C   0  0  0  0  0  0  0  0  0  0  0  0
  152.4052  141.0962  158.2808 N   0  0  0  0  0  0  0  0  0  0  0  0
  151.8225  140.4051  157.2758 C   0  0  0  0  0  0  0  0  0  0  0  0
  152.5899  139.8136  156.3220 N   0  0  0  0  0  0  0  0  0  0  0  0
  152.0081  139.1583  155.3131 C   0  0  0  0  0  0  0  0  0  0  0  0
  150.7069  138.9862  155.0690 N   0  0  0  0  0  0  0  0  0  0  0  0
  149.9384  139.5818  156.0265 C   0  0  0  0  0  0  0  0  0  0  0  0
  150.4129  140.2938  157.1623 C   0  0  0  0  0  0  0  0  0  0  0  0
  149.3457  140.7540  157.9217 N   0  0  0  0  0  0  0  0  0  0  0  0
  148.2949  140.3489  157.2619 C   0  0  0  0  0  0  0  0  0  0  0  0
  148.5586  139.6527  156.1028 N   0  0  0  0  0  0  0  0  0  0  0  0
  147.5825  139.1114  155.1701 C   0  0  0  0  0  0  0  0  0  0  0  0
  146.6651  140.1909  154.5479 C   0  0  2  0  0  0  0  0  0  0  0  0
  145.8650  139.5901  153.5437 O   0  0  0  0  0  0  0  0  0  0  0  0
  147.4413  141.3387  153.9158 C   0  0  0  0  0  0  0  0  0  0  0  0
  146.4718  142.5062  154.0399 C   0  0  0  0  0  0  0  0  0  0  0  0
  145.8964  142.3087  155.3203 O   0  0  0  0  0  0  0  0  0  0  0  0
  145.7351  140.9112  155.5473 C   0  0  0  0  0  0  0  0  0  0  0  0
  154.0565  137.6458  162.3019 H   0  0  0  0  0  0  0  0  0  0  0  0
  154.5669  139.1757  161.6187 H   0  0  0  0  0  0  0  0  0  0  0  0
  154.5897  139.2556  159.1284 H   0  0  0  0  0  0  0  0  0  0  0  0
  153.2267  138.5575  158.3133 H   0  0  0  0  0  0  0  0  0  0  0  0
  151.7795  140.0721  159.9786 H   0  0  0  0  0  0  0  0  0  0  0  0
  153.6729  140.6938  161.4283 H   0  0  0  0  0  0  0  0  0  0  0  0
  154.5073  141.4259  160.0794 H   0  0  0  0  0  0  0  0  0  0  0  0
  151.8650  142.3633  161.2921 H   0  0  0  0  0  0  0  0  0  0  0  0
  153.4107  143.1751  161.4204 H   0  0  0  0  0  0  0  0  0  0  0  0
  151.9783  144.2018  159.6341 H   0  0  0  0  0  0  0  0  0  0  0  0
  153.4656  143.5584  158.9737 H   0  0  0  0  0  0  0  0  0  0  0  0
  150.7351  142.1866  158.9354 H   0  0  0  0  0  0  0  0  0  0  0  0
  151.5651  142.8824  157.5551 H   0  0  0  0  0  0  0  0  0  0  0  0
  152.6814  138.7154  154.5941 H   0  0  0  0  0  0  0  0  0  0  0  0
  147.2904  140.5603  157.5982 H   0  0  0  0  0  0  0  0  0  0  0  0
  148.1204  138.5787  154.3849 H   0  0  0  0  0  0  0  0  0  0  0  0
  146.9861  138.3631  155.6934 H   0  0  0  0  0  0  0  0  0  0  0  0
  145.1761  140.1934  153.3103 H   0  0  0  0  0  0  0  0  0  0  0  0
  148.3365  141.5575  154.4995 H   0  0  0  0  0  0  0  0  0  0  0  0
  147.7539  141.1458  152.8885 H   0  0  0  0  0  0  0  0  0  0  0  0
  146.9648  143.4756  153.9650 H   0  0  0  0  0  0  0  0  0  0  0  0
  145.6937  142.4535  153.2768 H   0  0  0  0  0  0  0  0  0  0  0  0
  144.6897  140.6246  155.4228 H   0  0  0  0  0  0  0  0  0  0  0  0
  146.0051  140.7106  156.5831 H   0  0  0  0  0  0  0  0  0  0  0  0
  1  2  1  0  0  0  0
  1 27  1  0  0  0  0
  1 28  1  0  0  0  0
  2  3  2  0  0  0  0
  2  4  1  0  0  0  0
  4  5  1  0  0  0  0
  4 29  1  0  0  0  0
  4 30  1  0  0  0  0
  5 10  1  0  0  0  0
  5  6  1  0  0  0  0
  5 31  1  0  0  0  0
  6  7  1  0  0  0  0
  6 32  1  0  0  0  0
  6 33  1  0  0  0  0
  7  8  1  0  0  0  0
  7 34  1  0  0  0  0
  7 35  1  0  0  0  0
  8  9  1  0  0  0  0
  8 36  1  0  0  0  0
  8 37  1  0  0  0  0
  9 10  1  0  0  0  0
  9 38  1  0  0  0  0
  9 39  1  0  0  0  0
 10 11  1  0  0  0  0
 11 16  1  0  0  0  0
 11 12  2  0  0  0  0
 12 13  1  0  0  0  0
 13 14  2  0  0  0  0
 13 40  1  0  0  0  0
 14 15  1  0  0  0  0
 15 19  1  0  0  0  0
 15 16  2  0  0  0  0
 16 17  1  0  0  0  0
 17 18  2  0  0  0  0
 18 19  1  0  0  0  0
 18 41  1  0  0  0  0
 19 20  1  0  0  0  0
 20 21  1  0  0  0  0
 20 42  1  0  0  0  0
 20 43  1  0  0  0  0
 21 26  1  0  0  0  0
 21 22  1  0  0  0  0
 21 23  1  0  0  0  0
 22 44  1  0  0  0  0
 23 24  1  0  0  0  0
 23 45  1  0  0  0  0
 23 46  1  0  0  0  0
 24 25  1  0  0  0  0
 24 47  1  0  0  0  0
 24 48  1  0  0  0  0
 25 26  1  0  0  0  0
 26 49  1  0  0  0  0
 26 50  1  0  0  0  0
M  END
> <s_m_source_file>
AV-unprocessed.smi

> <i_m_source_file_index>
219

> <i_lp_mmshare_version>
43012

> <i_f3d_flags>
0

> <s_epik_input>
W05IMl1DKD1PKVtDSDJdW0NAQEhdMVtDSDJdW0NIMl1bQ0gyXVtDSDJdTjFjKG5bY0hdbjIpYyhjMjMpbltjSF1uM1tDSDJdW0NAQF00KFtPSF0pW0NIMl1bQ0gyXU9bQ0gyXTQ=

> <s_epik_cmdline>
J2VwaWtfcHl0aG9uJywgJy1waCcsICc3LjAnLCAnLXRuJywgJzgnLCAnLW1hJywgJzIwMCcsICctbWV0YWxfYmluZGluZycsICctaW1hZScsICc8aW5maWxlLm1hZT4nLCAnLW9tYWUnLCAnPG91dGZpbGUubWFlPic=

> <r_lp_tautomer_probability>
1

> <r_epik_Ionization_Penalty>
0.00228532

> <r_epik_Ionization_Penalty_Charging>
0

> <r_epik_Ionization_Penalty_Neutral>
0.00228532

> <r_epik_State_Penalty>
0.00140978

> <r_epik_Charging_Adjusted_Penalty>
0.00140978

> <i_epik_Tot_Q>
0

> <i_epik_Tot_abs_Q>
0

> <r_epik_Metal_State_Penalty>
-0

> <b_epik_Metal_Only>
0

> <s_lp_Force_Field>
OPLS_2005

> <r_lp_Energy>
35.4504

> <b_lp_Chiralities_Consistent>
1

> <s_lp_Variant>
AV-unprocessed.smi:219-4

> <Gold.Version>
5.8.1

> <Gold.Id.Protein>
6NUR|6NUR_protein|mol2

> <Gold.PLP.Fitness>
47.4584

> <Gold.PLP.PLP>
-40.1484

> <Gold.PLP.part.hbond>
-2.9530

> <Gold.PLP.part.metal>
0.0000

> <Gold.PLP.part.buried>
-7.0393

> <Gold.PLP.part.nonpolar>
-30.5085

> <Gold.PLP.part.repulsive>
0.2961

> <Gold.PLP.ligand.clash>
0.0000

> <Gold.PLP.ligand.torsion>
0.8395

> <Gold.PLP.Chemscore.Hbond>
2.8960

> <Gold.PLP.Chemscore.CHOScore>
0.0000

> <Gold.PLP.Chemscore.Metal>
0.0000

> <Gold.Chemscore.Hbonds>
donor molecule, donor type, donor heavy atom, donor atom, acceptor molecule, acceptor atom, score
      L1  H    22    44       P1 10175  0.98
      P1  H  6896  6908       L1     3  0.91
      P1  H  7997  8008       L1    12  1.00

> <Gold.PLP.Chemscore.Internal.Correction>
0.3008

> <Gold.Rescore>
     Score         DG    S(hbond)    S(metal)    S(lipo)     H(rot)  DE(clash)    DE(int)     intcor
     13.88     -15.80       2.74        0.00      83.85       3.37       0.06       1.86       ----

> <Gold.Chemscore.Fitness>
13.8786

> <Gold.Chemscore.DG>
-15.8014

> <Gold.Chemscore.ZeroCoef>
-5.4800

> <Gold.Chemscore.Hbond>
2.7358

> <Gold.Chemscore.Metal>
0.0000

> <Gold.Chemscore.Lipo>
83.8485

> <Gold.Chemscore.Internal_Hbond>
0.0000

> <Gold.Chemscore.DEClash>
0.0602

> <Gold.Chemscore.DEInternal>
1.8626

> <Gold.Chemscore.Rot>
3.3697

> <Gold.Chemscore.Internal.Correction>
   9.000000E+99

> <Gold.Chemscore.Hbonds>
donor molecule, donor type, donor heavy atom, donor atom, acceptor molecule, acceptor atom, score
      L1  H    22    44       P1 10175  0.93
      P1  H  6896  6908       L1     3  0.89
      P1  H  7997  8008       L1    12  0.95

> <Gold.Chemscore.Hbond.Weighted>
-9.1376

> <Gold.Chemscore.Metal.Weighted>
-0.0000

> <Gold.Chemscore.Lipo.Weighted>
-9.8103

> <Gold.Chemscore.Internal_Hbond.Weighted>
0.0000

> <Gold.Chemscore.DEClash.Weighted>
0.0602

> <Gold.Chemscore.DEInternal.Weighted>
1.8626

> <Gold.Chemscore.Rot.Weighted>
8.6264

> <Gold.Chemscore.Internal.Correction.Weighted>
   9.000000E+99

> <Gold.Protein.RotatedTorsions>
[ 6907 6896 6895 6894 ] final -102.72 input  -60.11 | X-H torsion
[ 7974 7965 7964 7962 ] final -128.99 input  175.53 | X-H torsion
[ 8008 7997 7996 7995 ] final  -42.97 input   59.86 | X-H torsion
[ 10167 10162 10161 10158 ] final  159.21 input  -65.29 | X-H torsion
[ 10718 10713 10712 10709 ] final   52.73 input   66.30 | X-H torsion
[ 10763 10752 10751 10750 ] final  -71.17 input  -60.55 | X-H torsion
[ 11005 11000 10999 10996 ] final -176.35 input  -57.11 | X-H torsion

> <Gold.Protein.ActiveResidues>
 VAL166  LYS551  ARG553  GLY616  TRP617  ASP618  TYR619  PRO620  LYS621  CYS622 
 ASP623  PHE694  ASN695  SER759  ASP760  ASP761  ALA762  ILE779  LEU786  VAL792 
 PHE793  MET794  SER795  GLU796  ALA797  LYS798  CYS799  TRP800  GLU811  SER814 

> <Gold.Protein.RotatedAtoms>
  150.7208  134.0538  159.3807 H   0  0  0  0  0  0  0  0  0  0  0  0  # atno 6907 bound_to 6896
  151.8516  135.0553  160.0469 H   0  0  0  0  0  0  0  0  0  0  0  0  # atno 6908 bound_to 6896
  152.2786  133.5413  159.5520 H   0  0  0  0  0  0  0  0  0  0  0  0  # atno 6909 bound_to 6896
  144.9616  140.7453  143.4725 H   0  0  0  0  0  0  0  0  0  0  0  0  # atno 7974 bound_to 7965
  154.3997  140.1459  156.3443 H   0  0  0  0  0  0  0  0  0  0  0  0  # atno 8008 bound_to 7997
  155.8328  140.3465  155.5561 H   0  0  0  0  0  0  0  0  0  0  0  0  # atno 8009 bound_to 7997
  155.8170  140.0892  157.1861 H   0  0  0  0  0  0  0  0  0  0  0  0  # atno 8010 bound_to 7997
  139.4831  144.4751  151.8522 H   0  0  0  0  0  0  0  0  0  0  0  0  # atno 10167 bound_to 10162
  157.5101  130.8495  149.8425 H   0  0  0  0  0  0  0  0  0  0  0  0  # atno 10718 bound_to 10713
  154.4280  135.5971  153.6051 H   0  0  0  0  0  0  0  0  0  0  0  0  # atno 10763 bound_to 10752
  152.9797  135.5968  154.3874 H   0  0  0  0  0  0  0  0  0  0  0  0  # atno 10764 bound_to 10752
  154.3708  135.2841  155.2246 H   0  0  0  0  0  0  0  0  0  0  0  0  # atno 10765 bound_to 10752
  140.4531  134.6325  157.4810 H   0  0  0  0  0  0  0  0  0  0  0  0  # atno 11005 bound_to 11000
  145.2691  139.1961  143.4851 LP  0  0  0  0  0  0  0  0  0  0  0  0  # atno 17320 bound_to 7965
  146.3355  140.2635  142.8603 LP  0  0  0  0  0  0  0  0  0  0  0  0  # atno 17321 bound_to 7965
  140.4223  144.2227  150.5887 LP  0  0  0  0  0  0  0  0  0  0  0  0  # atno 17342 bound_to 10162
  140.4862  143.2362  151.8885 LP  0  0  0  0  0  0  0  0  0  0  0  0  # atno 17343 bound_to 10162
  156.0284  130.3772  150.1758 LP  0  0  0  0  0  0  0  0  0  0  0  0  # atno 17370 bound_to 10713
  156.9947  130.9904  151.3406 LP  0  0  0  0  0  0  0  0  0  0  0  0  # atno 17371 bound_to 10713
  139.9994  134.6860  155.9555 LP  0  0  0  0  0  0  0  0  0  0  0  0  # atno 17394 bound_to 11000
  141.1655  133.6537  156.4465 LP  0  0  0  0  0  0  0  0  0  0  0  0  # atno 17395 bound_to 11000

$$$$
