#       Name:                AV-unprocessed.smi:2735
#       Creating user name   scv26
#       Creation time:       Fri Mar 27 14:58:57 2020


#       File generated by GOLD software.
#

@<TRIPOS>MOLECULE
AV-unprocessed.smi:2735
    49    49     1
SMALL
NO_CHARGES


@<TRIPOS>ATOM
      1 ****        -3.4262   3.8557  -2.7534 C.3            1 S1                 0.0000
      2 ****        -2.9086   2.5326  -2.2721 C.2            1 S1                 0.0000
      3 ****        -2.7400   1.3304  -3.0116 C.2            1 S1                 0.0000
      4 ****        -2.2329   0.4440  -2.1039 C.2            1 S1                 0.0000
      5 ****        -1.8309  -0.9828  -2.2885 C.3            1 S1                 0.0000
      6 ****        -2.1360   1.1103  -0.8922 N.pl3          1 S1                 0.0000
      7 ****        -1.6082   0.6202   0.3819 C.3            1 S1                 0.0000
      8 ****        -2.3251   1.2307   1.6041 C.3            1 S1                 0.0000
      9 ****        -0.0905   0.8458   0.4447 C.2            1 S1                 0.0000
     10 ****         0.3649   1.9655   0.6801 O.2            1 S1                 0.0000
     11 ****         0.6786  -0.2322   0.2249 N.am           1 S1                 0.0000
     12 ****         2.1393  -0.2405   0.1633 C.3            1 S1                 0.0000
     13 ****         2.6592  -1.6203   0.6335 C.3            1 S1                 0.0000
     14 ****         2.3285  -1.9823   2.0998 C.3            1 S1                 0.0000
     15 ****         2.9813  -1.0204   3.1068 C.3            1 S1                 0.0000
     16 ****         2.7380  -3.4316   2.4023 C.3            1 S1                 0.0000
     17 ****         2.5875  -0.0292  -1.2921 C.2            1 S1                 0.0000
     18 ****         3.4644   0.8388  -1.4939 O.co2          1 S1                 0.0000
     19 ****         2.0570  -0.7392  -2.1766 O.co2          1 S1                -1.0000
     20 ****        -2.5390   2.3980  -1.0103 N.2            1 S1                 0.0000
     21 ****         2.5597   0.5534   0.7824 H              1 S1                 0.0000
     22 ****        -3.6682   3.8207  -3.8158 H              1 S1                 0.0000
     23 ****        -2.6868   4.6435  -2.6075 H              1 S1                 0.0000
     24 ****        -4.3304   4.1419  -2.2162 H              1 S1                 0.0000
     25 ****        -2.9499   1.1480  -4.0551 H              1 S1                 0.0000
     26 ****        -2.0192  -1.3100  -3.3110 H              1 S1                 0.0000
     27 ****        -2.3920  -1.6359  -1.6204 H              1 S1                 0.0000
     28 ****        -0.7685  -1.1173  -2.0872 H              1 S1                 0.0000
     29 ****        -1.7941  -0.4541   0.4172 H              1 S1                 0.0000
     30 ****        -1.9605   0.7874   2.5313 H              1 S1                 0.0000
     31 ****        -3.3988   1.0475   1.5565 H              1 S1                 0.0000
     32 ****        -2.1749   2.3087   1.6761 H              1 S1                 0.0000
     33 ****         0.2181  -1.1086   0.0290 H              1 S1                 0.0000
     34 ****         2.2518  -2.3977  -0.0157 H              1 S1                 0.0000
     35 ****         3.7417  -1.6623   0.5005 H              1 S1                 0.0000
     36 ****         1.2484  -1.9242   2.2374 H              1 S1                 0.0000
     37 ****         4.0644  -0.9916   2.9838 H              1 S1                 0.0000
     38 ****         2.7714  -1.3256   4.1322 H              1 S1                 0.0000
     39 ****         2.6041  -0.0043   2.9941 H              1 S1                 0.0000
     40 ****         3.8138  -3.5707   2.2904 H              1 S1                 0.0000
     41 ****         2.2402  -4.1303   1.7294 H              1 S1                 0.0000
     42 ****         2.4699  -3.7124   3.4211 H              1 S1                 0.0000
     43 ****        -0.2548   2.7355   0.8319 LP             1 S1                 0.0000
     44 ****         1.3543   2.1047   0.7194 LP             1 S1                 0.0000
     45 ****         3.7948   1.0094  -2.4222 LP             1 S1                 0.0000
     46 ****         3.8353   1.3625  -0.7270 LP             1 S1                 0.0000
     47 ****         2.3296  -0.6334  -3.1329 LP             1 S1                 0.0000
     48 ****         1.3606  -1.4120  -1.9267 LP             1 S1                 0.0000
     49 ****        -2.5538   3.0973  -0.2956 LP             1 S1                 0.0000
@<TRIPOS>BOND
    1    1    2 1     
    2    1   22 1     
    3    1   23 1     
    4    1   24 1     
    5    2   20 2     
    6    2    3 1     
    7    3    4 2     
    8    3   25 1     
    9    4    5 1     
   10    4    6 1     
   11    5   26 1     
   12    5   27 1     
   13    5   28 1     
   14    6    7 1     
   15    6   20 1     
   16    7    8 1     
   17    7    9 1     
   18    7   29 1     
   19    8   30 1     
   20    8   31 1     
   21    8   32 1     
   22    9   10 2     
   23    9   11 am    
   24   11   12 1     
   25   11   33 1     
   26   12   21 1     
   27   12   13 1     
   28   12   17 1     
   29   13   14 1     
   30   13   34 1     
   31   13   35 1     
   32   14   15 1     
   33   14   16 1     
   34   14   36 1     
   35   15   37 1     
   36   15   38 1     
   37   15   39 1     
   38   16   40 1     
   39   16   41 1     
   40   16   42 1     
   41   17   18 ar    
   42   17   19 ar    
   43   10   43 1     
   44   10   44 1     
   45   18   45 1     
   46   18   46 1     
   47   19   47 1     
   48   19   48 1     
   49   20   49 1     
@<TRIPOS>SUBSTRUCTURE
      1 S1             1
@<TRIPOS>SET
LONE_PAIRS      STATIC     ATOMS    <user>   **** ""
7 43 44 45 46 47 48 49
DONOR_HYDROGENS      STATIC     ATOMS    <user>   **** ""
1 33
ATOM$BLUE        STATIC     ATOMS    COLORGROUP SYSTEM
7 43 44 45 46 47 48 49
ATOM$RED        STATIC     ATOMS    COLORGROUP SYSTEM
1 33
