AV-unprocessed.smi:592|AV-procd|sdf|3010|dock3
  -GOLD-   2262023513D 1   1.00000     0.00000
 Structure written by MMmdl.
 27 28  0  0  0  0  0  0  0  0  1 V2000
  151.2985  139.5510  159.2039 O   0  0  0  0  0  0  0  0  0  0  0  0
  151.9012  140.3693  158.5095 C   0  0  0  0  0  0  0  0  0  0  0  0
  153.0042  141.2384  159.1541 C   0  0  0  0  0  0  0  0  0  0  0  0
  152.5536  142.5934  159.5162 N   0  0  0  0  0  0  0  0  0  0  0  0
  151.8978  143.3377  158.5152 C   0  0  0  0  0  0  0  0  0  0  0  0
  151.4455  144.5820  158.7365 C   0  0  0  0  0  0  0  0  0  0  0  0
  151.6472  145.1589  160.0443 C   0  0  0  0  0  0  0  0  0  0  0  0
  152.2682  144.4540  161.0109 C   0  0  0  0  0  0  0  0  0  0  0  0
  152.7589  143.0910  160.7751 C   0  0  0  0  0  0  0  0  0  0  0  0
  153.3194  142.4375  161.6555 O   0  0  0  0  0  0  0  0  0  0  0  0
  151.5862  140.4786  157.2002 N   0  0  0  0  0  0  0  0  0  0  0  0
  150.6315  139.7876  156.4497 C   0  0  0  0  0  0  0  0  0  0  0  0
  150.6801  139.5147  155.1927 N   0  0  0  0  0  0  0  0  0  0  0  0
  149.5098  138.7418  154.7984 C   0  0  0  0  0  0  0  0  0  0  0  0
  148.4183  138.7808  155.8987 C   0  0  0  0  0  0  0  0  0  0  0  0
  149.2117  139.3199  157.4172 S   0  0  0  0  0  0  0  0  0  0  0  0
  153.3914  140.7349  160.0414 H   0  0  0  0  0  0  0  0  0  0  0  0
  153.8444  141.3073  158.4620 H   0  0  0  0  0  0  0  0  0  0  0  0
  151.7810  142.8316  157.5678 H   0  0  0  0  0  0  0  0  0  0  0  0
  150.9406  145.1352  157.9582 H   0  0  0  0  0  0  0  0  0  0  0  0
  151.2979  146.1602  160.2488 H   0  0  0  0  0  0  0  0  0  0  0  0
  152.4101  144.9018  161.9834 H   0  0  0  0  0  0  0  0  0  0  0  0
  152.1230  141.1727  156.7007 H   0  0  0  0  0  0  0  0  0  0  0  0
  149.1092  139.1182  153.8566 H   0  0  0  0  0  0  0  0  0  0  0  0
  149.8117  137.7097  154.6157 H   0  0  0  0  0  0  0  0  0  0  0  0
  147.6476  139.5076  155.6401 H   0  0  0  0  0  0  0  0  0  0  0  0
  147.9345  137.8129  156.0317 H   0  0  0  0  0  0  0  0  0  0  0  0
  1  2  2  0  0  0  0
  2  3  1  0  0  0  0
  2 11  1  0  0  0  0
  3  4  1  0  0  0  0
  3 17  1  0  0  0  0
  3 18  1  0  0  0  0
  4  9  1  0  0  0  0
  4  5  1  0  0  0  0
  5  6  2  0  0  0  0
  5 19  1  0  0  0  0
  6  7  1  0  0  0  0
  6 20  1  0  0  0  0
  7  8  2  0  0  0  0
  7 21  1  0  0  0  0
  8  9  1  0  0  0  0
  8 22  1  0  0  0  0
  9 10  2  0  0  0  0
 11 12  1  0  0  0  0
 11 23  1  0  0  0  0
 12 16  1  0  0  0  0
 12 13  2  0  0  0  0
 13 14  1  0  0  0  0
 14 15  1  0  0  0  0
 14 24  1  0  0  0  0
 14 25  1  0  0  0  0
 15 16  1  0  0  0  0
 15 26  1  0  0  0  0
 15 27  1  0  0  0  0
M  END
> <s_m_source_file>
AV-unprocessed.smi

> <i_m_source_file_index>
592

> <i_lp_mmshare_version>
43012

> <i_f3d_flags>
0

> <s_epik_input>
UzFbQ0gyXVtDSDJdTj1DMVtOSF1DKD1PKVtDSDJdbjJbY0hdW2NIXVtjSF1bY0hdYzI9Tw==

> <s_epik_cmdline>
J2VwaWtfcHl0aG9uJywgJy1waCcsICc3LjAnLCAnLXRuJywgJzgnLCAnLW1hJywgJzIwMCcsICctbWV0YWxfYmluZGluZycsICctaW1hZScsICc8aW5maWxlLm1hZT4nLCAnLW9tYWUnLCAnPG91dGZpbGUubWFlPic=

> <r_lp_tautomer_probability>
1

> <r_epik_Ionization_Penalty>
0.0449927

> <r_epik_Ionization_Penalty_Charging>
2.12211e-07

> <r_epik_Ionization_Penalty_Neutral>
0.0449925

> <r_epik_State_Penalty>
0.0415249

> <r_epik_Charging_Adjusted_Penalty>
0.0415251

> <i_epik_Tot_Q>
0

> <i_epik_Tot_abs_Q>
0

> <r_epik_Metal_State_Penalty>
0.0415666

> <b_epik_Metal_Only>
0

> <s_epik_Chemistry_Notes>
This compound has an imine and may undergo hydrolysis.

> <s_lp_Force_Field>
OPLS_2005

> <r_lp_Energy>
28.1841

> <b_lp_Chiralities_Consistent>
1

> <s_lp_Variant>
AV-unprocessed.smi:592-1

> <Gold.Version>
5.8.1

> <Gold.Id.Protein>
6NUR|6NUR_protein|mol2

> <Gold.PLP.Fitness>
38.7790

> <Gold.PLP.PLP>
-37.3465

> <Gold.PLP.part.hbond>
-1.0000

> <Gold.PLP.part.metal>
0.0000

> <Gold.PLP.part.buried>
-5.6225

> <Gold.PLP.part.nonpolar>
-30.8483

> <Gold.PLP.part.repulsive>
0.2366

> <Gold.PLP.ligand.clash>
0.0000

> <Gold.PLP.ligand.torsion>
0.5606

> <Gold.PLP.Chemscore.Hbond>
0.8500

> <Gold.PLP.Chemscore.CHOScore>
0.0000

> <Gold.PLP.Chemscore.Metal>
0.0000

> <Gold.Chemscore.Hbonds>
donor molecule, donor type, donor heavy atom, donor atom, acceptor molecule, acceptor atom, score
      P1  H  7989  7998       L1    13  0.15

> <Gold.PLP.Chemscore.Internal.Correction>
0.0036

> <Gold.Rescore>
     Score         DG    S(hbond)    S(metal)    S(lipo)     H(rot)  DE(clash)    DE(int)     intcor
     11.29     -13.33       0.94        0.00      69.33       1.33       0.04       2.00       ----

> <Gold.Chemscore.Fitness>
11.2942

> <Gold.Chemscore.DG>
-13.3310

> <Gold.Chemscore.ZeroCoef>
-5.4800

> <Gold.Chemscore.Hbond>
0.9421

> <Gold.Chemscore.Metal>
0.0000

> <Gold.Chemscore.Lipo>
69.3277

> <Gold.Chemscore.Internal_Hbond>
0.0000

> <Gold.Chemscore.DEClash>
0.0370

> <Gold.Chemscore.DEInternal>
1.9998

> <Gold.Chemscore.Rot>
1.3309

> <Gold.Chemscore.Internal.Correction>
   9.000000E+99

> <Gold.Chemscore.Hbonds>
donor molecule, donor type, donor heavy atom, donor atom, acceptor molecule, acceptor atom, score
      P1  H  7989  7998       L1    13  0.16

> <Gold.Chemscore.Hbond.Weighted>
-3.1467

> <Gold.Chemscore.Metal.Weighted>
-0.0000

> <Gold.Chemscore.Lipo.Weighted>
-8.1113

> <Gold.Chemscore.Internal_Hbond.Weighted>
0.0000

> <Gold.Chemscore.DEClash.Weighted>
0.0370

> <Gold.Chemscore.DEInternal.Weighted>
1.9998

> <Gold.Chemscore.Rot.Weighted>
3.4071

> <Gold.Chemscore.Internal.Correction.Weighted>
   9.000000E+99

> <Gold.Protein.RotatedTorsions>
[ 6907 6896 6895 6894 ] final -178.31 input  -60.11 | X-H torsion
[ 7974 7965 7964 7962 ] final  108.84 input  175.53 | X-H torsion
[ 8008 7997 7996 7995 ] final   35.85 input   59.86 | X-H torsion
[ 10167 10162 10161 10158 ] final   27.28 input  -65.29 | X-H torsion
[ 10718 10713 10712 10709 ] final    7.79 input   66.30 | X-H torsion
[ 10763 10752 10751 10750 ] final   42.59 input  -60.55 | X-H torsion
[ 11005 11000 10999 10996 ] final   94.97 input  -57.11 | X-H torsion

> <Gold.Protein.ActiveResidues>
 VAL166  LYS551  ARG553  GLY616  TRP617  ASP618  TYR619  PRO620  LYS621  CYS622 
 ASP623  PHE694  ASN695  SER759  ASP760  ASP761  ALA762  ILE779  LEU786  VAL792 
 PHE793  MET794  SER795  GLU796  ALA797  LYS798  CYS799  TRP800  GLU811  SER814 

> <Gold.Protein.RotatedAtoms>
  151.6351  133.3329  159.3117 H   0  0  0  0  0  0  0  0  0  0  0  0  # atno 6907 bound_to 6896
  150.8036  134.7150  159.6635 H   0  0  0  0  0  0  0  0  0  0  0  0  # atno 6908 bound_to 6896
  152.4130  134.6095  160.0073 H   0  0  0  0  0  0  0  0  0  0  0  0  # atno 6909 bound_to 6896
  145.2755  139.2651  143.3943 H   0  0  0  0  0  0  0  0  0  0  0  0  # atno 7974 bound_to 7965
  155.1779  140.3297  155.4380 H   0  0  0  0  0  0  0  0  0  0  0  0  # atno 8008 bound_to 7997
  156.2487  140.1932  156.6829 H   0  0  0  0  0  0  0  0  0  0  0  0  # atno 8009 bound_to 7997
  154.6292  140.0585  156.9697 H   0  0  0  0  0  0  0  0  0  0  0  0  # atno 8010 bound_to 7997
  140.4951  144.0404  150.6311 H   0  0  0  0  0  0  0  0  0  0  0  0  # atno 10167 bound_to 10162
  156.9421  130.5865  149.5653 H   0  0  0  0  0  0  0  0  0  0  0  0  # atno 10718 bound_to 10713
  152.9879  135.6127  154.2974 H   0  0  0  0  0  0  0  0  0  0  0  0  # atno 10763 bound_to 10752
  154.2696  135.2780  155.2745 H   0  0  0  0  0  0  0  0  0  0  0  0  # atno 10764 bound_to 10752
  154.5134  135.5835  153.6680 H   0  0  0  0  0  0  0  0  0  0  0  0  # atno 10765 bound_to 10752
  139.8793  134.8874  156.3943 H   0  0  0  0  0  0  0  0  0  0  0  0  # atno 11005 bound_to 11000
  146.3233  140.3209  142.8633 LP  0  0  0  0  0  0  0  0  0  0  0  0  # atno 17320 bound_to 7965
  144.9298  140.7962  143.5696 LP  0  0  0  0  0  0  0  0  0  0  0  0  # atno 17321 bound_to 7965
  140.3684  143.2868  152.0305 LP  0  0  0  0  0  0  0  0  0  0  0  0  # atno 17342 bound_to 10162
  139.4859  144.6249  151.7184 LP  0  0  0  0  0  0  0  0  0  0  0  0  # atno 17343 bound_to 10162
  156.0400  130.5483  150.8747 LP  0  0  0  0  0  0  0  0  0  0  0  0  # atno 17370 bound_to 10713
  157.5778  131.0946  150.9318 LP  0  0  0  0  0  0  0  0  0  0  0  0  # atno 17371 bound_to 10713
  140.9311  133.7578  156.0026 LP  0  0  0  0  0  0  0  0  0  0  0  0  # atno 17394 bound_to 11000
  140.8329  134.3157  157.5342 LP  0  0  0  0  0  0  0  0  0  0  0  0  # atno 17395 bound_to 11000

$$$$
