AV-unprocessed.smi:3330|AV-procd|sdf|12808|dock7
  -GOLD-   2272019173D 1   1.00000     0.00000
 Structure written by MMmdl.
 38 39  0  0  0  0  0  0  0  0  1 V2000
  149.1373  141.1230  156.0336 C   0  0  0  0  0  0  0  0  0  0  0  0
  150.0081  141.9920  156.9615 C   0  0  1  0  0  0  0  0  0  0  0  0
  149.1599  142.9888  157.6083 N   0  0  0  0  0  0  0  0  0  0  0  0
  147.9943  142.3909  158.2426 C   0  0  0  0  0  0  0  0  0  0  0  0
  146.8077  143.3668  158.1651 C   0  0  0  0  0  0  0  0  0  0  0  0
  146.0466  143.4034  159.4202 N   0  0  0  0  0  0  0  0  0  0  0  0
  146.5499  143.7812  160.6032 C   0  0  0  0  0  0  0  0  0  0  0  0
  147.6953  144.1608  160.8448 O   0  0  0  0  0  0  0  0  0  0  0  0
  145.4561  143.6822  161.6440 C   0  0  0  0  0  0  0  0  0  0  0  0
  144.3693  143.2356  160.8004 N   0  0  0  0  0  0  0  0  0  0  0  0
  144.7434  143.0832  159.5234 C   0  0  0  0  0  0  0  0  0  0  0  0
  144.0068  142.7146  158.6097 O   0  0  0  0  0  0  0  0  0  0  0  0
  150.7277  141.1714  158.0670 C   0  0  1  0  0  0  0  0  0  0  0  0
  151.4717  139.9410  157.5155 C   0  0  0  0  0  0  0  0  0  0  0  0
  151.6538  141.9966  158.8378 N   0  0  0  0  0  0  0  0  0  0  0  0
  151.9672  143.3266  158.6480 C   0  0  0  0  0  0  0  0  0  0  0  0
  152.8747  143.6743  159.6069 C   0  0  0  0  0  0  0  0  0  0  0  0
  153.0564  142.4754  160.3508 C   0  0  0  0  0  0  0  0  0  0  0  0
  152.3249  141.4743  159.8904 N   0  0  0  0  0  0  0  0  0  0  0  0
  149.7371  140.3944  155.4896 H   0  0  0  0  0  0  0  0  0  0  0  0
  148.6240  141.7225  155.2821 H   0  0  0  0  0  0  0  0  0  0  0  0
  148.3795  140.5771  156.5966 H   0  0  0  0  0  0  0  0  0  0  0  0
  150.7696  142.4980  156.3662 H   0  0  0  0  0  0  0  0  0  0  0  0
  148.8350  143.6303  156.8986 H   0  0  0  0  0  0  0  0  0  0  0  0
  147.7306  141.4477  157.7621 H   0  0  0  0  0  0  0  0  0  0  0  0
  148.2248  142.1697  159.2846 H   0  0  0  0  0  0  0  0  0  0  0  0
  147.1852  144.3687  157.9544 H   0  0  0  0  0  0  0  0  0  0  0  0
  146.1608  143.1194  157.3213 H   0  0  0  0  0  0  0  0  0  0  0  0
  145.6975  142.9472  162.4121 H   0  0  0  0  0  0  0  0  0  0  0  0
  145.2399  144.6477  162.1012 H   0  0  0  0  0  0  0  0  0  0  0  0
  143.4375  143.0613  161.1481 H   0  0  0  0  0  0  0  0  0  0  0  0
  149.9723  140.8087  158.7664 H   0  0  0  0  0  0  0  0  0  0  0  0
  150.7836  139.2109  157.0908 H   0  0  0  0  0  0  0  0  0  0  0  0
  152.0254  139.4329  158.3056 H   0  0  0  0  0  0  0  0  0  0  0  0
  152.1844  140.2207  156.7390 H   0  0  0  0  0  0  0  0  0  0  0  0
  151.5254  143.9083  157.8523 H   0  0  0  0  0  0  0  0  0  0  0  0
  153.3396  144.6379  159.7534 H   0  0  0  0  0  0  0  0  0  0  0  0
  153.6960  142.3033  161.2036 H   0  0  0  0  0  0  0  0  0  0  0  0
  1  2  1  0  0  0  0
  1 20  1  0  0  0  0
  1 21  1  0  0  0  0
  1 22  1  0  0  0  0
  2  3  1  0  0  0  0
  2 13  1  0  0  0  0
  2 23  1  0  0  0  0
  3  4  1  0  0  0  0
  3 24  1  0  0  0  0
  4  5  1  0  0  0  0
  4 25  1  0  0  0  0
  4 26  1  0  0  0  0
  5  6  1  0  0  0  0
  5 27  1  0  0  0  0
  5 28  1  0  0  0  0
  6 11  1  0  0  0  0
  6  7  1  0  0  0  0
  7  8  2  0  0  0  0
  7  9  1  0  0  0  0
  9 10  1  0  0  0  0
  9 29  1  0  0  0  0
  9 30  1  0  0  0  0
 10 11  1  0  0  0  0
 10 31  1  0  0  0  0
 11 12  2  0  0  0  0
 13 14  1  0  0  0  0
 13 15  1  0  0  0  0
 13 32  1  0  0  0  0
 14 33  1  0  0  0  0
 14 34  1  0  0  0  0
 14 35  1  0  0  0  0
 15 19  1  0  0  0  0
 15 16  1  0  0  0  0
 16 17  2  0  0  0  0
 16 36  1  0  0  0  0
 17 18  1  0  0  0  0
 17 37  1  0  0  0  0
 18 19  2  0  0  0  0
 18 38  1  0  0  0  0
M  END
> <s_m_source_file>
AV-unprocessed.smi

> <i_m_source_file_index>
3330

> <i_lp_mmshare_version>
43012

> <i_f3d_flags>
0

> <s_epik_input>
bjFbY0hdW2NIXVtjSF1uMVtDQEBIXShbQ0gzXSlbQ0BIXShbQ0gzXSlbTkhdW0NIMl1bQ0gyXU4yQyg9TylbQ0gyXVtOSF1DMj1P

> <s_epik_cmdline>
J2VwaWtfcHl0aG9uJywgJy1waCcsICc3LjAnLCAnLXRuJywgJzgnLCAnLW1hJywgJzIwMCcsICctbWV0YWxfYmluZGluZycsICctaW1hZScsICc8aW5maWxlLm1hZT4nLCAnLW9tYWUnLCAnPG91dGZpbGUubWFlPic=

> <r_lp_tautomer_probability>
1

> <r_epik_Ionization_Penalty>
2.2997

> <r_epik_Ionization_Penalty_Charging>
0

> <r_epik_Ionization_Penalty_Neutral>
2.2997

> <r_epik_State_Penalty>
2.44917

> <r_epik_Charging_Adjusted_Penalty>
2.44917

> <i_epik_Tot_Q>
0

> <i_epik_Tot_abs_Q>
0

> <r_epik_Metal_State_Penalty>
2.52438

> <b_epik_Metal_Only>
0

> <s_lp_Force_Field>
OPLS_2005

> <r_lp_Energy>
27.2157

> <b_lp_Chiralities_Consistent>
1

> <s_lp_Variant>
AV-unprocessed.smi:3330-8

> <Gold.Version>
5.8.1

> <Gold.Id.Protein>
6NUR|6NUR_protein|mol2

> <Gold.PLP.Fitness>
36.6009

> <Gold.PLP.PLP>
-31.7829

> <Gold.PLP.part.hbond>
-2.2912

> <Gold.PLP.part.metal>
0.0000

> <Gold.PLP.part.buried>
-4.5292

> <Gold.PLP.part.nonpolar>
-24.7400

> <Gold.PLP.part.repulsive>
0.2473

> <Gold.PLP.ligand.clash>
0.0000

> <Gold.PLP.ligand.torsion>
0.6477

> <Gold.PLP.Chemscore.Hbond>
2.0000

> <Gold.PLP.Chemscore.CHOScore>
0.0000

> <Gold.PLP.Chemscore.Metal>
0.0000

> <Gold.Chemscore.Hbonds>
donor molecule, donor type, donor heavy atom, donor atom, acceptor molecule, acceptor atom, score
      L1  H     3    24       P1  8028  1.00
      P1  H  6933  6944       L1     8  0.88

> <Gold.PLP.Chemscore.Internal.Correction>
0.1134

> <Gold.Rescore>
     Score         DG    S(hbond)    S(metal)    S(lipo)     H(rot)  DE(clash)    DE(int)     intcor
     12.04     -12.63       1.86        0.00      64.86       2.60       0.01       0.59       ----

> <Gold.Chemscore.Fitness>
12.0357

> <Gold.Chemscore.DG>
-12.6304

> <Gold.Chemscore.ZeroCoef>
-5.4800

> <Gold.Chemscore.Hbond>
1.8580

> <Gold.Chemscore.Metal>
0.0000

> <Gold.Chemscore.Lipo>
64.8593

> <Gold.Chemscore.Internal_Hbond>
0.0000

> <Gold.Chemscore.DEClash>
0.0060

> <Gold.Chemscore.DEInternal>
0.5887

> <Gold.Chemscore.Rot>
2.5952

> <Gold.Chemscore.Internal.Correction>
   9.000000E+99

> <Gold.Chemscore.Hbonds>
donor molecule, donor type, donor heavy atom, donor atom, acceptor molecule, acceptor atom, score
      L1  H     3    24       P1  8028  0.44
      P1  H  6933  6944       L1     8  0.19

> <Gold.Chemscore.Hbond.Weighted>
-6.2056

> <Gold.Chemscore.Metal.Weighted>
-0.0000

> <Gold.Chemscore.Lipo.Weighted>
-7.5885

> <Gold.Chemscore.Internal_Hbond.Weighted>
0.0000

> <Gold.Chemscore.DEClash.Weighted>
0.0060

> <Gold.Chemscore.DEInternal.Weighted>
0.5887

> <Gold.Chemscore.Rot.Weighted>
6.6437

> <Gold.Chemscore.Internal.Correction.Weighted>
   9.000000E+99

> <Gold.Protein.RotatedTorsions>
[ 6907 6896 6895 6894 ] final -161.14 input  -60.11 | X-H torsion
[ 7974 7965 7964 7962 ] final  144.37 input  175.53 | X-H torsion
[ 8008 7997 7996 7995 ] final  -12.67 input   59.86 | X-H torsion
[ 10167 10162 10161 10158 ] final  -40.94 input  -65.29 | X-H torsion
[ 10718 10713 10712 10709 ] final -137.52 input   66.30 | X-H torsion
[ 10763 10752 10751 10750 ] final -166.11 input  -60.55 | X-H torsion
[ 11005 11000 10999 10996 ] final   -9.37 input  -57.11 | X-H torsion

> <Gold.Protein.ActiveResidues>
 VAL166  LYS551  ARG553  GLY616  TRP617  ASP618  TYR619  PRO620  LYS621  CYS622 
 ASP623  PHE694  ASN695  SER759  ASP760  ASP761  ALA762  ILE779  LEU786  VAL792 
 PHE793  MET794  SER795  GLU796  ALA797  LYS798  CYS799  TRP800  GLU811  SER814 

> <Gold.Protein.RotatedAtoms>
  151.3600  133.3893  159.2688 H   0  0  0  0  0  0  0  0  0  0  0  0  # atno 6907 bound_to 6896
  150.9733  134.9103  159.7811 H   0  0  0  0  0  0  0  0  0  0  0  0  # atno 6908 bound_to 6896
  152.5192  134.3563  159.9321 H   0  0  0  0  0  0  0  0  0  0  0  0  # atno 6909 bound_to 6896
  144.8841  139.5654  143.5829 H   0  0  0  0  0  0  0  0  0  0  0  0  # atno 7974 bound_to 7965
  154.5357  140.2270  155.8726 H   0  0  0  0  0  0  0  0  0  0  0  0  # atno 8008 bound_to 7997
  156.1809  140.3100  155.9110 H   0  0  0  0  0  0  0  0  0  0  0  0  # atno 8009 bound_to 7997
  155.3359  140.0448  157.3034 H   0  0  0  0  0  0  0  0  0  0  0  0  # atno 8010 bound_to 7997
  140.7018  143.3123  151.2996 H   0  0  0  0  0  0  0  0  0  0  0  0  # atno 10167 bound_to 10162
  156.2890  130.7364  151.1384 H   0  0  0  0  0  0  0  0  0  0  0  0  # atno 10718 bound_to 10713
  154.6865  135.2963  154.9540 H   0  0  0  0  0  0  0  0  0  0  0  0  # atno 10763 bound_to 10752
  154.0517  135.6643  153.4805 H   0  0  0  0  0  0  0  0  0  0  0  0  # atno 10764 bound_to 10752
  153.0582  135.5131  154.7935 H   0  0  0  0  0  0  0  0  0  0  0  0  # atno 10765 bound_to 10752
  140.7334  133.8730  155.8911 H   0  0  0  0  0  0  0  0  0  0  0  0  # atno 11005 bound_to 11000
  146.3013  139.7437  142.9089 LP  0  0  0  0  0  0  0  0  0  0  0  0  # atno 17320 bound_to 7965
  145.3900  141.0371  143.3129 LP  0  0  0  0  0  0  0  0  0  0  0  0  # atno 17321 bound_to 7965
  139.6550  144.0292  152.2653 LP  0  0  0  0  0  0  0  0  0  0  0  0  # atno 17342 bound_to 10162
  139.9841  144.6408  150.7874 LP  0  0  0  0  0  0  0  0  0  0  0  0  # atno 17343 bound_to 10162
  157.7337  131.0588  150.5563 LP  0  0  0  0  0  0  0  0  0  0  0  0  # atno 17370 bound_to 10713
  156.5677  130.4272  149.6033 LP  0  0  0  0  0  0  0  0  0  0  0  0  # atno 17371 bound_to 10713
  140.9901  134.1290  157.4416 LP  0  0  0  0  0  0  0  0  0  0  0  0  # atno 17394 bound_to 11000
  139.8821  135.0037  156.6207 LP  0  0  0  0  0  0  0  0  0  0  0  0  # atno 17395 bound_to 11000

$$$$
