AV-unprocessed.smi:1645|AV-procd|sdf|6620|dock10
  -GOLD-   22720 7323D 1   1.00000     0.00000
 Structure written by MMmdl.
 55 58  0  0  0  0  0  0  0  0  4 V2000
  151.5315  136.6734  154.4326 O   0  0  0  0  0  0  0  0  0  0  0  0
  150.4444  136.4129  154.9575 C   0  0  0  0  0  0  0  0  0  0  0  0
  149.9102  137.2285  155.8845 N   0  0  0  0  0  0  0  0  0  0  0  0
  150.3981  138.4422  156.4451 C   0  0  0  0  0  0  0  0  0  0  0  0
  151.3016  139.1902  155.6624 C   0  0  0  0  0  0  0  0  0  0  0  0
  151.8241  140.4042  156.1524 C   0  0  0  0  0  0  0  0  0  0  0  0
  151.4390  140.8715  157.4338 C   0  0  0  0  0  0  0  0  0  0  0  0
  151.9104  142.0723  158.0110 N   0  0  0  0  0  0  0  0  0  0  0  0
  152.3571  141.9877  159.4054 C   0  0  0  0  0  0  0  0  0  0  0  0
  153.2193  143.1999  159.7961 C   0  0  0  0  0  0  0  0  0  0  0  0
  152.4974  144.5171  159.4809 C   0  0  0  0  0  0  0  0  0  0  0  0
  152.0955  144.5480  158.0003 C   0  0  0  0  0  0  0  0  0  0  0  0
  151.2466  143.3204  157.6285 C   0  0  0  0  0  0  0  0  0  0  0  0
  150.5726  140.1159  158.1506 N   0  3  0  0  0  0  0  0  0  0  0  0
  150.0492  138.9476  157.7205 C   0  0  0  0  0  0  0  0  0  0  0  0
  149.6534  135.3316  154.7228 N   0  5  0  0  0  0  0  0  0  0  0  0
  149.2423  134.3528  155.7377 C   0  0  2  0  0  0  0  0  0  0  0  0
  150.3469  133.3043  155.9125 C   0  0  0  0  0  0  0  0  0  0  0  0
  150.0841  132.2378  154.8320 C   0  0  0  0  0  0  0  0  0  0  0  0
  148.6792  132.4058  154.3790 N   0  3  2  0  0  0  0  0  0  0  0  0
  148.5733  132.6299  152.9086 C   0  0  0  0  0  0  0  0  0  0  0  0
  147.1566  133.0288  152.4799 C   0  0  0  0  0  0  0  0  0  0  0  0
  146.7420  134.3184  153.1906 C   0  0  0  0  0  0  0  0  0  0  0  0
  146.7674  134.0999  154.7093 C   0  0  0  0  0  0  0  0  0  0  0  0
  148.0810  133.4615  155.2431 C   0  0  2  0  0  0  0  0  0  0  0  0
  149.0226  136.9179  156.2518 H   0  0  0  0  0  0  0  0  0  0  0  0
  151.5942  138.8388  154.6836 H   0  0  0  0  0  0  0  0  0  0  0  0
  152.5048  140.9592  155.5253 H   0  0  0  0  0  0  0  0  0  0  0  0
  151.4775  141.9347  160.0482 H   0  0  0  0  0  0  0  0  0  0  0  0
  152.9343  141.0821  159.5900 H   0  0  0  0  0  0  0  0  0  0  0  0
  153.4676  143.1537  160.8568 H   0  0  0  0  0  0  0  0  0  0  0  0
  154.1657  143.1642  159.2548 H   0  0  0  0  0  0  0  0  0  0  0  0
  151.6101  144.6132  160.1081 H   0  0  0  0  0  0  0  0  0  0  0  0
  153.1409  145.3657  159.7148 H   0  0  0  0  0  0  0  0  0  0  0  0
  151.5442  145.4625  157.7806 H   0  0  0  0  0  0  0  0  0  0  0  0
  152.9929  144.5718  157.3802 H   0  0  0  0  0  0  0  0  0  0  0  0
  151.0695  143.3402  156.5528 H   0  0  0  0  0  0  0  0  0  0  0  0
  150.2748  143.3731  158.1208 H   0  0  0  0  0  0  0  0  0  0  0  0
  149.3792  138.4791  158.4238 H   0  0  0  0  0  0  0  0  0  0  0  0
  149.0008  134.8151  156.6957 H   0  0  0  0  0  0  0  0  0  0  0  0
  151.3537  133.7209  155.8566 H   0  0  0  0  0  0  0  0  0  0  0  0
  150.2476  132.8456  156.8970 H   0  0  0  0  0  0  0  0  0  0  0  0
  150.7860  132.3568  154.0042 H   0  0  0  0  0  0  0  0  0  0  0  0
  150.2319  131.2333  155.2298 H   0  0  0  0  0  0  0  0  0  0  0  0
  149.2692  133.4110  152.5983 H   0  0  0  0  0  0  0  0  0  0  0  0
  148.8770  131.7192  152.3915 H   0  0  0  0  0  0  0  0  0  0  0  0
  147.1245  133.1752  151.3999 H   0  0  0  0  0  0  0  0  0  0  0  0
  146.4532  132.2275  152.7091 H   0  0  0  0  0  0  0  0  0  0  0  0
  147.4108  135.1317  152.9092 H   0  0  0  0  0  0  0  0  0  0  0  0
  145.7425  134.6178  152.8746 H   0  0  0  0  0  0  0  0  0  0  0  0
  146.5285  135.0284  155.2314 H   0  0  0  0  0  0  0  0  0  0  0  0
  145.9473  133.4217  154.9492 H   0  0  0  0  0  0  0  0  0  0  0  0
  147.7706  132.9191  156.1383 H   0  0  0  0  0  0  0  0  0  0  0  0
  148.1775  131.5522  154.5759 H   0  0  0  0  0  0  0  0  0  0  0  0
  150.2989  140.4470  159.0756 H   0  0  0  0  0  0  0  0  0  0  0  0
  1  2  2  0  0  0  0
  2  3  1  0  0  0  0
  2 16  1  0  0  0  0
  3  4  1  0  0  0  0
  3 26  1  0  0  0  0
  4 15  1  0  0  0  0
  4  5  2  0  0  0  0
  5  6  1  0  0  0  0
  5 27  1  0  0  0  0
  6  7  2  0  0  0  0
  6 28  1  0  0  0  0
  7  8  1  0  0  0  0
  7 14  1  0  0  0  0
  8 13  1  0  0  0  0
  8  9  1  0  0  0  0
  9 10  1  0  0  0  0
  9 29  1  0  0  0  0
  9 30  1  0  0  0  0
 10 11  1  0  0  0  0
 10 31  1  0  0  0  0
 10 32  1  0  0  0  0
 11 12  1  0  0  0  0
 11 33  1  0  0  0  0
 11 34  1  0  0  0  0
 12 13  1  0  0  0  0
 12 35  1  0  0  0  0
 12 36  1  0  0  0  0
 13 37  1  0  0  0  0
 13 38  1  0  0  0  0
 14 15  2  0  0  0  0
 14 55  1  0  0  0  0
 15 39  1  0  0  0  0
 16 17  1  0  0  0  0
 17 25  1  0  0  0  0
 17 18  1  0  0  0  0
 17 40  1  0  0  0  0
 18 19  1  0  0  0  0
 18 41  1  0  0  0  0
 18 42  1  0  0  0  0
 19 20  1  0  0  0  0
 19 43  1  0  0  0  0
 19 44  1  0  0  0  0
 20 25  1  0  0  0  0
 20 21  1  0  0  0  0
 20 54  1  0  0  0  0
 21 22  1  0  0  0  0
 21 45  1  0  0  0  0
 21 46  1  0  0  0  0
 22 23  1  0  0  0  0
 22 47  1  0  0  0  0
 22 48  1  0  0  0  0
 23 24  1  0  0  0  0
 23 49  1  0  0  0  0
 23 50  1  0  0  0  0
 24 25  1  0  0  0  0
 24 51  1  0  0  0  0
 24 52  1  0  0  0  0
 25 53  1  0  0  0  0
M  CHG  1  14   1
M  CHG  1  16  -1
M  CHG  1  20   1
M  END
> <s_m_source_file>
AV-unprocessed.smi

> <i_m_source_file_index>
1645

> <i_lp_mmshare_version>
43012

> <i_f3d_flags>
0

> <s_epik_input>
W0NIMl0xW0NIMl1bQ0gyXVtDSDJdW0NASF0oTjEyKVtDQEBIXShbQ0gyXVtDSDJdMilbTkhdQyg9TylbTkhdYzNbY0hdW2NIXWMobltjSF0zKU40W0NIMl1bQ0gyXVtDSDJdW0NIMl1bQ0gyXTQ=

> <s_epik_cmdline>
J2VwaWtfcHl0aG9uJywgJy1waCcsICc3LjAnLCAnLXRuJywgJzgnLCAnLW1hJywgJzIwMCcsICctbWV0YWxfYmluZGluZycsICctaW1hZScsICc8aW5maWxlLm1hZT4nLCAnLW9tYWUnLCAnPG91dGZpbGUubWFlPic=

> <r_lp_tautomer_probability>
0.999994

> <r_epik_Ionization_Penalty>
8.55589

> <r_epik_Ionization_Penalty_Charging>
8.55589

> <r_epik_Ionization_Penalty_Neutral>
3.8092e-06

> <r_epik_State_Penalty>
8.15703

> <r_epik_Charging_Adjusted_Penalty>
16.7129

> <i_epik_Tot_Q>
1

> <i_epik_Tot_abs_Q>
3

> <r_epik_Metal_State_Penalty>
4.13781

> <b_epik_Metal_Only>
1

> <s_lp_Force_Field>
OPLS_2005

> <r_lp_Energy>
58.0783

> <b_lp_Chiralities_Consistent>
1

> <s_lp_Variant>
AV-unprocessed.smi:1645-21

> <Gold.Version>
5.8.1

> <Gold.Id.Protein>
6NUR|6NUR_protein|mol2

> <Gold.PLP.Fitness>
41.1038

> <Gold.PLP.PLP>
-40.3922

> <Gold.PLP.part.hbond>
-1.0000

> <Gold.PLP.part.metal>
0.0000

> <Gold.PLP.part.buried>
-4.5017

> <Gold.PLP.part.nonpolar>
-35.2534

> <Gold.PLP.part.repulsive>
1.5873

> <Gold.PLP.ligand.clash>
0.0000

> <Gold.PLP.ligand.torsion>
1.4236

> <Gold.PLP.Chemscore.Hbond>
1.0000

> <Gold.PLP.Chemscore.CHOScore>
0.0000

> <Gold.PLP.Chemscore.Metal>
0.0000

> <Gold.Chemscore.Hbonds>
donor molecule, donor type, donor heavy atom, donor atom, acceptor molecule, acceptor atom, score
      P1  H 10752 10763       L1     1  1.00

> <Gold.PLP.Chemscore.Internal.Correction>
0.5589

> <Gold.Rescore>
     Score         DG    S(hbond)    S(metal)    S(lipo)     H(rot)  DE(clash)    DE(int)     intcor
     16.65     -19.32       1.00        0.00     115.45       1.17       0.05       2.62       ----

> <Gold.Chemscore.Fitness>
16.6513

> <Gold.Chemscore.DG>
-19.3191

> <Gold.Chemscore.ZeroCoef>
-5.4800

> <Gold.Chemscore.Hbond>
0.9985

> <Gold.Chemscore.Metal>
0.0000

> <Gold.Chemscore.Lipo>
115.4479

> <Gold.Chemscore.Internal_Hbond>
0.0000

> <Gold.Chemscore.DEClash>
0.0525

> <Gold.Chemscore.DEInternal>
2.6154

> <Gold.Chemscore.Rot>
1.1731

> <Gold.Chemscore.Internal.Correction>
   9.000000E+99

> <Gold.Chemscore.Hbonds>
donor molecule, donor type, donor heavy atom, donor atom, acceptor molecule, acceptor atom, score
      P1  H 10752 10763       L1     1  1.00

> <Gold.Chemscore.Hbond.Weighted>
-3.3350

> <Gold.Chemscore.Metal.Weighted>
-0.0000

> <Gold.Chemscore.Lipo.Weighted>
-13.5074

> <Gold.Chemscore.Internal_Hbond.Weighted>
0.0000

> <Gold.Chemscore.DEClash.Weighted>
0.0525

> <Gold.Chemscore.DEInternal.Weighted>
2.6154

> <Gold.Chemscore.Rot.Weighted>
3.0032

> <Gold.Chemscore.Internal.Correction.Weighted>
   9.000000E+99

> <Gold.Protein.RotatedTorsions>
[ 6907 6896 6895 6894 ] final -112.08 input  -60.11 | X-H torsion
[ 7974 7965 7964 7962 ] final  -62.96 input  175.53 | X-H torsion
[ 8008 7997 7996 7995 ] final -110.45 input   59.86 | X-H torsion
[ 10167 10162 10161 10158 ] final   27.61 input  -65.29 | X-H torsion
[ 10718 10713 10712 10709 ] final   42.39 input   66.30 | X-H torsion
[ 10763 10752 10751 10750 ] final   40.76 input  -60.55 | X-H torsion
[ 11005 11000 10999 10996 ] final -119.41 input  -57.11 | X-H torsion

> <Gold.Protein.ActiveResidues>
 VAL166  LYS551  ARG553  GLY616  TRP617  ASP618  TYR619  PRO620  LYS621  CYS622 
 ASP623  PHE694  ASN695  SER759  ASP760  ASP761  ALA762  ILE779  LEU786  VAL792 
 PHE793  MET794  SER795  GLU796  ALA797  LYS798  CYS799  TRP800  GLU811  SER814 

> <Gold.Protein.RotatedAtoms>
  150.7733  133.9142  159.3378 H   0  0  0  0  0  0  0  0  0  0  0  0  # atno 6907 bound_to 6896
  151.7023  135.0926  160.0262 H   0  0  0  0  0  0  0  0  0  0  0  0  # atno 6908 bound_to 6896
  152.3760  133.6444  159.6159 H   0  0  0  0  0  0  0  0  0  0  0  0  # atno 6909 bound_to 6896
  145.7848  140.8742  143.0311 H   0  0  0  0  0  0  0  0  0  0  0  0  # atno 7974 bound_to 7965
  154.9747  140.0397  157.2251 H   0  0  0  0  0  0  0  0  0  0  0  0  # atno 8008 bound_to 7997
  154.7768  140.2811  155.6072 H   0  0  0  0  0  0  0  0  0  0  0  0  # atno 8009 bound_to 7997
  156.2930  140.2599  156.2584 H   0  0  0  0  0  0  0  0  0  0  0  0  # atno 8010 bound_to 7997
  140.4923  144.0446  150.6302 H   0  0  0  0  0  0  0  0  0  0  0  0  # atno 10167 bound_to 10162
  157.4043  130.7878  149.7375 H   0  0  0  0  0  0  0  0  0  0  0  0  # atno 10718 bound_to 10713
  152.9927  135.6182  154.2677 H   0  0  0  0  0  0  0  0  0  0  0  0  # atno 10763 bound_to 10752
  154.2411  135.2788  155.2855 H   0  0  0  0  0  0  0  0  0  0  0  0  # atno 10764 bound_to 10752
  154.5368  135.5772  153.6863 H   0  0  0  0  0  0  0  0  0  0  0  0  # atno 10765 bound_to 10752
  141.0217  134.0114  157.3272 H   0  0  0  0  0  0  0  0  0  0  0  0  # atno 11005 bound_to 11000
  144.6790  140.0040  143.7484 LP  0  0  0  0  0  0  0  0  0  0  0  0  # atno 17320 bound_to 7965
  146.0037  139.3112  143.0912 LP  0  0  0  0  0  0  0  0  0  0  0  0  # atno 17321 bound_to 7965
  140.3719  143.2850  152.0268 LP  0  0  0  0  0  0  0  0  0  0  0  0  # atno 17342 bound_to 10162
  139.4854  144.6223  151.7231 LP  0  0  0  0  0  0  0  0  0  0  0  0  # atno 17343 bound_to 10162
  155.9832  130.4003  150.3376 LP  0  0  0  0  0  0  0  0  0  0  0  0  # atno 17370 bound_to 10713
  157.1507  131.0320  151.2886 LP  0  0  0  0  0  0  0  0  0  0  0  0  # atno 17371 bound_to 10713
  139.9150  135.0195  156.7846 LP  0  0  0  0  0  0  0  0  0  0  0  0  # atno 17394 bound_to 11000
  140.6561  133.9687  155.7780 LP  0  0  0  0  0  0  0  0  0  0  0  0  # atno 17395 bound_to 11000

$$$$
