AV-unprocessed.smi:1010|AV-procd|sdf|4415|dock3
  -GOLD-   22720 2363D 1   1.00000     0.00000
 Structure written by MMmdl.
 55 57  0  0  0  0  0  0  0  0  2 V2000
  144.8215  135.8438  158.5568 C   0  0  0  0  0  0  0  0  0  0  0  0
  145.2921  136.6139  159.7361 N   0  3  0  0  0  0  0  0  0  0  0  0
  144.1335  137.1989  160.4611 C   0  0  0  0  0  0  0  0  0  0  0  0
  146.3330  135.9529  160.6106 C   0  0  0  0  0  0  0  0  0  0  0  0
  147.5450  135.5465  159.7088 C   0  0  0  0  0  0  0  0  0  0  0  0
  148.0347  136.6314  158.8593 N   0  0  0  0  0  0  0  0  0  0  0  0
  149.1389  136.6060  158.1009 C   0  0  0  0  0  0  0  0  0  0  0  0
  149.8945  135.6374  158.0302 O   0  0  0  0  0  0  0  0  0  0  0  0
  149.3153  137.7768  157.4687 N   0  0  0  0  0  0  0  0  0  0  0  0
  150.4317  138.1899  156.6901 C   0  0  0  0  0  0  0  0  0  0  0  0
  151.7320  137.6838  156.9318 C   0  0  0  0  0  0  0  0  0  0  0  0
  152.7893  138.0712  156.0907 C   0  0  0  0  0  0  0  0  0  0  0  0
  152.5060  138.9411  155.0246 C   0  0  0  0  0  0  0  0  0  0  0  0
  151.2712  139.4199  154.7730 N   0  0  0  0  0  0  0  0  0  0  0  0
  150.2435  139.0658  155.5829 C   0  0  0  0  0  0  0  0  0  0  0  0
  148.9738  139.6096  155.2814 N   0  0  0  0  0  0  0  0  0  0  0  0
  148.2551  139.1900  154.0828 C   0  0  0  0  0  0  0  0  0  0  0  0
  147.1637  140.2389  153.8902 C   0  0  0  0  0  0  0  0  0  0  0  0
  147.8574  141.5170  154.3512 C   0  0  0  0  0  0  0  0  0  0  0  0
  148.7780  141.0429  155.4812 C   0  0  0  0  0  0  0  0  0  0  0  0
  146.8046  136.9132  161.7381 C   0  0  0  0  0  0  0  0  0  0  0  0
  147.7017  136.2247  162.7868 C   0  0  0  0  0  0  0  0  0  0  0  0
  147.0500  135.0859  163.3336 O   0  0  0  0  0  0  0  0  0  0  0  0
  146.7474  134.0964  162.3592 C   0  0  0  0  0  0  0  0  0  0  0  0
  145.7698  134.6855  161.3277 C   0  0  0  0  0  0  0  0  0  0  0  0
  144.4109  134.8773  158.8505 H   0  0  0  0  0  0  0  0  0  0  0  0
  145.6222  135.6871  157.8345 H   0  0  0  0  0  0  0  0  0  0  0  0
  144.0398  136.3893  158.0269 H   0  0  0  0  0  0  0  0  0  0  0  0
  143.4559  136.4239  160.8210 H   0  0  0  0  0  0  0  0  0  0  0  0
  143.5644  137.8481  159.7951 H   0  0  0  0  0  0  0  0  0  0  0  0
  144.4343  137.8100  161.3099 H   0  0  0  0  0  0  0  0  0  0  0  0
  148.3664  135.1394  160.2981 H   0  0  0  0  0  0  0  0  0  0  0  0
  147.2794  134.7365  159.0330 H   0  0  0  0  0  0  0  0  0  0  0  0
  147.4786  137.4745  158.8458 H   0  0  0  0  0  0  0  0  0  0  0  0
  148.6486  138.5043  157.6827 H   0  0  0  0  0  0  0  0  0  0  0  0
  151.9301  136.9880  157.7329 H   0  0  0  0  0  0  0  0  0  0  0  0
  153.7903  137.6994  156.2511 H   0  0  0  0  0  0  0  0  0  0  0  0
  153.2894  139.2565  154.3516 H   0  0  0  0  0  0  0  0  0  0  0  0
  148.9148  139.1913  153.2143 H   0  0  0  0  0  0  0  0  0  0  0  0
  147.8403  138.1881  154.1979 H   0  0  0  0  0  0  0  0  0  0  0  0
  146.8028  140.2932  152.8629 H   0  0  0  0  0  0  0  0  0  0  0  0
  146.3145  140.0204  154.5393 H   0  0  0  0  0  0  0  0  0  0  0  0
  148.4569  141.9209  153.5341 H   0  0  0  0  0  0  0  0  0  0  0  0
  147.1586  142.2910  154.6693 H   0  0  0  0  0  0  0  0  0  0  0  0
  148.2929  141.2001  156.4449 H   0  0  0  0  0  0  0  0  0  0  0  0
  149.7215  141.5907  155.4824 H   0  0  0  0  0  0  0  0  0  0  0  0
  147.3479  137.7637  161.3257 H   0  0  0  0  0  0  0  0  0  0  0  0
  145.9370  137.3256  162.2544 H   0  0  0  0  0  0  0  0  0  0  0  0
  148.6659  135.9382  162.3667 H   0  0  0  0  0  0  0  0  0  0  0  0
  147.9172  136.9200  163.5982 H   0  0  0  0  0  0  0  0  0  0  0  0
  147.6586  133.7169  161.8970 H   0  0  0  0  0  0  0  0  0  0  0  0
  146.2829  133.2493  162.8643 H   0  0  0  0  0  0  0  0  0  0  0  0
  144.8721  134.9271  161.8956 H   0  0  0  0  0  0  0  0  0  0  0  0
  145.4752  133.9201  160.6091 H   0  0  0  0  0  0  0  0  0  0  0  0
  145.7720  137.4092  159.3383 H   0  0  0  0  0  0  0  0  0  0  0  0
  1  2  1  0  0  0  0
  1 26  1  0  0  0  0
  1 27  1  0  0  0  0
  1 28  1  0  0  0  0
  2  3  1  0  0  0  0
  2  4  1  0  0  0  0
  2 55  1  0  0  0  0
  3 29  1  0  0  0  0
  3 30  1  0  0  0  0
  3 31  1  0  0  0  0
  4 25  1  0  0  0  0
  4  5  1  0  0  0  0
  4 21  1  0  0  0  0
  5  6  1  0  0  0  0
  5 32  1  0  0  0  0
  5 33  1  0  0  0  0
  6  7  1  0  0  0  0
  6 34  1  0  0  0  0
  7  8  2  0  0  0  0
  7  9  1  0  0  0  0
  9 10  1  0  0  0  0
  9 35  1  0  0  0  0
 10 15  1  0  0  0  0
 10 11  2  0  0  0  0
 11 12  1  0  0  0  0
 11 36  1  0  0  0  0
 12 13  2  0  0  0  0
 12 37  1  0  0  0  0
 13 14  1  0  0  0  0
 13 38  1  0  0  0  0
 14 15  2  0  0  0  0
 15 16  1  0  0  0  0
 16 20  1  0  0  0  0
 16 17  1  0  0  0  0
 17 18  1  0  0  0  0
 17 39  1  0  0  0  0
 17 40  1  0  0  0  0
 18 19  1  0  0  0  0
 18 41  1  0  0  0  0
 18 42  1  0  0  0  0
 19 20  1  0  0  0  0
 19 43  1  0  0  0  0
 19 44  1  0  0  0  0
 20 45  1  0  0  0  0
 20 46  1  0  0  0  0
 21 22  1  0  0  0  0
 21 47  1  0  0  0  0
 21 48  1  0  0  0  0
 22 23  1  0  0  0  0
 22 49  1  0  0  0  0
 22 50  1  0  0  0  0
 23 24  1  0  0  0  0
 24 25  1  0  0  0  0
 24 51  1  0  0  0  0
 24 52  1  0  0  0  0
 25 53  1  0  0  0  0
 25 54  1  0  0  0  0
M  CHG  1   2   1
M  END
> <s_m_source_file>
AV-unprocessed.smi

> <i_m_source_file_index>
1010

> <i_lp_mmshare_version>
43012

> <i_f3d_flags>
0

> <s_epik_input>
W0NIMl0xW0NIMl1PW0NIMl1bQ0gyXUMxKE4oW0NIM10pW0NIM10pW0NIMl1bTkhdQyg9TylbTkhdYzJbY0hdW2NIXVtjSF1uYzJOM1tDSDJdW0NIMl1bQ0gyXVtDSDJdMw==

> <s_epik_cmdline>
J2VwaWtfcHl0aG9uJywgJy1waCcsICc3LjAnLCAnLXRuJywgJzgnLCAnLW1hJywgJzIwMCcsICctbWV0YWxfYmluZGluZycsICctaW1hZScsICc8aW5maWxlLm1hZT4nLCAnLW9tYWUnLCAnPG91dGZpbGUubWFlPic=

> <r_lp_tautomer_probability>
1

> <r_epik_Ionization_Penalty>
0.0977718

> <r_epik_Ionization_Penalty_Charging>
0.0128317

> <r_epik_Ionization_Penalty_Neutral>
0.0849401

> <r_epik_State_Penalty>
0.0837778

> <r_epik_Charging_Adjusted_Penalty>
0.0966095

> <i_epik_Tot_Q>
1

> <i_epik_Tot_abs_Q>
1

> <r_epik_Metal_State_Penalty>
0.0755623

> <b_epik_Metal_Only>
0

> <s_lp_Force_Field>
OPLS_2005

> <r_lp_Energy>
58.4563

> <b_lp_Chiralities_Consistent>
1

> <s_lp_Variant>
AV-unprocessed.smi:1010-1

> <Gold.Version>
5.8.1

> <Gold.Id.Protein>
6NUR|6NUR_protein|mol2

> <Gold.PLP.Fitness>
38.9215

> <Gold.PLP.PLP>
-33.7185

> <Gold.PLP.part.hbond>
-2.8581

> <Gold.PLP.part.metal>
0.0000

> <Gold.PLP.part.buried>
-6.1502

> <Gold.PLP.part.nonpolar>
-25.3505

> <Gold.PLP.part.repulsive>
0.3393

> <Gold.PLP.ligand.clash>
0.0000

> <Gold.PLP.ligand.torsion>
0.4958

> <Gold.PLP.Chemscore.Hbond>
1.9120

> <Gold.PLP.Chemscore.CHOScore>
0.0000

> <Gold.PLP.Chemscore.Metal>
0.0000

> <Gold.Chemscore.Hbonds>
donor molecule, donor type, donor heavy atom, donor atom, acceptor molecule, acceptor atom, score
      P1  H  6896  6909       L1     8  0.94
      P1  H  7989  7998       L1    14  1.00

> <Gold.PLP.Chemscore.Internal.Correction>
0.4586

> <Gold.Rescore>
     Score         DG    S(hbond)    S(metal)    S(lipo)     H(rot)  DE(clash)    DE(int)     intcor
     15.27     -16.94       1.62        0.00      86.84       1.60       0.02       1.64       ----

> <Gold.Chemscore.Fitness>
15.2724

> <Gold.Chemscore.DG>
-16.9393

> <Gold.Chemscore.ZeroCoef>
-5.4800

> <Gold.Chemscore.Hbond>
1.6180

> <Gold.Chemscore.Metal>
0.0000

> <Gold.Chemscore.Lipo>
86.8356

> <Gold.Chemscore.Internal_Hbond>
0.0000

> <Gold.Chemscore.DEClash>
0.0239

> <Gold.Chemscore.DEInternal>
1.6430

> <Gold.Chemscore.Rot>
1.6033

> <Gold.Chemscore.Internal.Correction>
   9.000000E+99

> <Gold.Chemscore.Hbonds>
donor molecule, donor type, donor heavy atom, donor atom, acceptor molecule, acceptor atom, score
      P1  H  6896  6909       L1     8  0.89
      P1  H  7989  7998       L1    14  0.34

> <Gold.Chemscore.Hbond.Weighted>
-5.4041

> <Gold.Chemscore.Metal.Weighted>
-0.0000

> <Gold.Chemscore.Lipo.Weighted>
-10.1598

> <Gold.Chemscore.Internal_Hbond.Weighted>
0.0000

> <Gold.Chemscore.DEClash.Weighted>
0.0239

> <Gold.Chemscore.DEInternal.Weighted>
1.6430

> <Gold.Chemscore.Rot.Weighted>
4.1046

> <Gold.Chemscore.Internal.Correction.Weighted>
   9.000000E+99

> <Gold.Protein.RotatedTorsions>
[ 6907 6896 6895 6894 ] final   54.01 input  -60.11 | X-H torsion
[ 7974 7965 7964 7962 ] final  176.02 input  175.53 | X-H torsion
[ 8008 7997 7996 7995 ] final   60.93 input   59.86 | X-H torsion
[ 10167 10162 10161 10158 ] final  -56.26 input  -65.29 | X-H torsion
[ 10718 10713 10712 10709 ] final  102.70 input   66.30 | X-H torsion
[ 10763 10752 10751 10750 ] final  145.63 input  -60.55 | X-H torsion
[ 11005 11000 10999 10996 ] final  153.88 input  -57.11 | X-H torsion

> <Gold.Protein.ActiveResidues>
 VAL166  LYS551  ARG553  GLY616  TRP617  ASP618  TYR619  PRO620  LYS621  CYS622 
 ASP623  PHE694  ASN695  SER759  ASP760  ASP761  ALA762  ILE779  LEU786  VAL792 
 PHE793  MET794  SER795  GLU796  ALA797  LYS798  CYS799  TRP800  GLU811  SER814 

> <Gold.Protein.RotatedAtoms>
  152.3396  134.7152  160.0267 H   0  0  0  0  0  0  0  0  0  0  0  0  # atno 6907 bound_to 6896
  151.7542  133.3324  159.3408 H   0  0  0  0  0  0  0  0  0  0  0  0  # atno 6908 bound_to 6896
  150.7471  134.6097  159.6124 H   0  0  0  0  0  0  0  0  0  0  0  0  # atno 6909 bound_to 6896
  144.7191  140.0033  143.6440 H   0  0  0  0  0  0  0  0  0  0  0  0  # atno 7974 bound_to 7965
  155.5901  140.3492  155.4564 H   0  0  0  0  0  0  0  0  0  0  0  0  # atno 8008 bound_to 7997
  156.0307  140.1274  157.0285 H   0  0  0  0  0  0  0  0  0  0  0  0  # atno 8009 bound_to 7997
  154.4351  140.1044  156.6082 H   0  0  0  0  0  0  0  0  0  0  0  0  # atno 8010 bound_to 7997
  140.6327  143.2467  151.5198 H   0  0  0  0  0  0  0  0  0  0  0  0  # atno 10167 bound_to 10162
  157.6794  131.0760  150.5444 H   0  0  0  0  0  0  0  0  0  0  0  0  # atno 10718 bound_to 10713
  154.0086  135.2916  155.3395 H   0  0  0  0  0  0  0  0  0  0  0  0  # atno 10763 bound_to 10752
  154.7116  135.5147  153.8679 H   0  0  0  0  0  0  0  0  0  0  0  0  # atno 10764 bound_to 10752
  153.0733  135.6655  154.0320 H   0  0  0  0  0  0  0  0  0  0  0  0  # atno 10765 bound_to 10752
  140.1438  134.8721  157.2365 H   0  0  0  0  0  0  0  0  0  0  0  0  # atno 11005 bound_to 11000
  146.0317  139.3341  143.0751 LP  0  0  0  0  0  0  0  0  0  0  0  0  # atno 17320 bound_to 7965
  145.8444  140.9563  143.0782 LP  0  0  0  0  0  0  0  0  0  0  0  0  # atno 17321 bound_to 7965
  139.5540  144.2323  152.1580 LP  0  0  0  0  0  0  0  0  0  0  0  0  # atno 17342 bound_to 10162
  140.1571  144.5060  150.6654 LP  0  0  0  0  0  0  0  0  0  0  0  0  # atno 17343 bound_to 10162
  156.5750  130.4289  149.6002 LP  0  0  0  0  0  0  0  0  0  0  0  0  # atno 17370 bound_to 10713
  156.2708  130.7016  151.1813 LP  0  0  0  0  0  0  0  0  0  0  0  0  # atno 17371 bound_to 10713
  140.2689  134.3483  155.7380 LP  0  0  0  0  0  0  0  0  0  0  0  0  # atno 17394 bound_to 11000
  141.2190  133.7412  156.9193 LP  0  0  0  0  0  0  0  0  0  0  0  0  # atno 17395 bound_to 11000

$$$$
