#       Name:                AV-unprocessed.smi:2223
#       Creating user name   scv26
#       Creation time:       Fri Mar 27 12:20:20 2020


#       File generated by GOLD software.
#

@<TRIPOS>MOLECULE
AV-unprocessed.smi:2223
    51    52     1
SMALL
NO_CHARGES


@<TRIPOS>ATOM
      1 ****        -5.8587   3.6173  -0.9985 C.3            1 S1                 0.0000
      2 ****        -5.2568   2.2279  -0.9750 C.ar           1 S1                 0.0000
      3 ****        -6.0286   1.1049  -1.3287 C.ar           1 S1                 0.0000
      4 ****        -5.4142  -0.1622  -1.2927 C.ar           1 S1                 0.0000
      5 ****        -6.1850  -1.4123  -1.6617 C.3            1 S1                 0.0000
      6 ****        -4.1239  -0.3453  -0.9401 N.ar           1 S1                 0.0000
      7 ****        -3.3697   0.7293  -0.5999 C.ar           1 S1                 0.0000
      8 ****        -2.0050   0.6435  -0.2148 N.am           1 S1                 0.0000
      9 ****        -1.2219  -0.4490  -0.1706 C.2            1 S1                 0.0000
     10 ****        -1.5722  -1.5903  -0.4722 O.2            1 S1                 0.0000
     11 ****         0.0167  -0.1440   0.2429 N.am           1 S1                 0.0000
     12 ****         1.1078  -1.1052   0.3811 C.3            1 S1                 0.0000
     13 ****         1.7568  -1.4549  -0.9613 C.3            1 S1                 0.0000
     14 ****         3.2454  -1.3677  -0.6740 C.2            1 S1                 0.0000
     15 ****         4.0825  -1.7136  -1.5066 O.2            1 S1                 0.0000
     16 ****         3.4927  -0.8789   0.5566 N.am           1 S1                 0.0000
     17 ****         4.8265  -0.6234   1.1627 C.3            1 S1                 0.0000
     18 ****         5.6356  -1.9379   1.2349 C.3            1 S1                 0.0000
     19 ****         4.7109  -0.0638   2.6008 C.3            1 S1                 0.0000
     20 ****         5.5943   0.4164   0.3161 C.3            1 S1                 0.0000
     21 ****         2.2460  -0.5349   1.2411 C.3            1 S1                 0.0000
     22 ****        -3.9101   2.0349  -0.6057 C.ar           1 S1                 0.0000
     23 ****        -6.9361   3.5777  -0.8344 H              1 S1                 0.0000
     24 ****        -5.6744   4.0901  -1.9632 H              1 S1                 0.0000
     25 ****        -5.4208   4.2420  -0.2195 H              1 S1                 0.0000
     26 ****        -7.0632   1.2125  -1.6210 H              1 S1                 0.0000
     27 ****        -7.2537  -1.2095  -1.7341 H              1 S1                 0.0000
     28 ****        -6.0376  -2.1887  -0.9103 H              1 S1                 0.0000
     29 ****        -5.8429  -1.7949  -2.6235 H              1 S1                 0.0000
     30 ****        -1.5738   1.5164   0.0505 H              1 S1                 0.0000
     31 ****         0.2224   0.8175   0.4711 H              1 S1                 0.0000
     32 ****         0.7373  -2.0197   0.8492 H              1 S1                 0.0000
     33 ****         1.4765  -2.4519  -1.3029 H              1 S1                 0.0000
     34 ****         1.5046  -0.7374  -1.7435 H              1 S1                 0.0000
     35 ****         6.5904  -1.7851   1.7392 H              1 S1                 0.0000
     36 ****         5.8639  -2.3425   0.2492 H              1 S1                 0.0000
     37 ****         5.0936  -2.7052   1.7890 H              1 S1                 0.0000
     38 ****         4.2206  -0.7680   3.2737 H              1 S1                 0.0000
     39 ****         4.1593   0.8765   2.6312 H              1 S1                 0.0000
     40 ****         5.6964   0.1363   3.0230 H              1 S1                 0.0000
     41 ****         6.5532   0.6654   0.7718 H              1 S1                 0.0000
     42 ****         5.0278   1.3435   0.2210 H              1 S1                 0.0000
     43 ****         5.8087   0.0570  -0.6900 H              1 S1                 0.0000
     44 ****         2.1785   0.5513   1.3252 H              1 S1                 0.0000
     45 ****         2.1998  -0.9572   2.2451 H              1 S1                 0.0000
     46 ****        -3.2983   2.8829  -0.3330 H              1 S1                 0.0000
     47 ****        -3.7284  -1.2637  -0.9298 LP             1 S1                 0.0000
     48 ****        -2.5081  -1.7611  -0.7803 LP             1 S1                 0.0000
     49 ****        -0.9208  -2.3464  -0.4090 LP             1 S1                 0.0000
     50 ****         3.7882  -2.0618  -2.3966 LP             1 S1                 0.0000
     51 ****         5.0572  -1.6465  -1.2933 LP             1 S1                 0.0000
@<TRIPOS>BOND
    1    1    2 1     
    2    1   23 1     
    3    1   24 1     
    4    1   25 1     
    5    2   22 ar    
    6    2    3 ar    
    7    3    4 ar    
    8    3   26 1     
    9    4    5 1     
   10    4    6 ar    
   11    5   27 1     
   12    5   28 1     
   13    5   29 1     
   14    6    7 ar    
   15    7    8 1     
   16    7   22 ar    
   17    8    9 am    
   18    8   30 1     
   19    9   10 2     
   20    9   11 am    
   21   11   12 1     
   22   11   31 1     
   23   12   21 1     
   24   12   13 1     
   25   12   32 1     
   26   13   14 1     
   27   13   33 1     
   28   13   34 1     
   29   14   15 2     
   30   14   16 am    
   31   16   17 1     
   32   16   21 1     
   33   17   18 1     
   34   17   19 1     
   35   17   20 1     
   36   18   35 1     
   37   18   36 1     
   38   18   37 1     
   39   19   38 1     
   40   19   39 1     
   41   19   40 1     
   42   20   41 1     
   43   20   42 1     
   44   20   43 1     
   45   21   44 1     
   46   21   45 1     
   47   22   46 1     
   48    6   47 1     
   49   10   48 1     
   50   10   49 1     
   51   15   50 1     
   52   15   51 1     
@<TRIPOS>SUBSTRUCTURE
      1 S1             1
@<TRIPOS>SET
LONE_PAIRS      STATIC     ATOMS    <user>   **** ""
5 47 48 49 50 51
DONOR_HYDROGENS      STATIC     ATOMS    <user>   **** ""
2 30 31
ATOM$BLUE        STATIC     ATOMS    COLORGROUP SYSTEM
5 47 48 49 50 51
ATOM$RED        STATIC     ATOMS    COLORGROUP SYSTEM
2 30 31
