AV-unprocessed.smi:1085|AV-procd|sdf|4723|dock4
  -GOLD-   22720 3253D 1   1.00000     0.00000
 Structure written by MMmdl.
 33 34  0  0  0  0  0  0  0  0  1 V2000
  151.2941  139.4990  154.3347 O   0  0  0  0  0  0  0  0  0  0  0  0
  151.6488  139.4989  155.5128 C   0  0  0  0  0  0  0  0  0  0  0  0
  152.3993  138.2956  156.0830 C   0  0  0  0  0  0  0  0  0  0  0  0
  152.7256  138.5051  157.4808 N   0  0  0  0  0  0  0  0  0  0  0  0
  152.4157  137.7977  158.5697 C   0  0  0  0  0  0  0  0  0  0  0  0
  152.9090  138.3486  159.6677 N   0  0  0  0  0  0  0  0  0  0  0  0
  153.5637  139.4714  159.1893 N   0  0  0  0  0  0  0  0  0  0  0  0
  153.4580  139.5697  157.8925 N   0  0  0  0  0  0  0  0  0  0  0  0
  151.4242  140.5143  156.3616 N   0  0  0  0  0  0  0  0  0  0  0  0
  150.7722  141.7832  156.0398 C   0  0  1  0  0  0  0  0  0  0  0  0
  149.2611  141.7026  156.3277 C   0  0  0  0  0  0  0  0  0  0  0  0
  148.9612  141.6436  157.8346 C   0  0  0  0  0  0  0  0  0  0  0  0
  149.6081  142.8224  158.5784 C   0  0  0  0  0  0  0  0  0  0  0  0
  151.1318  142.8815  158.3393 C   0  0  2  0  0  0  0  0  0  0  0  0
  151.7923  144.0499  159.0999 C   0  0  0  0  0  0  0  0  0  0  0  0
  151.1593  145.1969  158.8513 F   0  0  0  0  0  0  0  0  0  0  0  0
  151.7616  143.8161  160.4119 F   0  0  0  0  0  0  0  0  0  0  0  0
  153.0672  144.1714  158.7298 F   0  0  0  0  0  0  0  0  0  0  0  0
  151.4305  142.9367  156.8231 C   0  0  0  0  0  0  0  0  0  0  0  0
  151.7911  137.3944  155.9938 H   0  0  0  0  0  0  0  0  0  0  0  0
  153.3167  138.1233  155.5180 H   0  0  0  0  0  0  0  0  0  0  0  0
  151.8295  136.8907  158.5578 H   0  0  0  0  0  0  0  0  0  0  0  0
  151.7498  140.4086  157.3115 H   0  0  0  0  0  0  0  0  0  0  0  0
  150.8944  141.9947  154.9764 H   0  0  0  0  0  0  0  0  0  0  0  0
  148.7703  142.5798  155.9033 H   0  0  0  0  0  0  0  0  0  0  0  0
  148.8255  140.8389  155.8239 H   0  0  0  0  0  0  0  0  0  0  0  0
  147.8830  141.6500  157.9969 H   0  0  0  0  0  0  0  0  0  0  0  0
  149.3273  140.7035  158.2489 H   0  0  0  0  0  0  0  0  0  0  0  0
  149.1458  143.7545  158.2512 H   0  0  0  0  0  0  0  0  0  0  0  0
  149.3983  142.7337  159.6446 H   0  0  0  0  0  0  0  0  0  0  0  0
  151.5633  141.9599  158.7331 H   0  0  0  0  0  0  0  0  0  0  0  0
  152.5074  142.9280  156.6503 H   0  0  0  0  0  0  0  0  0  0  0  0
  151.0701  143.8846  156.4215 H   0  0  0  0  0  0  0  0  0  0  0  0
  1  2  2  0  0  0  0
  2  3  1  0  0  0  0
  2  9  1  0  0  0  0
  3  4  1  0  0  0  0
  3 20  1  0  0  0  0
  3 21  1  0  0  0  0
  4  8  1  0  0  0  0
  4  5  1  0  0  0  0
  5  6  2  0  0  0  0
  5 22  1  0  0  0  0
  6  7  1  0  0  0  0
  7  8  2  0  0  0  0
  9 10  1  0  0  0  0
  9 23  1  0  0  0  0
 10 19  1  0  0  0  0
 10 11  1  0  0  0  0
 10 24  1  0  0  0  0
 11 12  1  0  0  0  0
 11 25  1  0  0  0  0
 11 26  1  0  0  0  0
 12 13  1  0  0  0  0
 12 27  1  0  0  0  0
 12 28  1  0  0  0  0
 13 14  1  0  0  0  0
 13 29  1  0  0  0  0
 13 30  1  0  0  0  0
 14 15  1  0  0  0  0
 14 19  1  0  0  0  0
 14 31  1  0  0  0  0
 15 16  1  0  0  0  0
 15 17  1  0  0  0  0
 15 18  1  0  0  0  0
 19 32  1  0  0  0  0
 19 33  1  0  0  0  0
M  END
> <s_m_source_file>
AV-unprocessed.smi

> <i_m_source_file_index>
1085

> <i_lp_mmshare_version>
43012

> <i_f3d_flags>
0

> <s_epik_input>
bjFubltjSF1uMVtDSDJdQyg9TylbTkhdW0NAQEhdMltDSDJdW0NIMl1bQ0gyXVtDQEBIXShDKEYpKEYpRilbQ0gyXTI=

> <s_epik_cmdline>
J2VwaWtfcHl0aG9uJywgJy1waCcsICc3LjAnLCAnLXRuJywgJzgnLCAnLW1hJywgJzIwMCcsICctbWV0YWxfYmluZGluZycsICctaW1hZScsICc8aW5maWxlLm1hZT4nLCAnLW9tYWUnLCAnPG91dGZpbGUubWFlPic=

> <r_lp_tautomer_probability>
1

> <r_epik_Ionization_Penalty>
8.41315e-07

> <r_epik_Ionization_Penalty_Charging>
0

> <r_epik_Ionization_Penalty_Neutral>
8.41315e-07

> <r_epik_State_Penalty>
-0

> <r_epik_Charging_Adjusted_Penalty>
0

> <i_epik_Tot_Q>
0

> <i_epik_Tot_abs_Q>
0

> <r_epik_Metal_State_Penalty>
-0

> <b_epik_Metal_Only>
0

> <s_lp_Force_Field>
OPLS_2005

> <r_lp_Energy>
12.3827

> <b_lp_Chiralities_Consistent>
1

> <s_lp_Variant>
AV-unprocessed.smi:1085-4

> <Gold.Version>
5.8.1

> <Gold.Id.Protein>
6NUR|6NUR_protein|mol2

> <Gold.PLP.Fitness>
38.3557

> <Gold.PLP.PLP>
-33.4007

> <Gold.PLP.part.hbond>
-2.0000

> <Gold.PLP.part.metal>
0.0000

> <Gold.PLP.part.buried>
-4.7773

> <Gold.PLP.part.nonpolar>
-26.0987

> <Gold.PLP.part.repulsive>
0.2530

> <Gold.PLP.ligand.clash>
0.0000

> <Gold.PLP.ligand.torsion>
0.5348

> <Gold.PLP.Chemscore.Hbond>
2.0000

> <Gold.PLP.Chemscore.CHOScore>
0.0000

> <Gold.PLP.Chemscore.Metal>
0.0000

> <Gold.Chemscore.Hbonds>
donor molecule, donor type, donor heavy atom, donor atom, acceptor molecule, acceptor atom, score
      P1  H  7989  7998       L1     1  1.00
      P1  H  7997  8009       L1     8  0.94

> <Gold.PLP.Chemscore.Internal.Correction>
0.0247

> <Gold.Rescore>
     Score         DG    S(hbond)    S(metal)    S(lipo)     H(rot)  DE(clash)    DE(int)     intcor
     12.54     -13.56       1.95        0.00      58.15       2.05       0.72       0.29       ----

> <Gold.Chemscore.Fitness>
12.5424

> <Gold.Chemscore.DG>
-13.5566

> <Gold.Chemscore.ZeroCoef>
-5.4800

> <Gold.Chemscore.Hbond>
1.9490

> <Gold.Chemscore.Metal>
0.0000

> <Gold.Chemscore.Lipo>
58.1509

> <Gold.Chemscore.Internal_Hbond>
0.0000

> <Gold.Chemscore.DEClash>
0.7209

> <Gold.Chemscore.DEInternal>
0.2933

> <Gold.Chemscore.Rot>
2.0456

> <Gold.Chemscore.Internal.Correction>
   9.000000E+99

> <Gold.Chemscore.Hbonds>
donor molecule, donor type, donor heavy atom, donor atom, acceptor molecule, acceptor atom, score
      P1  H  7989  7998       L1     1  0.92
      P1  H  7997  8009       L1     8  0.81

> <Gold.Chemscore.Hbond.Weighted>
-6.5097

> <Gold.Chemscore.Metal.Weighted>
-0.0000

> <Gold.Chemscore.Lipo.Weighted>
-6.8037

> <Gold.Chemscore.Internal_Hbond.Weighted>
0.0000

> <Gold.Chemscore.DEClash.Weighted>
0.7209

> <Gold.Chemscore.DEInternal.Weighted>
0.2933

> <Gold.Chemscore.Rot.Weighted>
5.2368

> <Gold.Chemscore.Internal.Correction.Weighted>
   9.000000E+99

> <Gold.Protein.RotatedTorsions>
[ 6907 6896 6895 6894 ] final  -87.16 input  -60.11 | X-H torsion
[ 7974 7965 7964 7962 ] final  -92.61 input  175.53 | X-H torsion
[ 8008 7997 7996 7995 ] final  163.28 input   59.86 | X-H torsion
[ 10167 10162 10161 10158 ] final    6.33 input  -65.29 | X-H torsion
[ 10718 10713 10712 10709 ] final   48.61 input   66.30 | X-H torsion
[ 10763 10752 10751 10750 ] final  152.40 input  -60.55 | X-H torsion
[ 11005 11000 10999 10996 ] final  -73.76 input  -57.11 | X-H torsion

> <Gold.Protein.ActiveResidues>
 VAL166  LYS551  ARG553  GLY616  TRP617  ASP618  TYR619  PRO620  LYS621  CYS622 
 ASP623  PHE694  ASN695  SER759  ASP760  ASP761  ALA762  ILE779  LEU786  VAL792 
 PHE793  MET794  SER795  GLU796  ALA797  LYS798  CYS799  TRP800  GLU811  SER814 

> <Gold.Protein.RotatedAtoms>
  150.6866  134.2938  159.4677 H   0  0  0  0  0  0  0  0  0  0  0  0  # atno 6907 bound_to 6896
  152.0841  134.9449  160.0582 H   0  0  0  0  0  0  0  0  0  0  0  0  # atno 6908 bound_to 6896
  152.0790  133.4109  159.4530 H   0  0  0  0  0  0  0  0  0  0  0  0  # atno 6909 bound_to 6896
  145.3976  140.9534  143.2305 H   0  0  0  0  0  0  0  0  0  0  0  0  # atno 7974 bound_to 7965
  156.1968  140.1727  156.7981 H   0  0  0  0  0  0  0  0  0  0  0  0  # atno 8008 bound_to 7997
  154.5540  140.0712  156.8745 H   0  0  0  0  0  0  0  0  0  0  0  0  # atno 8009 bound_to 7997
  155.2973  140.3359  155.4252 H   0  0  0  0  0  0  0  0  0  0  0  0  # atno 8010 bound_to 7997
  140.6434  143.7720  150.7462 H   0  0  0  0  0  0  0  0  0  0  0  0  # atno 10167 bound_to 10162
  157.4704  130.8252  149.7981 H   0  0  0  0  0  0  0  0  0  0  0  0  # atno 10718 bound_to 10713
  154.1194  135.2834  155.3212 H   0  0  0  0  0  0  0  0  0  0  0  0  # atno 10763 bound_to 10752
  154.6433  135.5394  153.7818 H   0  0  0  0  0  0  0  0  0  0  0  0  # atno 10764 bound_to 10752
  153.0318  135.6492  154.1349 H   0  0  0  0  0  0  0  0  0  0  0  0  # atno 10765 bound_to 10752
  141.1627  133.6889  156.7261 H   0  0  0  0  0  0  0  0  0  0  0  0  # atno 11005 bound_to 11000
  144.8396  139.5493  143.6906 LP  0  0  0  0  0  0  0  0  0  0  0  0  # atno 17320 bound_to 7965
  146.2767  139.6772  142.9257 LP  0  0  0  0  0  0  0  0  0  0  0  0  # atno 17321 bound_to 7965
  140.1357  143.4486  152.2226 LP  0  0  0  0  0  0  0  0  0  0  0  0  # atno 17342 bound_to 10162
  139.5643  144.7425  151.4065 LP  0  0  0  0  0  0  0  0  0  0  0  0  # atno 17343 bound_to 10162
  156.0070  130.3850  150.2395 LP  0  0  0  0  0  0  0  0  0  0  0  0  # atno 17370 bound_to 10713
  157.0577  131.0081  151.3233 LP  0  0  0  0  0  0  0  0  0  0  0  0  # atno 17371 bound_to 10713
  140.2780  134.8340  157.3907 LP  0  0  0  0  0  0  0  0  0  0  0  0  # atno 17394 bound_to 11000
  140.1460  134.4911  155.7996 LP  0  0  0  0  0  0  0  0  0  0  0  0  # atno 17395 bound_to 11000

$$$$
