#       Name:                AV-unprocessed.smi:195
#       Creating user name   scv26
#       Creation time:       Thu Mar 26 19:37:10 2020


#       File generated by GOLD software.
#

@<TRIPOS>MOLECULE
AV-unprocessed.smi:195
    56    59     1
SMALL
NO_CHARGES


@<TRIPOS>ATOM
      1 ****        -4.4597   5.9107  -2.1874 N.1            1 S1                 0.0000
      2 ****        -4.4100   4.7622  -2.3191 C.1            1 S1                 0.0000
      3 ****        -4.3460   3.3013  -2.4863 C.3            1 S1                 0.0000
      4 ****        -4.8271   2.5272  -1.2558 C.3            1 S1                 0.0000
      5 ****        -6.2323   2.6666  -1.2941 O.3            1 S1                 0.0000
      6 ****        -4.3263   1.0909  -1.0803 C.3            1 S1                 0.0000
      7 ****        -3.5735   1.5241   0.0921 N.3            1 S1                 0.0000
      8 ****        -2.1616   1.4952  -0.0916 C.ar           1 S1                 0.0000
      9 ****        -1.5368   2.3289  -0.9670 N.ar           1 S1                 0.0000
     10 ****        -0.2110   2.2865  -1.1294 C.ar           1 S1                 0.0000
     11 ****         0.6775   1.4976  -0.5239 N.ar           1 S1                 0.0000
     12 ****         0.0645   0.6575   0.3570 C.ar           1 S1                 0.0000
     13 ****        -1.3320   0.5910   0.6255 C.ar           1 S1                 0.0000
     14 ****        -1.5851  -0.3899   1.5764 N.2            1 S1                 0.0000
     15 ****        -0.4054  -0.8724   1.8586 C.2            1 S1                 0.0000
     16 ****         0.6411  -0.3008   1.1714 N.pl3          1 S1                 0.0000
     17 ****         2.0475  -0.6433   1.2940 C.3            1 S1                 0.0000
     18 ****         2.4109  -1.9282   0.5252 C.3            1 S1                 0.0000
     19 ****         2.1075  -1.7540  -0.8457 O.3            1 S1                 0.0000
     20 ****         3.9025  -2.2834   0.6627 C.3            1 S1                 0.0000
     21 ****         4.3112  -3.5919  -0.0187 C.3            1 S1                 0.0000
     22 ****         5.5125  -4.0652   0.7868 C.3            1 S1                 0.0000
     23 ****         5.5068  -3.1703   2.0282 C.3            1 S1                 0.0000
     24 ****         4.2323  -2.5447   2.0184 O.3            1 S1                 0.0000
     25 ****        -4.1860   2.8497   0.0981 C.3            1 S1                 0.0000
     26 ****        -4.9301   3.0402  -3.3696 H              1 S1                 0.0000
     27 ****        -3.3127   3.0565  -2.7263 H              1 S1                 0.0000
     28 ****        -6.5763   2.2027  -0.5458 H              1 S1                 0.0000
     29 ****        -5.1132   0.3830  -0.8171 H              1 S1                 0.0000
     30 ****        -3.7129   0.7250  -1.9054 H              1 S1                 0.0000
     31 ****         0.1950   2.9842  -1.8471 H              1 S1                 0.0000
     32 ****        -0.2641  -1.6647   2.5795 H              1 S1                 0.0000
     33 ****         2.6478   0.1965   0.9413 H              1 S1                 0.0000
     34 ****         2.2732  -0.7611   2.3544 H              1 S1                 0.0000
     35 ****         1.8066  -2.7551   0.9008 H              1 S1                 0.0000
     36 ****         1.1909  -1.5384  -0.9241 H              1 S1                 0.0000
     37 ****         4.5267  -1.4637   0.3003 H              1 S1                 0.0000
     38 ****         3.5093  -4.3271   0.0597 H              1 S1                 0.0000
     39 ****         4.5381  -3.4572  -1.0767 H              1 S1                 0.0000
     40 ****         5.4055  -5.1173   1.0531 H              1 S1                 0.0000
     41 ****         6.4439  -3.9518   0.2310 H              1 S1                 0.0000
     42 ****         5.6666  -3.7290   2.9507 H              1 S1                 0.0000
     43 ****         6.2817  -2.4059   1.9537 H              1 S1                 0.0000
     44 ****        -3.4852   3.6855   0.0860 H              1 S1                 0.0000
     45 ****        -4.9117   2.9517   0.9058 H              1 S1                 0.0000
     46 ****        -4.5027   6.9033  -2.0736 LP             1 S1                 0.0000
     47 ****        -6.5937   2.2719  -2.1388 LP             1 S1                 0.0000
     48 ****        -6.4831   3.6334  -1.2439 LP             1 S1                 0.0000
     49 ****        -3.6244   0.9881   0.9348 LP             1 S1                 0.0000
     50 ****        -2.0775   2.9827  -1.4964 LP             1 S1                 0.0000
     51 ****         1.6627   1.5195  -0.6936 LP             1 S1                 0.0000
     52 ****        -2.4683  -0.6635   1.9573 LP             1 S1                 0.0000
     53 ****         2.2991  -2.5996  -1.3439 LP             1 S1                 0.0000
     54 ****         2.6621  -1.0121  -1.2225 LP             1 S1                 0.0000
     55 ****         3.5498  -3.1514   2.4261 LP             1 S1                 0.0000
     56 ****         4.2672  -1.6883   2.5336 LP             1 S1                 0.0000
@<TRIPOS>BOND
    1    1    2 3     
    2    2    3 1     
    3    3    4 1     
    4    3   26 1     
    5    3   27 1     
    6    4   25 1     
    7    4    5 1     
    8    4    6 1     
    9    5   28 1     
   10    6    7 1     
   11    6   29 1     
   12    6   30 1     
   13    7    8 1     
   14    7   25 1     
   15    8   13 ar    
   16    8    9 ar    
   17    9   10 ar    
   18   10   11 ar    
   19   10   31 1     
   20   11   12 ar    
   21   12   16 1     
   22   12   13 ar    
   23   13   14 1     
   24   14   15 2     
   25   15   16 1     
   26   15   32 1     
   27   16   17 1     
   28   17   18 1     
   29   17   33 1     
   30   17   34 1     
   31   18   19 1     
   32   18   20 1     
   33   18   35 1     
   34   19   36 1     
   35   20   24 1     
   36   20   21 1     
   37   20   37 1     
   38   21   22 1     
   39   21   38 1     
   40   21   39 1     
   41   22   23 1     
   42   22   40 1     
   43   22   41 1     
   44   23   24 1     
   45   23   42 1     
   46   23   43 1     
   47   25   44 1     
   48   25   45 1     
   49    1   46 1     
   50    5   47 1     
   51    5   48 1     
   52    7   49 1     
   53    9   50 1     
   54   11   51 1     
   55   14   52 1     
   56   19   53 1     
   57   19   54 1     
   58   24   55 1     
   59   24   56 1     
@<TRIPOS>SUBSTRUCTURE
      1 S1             1
@<TRIPOS>SET
LONE_PAIRS      STATIC     ATOMS    <user>   **** ""
11 46 47 48 49 50 51 52 53 54 55 56
DONOR_HYDROGENS      STATIC     ATOMS    <user>   **** ""
2 28 36
ATOM$BLUE        STATIC     ATOMS    COLORGROUP SYSTEM
11 46 47 48 49 50 51 52 53 54 55 56
ATOM$RED        STATIC     ATOMS    COLORGROUP SYSTEM
2 28 36
