AV-unprocessed.smi:2031|AV-procd|sdf|8230|dock5
  -GOLD-   2272010503D 1   1.00000     0.00000
 Structure written by MMmdl.
 41 42  0  0  0  0  0  0  0  0  3 V2000
  151.2694  143.6790  157.9232 C   0  0  0  0  0  0  0  0  0  0  0  0
  151.4813  142.2104  157.7876 C   0  0  0  0  0  0  0  0  0  0  0  0
  151.2274  141.3222  156.7807 C   0  0  0  0  0  0  0  0  0  0  0  0
  151.6768  140.0874  157.3201 C   0  0  0  0  0  0  0  0  0  0  0  0
  151.5810  138.8897  156.5631 N   0  0  0  0  0  0  0  0  0  0  0  0
  152.3026  138.5085  155.4931 C   0  0  0  0  0  0  0  0  0  0  0  0
  153.1888  139.2447  155.0434 O   0  0  0  0  0  0  0  0  0  0  0  0
  151.9267  137.2849  155.0288 N   0  5  0  0  0  0  0  0  0  0  0  0
  150.5766  136.9317  154.5928 C   0  0  0  0  0  0  0  0  0  0  0  0
  150.0912  135.6871  155.3602 C   0  0  0  0  0  0  0  0  0  0  0  0
  149.1372  134.8814  154.5452 N   0  3  0  0  0  0  0  0  0  0  0  0
  147.7504  134.8428  155.0834 C   0  0  0  0  0  0  0  0  0  0  0  0
  146.7323  135.0711  153.9531 C   0  0  0  0  0  0  0  0  0  0  0  0
  146.5089  133.8606  153.0339 C   0  0  0  0  0  0  0  0  0  0  0  0
  147.7903  133.3018  152.3935 C   0  0  0  0  0  0  0  0  0  0  0  0
  148.7033  132.6158  153.4225 C   0  0  0  0  0  0  0  0  0  0  0  0
  149.6872  133.5495  154.1557 C   0  0  0  0  0  0  0  0  0  0  0  0
  152.1601  140.2120  158.5474 N   0  0  0  0  0  0  0  0  0  0  0  0
  152.0375  141.5726  158.8528 O   0  0  0  0  0  0  0  0  0  0  0  0
  150.7948  144.0889  157.0315 H   0  0  0  0  0  0  0  0  0  0  0  0
  152.2191  144.1940  158.0685 H   0  0  0  0  0  0  0  0  0  0  0  0
  150.6299  143.8993  158.7780 H   0  0  0  0  0  0  0  0  0  0  0  0
  150.7914  141.5247  155.8138 H   0  0  0  0  0  0  0  0  0  0  0  0
  150.8707  138.2398  156.8656 H   0  0  0  0  0  0  0  0  0  0  0  0
  149.8781  137.7495  154.7724 H   0  0  0  0  0  0  0  0  0  0  0  0
  150.5165  136.7265  153.5232 H   0  0  0  0  0  0  0  0  0  0  0  0
  150.9378  135.0718  155.6695 H   0  0  0  0  0  0  0  0  0  0  0  0
  149.6293  136.0307  156.2861 H   0  0  0  0  0  0  0  0  0  0  0  0
  147.5579  133.9187  155.6301 H   0  0  0  0  0  0  0  0  0  0  0  0
  147.5933  135.6460  155.8030 H   0  0  0  0  0  0  0  0  0  0  0  0
  145.7725  135.3387  154.3964 H   0  0  0  0  0  0  0  0  0  0  0  0
  147.0341  135.9353  153.3592 H   0  0  0  0  0  0  0  0  0  0  0  0
  146.0038  133.0693  153.5894 H   0  0  0  0  0  0  0  0  0  0  0  0
  145.8175  134.1520  152.2423 H   0  0  0  0  0  0  0  0  0  0  0  0
  147.4954  132.5601  151.6502 H   0  0  0  0  0  0  0  0  0  0  0  0
  148.3288  134.0772  151.8467 H   0  0  0  0  0  0  0  0  0  0  0  0
  148.0948  132.0733  154.1468 H   0  0  0  0  0  0  0  0  0  0  0  0
  149.2898  131.8484  152.9163 H   0  0  0  0  0  0  0  0  0  0  0  0
  150.5546  133.7126  153.5152 H   0  0  0  0  0  0  0  0  0  0  0  0
  150.0561  133.0319  155.0423 H   0  0  0  0  0  0  0  0  0  0  0  0
  149.0484  135.4047  153.6858 H   0  0  0  0  0  0  0  0  0  0  0  0
  1  2  1  0  0  0  0
  1 20  1  0  0  0  0
  1 21  1  0  0  0  0
  1 22  1  0  0  0  0
  2 19  1  0  0  0  0
  2  3  2  0  0  0  0
  3  4  1  0  0  0  0
  3 23  1  0  0  0  0
  4  5  1  0  0  0  0
  4 18  2  0  0  0  0
  5  6  1  0  0  0  0
  5 24  1  0  0  0  0
  6  7  2  0  0  0  0
  6  8  1  0  0  0  0
  8  9  1  0  0  0  0
  9 10  1  0  0  0  0
  9 25  1  0  0  0  0
  9 26  1  0  0  0  0
 10 11  1  0  0  0  0
 10 27  1  0  0  0  0
 10 28  1  0  0  0  0
 11 17  1  0  0  0  0
 11 12  1  0  0  0  0
 11 41  1  0  0  0  0
 12 13  1  0  0  0  0
 12 29  1  0  0  0  0
 12 30  1  0  0  0  0
 13 14  1  0  0  0  0
 13 31  1  0  0  0  0
 13 32  1  0  0  0  0
 14 15  1  0  0  0  0
 14 33  1  0  0  0  0
 14 34  1  0  0  0  0
 15 16  1  0  0  0  0
 15 35  1  0  0  0  0
 15 36  1  0  0  0  0
 16 17  1  0  0  0  0
 16 37  1  0  0  0  0
 16 38  1  0  0  0  0
 17 39  1  0  0  0  0
 17 40  1  0  0  0  0
 18 19  1  0  0  0  0
M  CHG  1   8  -1
M  CHG  1  11   1
M  END
> <s_m_source_file>
AV-unprocessed.smi

> <i_m_source_file_index>
2031

> <i_lp_mmshare_version>
43012

> <i_f3d_flags>
0

> <s_epik_input>
W0NIM11jMVtjSF1jKG5vMSlbTkhdQyg9TylbTkhdW0NIMl1bQ0gyXU4yW0NIMl1bQ0gyXVtDSDJdW0NIMl1bQ0gyXVtDSDJdMg==

> <s_epik_cmdline>
J2VwaWtfcHl0aG9uJywgJy1waCcsICc3LjAnLCAnLXRuJywgJzgnLCAnLW1hJywgJzIwMCcsICctbWV0YWxfYmluZGluZycsICctaW1hZScsICc8aW5maWxlLm1hZT4nLCAnLW9tYWUnLCAnPG91dGZpbGUubWFlPic=

> <r_epik_Ionization_Penalty>
6.7666

> <r_epik_Ionization_Penalty_Charging>
6.7666

> <r_epik_Ionization_Penalty_Neutral>
5.77131e-06

> <r_epik_State_Penalty>
6.79217

> <r_epik_Charging_Adjusted_Penalty>
13.5588

> <i_epik_Tot_Q>
0

> <i_epik_Tot_abs_Q>
2

> <r_epik_Metal_State_Penalty>
2.72569

> <b_epik_Metal_Only>
1

> <s_lp_Force_Field>
OPLS_2005

> <r_lp_Energy>
19.0994

> <b_lp_Chiralities_Consistent>
1

> <s_lp_Variant>
AV-unprocessed.smi:2031-3

> <Gold.Version>
5.8.1

> <Gold.Id.Protein>
6NUR|6NUR_protein|mol2

> <Gold.PLP.Fitness>
40.0999

> <Gold.PLP.PLP>
-29.8517

> <Gold.PLP.part.hbond>
-3.0074

> <Gold.PLP.part.metal>
0.0000

> <Gold.PLP.part.buried>
-3.7673

> <Gold.PLP.part.nonpolar>
-23.2228

> <Gold.PLP.part.repulsive>
0.1870

> <Gold.PLP.ligand.clash>
0.0000

> <Gold.PLP.ligand.torsion>
2.1425

> <Gold.PLP.Chemscore.Hbond>
4.8240

> <Gold.PLP.Chemscore.CHOScore>
0.0000

> <Gold.PLP.Chemscore.Metal>
0.0000

> <Gold.Chemscore.Hbonds>
donor molecule, donor type, donor heavy atom, donor atom, acceptor molecule, acceptor atom, score
      L1  H    11    41       P1  7948  2.00
      P1  H  7997  8009       L1     7  1.00
      P1  H 10752 10763       L1     8  1.86

> <Gold.PLP.Chemscore.Internal.Correction>
0.0611

> <Gold.Rescore>
     Score         DG    S(hbond)    S(metal)    S(lipo)     H(rot)  DE(clash)    DE(int)     intcor
     15.70     -17.87       2.78        0.00      60.25       1.54       0.08       2.09       ----

> <Gold.Chemscore.Fitness>
15.7047

> <Gold.Chemscore.DG>
-17.8736

> <Gold.Chemscore.ZeroCoef>
-5.4800

> <Gold.Chemscore.Hbond>
2.7810

> <Gold.Chemscore.Metal>
0.0000

> <Gold.Chemscore.Lipo>
60.2549

> <Gold.Chemscore.Internal_Hbond>
0.0000

> <Gold.Chemscore.DEClash>
0.0838

> <Gold.Chemscore.DEInternal>
2.0851

> <Gold.Chemscore.Rot>
1.5409

> <Gold.Chemscore.Internal.Correction>
   9.000000E+99

> <Gold.Chemscore.Hbonds>
donor molecule, donor type, donor heavy atom, donor atom, acceptor molecule, acceptor atom, score
      L1  H    11    41       P1  7948  0.64
      P1  H  7997  8009       L1     7  1.00
      P1  H 10752 10763       L1     8  0.30

> <Gold.Chemscore.Hbond.Weighted>
-9.2884

> <Gold.Chemscore.Metal.Weighted>
-0.0000

> <Gold.Chemscore.Lipo.Weighted>
-7.0498

> <Gold.Chemscore.Internal_Hbond.Weighted>
0.0000

> <Gold.Chemscore.DEClash.Weighted>
0.0838

> <Gold.Chemscore.DEInternal.Weighted>
2.0851

> <Gold.Chemscore.Rot.Weighted>
3.9446

> <Gold.Chemscore.Internal.Correction.Weighted>
   9.000000E+99

> <Gold.Protein.RotatedTorsions>
[ 6907 6896 6895 6894 ] final -109.47 input  -60.11 | X-H torsion
[ 7974 7965 7964 7962 ] final  125.74 input  175.53 | X-H torsion
[ 8008 7997 7996 7995 ] final -141.63 input   59.86 | X-H torsion
[ 10167 10162 10161 10158 ] final   16.91 input  -65.29 | X-H torsion
[ 10718 10713 10712 10709 ] final    6.77 input   66.30 | X-H torsion
[ 10763 10752 10751 10750 ] final   59.47 input  -60.55 | X-H torsion
[ 11005 11000 10999 10996 ] final  -89.75 input  -57.11 | X-H torsion

> <Gold.Protein.ActiveResidues>
 VAL166  LYS551  ARG553  GLY616  TRP617  ASP618  TYR619  PRO620  LYS621  CYS622 
 ASP623  PHE694  ASN695  SER759  ASP760  ASP761  ALA762  ILE779  LEU786  VAL792 
 PHE793  MET794  SER795  GLU796  ALA797  LYS798  CYS799  TRP800  GLU811  SER814 

> <Gold.Protein.RotatedAtoms>
  150.7564  133.9524  159.3489 H   0  0  0  0  0  0  0  0  0  0  0  0  # atno 6907 bound_to 6896
  151.7442  135.0845  160.0330 H   0  0  0  0  0  0  0  0  0  0  0  0  # atno 6908 bound_to 6896
  152.3508  133.6140  159.5979 H   0  0  0  0  0  0  0  0  0  0  0  0  # atno 6909 bound_to 6896
  145.0696  139.3740  143.4964 H   0  0  0  0  0  0  0  0  0  0  0  0  # atno 7974 bound_to 7965
  155.4810  140.0560  157.2967 H   0  0  0  0  0  0  0  0  0  0  0  0  # atno 8008 bound_to 7997
  154.4660  140.2019  156.0069 H   0  0  0  0  0  0  0  0  0  0  0  0  # atno 8009 bound_to 7997
  156.0975  140.3224  155.7902 H   0  0  0  0  0  0  0  0  0  0  0  0  # atno 8010 bound_to 7997
  140.5764  143.9064  150.6753 H   0  0  0  0  0  0  0  0  0  0  0  0  # atno 10167 bound_to 10162
  156.9271  130.5812  149.5649 H   0  0  0  0  0  0  0  0  0  0  0  0  # atno 10718 bound_to 10713
  152.9895  135.5570  154.5718 H   0  0  0  0  0  0  0  0  0  0  0  0  # atno 10763 bound_to 10752
  154.5117  135.2802  155.1339 H   0  0  0  0  0  0  0  0  0  0  0  0  # atno 10764 bound_to 10752
  154.2728  135.6359  153.5370 H   0  0  0  0  0  0  0  0  0  0  0  0  # atno 10765 bound_to 10752
  141.1579  133.7649  156.9639 H   0  0  0  0  0  0  0  0  0  0  0  0  # atno 11005 bound_to 11000
  146.3528  140.0434  142.8641 LP  0  0  0  0  0  0  0  0  0  0  0  0  # atno 17320 bound_to 7965
  145.1309  140.9517  143.4545 LP  0  0  0  0  0  0  0  0  0  0  0  0  # atno 17321 bound_to 7965
  140.2553  143.3563  152.1370 LP  0  0  0  0  0  0  0  0  0  0  0  0  # atno 17342 bound_to 10162
  139.5145  144.6949  151.5659 LP  0  0  0  0  0  0  0  0  0  0  0  0  # atno 17343 bound_to 10162
  156.0464  130.5540  150.8891 LP  0  0  0  0  0  0  0  0  0  0  0  0  # atno 17370 bound_to 10713
  157.5871  131.0945  150.9179 LP  0  0  0  0  0  0  0  0  0  0  0  0  # atno 17371 bound_to 10713
  140.1174  134.9438  157.2154 LP  0  0  0  0  0  0  0  0  0  0  0  0  # atno 17394 bound_to 11000
  140.3115  134.3018  155.7266 LP  0  0  0  0  0  0  0  0  0  0  0  0  # atno 17395 bound_to 11000

$$$$
