AV-unprocessed.smi:1403|AV-procd|sdf|5704|dock7
  -GOLD-   22720 5333D 1   1.00000     0.00000
 Structure written by MMmdl.
 35 36  0  0  0  0  0  0  0  0  2 V2000
  151.2714  140.7096  157.9927 C   0  0  0  0  0  0  0  0  0  0  0  0
  151.2686  142.1138  157.3688 C   0  0  1  0  0  0  0  0  0  0  0  0
  150.1848  142.1841  156.3917 N   0  0  0  0  0  0  0  0  0  0  0  0
  150.0069  141.3489  155.3565 C   0  0  0  0  0  0  0  0  0  0  0  0
  150.7623  140.4086  155.1058 O   0  0  0  0  0  0  0  0  0  0  0  0
  148.8070  141.6514  154.4489 C   0  0  0  0  0  0  0  0  0  0  0  0
  147.7070  140.6875  154.6112 N   0  0  0  0  0  0  0  0  0  0  0  0
  147.4833  139.7688  153.5707 C   0  0  0  0  0  0  0  0  0  0  0  0
  146.5018  138.8490  153.6342 C   0  0  0  0  0  0  0  0  0  0  0  0
  145.6579  138.8210  154.8223 C   0  0  0  0  0  0  0  0  0  0  0  0
  144.7531  137.9917  154.8949 O   0  0  0  0  0  0  0  0  0  0  0  0
  145.9182  139.7299  155.8073 N   0  5  0  0  0  0  0  0  0  0  0  0
  146.9224  140.6576  155.7306 C   0  0  0  0  0  0  0  0  0  0  0  0
  147.1421  141.4668  156.6327 O   0  0  0  0  0  0  0  0  0  0  0  0
  151.0966  143.2271  158.4238 C   0  0  1  0  0  0  0  0  0  0  0  0
  152.0687  143.1413  159.6030 C   0  0  0  0  0  0  0  0  0  0  0  0
  152.1284  144.5796  160.0622 C   0  0  0  0  0  0  0  0  0  0  0  0
  152.1062  145.3237  158.7325 C   0  0  0  0  0  0  0  0  0  0  0  0
  151.3375  144.5123  157.8495 O   0  0  0  0  0  0  0  0  0  0  0  0
  152.0948  140.5873  158.6967 H   0  0  0  0  0  0  0  0  0  0  0  0
  151.3849  139.9421  157.2262 H   0  0  0  0  0  0  0  0  0  0  0  0
  150.3425  140.5099  158.5282 H   0  0  0  0  0  0  0  0  0  0  0  0
  152.2271  142.2525  156.8654 H   0  0  0  0  0  0  0  0  0  0  0  0
  149.5157  142.9306  156.5110 H   0  0  0  0  0  0  0  0  0  0  0  0
  148.4479  142.6656  154.6336 H   0  0  0  0  0  0  0  0  0  0  0  0
  149.1588  141.6570  153.4166 H   0  0  0  0  0  0  0  0  0  0  0  0
  148.1563  139.8523  152.7303 H   0  0  0  0  0  0  0  0  0  0  0  0
  146.3452  138.1482  152.8276 H   0  0  0  0  0  0  0  0  0  0  0  0
  150.0744  143.2276  158.8064 H   0  0  0  0  0  0  0  0  0  0  0  0
  151.7320  142.4596  160.3845 H   0  0  0  0  0  0  0  0  0  0  0  0
  153.0553  142.8179  159.2674 H   0  0  0  0  0  0  0  0  0  0  0  0
  151.2405  144.8243  160.6466 H   0  0  0  0  0  0  0  0  0  0  0  0
  153.0096  144.8047  160.6634 H   0  0  0  0  0  0  0  0  0  0  0  0
  151.6868  146.3260  158.8217 H   0  0  0  0  0  0  0  0  0  0  0  0
  153.1154  145.4124  158.3286 H   0  0  0  0  0  0  0  0  0  0  0  0
  1  2  1  0  0  0  0
  1 20  1  0  0  0  0
  1 21  1  0  0  0  0
  1 22  1  0  0  0  0
  2  3  1  0  0  0  0
  2 15  1  0  0  0  0
  2 23  1  0  0  0  0
  3  4  1  0  0  0  0
  3 24  1  0  0  0  0
  4  5  2  0  0  0  0
  4  6  1  0  0  0  0
  6  7  1  0  0  0  0
  6 25  1  0  0  0  0
  6 26  1  0  0  0  0
  7 13  1  0  0  0  0
  7  8  1  0  0  0  0
  8  9  2  0  0  0  0
  8 27  1  0  0  0  0
  9 10  1  0  0  0  0
  9 28  1  0  0  0  0
 10 11  2  0  0  0  0
 10 12  1  0  0  0  0
 12 13  1  0  0  0  0
 13 14  2  0  0  0  0
 15 19  1  0  0  0  0
 15 16  1  0  0  0  0
 15 29  1  0  0  0  0
 16 17  1  0  0  0  0
 16 30  1  0  0  0  0
 16 31  1  0  0  0  0
 17 18  1  0  0  0  0
 17 32  1  0  0  0  0
 17 33  1  0  0  0  0
 18 19  1  0  0  0  0
 18 34  1  0  0  0  0
 18 35  1  0  0  0  0
M  CHG  1  12  -1
M  END
> <s_m_source_file>
AV-unprocessed.smi

> <i_m_source_file_index>
1403

> <i_lp_mmshare_version>
43012

> <i_f3d_flags>
0

> <s_epik_input>
TzFbQ0gyXVtDSDJdW0NIMl1bQ0BIXTFbQ0BIXShbQ0gzXSlbTkhdQyg9TylbQ0gyXW4yW2NIXVtjSF1jKD1PKVtuSF1jMj1P

> <s_epik_cmdline>
J2VwaWtfcHl0aG9uJywgJy1waCcsICc3LjAnLCAnLXRuJywgJzgnLCAnLW1hJywgJzIwMCcsICctbWV0YWxfYmluZGluZycsICctaW1hZScsICc8aW5maWxlLm1hZT4nLCAnLW9tYWUnLCAnPG91dGZpbGUubWFlPic=

> <r_lp_tautomer_probability>
0.999537

> <r_epik_Ionization_Penalty>
3.07438

> <r_epik_Ionization_Penalty_Charging>
2.82466e-08

> <r_epik_Ionization_Penalty_Neutral>
3.07438

> <r_epik_State_Penalty>
3.07341

> <r_epik_Charging_Adjusted_Penalty>
3.07341

> <i_epik_Tot_Q>
-1

> <i_epik_Tot_abs_Q>
1

> <r_epik_Metal_State_Penalty>
0.45947

> <b_epik_Metal_Only>
1

> <s_lp_Force_Field>
OPLS_2005

> <r_lp_Energy>
26.7212

> <b_lp_Chiralities_Consistent>
1

> <s_lp_Variant>
AV-unprocessed.smi:1403-8

> <Gold.Version>
5.8.1

> <Gold.Id.Protein>
6NUR|6NUR_protein|mol2

> <Gold.PLP.Fitness>
40.4937

> <Gold.PLP.PLP>
-32.4544

> <Gold.PLP.part.hbond>
-2.0000

> <Gold.PLP.part.metal>
0.0000

> <Gold.PLP.part.buried>
-2.7840

> <Gold.PLP.part.nonpolar>
-26.5161

> <Gold.PLP.part.repulsive>
0.5296

> <Gold.PLP.ligand.clash>
0.0000

> <Gold.PLP.ligand.torsion>
0.3721

> <Gold.PLP.Chemscore.Hbond>
1.9199

> <Gold.PLP.Chemscore.CHOScore>
1.0000

> <Gold.PLP.Chemscore.Metal>
0.0000

> <Gold.Chemscore.Hbonds>
donor molecule, donor type, donor heavy atom, donor atom, acceptor molecule, acceptor atom, score
      L1  H     3    24       P1  8028  0.74
      P1  H  7989  7998       L1     5  1.00
      L1  C     8    27       P1  7957  1.00

> <Gold.PLP.Chemscore.Internal.Correction>
0.0239

> <Gold.Rescore>
     Score         DG    S(hbond)    S(metal)    S(lipo)     H(rot)  DE(clash)    DE(int)     intcor
     13.38     -15.07       1.58        0.00      80.52       1.99       0.13       1.56       ----

> <Gold.Chemscore.Fitness>
13.3847

> <Gold.Chemscore.DG>
-15.0748

> <Gold.Chemscore.ZeroCoef>
-5.4800

> <Gold.Chemscore.Hbond>
1.5804

> <Gold.Chemscore.Metal>
0.0000

> <Gold.Chemscore.Lipo>
80.5197

> <Gold.Chemscore.Internal_Hbond>
0.0000

> <Gold.Chemscore.DEClash>
0.1313

> <Gold.Chemscore.DEInternal>
1.5589

> <Gold.Chemscore.Rot>
1.9940

> <Gold.Chemscore.Internal.Correction>
   9.000000E+99

> <Gold.Chemscore.Hbonds>
donor molecule, donor type, donor heavy atom, donor atom, acceptor molecule, acceptor atom, score
      L1  H     3    24       P1  8028  0.71
      P1  H  7989  7998       L1     5  0.48

> <Gold.Chemscore.Hbond.Weighted>
-5.2787

> <Gold.Chemscore.Metal.Weighted>
-0.0000

> <Gold.Chemscore.Lipo.Weighted>
-9.4208

> <Gold.Chemscore.Internal_Hbond.Weighted>
0.0000

> <Gold.Chemscore.DEClash.Weighted>
0.1313

> <Gold.Chemscore.DEInternal.Weighted>
1.5589

> <Gold.Chemscore.Rot.Weighted>
5.1047

> <Gold.Chemscore.Internal.Correction.Weighted>
   9.000000E+99

> <Gold.Protein.RotatedTorsions>
[ 6907 6896 6895 6894 ] final  147.25 input  -60.11 | X-H torsion
[ 7974 7965 7964 7962 ] final   68.47 input  175.53 | X-H torsion
[ 8008 7997 7996 7995 ] final  -64.80 input   59.86 | X-H torsion
[ 10167 10162 10161 10158 ] final  -77.22 input  -65.29 | X-H torsion
[ 10718 10713 10712 10709 ] final  127.98 input   66.30 | X-H torsion
[ 10763 10752 10751 10750 ] final  166.54 input  -60.55 | X-H torsion
[ 11005 11000 10999 10996 ] final   78.36 input  -57.11 | X-H torsion

> <Gold.Protein.ActiveResidues>
 VAL166  LYS551  ARG553  GLY616  TRP617  ASP618  TYR619  PRO620  LYS621  CYS622 
 ASP623  PHE694  ASN695  SER759  ASP760  ASP761  ALA762  ILE779  LEU786  VAL792 
 PHE793  MET794  SER795  GLU796  ALA797  LYS798  CYS799  TRP800  GLU811  SER814 

> <Gold.Protein.RotatedAtoms>
  152.1573  133.4559  159.4842 H   0  0  0  0  0  0  0  0  0  0  0  0  # atno 6907 bound_to 6896
  150.6902  134.2116  159.4370 H   0  0  0  0  0  0  0  0  0  0  0  0  # atno 6908 bound_to 6896
  152.0016  134.9925  160.0616 H   0  0  0  0  0  0  0  0  0  0  0  0  # atno 6909 bound_to 6896
  145.8022  139.2988  143.1148 H   0  0  0  0  0  0  0  0  0  0  0  0  # atno 7974 bound_to 7965
  154.4633  140.0946  156.6953 H   0  0  0  0  0  0  0  0  0  0  0  0  # atno 8008 bound_to 7997
  155.4930  140.3471  155.4340 H   0  0  0  0  0  0  0  0  0  0  0  0  # atno 8009 bound_to 7997
  156.0911  140.1397  156.9580 H   0  0  0  0  0  0  0  0  0  0  0  0  # atno 8010 bound_to 7997
  140.4789  143.2407  151.8089 H   0  0  0  0  0  0  0  0  0  0  0  0  # atno 10167 bound_to 10162
  157.5285  131.1098  150.9045 H   0  0  0  0  0  0  0  0  0  0  0  0  # atno 10718 bound_to 10713
  154.3405  135.2754  155.2425 H   0  0  0  0  0  0  0  0  0  0  0  0  # atno 10763 bound_to 10752
  154.4698  135.5886  153.6317 H   0  0  0  0  0  0  0  0  0  0  0  0  # atno 10764 bound_to 10752
  152.9858  135.6085  154.3605 H   0  0  0  0  0  0  0  0  0  0  0  0  # atno 10765 bound_to 10752
  139.9216  134.7757  156.1640 H   0  0  0  0  0  0  0  0  0  0  0  0  # atno 11005 bound_to 11000
  145.9865  140.8638  143.0088 LP  0  0  0  0  0  0  0  0  0  0  0  0  # atno 17320 bound_to 7965
  144.6767  140.2155  143.7372 LP  0  0  0  0  0  0  0  0  0  0  0  0  # atno 17321 bound_to 7965
  139.4830  144.4798  151.9321 LP  0  0  0  0  0  0  0  0  0  0  0  0  # atno 17342 bound_to 10162
  140.3883  144.2648  150.5902 LP  0  0  0  0  0  0  0  0  0  0  0  0  # atno 17343 bound_to 10162
  156.9634  130.5463  149.5287 LP  0  0  0  0  0  0  0  0  0  0  0  0  # atno 17370 bound_to 10713
  156.0405  130.5488  150.8759 LP  0  0  0  0  0  0  0  0  0  0  0  0  # atno 17371 bound_to 10713
  141.0741  133.6783  156.2199 LP  0  0  0  0  0  0  0  0  0  0  0  0  # atno 17394 bound_to 11000
  140.6458  134.5118  157.5573 LP  0  0  0  0  0  0  0  0  0  0  0  0  # atno 17395 bound_to 11000

$$$$
