AV-unprocessed.smi:3061|AV-procd|sdf|11679|dock1
  -GOLD-   2272017 83D 1   1.00000     0.00000
 Structure written by MMmdl.
 35 36  0  0  0  0  0  0  0  0  1 V2000
  150.2072  139.4268  156.7446 C   0  0  0  0  0  0  0  0  0  0  0  0
  150.1607  140.9549  156.8957 C   0  0  2  0  0  0  0  0  0  0  0  0
  150.0561  141.6556  155.5274 C   0  0  0  0  0  0  0  0  0  0  0  0
  148.7224  141.5636  154.9609 N   0  0  0  0  0  0  0  0  0  0  0  0
  148.3051  141.0558  153.8001 C   0  0  0  0  0  0  0  0  0  0  0  0
  146.9970  141.1577  153.6107 N   0  0  0  0  0  0  0  0  0  0  0  0
  146.6456  141.7780  154.7765 C   0  0  0  0  0  0  0  0  0  0  0  0
  147.6428  142.0448  155.6202 N   0  0  0  0  0  0  0  0  0  0  0  0
  151.3508  141.4205  157.6049 N   0  0  0  0  0  0  0  0  0  0  0  0
  151.3581  142.2751  158.6391 C   0  0  0  0  0  0  0  0  0  0  0  0
  150.3348  142.7522  159.1305 O   0  0  0  0  0  0  0  0  0  0  0  0
  152.7371  142.6526  159.2017 C   0  0  2  0  0  0  0  0  0  0  0  0
  153.5809  141.4015  159.5209 C   0  0  0  0  0  0  0  0  0  0  0  0
  153.7196  141.4251  161.0339 C   0  0  0  0  0  0  0  0  0  0  0  0
  154.2709  140.5270  161.6686 O   0  0  0  0  0  0  0  0  0  0  0  0
  153.1656  142.5266  161.5479 N   0  0  0  0  0  0  0  0  0  0  0  0
  153.1156  142.8740  162.9615 C   0  0  0  0  0  0  0  0  0  0  0  0
  152.6358  143.4245  160.5360 C   0  0  0  0  0  0  0  0  0  0  0  0
  149.3200  139.0574  156.2295 H   0  0  0  0  0  0  0  0  0  0  0  0
  150.2494  138.9346  157.7170 H   0  0  0  0  0  0  0  0  0  0  0  0
  151.0799  139.1101  156.1725 H   0  0  0  0  0  0  0  0  0  0  0  0
  149.2704  141.2099  157.4742 H   0  0  0  0  0  0  0  0  0  0  0  0
  150.3283  142.7086  155.6119 H   0  0  0  0  0  0  0  0  0  0  0  0
  150.7566  141.2089  154.8201 H   0  0  0  0  0  0  0  0  0  0  0  0
  148.9719  140.6090  153.0772 H   0  0  0  0  0  0  0  0  0  0  0  0
  145.6247  142.0416  155.0100 H   0  0  0  0  0  0  0  0  0  0  0  0
  152.2399  141.0763  157.2730 H   0  0  0  0  0  0  0  0  0  0  0  0
  153.2623  143.2691  158.4699 H   0  0  0  0  0  0  0  0  0  0  0  0
  153.1207  140.4665  159.1970 H   0  0  0  0  0  0  0  0  0  0  0  0
  154.5685  141.4662  159.0635 H   0  0  0  0  0  0  0  0  0  0  0  0
  154.1203  143.0531  163.3456 H   0  0  0  0  0  0  0  0  0  0  0  0
  152.6643  142.0673  163.5405 H   0  0  0  0  0  0  0  0  0  0  0  0
  152.5249  143.7762  163.1232 H   0  0  0  0  0  0  0  0  0  0  0  0
  153.2399  144.3322  160.5054 H   0  0  0  0  0  0  0  0  0  0  0  0
  151.6141  143.7185  160.7841 H   0  0  0  0  0  0  0  0  0  0  0  0
  1  2  1  0  0  0  0
  1 19  1  0  0  0  0
  1 20  1  0  0  0  0
  1 21  1  0  0  0  0
  2  3  1  0  0  0  0
  2  9  1  0  0  0  0
  2 22  1  0  0  0  0
  3  4  1  0  0  0  0
  3 23  1  0  0  0  0
  3 24  1  0  0  0  0
  4  8  1  0  0  0  0
  4  5  1  0  0  0  0
  5  6  2  0  0  0  0
  5 25  1  0  0  0  0
  6  7  1  0  0  0  0
  7  8  2  0  0  0  0
  7 26  1  0  0  0  0
  9 10  1  0  0  0  0
  9 27  1  0  0  0  0
 10 11  2  0  0  0  0
 10 12  1  0  0  0  0
 12 18  1  0  0  0  0
 12 13  1  0  0  0  0
 12 28  1  0  0  0  0
 13 14  1  0  0  0  0
 13 29  1  0  0  0  0
 13 30  1  0  0  0  0
 14 15  2  0  0  0  0
 14 16  1  0  0  0  0
 16 17  1  0  0  0  0
 16 18  1  0  0  0  0
 17 31  1  0  0  0  0
 17 32  1  0  0  0  0
 17 33  1  0  0  0  0
 18 34  1  0  0  0  0
 18 35  1  0  0  0  0
M  END
> <s_m_source_file>
AV-unprocessed.smi

> <i_m_source_file_index>
3061

> <i_lp_mmshare_version>
43012

> <i_f3d_flags>
0

> <s_epik_input>
bjFbY0hdbltjSF1uMVtDSDJdW0NAQEhdKFtDSDNdKVtOSF1DKD1PKVtDQEBIXTJbQ0gyXUMoPU8pTihbQ0gzXSlbQ0gyXTI=

> <s_epik_cmdline>
J2VwaWtfcHl0aG9uJywgJy1waCcsICc3LjAnLCAnLXRuJywgJzgnLCAnLW1hJywgJzIwMCcsICctbWV0YWxfYmluZGluZycsICctaW1hZScsICc8aW5maWxlLm1hZT4nLCAnLW9tYWUnLCAnPG91dGZpbGUubWFlPic=

> <r_lp_tautomer_probability>
1

> <r_epik_Ionization_Penalty>
4.97611e-05

> <r_epik_Ionization_Penalty_Charging>
0

> <r_epik_Ionization_Penalty_Neutral>
4.97611e-05

> <r_epik_State_Penalty>
-0

> <r_epik_Charging_Adjusted_Penalty>
0

> <i_epik_Tot_Q>
0

> <i_epik_Tot_abs_Q>
0

> <r_epik_Metal_State_Penalty>
-0

> <b_epik_Metal_Only>
0

> <s_lp_Force_Field>
OPLS_2005

> <r_lp_Energy>
14.0738

> <b_lp_Chiralities_Consistent>
1

> <s_lp_Variant>
AV-unprocessed.smi:3061-1

> <Gold.Version>
5.8.1

> <Gold.Id.Protein>
6NUR|6NUR_protein|mol2

> <Gold.PLP.Fitness>
40.2185

> <Gold.PLP.PLP>
-38.1058

> <Gold.PLP.part.hbond>
-0.7794

> <Gold.PLP.part.metal>
0.0000

> <Gold.PLP.part.buried>
-4.9526

> <Gold.PLP.part.nonpolar>
-33.7179

> <Gold.PLP.part.repulsive>
1.4164

> <Gold.PLP.ligand.clash>
0.0000

> <Gold.PLP.ligand.torsion>
0.4673

> <Gold.PLP.Chemscore.Hbond>
0.0000

> <Gold.PLP.Chemscore.CHOScore>
1.0000

> <Gold.PLP.Chemscore.Metal>
0.0000

> <Gold.Chemscore.Hbonds>
donor molecule, donor type, donor heavy atom, donor atom, acceptor molecule, acceptor atom, score
      L1  C     5    25       P1  7957  1.00

> <Gold.PLP.Chemscore.Internal.Correction>
0.0473

> <Gold.Rescore>
     Score         DG    S(hbond)    S(metal)    S(lipo)     H(rot)  DE(clash)    DE(int)     intcor
      6.22      -6.75       0.00        0.00      63.83       2.42       0.11       0.42       ----

> <Gold.Chemscore.Fitness>
6.2244

> <Gold.Chemscore.DG>
-6.7535

> <Gold.Chemscore.ZeroCoef>
-5.4800

> <Gold.Chemscore.Hbond>
0.0000

> <Gold.Chemscore.Metal>
0.0000

> <Gold.Chemscore.Lipo>
63.8293

> <Gold.Chemscore.Internal_Hbond>
0.0000

> <Gold.Chemscore.DEClash>
0.1105

> <Gold.Chemscore.DEInternal>
0.4186

> <Gold.Chemscore.Rot>
2.4197

> <Gold.Chemscore.Internal.Correction>
   9.000000E+99

> <Gold.Chemscore.Hbond.Weighted>
-0.0000

> <Gold.Chemscore.Metal.Weighted>
-0.0000

> <Gold.Chemscore.Lipo.Weighted>
-7.4680

> <Gold.Chemscore.Internal_Hbond.Weighted>
0.0000

> <Gold.Chemscore.DEClash.Weighted>
0.1105

> <Gold.Chemscore.DEInternal.Weighted>
0.4186

> <Gold.Chemscore.Rot.Weighted>
6.1945

> <Gold.Chemscore.Internal.Correction.Weighted>
   9.000000E+99

> <Gold.Protein.RotatedTorsions>
[ 6907 6896 6895 6894 ] final  -17.78 input  -60.11 | X-H torsion
[ 7974 7965 7964 7962 ] final   72.48 input  175.53 | X-H torsion
[ 8008 7997 7996 7995 ] final -162.76 input   59.86 | X-H torsion
[ 10167 10162 10161 10158 ] final   95.41 input  -65.29 | X-H torsion
[ 10718 10713 10712 10709 ] final  118.74 input   66.30 | X-H torsion
[ 10763 10752 10751 10750 ] final  117.14 input  -60.55 | X-H torsion
[ 11005 11000 10999 10996 ] final   20.55 input  -57.11 | X-H torsion

> <Gold.Protein.ActiveResidues>
 VAL166  LYS551  ARG553  GLY616  TRP617  ASP618  TYR619  PRO620  LYS621  CYS622 
 ASP623  PHE694  ASN695  SER759  ASP760  ASP761  ALA762  ILE779  LEU786  VAL792 
 PHE793  MET794  SER795  GLU796  ALA797  LYS798  CYS799  TRP800  GLU811  SER814 

> <Gold.Protein.RotatedAtoms>
  151.2881  135.0734  159.9193 H   0  0  0  0  0  0  0  0  0  0  0  0  # atno 6907 bound_to 6896
  152.5321  133.9961  159.7883 H   0  0  0  0  0  0  0  0  0  0  0  0  # atno 6908 bound_to 6896
  151.0226  133.5812  159.2700 H   0  0  0  0  0  0  0  0  0  0  0  0  # atno 6909 bound_to 6896
  145.7528  139.2767  143.1421 H   0  0  0  0  0  0  0  0  0  0  0  0  # atno 7974 bound_to 7965
  155.8115  140.0906  157.1901 H   0  0  0  0  0  0  0  0  0  0  0  0  # atno 8008 bound_to 7997
  154.3980  140.1453  156.3452 H   0  0  0  0  0  0  0  0  0  0  0  0  # atno 8009 bound_to 7997
  155.8360  140.3441  155.5604 H   0  0  0  0  0  0  0  0  0  0  0  0  # atno 8010 bound_to 7997
  139.7991  144.6821  150.9788 H   0  0  0  0  0  0  0  0  0  0  0  0  # atno 10167 bound_to 10162
  157.6010  131.1051  150.7798 H   0  0  0  0  0  0  0  0  0  0  0  0  # atno 10718 bound_to 10713
  153.5479  135.3545  155.2747 H   0  0  0  0  0  0  0  0  0  0  0  0  # atno 10763 bound_to 10752
  154.8710  135.4107  154.2970 H   0  0  0  0  0  0  0  0  0  0  0  0  # atno 10764 bound_to 10752
  153.3690  135.7063  153.6721 H   0  0  0  0  0  0  0  0  0  0  0  0  # atno 10765 bound_to 10752
  140.4013  134.1715  155.7664 H   0  0  0  0  0  0  0  0  0  0  0  0  # atno 11005 bound_to 11000
  146.0340  140.8230  142.9862 LP  0  0  0  0  0  0  0  0  0  0  0  0  # atno 17320 bound_to 7965
  144.6846  140.2811  143.7292 LP  0  0  0  0  0  0  0  0  0  0  0  0  # atno 17321 bound_to 7965
  140.7820  143.4300  151.0709 LP  0  0  0  0  0  0  0  0  0  0  0  0  # atno 17342 bound_to 10162
  139.7972  143.8134  152.3159 LP  0  0  0  0  0  0  0  0  0  0  0  0  # atno 17343 bound_to 10162
  156.8197  130.4980  149.5345 LP  0  0  0  0  0  0  0  0  0  0  0  0  # atno 17370 bound_to 10713
  156.1083  130.6021  151.0006 LP  0  0  0  0  0  0  0  0  0  0  0  0  # atno 17371 bound_to 10713
  141.1855  133.8321  157.1101 LP  0  0  0  0  0  0  0  0  0  0  0  0  # atno 17394 bound_to 11000
  140.0334  134.9890  157.0824 LP  0  0  0  0  0  0  0  0  0  0  0  0  # atno 17395 bound_to 11000

$$$$
