AV-unprocessed.smi:266|AV-procd|sdf|2031|dock3
  -GOLD-   2262021233D 1   1.00000     0.00000
 Structure written by MMmdl.
 52 55  0  0  0  0  0  0  0  0  1 V2000
  143.0830  133.6531  152.1201 C   0  0  0  0  0  0  0  0  0  0  0  0
  144.1606  133.8744  151.0472 C   0  0  2  0  0  0  0  0  0  0  0  0
  145.1183  132.8265  151.1720 O   0  0  0  0  0  0  0  0  0  0  0  0
  146.3829  133.3110  150.7559 C   0  0  0  0  0  0  0  0  0  0  0  0
  146.4040  134.7131  151.3441 C   0  0  0  0  0  0  0  0  0  0  0  0
  144.9723  135.1988  151.1285 C   0  0  1  0  0  0  0  0  0  0  0  0
  144.9140  135.8163  149.8530 O   0  0  0  0  0  0  0  0  0  0  0  0
  144.5024  136.2370  152.1818 C   0  0  0  0  0  0  0  0  0  0  0  0
  145.4883  137.2753  152.4420 N   0  0  0  0  0  0  0  0  0  0  0  0
  146.1669  138.0225  151.5074 C   0  0  0  0  0  0  0  0  0  0  0  0
  147.0176  138.8818  151.9963 N   0  0  0  0  0  0  0  0  0  0  0  0
  146.9215  138.7195  153.3742 C   0  0  0  0  0  0  0  0  0  0  0  0
  147.5679  139.3135  154.4989 C   0  0  0  0  0  0  0  0  0  0  0  0
  148.5689  140.2316  154.4053 N   0  0  0  0  0  0  0  0  0  0  0  0
  148.5249  141.3883  155.2964 C   0  0  0  0  0  0  0  0  0  0  0  0
  149.8888  139.7759  153.9645 C   0  0  0  0  0  0  0  0  0  0  0  0
  150.8260  139.3725  155.1239 C   0  0  2  0  0  0  0  0  0  0  0  0
  152.2669  139.1338  154.6314 C   0  0  0  0  0  0  0  0  0  0  0  0
  153.0719  138.4817  155.7591 C   0  0  0  0  0  0  0  0  0  0  0  0
  151.8918  137.3867  156.6287 S   0  0  0  0  0  0  0  0  0  0  0  0
  152.0566  136.0069  156.1468 O   0  0  0  0  0  0  0  0  0  0  0  0
  151.9191  137.6960  158.0663 O   0  0  0  0  0  0  0  0  0  0  0  0
  150.3832  138.1016  155.8738 C   0  0  0  0  0  0  0  0  0  0  0  0
  147.1626  138.9041  155.7317 N   0  0  0  0  0  0  0  0  0  0  0  0
  146.2195  137.9679  155.8632 C   0  0  0  0  0  0  0  0  0  0  0  0
  145.5571  137.3138  154.9091 N   0  0  0  0  0  0  0  0  0  0  0  0
  145.9424  137.7272  153.6687 C   0  0  0  0  0  0  0  0  0  0  0  0
  142.3123  134.4227  152.0756 H   0  0  0  0  0  0  0  0  0  0  0  0
  143.5099  133.6530  153.1232 H   0  0  0  0  0  0  0  0  0  0  0  0
  142.5910  132.6908  151.9768 H   0  0  0  0  0  0  0  0  0  0  0  0
  143.6925  133.7748  150.0660 H   0  0  0  0  0  0  0  0  0  0  0  0
  147.1961  132.6851  151.1238 H   0  0  0  0  0  0  0  0  0  0  0  0
  146.4301  133.3387  149.6661 H   0  0  0  0  0  0  0  0  0  0  0  0
  146.6184  134.6383  152.4107 H   0  0  0  0  0  0  0  0  0  0  0  0
  147.1630  135.3574  150.8969 H   0  0  0  0  0  0  0  0  0  0  0  0
  145.5698  135.4219  149.2987 H   0  0  0  0  0  0  0  0  0  0  0  0
  143.5761  136.7166  151.8621 H   0  0  0  0  0  0  0  0  0  0  0  0
  144.2844  135.7468  153.1306 H   0  0  0  0  0  0  0  0  0  0  0  0
  146.0179  137.9024  150.4442 H   0  0  0  0  0  0  0  0  0  0  0  0
  147.5458  141.8677  155.2639 H   0  0  0  0  0  0  0  0  0  0  0  0
  149.2658  142.1308  154.9994 H   0  0  0  0  0  0  0  0  0  0  0  0
  148.7341  141.0952  156.3258 H   0  0  0  0  0  0  0  0  0  0  0  0
  149.8176  138.9684  153.2398 H   0  0  0  0  0  0  0  0  0  0  0  0
  150.3462  140.6010  153.4176 H   0  0  0  0  0  0  0  0  0  0  0  0
  150.8714  140.1888  155.8461 H   0  0  0  0  0  0  0  0  0  0  0  0
  152.2456  138.4556  153.7771 H   0  0  0  0  0  0  0  0  0  0  0  0
  152.7362  140.0579  154.2929 H   0  0  0  0  0  0  0  0  0  0  0  0
  153.9278  137.9091  155.4014 H   0  0  0  0  0  0  0  0  0  0  0  0
  153.4224  139.2318  156.4681 H   0  0  0  0  0  0  0  0  0  0  0  0
  149.6413  138.3002  156.6473 H   0  0  0  0  0  0  0  0  0  0  0  0
  149.9766  137.3595  155.1864 H   0  0  0  0  0  0  0  0  0  0  0  0
  145.9649  137.6996  156.8779 H   0  0  0  0  0  0  0  0  0  0  0  0
  1  2  1  0  0  0  0
  1 28  1  0  0  0  0
  1 29  1  0  0  0  0
  1 30  1  0  0  0  0
  2  6  1  0  0  0  0
  2  3  1  0  0  0  0
  2 31  1  0  0  0  0
  3  4  1  0  0  0  0
  4  5  1  0  0  0  0
  4 32  1  0  0  0  0
  4 33  1  0  0  0  0
  5  6  1  0  0  0  0
  5 34  1  0  0  0  0
  5 35  1  0  0  0  0
  6  7  1  0  0  0  0
  6  8  1  0  0  0  0
  7 36  1  0  0  0  0
  8  9  1  0  0  0  0
  8 37  1  0  0  0  0
  8 38  1  0  0  0  0
  9 27  1  0  0  0  0
  9 10  1  0  0  0  0
 10 11  2  0  0  0  0
 10 39  1  0  0  0  0
 11 12  1  0  0  0  0
 12 27  2  0  0  0  0
 12 13  1  0  0  0  0
 13 14  1  0  0  0  0
 13 24  2  0  0  0  0
 14 15  1  0  0  0  0
 14 16  1  0  0  0  0
 15 40  1  0  0  0  0
 15 41  1  0  0  0  0
 15 42  1  0  0  0  0
 16 17  1  0  0  0  0
 16 43  1  0  0  0  0
 16 44  1  0  0  0  0
 17 23  1  0  0  0  0
 17 18  1  0  0  0  0
 17 45  1  0  0  0  0
 18 19  1  0  0  0  0
 18 46  1  0  0  0  0
 18 47  1  0  0  0  0
 19 20  1  0  0  0  0
 19 48  1  0  0  0  0
 19 49  1  0  0  0  0
 20 21  2  0  0  0  0
 20 22  2  0  0  0  0
 20 23  1  0  0  0  0
 23 50  1  0  0  0  0
 23 51  1  0  0  0  0
 24 25  1  0  0  0  0
 25 26  2  0  0  0  0
 25 52  1  0  0  0  0
 26 27  1  0  0  0  0
M  END
> <s_m_source_file>
AV-unprocessed.smi

> <i_m_source_file_index>
266

> <i_lp_mmshare_version>
43012

> <i_f3d_flags>
0

> <s_epik_input>
W0NIMl0xW0NIMl1PW0NAQEhdKFtDSDNdKVtDQEBdMShbT0hdKVtDSDJdbihbY0hdbjIpYyhjMjMpbltjSF1uYzNOKFtDSDNdKVtDSDJdW0NAQEhdKFtDSDJdNClbQ0gyXVtDSDJdUzQoPU8pPU8=

> <s_epik_cmdline>
J2VwaWtfcHl0aG9uJywgJy1waCcsICc3LjAnLCAnLXRuJywgJzgnLCAnLW1hJywgJzIwMCcsICctbWV0YWxfYmluZGluZycsICctaW1hZScsICc8aW5maWxlLm1hZT4nLCAnLW9tYWUnLCAnPG91dGZpbGUubWFlPic=

> <r_lp_tautomer_probability>
1

> <r_epik_Ionization_Penalty>
0.00155497

> <r_epik_Ionization_Penalty_Charging>
0

> <r_epik_Ionization_Penalty_Neutral>
0.00155497

> <r_epik_State_Penalty>
-0

> <r_epik_Charging_Adjusted_Penalty>
0

> <i_epik_Tot_Q>
0

> <i_epik_Tot_abs_Q>
0

> <r_epik_Metal_State_Penalty>
-0

> <b_epik_Metal_Only>
0

> <s_lp_Force_Field>
OPLS_2005

> <r_lp_Energy>
29.5809

> <b_lp_Chiralities_Consistent>
1

> <s_lp_Variant>
AV-unprocessed.smi:266-1

> <Gold.Version>
5.8.1

> <Gold.Id.Protein>
6NUR|6NUR_protein|mol2

> <Gold.PLP.Fitness>
41.4201

> <Gold.PLP.PLP>
-36.1494

> <Gold.PLP.part.hbond>
-3.0000

> <Gold.PLP.part.metal>
0.0000

> <Gold.PLP.part.buried>
-0.8990

> <Gold.PLP.part.nonpolar>
-35.2002

> <Gold.PLP.part.repulsive>
1.8912

> <Gold.PLP.ligand.clash>
0.0000

> <Gold.PLP.ligand.torsion>
1.5366

> <Gold.PLP.Chemscore.Hbond>
2.0000

> <Gold.PLP.Chemscore.CHOScore>
0.5792

> <Gold.PLP.Chemscore.Metal>
0.0000

> <Gold.Chemscore.Hbonds>
donor molecule, donor type, donor heavy atom, donor atom, acceptor molecule, acceptor atom, score
      L1  H     7    36       P1  7921  1.00
      P1  H 10752 10764       L1    21  1.00
      L1  C    10    39       P1 10171  0.64

> <Gold.PLP.Chemscore.Internal.Correction>
0.6063

> <Gold.Rescore>
     Score         DG    S(hbond)    S(metal)    S(lipo)     H(rot)  DE(clash)    DE(int)     intcor
     12.31     -15.04       2.19        0.00      72.83       2.45       0.94       1.78       ----

> <Gold.Chemscore.Fitness>
12.3138

> <Gold.Chemscore.DG>
-15.0353

> <Gold.Chemscore.ZeroCoef>
-5.4800

> <Gold.Chemscore.Hbond>
2.1853

> <Gold.Chemscore.Metal>
0.0000

> <Gold.Chemscore.Lipo>
72.8277

> <Gold.Chemscore.Internal_Hbond>
0.0000

> <Gold.Chemscore.DEClash>
0.9433

> <Gold.Chemscore.DEInternal>
1.7782

> <Gold.Chemscore.Rot>
2.4471

> <Gold.Chemscore.Internal.Correction>
   9.000000E+99

> <Gold.Chemscore.Hbonds>
donor molecule, donor type, donor heavy atom, donor atom, acceptor molecule, acceptor atom, score
      L1  H     7    36       P1  7921  0.95
      P1  H 10752 10764       L1    21  1.00

> <Gold.Chemscore.Hbond.Weighted>
-7.2990

> <Gold.Chemscore.Metal.Weighted>
-0.0000

> <Gold.Chemscore.Lipo.Weighted>
-8.5208

> <Gold.Chemscore.Internal_Hbond.Weighted>
0.0000

> <Gold.Chemscore.DEClash.Weighted>
0.9433

> <Gold.Chemscore.DEInternal.Weighted>
1.7782

> <Gold.Chemscore.Rot.Weighted>
6.2645

> <Gold.Chemscore.Internal.Correction.Weighted>
   9.000000E+99

> <Gold.Protein.RotatedTorsions>
[ 6907 6896 6895 6894 ] final -126.66 input  -60.11 | X-H torsion
[ 7974 7965 7964 7962 ] final   -7.30 input  175.53 | X-H torsion
[ 8008 7997 7996 7995 ] final  -88.13 input   59.86 | X-H torsion
[ 10167 10162 10161 10158 ] final -122.87 input  -65.29 | X-H torsion
[ 10718 10713 10712 10709 ] final   14.86 input   66.30 | X-H torsion
[ 10763 10752 10751 10750 ] final  -20.38 input  -60.55 | X-H torsion
[ 11005 11000 10999 10996 ] final   86.56 input  -57.11 | X-H torsion

> <Gold.Protein.ActiveResidues>
 VAL166  LYS551  ARG553  GLY616  TRP617  ASP618  TYR619  PRO620  LYS621  CYS622 
 ASP623  PHE694  ASN695  SER759  ASP760  ASP761  ALA762  ILE779  LEU786  VAL792 
 PHE793  MET794  SER795  GLU796  ALA797  LYS798  CYS799  TRP800  GLU811  SER814 

> <Gold.Protein.RotatedAtoms>
  150.8992  133.7140  159.2883 H   0  0  0  0  0  0  0  0  0  0  0  0  # atno 6907 bound_to 6896
  151.4664  135.1041  159.9749 H   0  0  0  0  0  0  0  0  0  0  0  0  # atno 6908 bound_to 6896
  152.4867  133.8343  159.7175 H   0  0  0  0  0  0  0  0  0  0  0  0  # atno 6909 bound_to 6896
  146.2310  140.2299  142.8340 H   0  0  0  0  0  0  0  0  0  0  0  0  # atno 7974 bound_to 7965
  154.6713  140.0557  157.0168 H   0  0  0  0  0  0  0  0  0  0  0  0  # atno 8008 bound_to 7997
  155.1085  140.3236  155.4509 H   0  0  0  0  0  0  0  0  0  0  0  0  # atno 8009 bound_to 7997
  156.2658  140.2018  156.6210 H   0  0  0  0  0  0  0  0  0  0  0  0  # atno 8010 bound_to 7997
  140.0097  143.5455  152.2268 H   0  0  0  0  0  0  0  0  0  0  0  0  # atno 10167 bound_to 10162
  157.0452  130.6247  149.5758 H   0  0  0  0  0  0  0  0  0  0  0  0  # atno 10718 bound_to 10713
  153.6196  135.6993  153.5316 H   0  0  0  0  0  0  0  0  0  0  0  0  # atno 10763 bound_to 10752
  153.2949  135.4146  155.1200 H   0  0  0  0  0  0  0  0  0  0  0  0  # atno 10764 bound_to 10752
  154.8546  135.3634  154.5736 H   0  0  0  0  0  0  0  0  0  0  0  0  # atno 10765 bound_to 10752
  139.8941  134.8363  156.2738 H   0  0  0  0  0  0  0  0  0  0  0  0  # atno 11005 bound_to 11000
  144.9566  140.8233  143.5539 LP  0  0  0  0  0  0  0  0  0  0  0  0  # atno 17320 bound_to 7965
  145.2265  139.2134  143.5065 LP  0  0  0  0  0  0  0  0  0  0  0  0  # atno 17321 bound_to 7965
  139.6214  144.7629  151.2732 LP  0  0  0  0  0  0  0  0  0  0  0  0  # atno 17342 bound_to 10162
  140.7386  143.6642  150.8138 LP  0  0  0  0  0  0  0  0  0  0  0  0  # atno 17343 bound_to 10162
  156.0025  130.5107  150.7714 LP  0  0  0  0  0  0  0  0  0  0  0  0  # atno 17370 bound_to 10713
  157.5073  131.0923  151.0241 LP  0  0  0  0  0  0  0  0  0  0  0  0  # atno 17371 bound_to 10713
  141.0083  133.7110  156.1071 LP  0  0  0  0  0  0  0  0  0  0  0  0  # atno 17394 bound_to 11000
  140.7402  134.4158  157.5555 LP  0  0  0  0  0  0  0  0  0  0  0  0  # atno 17395 bound_to 11000

$$$$
