AV-unprocessed.smi:957|AV-procd|sdf|4265|dock10
  -GOLD-   22720 2173D 1   1.00000     0.00000
 Structure written by MMmdl.
 30 31  0  0  0  0  0  0  0  0  2 V2000
  152.0009  145.5534  159.9807 C   0  0  0  0  0  0  0  0  0  0  0  0
  152.3255  144.6822  158.7610 C   0  0  0  0  0  0  0  0  0  0  0  0
  152.3101  143.2670  159.0888 N   0  0  0  0  0  0  0  0  0  0  0  0
  153.1486  142.6006  159.8973 C   0  0  0  0  0  0  0  0  0  0  0  0
  152.9001  141.2981  160.0201 N   0  0  0  0  0  0  0  0  0  0  0  0
  151.7967  141.0796  159.2223 N   0  0  0  0  0  0  0  0  0  0  0  0
  151.4883  142.2702  158.6912 C   0  0  0  0  0  0  0  0  0  0  0  0
  150.3295  142.4747  157.7550 C   0  0  2  0  0  0  0  0  0  0  0  0
  148.9956  142.0274  158.3833 C   0  0  0  0  0  0  0  0  0  0  0  0
  147.8382  142.2353  157.3947 C   0  0  0  0  0  0  0  0  0  0  0  0
  148.1256  141.5320  156.0580 C   0  0  0  0  0  0  0  0  0  0  0  0
  149.4100  141.9951  155.4891 N   0  3  0  0  0  0  0  0  0  0  0  0
  150.5572  141.7769  156.3980 C   0  0  0  0  0  0  0  0  0  0  0  0
  152.0297  146.6112  159.7188 H   0  0  0  0  0  0  0  0  0  0  0  0
  152.7219  145.3905  160.7823 H   0  0  0  0  0  0  0  0  0  0  0  0
  151.0082  145.3369  160.3753 H   0  0  0  0  0  0  0  0  0  0  0  0
  151.6216  144.8694  157.9501 H   0  0  0  0  0  0  0  0  0  0  0  0
  153.3135  144.9384  158.3768 H   0  0  0  0  0  0  0  0  0  0  0  0
  153.9661  143.0822  160.4134 H   0  0  0  0  0  0  0  0  0  0  0  0
  150.2395  143.5405  157.5489 H   0  0  0  0  0  0  0  0  0  0  0  0
  149.0481  140.9741  158.6625 H   0  0  0  0  0  0  0  0  0  0  0  0
  148.8042  142.5837  159.3015 H   0  0  0  0  0  0  0  0  0  0  0  0
  146.9092  141.8577  157.8233 H   0  0  0  0  0  0  0  0  0  0  0  0
  147.6885  143.3023  157.2239 H   0  0  0  0  0  0  0  0  0  0  0  0
  148.1639  140.4508  156.1981 H   0  0  0  0  0  0  0  0  0  0  0  0
  147.3265  141.7335  155.3443 H   0  0  0  0  0  0  0  0  0  0  0  0
  149.5811  141.5038  154.6231 H   0  0  0  0  0  0  0  0  0  0  0  0
  151.4606  142.1592  155.9217 H   0  0  0  0  0  0  0  0  0  0  0  0
  150.6988  140.7039  156.5349 H   0  0  0  0  0  0  0  0  0  0  0  0
  149.3373  142.9833  155.2941 H   0  0  0  0  0  0  0  0  0  0  0  0
  1  2  1  0  0  0  0
  1 14  1  0  0  0  0
  1 15  1  0  0  0  0
  1 16  1  0  0  0  0
  2  3  1  0  0  0  0
  2 17  1  0  0  0  0
  2 18  1  0  0  0  0
  3  7  1  0  0  0  0
  3  4  1  0  0  0  0
  4  5  2  0  0  0  0
  4 19  1  0  0  0  0
  5  6  1  0  0  0  0
  6  7  2  0  0  0  0
  7  8  1  0  0  0  0
  8 13  1  0  0  0  0
  8  9  1  0  0  0  0
  8 20  1  0  0  0  0
  9 10  1  0  0  0  0
  9 21  1  0  0  0  0
  9 22  1  0  0  0  0
 10 11  1  0  0  0  0
 10 23  1  0  0  0  0
 10 24  1  0  0  0  0
 11 12  1  0  0  0  0
 11 25  1  0  0  0  0
 11 26  1  0  0  0  0
 12 13  1  0  0  0  0
 12 27  1  0  0  0  0
 12 30  1  0  0  0  0
 13 28  1  0  0  0  0
 13 29  1  0  0  0  0
M  CHG  1  12   1
M  END
> <s_m_source_file>
AV-unprocessed.smi

> <i_m_source_file_index>
957

> <i_lp_mmshare_version>
43012

> <i_f3d_flags>
0

> <s_epik_input>
W0NIM11bQ0gyXW4xW2NIXW5uYzFbQ0BASF0yW0NIMl1bQ0gyXVtDSDJdW05IXVtDSDJdMg==

> <s_epik_cmdline>
J2VwaWtfcHl0aG9uJywgJy1waCcsICc3LjAnLCAnLXRuJywgJzgnLCAnLW1hJywgJzIwMCcsICctbWV0YWxfYmluZGluZycsICctaW1hZScsICc8aW5maWxlLm1hZT4nLCAnLW9tYWUnLCAnPG91dGZpbGUubWFlPic=

> <r_lp_tautomer_probability>
1

> <r_epik_Ionization_Penalty>
0.000442722

> <r_epik_Ionization_Penalty_Charging>
0.000426856

> <r_epik_Ionization_Penalty_Neutral>
1.58656e-05

> <r_epik_State_Penalty>
-0

> <r_epik_Charging_Adjusted_Penalty>
0.000426856

> <i_epik_Tot_Q>
1

> <i_epik_Tot_abs_Q>
1

> <r_epik_Metal_State_Penalty>
-0

> <b_epik_Metal_Only>
0

> <s_lp_Force_Field>
OPLS_2005

> <r_lp_Energy>
16.0383

> <b_lp_Chiralities_Consistent>
1

> <s_lp_Variant>
AV-unprocessed.smi:957-1

> <Gold.Version>
5.8.1

> <Gold.Id.Protein>
6NUR|6NUR_protein|mol2

> <Gold.PLP.Fitness>
36.4238

> <Gold.PLP.PLP>
-30.6091

> <Gold.PLP.part.hbond>
-1.0000

> <Gold.PLP.part.metal>
0.0000

> <Gold.PLP.part.buried>
-4.6014

> <Gold.PLP.part.nonpolar>
-25.1214

> <Gold.PLP.part.repulsive>
0.1953

> <Gold.PLP.ligand.clash>
0.0000

> <Gold.PLP.ligand.torsion>
0.1060

> <Gold.PLP.Chemscore.Hbond>
2.0000

> <Gold.PLP.Chemscore.CHOScore>
0.0000

> <Gold.PLP.Chemscore.Metal>
0.0000

> <Gold.Chemscore.Hbonds>
donor molecule, donor type, donor heavy atom, donor atom, acceptor molecule, acceptor atom, score
      L1  H    12    30       P1  8028  2.00

> <Gold.PLP.Chemscore.Internal.Correction>
0.0267

> <Gold.Rescore>
     Score         DG    S(hbond)    S(metal)    S(lipo)     H(rot)  DE(clash)    DE(int)     intcor
     11.47     -11.52       1.00        0.00      50.71       1.26       0.00       0.05       ----

> <Gold.Chemscore.Fitness>
11.4666

> <Gold.Chemscore.DG>
-11.5225

> <Gold.Chemscore.ZeroCoef>
-5.4800

> <Gold.Chemscore.Hbond>
0.9963

> <Gold.Chemscore.Metal>
0.0000

> <Gold.Chemscore.Lipo>
50.7132

> <Gold.Chemscore.Internal_Hbond>
0.0000

> <Gold.Chemscore.DEClash>
0.0048

> <Gold.Chemscore.DEInternal>
0.0510

> <Gold.Chemscore.Rot>
1.2573

> <Gold.Chemscore.Internal.Correction>
   9.000000E+99

> <Gold.Chemscore.Hbonds>
donor molecule, donor type, donor heavy atom, donor atom, acceptor molecule, acceptor atom, score
      L1  H    12    30       P1  8028  0.99

> <Gold.Chemscore.Hbond.Weighted>
-3.3278

> <Gold.Chemscore.Metal.Weighted>
-0.0000

> <Gold.Chemscore.Lipo.Weighted>
-5.9334

> <Gold.Chemscore.Internal_Hbond.Weighted>
0.0000

> <Gold.Chemscore.DEClash.Weighted>
0.0048

> <Gold.Chemscore.DEInternal.Weighted>
0.0510

> <Gold.Chemscore.Rot.Weighted>
3.2188

> <Gold.Chemscore.Internal.Correction.Weighted>
   9.000000E+99

> <Gold.Protein.RotatedTorsions>
[ 6907 6896 6895 6894 ] final  159.73 input  -60.11 | X-H torsion
[ 7974 7965 7964 7962 ] final   18.77 input  175.53 | X-H torsion
[ 8008 7997 7996 7995 ] final  -60.61 input   59.86 | X-H torsion
[ 10167 10162 10161 10158 ] final   87.35 input  -65.29 | X-H torsion
[ 10718 10713 10712 10709 ] final -154.30 input   66.30 | X-H torsion
[ 10763 10752 10751 10750 ] final -147.82 input  -60.55 | X-H torsion
[ 11005 11000 10999 10996 ] final -131.10 input  -57.11 | X-H torsion

> <Gold.Protein.ActiveResidues>
 VAL166  LYS551  ARG553  GLY616  TRP617  ASP618  TYR619  PRO620  LYS621  CYS622 
 ASP623  PHE694  ASN695  SER759  ASP760  ASP761  ALA762  ILE779  LEU786  VAL792 
 PHE793  MET794  SER795  GLU796  ALA797  LYS798  CYS799  TRP800  GLU811  SER814 

> <Gold.Protein.RotatedAtoms>
  151.9812  133.3758  159.4107 H   0  0  0  0  0  0  0  0  0  0  0  0  # atno 6907 bound_to 6896
  150.6934  134.4036  159.5139 H   0  0  0  0  0  0  0  0  0  0  0  0  # atno 6908 bound_to 6896
  152.1756  134.8797  160.0581 H   0  0  0  0  0  0  0  0  0  0  0  0  # atno 6909 bound_to 6896
  146.2173  139.8409  142.8641 H   0  0  0  0  0  0  0  0  0  0  0  0  # atno 7974 bound_to 7965
  154.4407  140.1036  156.6300 H   0  0  0  0  0  0  0  0  0  0  0  0  # atno 8008 bound_to 7997
  155.5614  140.3487  155.4474 H   0  0  0  0  0  0  0  0  0  0  0  0  # atno 8009 bound_to 7997
  156.0457  140.1292  157.0096 H   0  0  0  0  0  0  0  0  0  0  0  0  # atno 8010 bound_to 7997
  139.8783  144.6454  150.8872 H   0  0  0  0  0  0  0  0  0  0  0  0  # atno 10167 bound_to 10162
  156.4975  130.8376  151.2595 H   0  0  0  0  0  0  0  0  0  0  0  0  # atno 10718 bound_to 10713
  154.8266  135.3350  154.6878 H   0  0  0  0  0  0  0  0  0  0  0  0  # atno 10763 bound_to 10752
  153.7503  135.6940  153.4951 H   0  0  0  0  0  0  0  0  0  0  0  0  # atno 10764 bound_to 10752
  153.2181  135.4458  155.0408 H   0  0  0  0  0  0  0  0  0  0  0  0  # atno 10765 bound_to 10752
  140.9288  134.1347  157.4252 H   0  0  0  0  0  0  0  0  0  0  0  0  # atno 11005 bound_to 11000
  145.2900  141.0164  143.3668 LP  0  0  0  0  0  0  0  0  0  0  0  0  # atno 17320 bound_to 7965
  144.9085  139.4559  143.6598 LP  0  0  0  0  0  0  0  0  0  0  0  0  # atno 17321 bound_to 7965
  140.7749  143.3607  151.1834 LP  0  0  0  0  0  0  0  0  0  0  0  0  # atno 17342 bound_to 10162
  139.7220  143.9209  152.2989 LP  0  0  0  0  0  0  0  0  0  0  0  0  # atno 17343 bound_to 10162
  157.7467  130.9993  150.2884 LP  0  0  0  0  0  0  0  0  0  0  0  0  # atno 17370 bound_to 10713
  156.3366  130.3808  149.7445 LP  0  0  0  0  0  0  0  0  0  0  0  0  # atno 17371 bound_to 10713
  139.8791  134.9998  156.5972 LP  0  0  0  0  0  0  0  0  0  0  0  0  # atno 17394 bound_to 11000
  140.7890  133.8597  155.8630 LP  0  0  0  0  0  0  0  0  0  0  0  0  # atno 17395 bound_to 11000

$$$$
