AV-unprocessed.smi:3051|AV-procd|sdf|11633|dock4
  -GOLD-   2272017 23D 1   1.00000     0.00000
 Structure written by MMmdl.
 37 37  0  0  0  0  0  0  0  0  1 V2000
  152.3899  142.7142  160.5702 C   0  0  0  0  0  0  0  0  0  0  0  0
  152.1931  141.4022  159.7997 C   0  0  0  0  0  0  0  0  0  0  0  0
  151.8487  141.6476  158.4045 N   0  0  0  0  0  0  0  0  0  0  0  0
  150.7424  141.1985  157.7909 C   0  0  0  0  0  0  0  0  0  0  0  0
  149.8827  140.5193  158.3523 O   0  0  0  0  0  0  0  0  0  0  0  0
  150.5733  141.5806  156.3193 C   0  0  0  0  0  0  0  0  0  0  0  0
  150.4153  140.4050  155.4814 N   0  0  0  0  0  0  0  0  0  0  0  0
  151.3049  139.3669  155.2834 C   0  0  0  0  0  0  0  0  0  0  0  0
  150.7246  138.4890  154.4123 C   0  0  0  0  0  0  0  0  0  0  0  0
  149.4655  139.0884  154.1366 C   0  0  0  0  0  0  0  0  0  0  0  0
  148.5373  138.4975  153.2711 N   0  0  0  0  0  0  0  0  0  0  0  0
  147.2522  139.1335  153.0051 C   0  0  2  0  0  0  0  0  0  0  0  0
  146.4079  139.2182  154.2881 C   0  0  0  0  0  0  0  0  0  0  0  0
  146.5009  138.3689  151.9044 C   0  0  0  0  0  0  0  0  0  0  0  0
  146.1415  137.0848  152.3882 O   0  0  0  0  0  0  0  0  0  0  0  0
  145.6774  136.2273  151.3603 C   0  0  0  0  0  0  0  0  0  0  0  0
  149.2777  140.2351  154.7721 N   0  0  0  0  0  0  0  0  0  0  0  0
  152.6807  142.5166  161.6020 H   0  0  0  0  0  0  0  0  0  0  0  0
  151.4729  143.3038  160.5923 H   0  0  0  0  0  0  0  0  0  0  0  0
  153.1711  143.3245  160.1156 H   0  0  0  0  0  0  0  0  0  0  0  0
  153.1145  140.8199  159.8250 H   0  0  0  0  0  0  0  0  0  0  0  0
  151.4264  140.7910  160.2785 H   0  0  0  0  0  0  0  0  0  0  0  0
  152.5014  142.1951  157.8619 H   0  0  0  0  0  0  0  0  0  0  0  0
  149.6955  142.2162  156.1960 H   0  0  0  0  0  0  0  0  0  0  0  0
  151.4370  142.1580  155.9848 H   0  0  0  0  0  0  0  0  0  0  0  0
  152.2672  139.3419  155.7729 H   0  0  0  0  0  0  0  0  0  0  0  0
  151.1365  137.5650  154.0345 H   0  0  0  0  0  0  0  0  0  0  0  0
  148.7672  137.6385  152.7926 H   0  0  0  0  0  0  0  0  0  0  0  0
  147.4300  140.1478  152.6449 H   0  0  0  0  0  0  0  0  0  0  0  0
  145.4515  139.7050  154.0959 H   0  0  0  0  0  0  0  0  0  0  0  0
  146.9130  139.7938  155.0639 H   0  0  0  0  0  0  0  0  0  0  0  0
  146.2003  138.2269  154.6923 H   0  0  0  0  0  0  0  0  0  0  0  0
  145.6170  138.9238  151.5839 H   0  0  0  0  0  0  0  0  0  0  0  0
  147.1441  138.2495  151.0309 H   0  0  0  0  0  0  0  0  0  0  0  0
  145.4176  135.2567  151.7826 H   0  0  0  0  0  0  0  0  0  0  0  0
  146.4445  136.0692  150.6013 H   0  0  0  0  0  0  0  0  0  0  0  0
  144.7870  136.6346  150.8798 H   0  0  0  0  0  0  0  0  0  0  0  0
  1  2  1  0  0  0  0
  1 18  1  0  0  0  0
  1 19  1  0  0  0  0
  1 20  1  0  0  0  0
  2  3  1  0  0  0  0
  2 21  1  0  0  0  0
  2 22  1  0  0  0  0
  3  4  1  0  0  0  0
  3 23  1  0  0  0  0
  4  5  2  0  0  0  0
  4  6  1  0  0  0  0
  6  7  1  0  0  0  0
  6 24  1  0  0  0  0
  6 25  1  0  0  0  0
  7 17  1  0  0  0  0
  7  8  1  0  0  0  0
  8  9  2  0  0  0  0
  8 26  1  0  0  0  0
  9 10  1  0  0  0  0
  9 27  1  0  0  0  0
 10 11  1  0  0  0  0
 10 17  2  0  0  0  0
 11 12  1  0  0  0  0
 11 28  1  0  0  0  0
 12 13  1  0  0  0  0
 12 14  1  0  0  0  0
 12 29  1  0  0  0  0
 13 30  1  0  0  0  0
 13 31  1  0  0  0  0
 13 32  1  0  0  0  0
 14 15  1  0  0  0  0
 14 33  1  0  0  0  0
 14 34  1  0  0  0  0
 15 16  1  0  0  0  0
 16 35  1  0  0  0  0
 16 36  1  0  0  0  0
 16 37  1  0  0  0  0
M  END
> <s_m_source_file>
AV-unprocessed.smi

> <i_m_source_file_index>
3051

> <i_lp_mmshare_version>
43012

> <i_f3d_flags>
0

> <s_epik_input>
W0NIM11bQ0gyXVtOSF1DKD1PKVtDSDJdbjFbY0hdW2NIXWMobjEpW05IXVtDQEhdKFtDSDNdKVtDSDJdT1tDSDNd

> <s_epik_cmdline>
J2VwaWtfcHl0aG9uJywgJy1waCcsICc3LjAnLCAnLXRuJywgJzgnLCAnLW1hJywgJzIwMCcsICctbWV0YWxfYmluZGluZycsICctaW1hZScsICc8aW5maWxlLm1hZT4nLCAnLW9tYWUnLCAnPG91dGZpbGUubWFlPic=

> <r_lp_tautomer_probability>
1

> <r_epik_Ionization_Penalty>
0.00023157

> <r_epik_Ionization_Penalty_Charging>
0

> <r_epik_Ionization_Penalty_Neutral>
0.00023157

> <r_epik_State_Penalty>
-0

> <r_epik_Charging_Adjusted_Penalty>
0

> <i_epik_Tot_Q>
0

> <i_epik_Tot_abs_Q>
0

> <r_epik_Metal_State_Penalty>
-0

> <b_epik_Metal_Only>
0

> <s_lp_Force_Field>
OPLS_2005

> <r_lp_Energy>
4.00538

> <b_lp_Chiralities_Consistent>
1

> <s_lp_Variant>
AV-unprocessed.smi:3051-1

> <Gold.Version>
5.8.1

> <Gold.Id.Protein>
6NUR|6NUR_protein|mol2

> <Gold.PLP.Fitness>
37.3909

> <Gold.PLP.PLP>
-34.5552

> <Gold.PLP.part.hbond>
-2.0000

> <Gold.PLP.part.metal>
0.0000

> <Gold.PLP.part.buried>
-1.7738

> <Gold.PLP.part.nonpolar>
-31.1257

> <Gold.PLP.part.repulsive>
1.1037

> <Gold.PLP.ligand.clash>
0.0000

> <Gold.PLP.ligand.torsion>
0.0947

> <Gold.PLP.Chemscore.Hbond>
1.0000

> <Gold.PLP.Chemscore.CHOScore>
0.0000

> <Gold.PLP.Chemscore.Metal>
0.0000

> <Gold.Chemscore.Hbonds>
donor molecule, donor type, donor heavy atom, donor atom, acceptor molecule, acceptor atom, score
      L1  H    11    28       P1  7948  1.00

> <Gold.PLP.Chemscore.Internal.Correction>
0.0250

> <Gold.Rescore>
     Score         DG    S(hbond)    S(metal)    S(lipo)     H(rot)  DE(clash)    DE(int)     intcor
     11.03     -11.21       1.00        0.00      68.35       2.19       0.06       0.13       ----

> <Gold.Chemscore.Fitness>
11.0294

> <Gold.Chemscore.DG>
-11.2118

> <Gold.Chemscore.ZeroCoef>
-5.4800

> <Gold.Chemscore.Hbond>
0.9997

> <Gold.Chemscore.Metal>
0.0000

> <Gold.Chemscore.Lipo>
68.3487

> <Gold.Chemscore.Internal_Hbond>
0.0000

> <Gold.Chemscore.DEClash>
0.0570

> <Gold.Chemscore.DEInternal>
0.1254

> <Gold.Chemscore.Rot>
2.1890

> <Gold.Chemscore.Internal.Correction>
   9.000000E+99

> <Gold.Chemscore.Hbonds>
donor molecule, donor type, donor heavy atom, donor atom, acceptor molecule, acceptor atom, score
      L1  H    11    28       P1  7948  1.00

> <Gold.Chemscore.Hbond.Weighted>
-3.3389

> <Gold.Chemscore.Metal.Weighted>
-0.0000

> <Gold.Chemscore.Lipo.Weighted>
-7.9968

> <Gold.Chemscore.Internal_Hbond.Weighted>
0.0000

> <Gold.Chemscore.DEClash.Weighted>
0.0570

> <Gold.Chemscore.DEInternal.Weighted>
0.1254

> <Gold.Chemscore.Rot.Weighted>
5.6039

> <Gold.Chemscore.Internal.Correction.Weighted>
   9.000000E+99

> <Gold.Protein.RotatedTorsions>
[ 6907 6896 6895 6894 ] final  164.25 input  -60.11 | X-H torsion
[ 7974 7965 7964 7962 ] final  102.61 input  175.53 | X-H torsion
[ 8008 7997 7996 7995 ] final   43.19 input   59.86 | X-H torsion
[ 10167 10162 10161 10158 ] final  -89.49 input  -65.29 | X-H torsion
[ 10718 10713 10712 10709 ] final -105.24 input   66.30 | X-H torsion
[ 10763 10752 10751 10750 ] final  -54.71 input  -60.55 | X-H torsion
[ 11005 11000 10999 10996 ] final -134.15 input  -57.11 | X-H torsion

> <Gold.Protein.ActiveResidues>
 VAL166  LYS551  ARG553  GLY616  TRP617  ASP618  TYR619  PRO620  LYS621  CYS622 
 ASP623  PHE694  ASN695  SER759  ASP760  ASP761  ALA762  ILE779  LEU786  VAL792 
 PHE793  MET794  SER795  GLU796  ALA797  LYS798  CYS799  TRP800  GLU811  SER814 

> <Gold.Protein.RotatedAtoms>
  151.9127  133.3565  159.3868 H   0  0  0  0  0  0  0  0  0  0  0  0  # atno 6907 bound_to 6896
  150.7054  134.4716  159.5437 H   0  0  0  0  0  0  0  0  0  0  0  0  # atno 6908 bound_to 6896
  152.2325  134.8308  160.0522 H   0  0  0  0  0  0  0  0  0  0  0  0  # atno 6909 bound_to 6896
  145.3568  139.2427  143.3528 H   0  0  0  0  0  0  0  0  0  0  0  0  # atno 7974 bound_to 7965
  155.2986  140.3383  155.4249 H   0  0  0  0  0  0  0  0  0  0  0  0  # atno 8008 bound_to 7997
  156.2012  140.1733  156.7935 H   0  0  0  0  0  0  0  0  0  0  0  0  # atno 8009 bound_to 7997
  154.5561  140.0696  156.8730 H   0  0  0  0  0  0  0  0  0  0  0  0  # atno 8010 bound_to 7997
  140.3643  143.2826  151.9577 H   0  0  0  0  0  0  0  0  0  0  0  0  # atno 10167 bound_to 10162
  156.0337  130.5554  150.7510 H   0  0  0  0  0  0  0  0  0  0  0  0  # atno 10718 bound_to 10713
  154.1791  135.6446  153.5029 H   0  0  0  0  0  0  0  0  0  0  0  0  # atno 10763 bound_to 10752
  153.0064  135.5402  154.6533 H   0  0  0  0  0  0  0  0  0  0  0  0  # atno 10764 bound_to 10752
  154.5892  135.2932  155.0625 H   0  0  0  0  0  0  0  0  0  0  0  0  # atno 10765 bound_to 10752
  140.9016  134.1683  157.4456 H   0  0  0  0  0  0  0  0  0  0  0  0  # atno 11005 bound_to 11000
  146.2944  140.4194  142.8727 LP  0  0  0  0  0  0  0  0  0  0  0  0  # atno 17320 bound_to 7965
  144.8676  140.7228  143.6067 LP  0  0  0  0  0  0  0  0  0  0  0  0  # atno 17321 bound_to 7965
  139.4810  144.5965  151.7681 LP  0  0  0  0  0  0  0  0  0  0  0  0  # atno 17342 bound_to 10162
  140.5097  144.1044  150.5992 LP  0  0  0  0  0  0  0  0  0  0  0  0  # atno 17343 bound_to 10162
  157.5055  131.0922  151.0263 LP  0  0  0  0  0  0  0  0  0  0  0  0  # atno 17370 bound_to 10713
  157.0632  130.5834  149.5389 LP  0  0  0  0  0  0  0  0  0  0  0  0  # atno 17371 bound_to 10713
  139.8743  134.9900  156.5484 LP  0  0  0  0  0  0  0  0  0  0  0  0  # atno 17394 bound_to 11000
  140.8222  133.8344  155.8906 LP  0  0  0  0  0  0  0  0  0  0  0  0  # atno 17395 bound_to 11000

$$$$
