AV-unprocessed.smi:2738|AV-procd|sdf|10549|dock1
  -GOLD-   2272015 03D 1   1.00000     0.00000
 Structure written by MMmdl.
 32 33  0  0  0  0  0  0  0  0  1 V2000
  154.2623  140.2396  161.3662 C   0  0  0  0  0  0  0  0  0  0  0  0
  154.3969  141.4846  160.4804 C   0  0  0  0  0  0  0  0  0  0  0  0
  153.1996  141.6885  159.6687 N   0  0  0  0  0  0  0  0  0  0  0  0
  152.7014  140.8388  158.7399 C   0  0  0  0  0  0  0  0  0  0  0  0
  153.1741  139.7444  158.4332 O   0  0  0  0  0  0  0  0  0  0  0  0
  151.5947  141.4042  158.2026 N   0  0  0  0  0  0  0  0  0  0  0  0
  150.7470  140.8253  157.1606 C   0  0  0  0  0  0  0  0  0  0  0  0
  151.5393  140.5016  155.8786 C   0  0  1  0  0  0  0  0  0  0  0  0
  152.2409  139.1357  155.9188 C   0  0  0  0  0  0  0  0  0  0  0  0
  150.6452  140.5132  154.7864 O   0  0  0  0  0  0  0  0  0  0  0  0
  151.3835  142.6569  158.7988 C   0  0  0  0  0  0  0  0  0  0  0  0
  150.3848  143.6258  158.5942 C   0  0  0  0  0  0  0  0  0  0  0  0
  150.4575  144.8049  159.3722 C   0  0  0  0  0  0  0  0  0  0  0  0
  151.5006  144.9898  160.3164 C   0  0  0  0  0  0  0  0  0  0  0  0
  152.4917  143.9985  160.5041 C   0  0  0  0  0  0  0  0  0  0  0  0
  152.3947  142.8355  159.7202 C   0  0  0  0  0  0  0  0  0  0  0  0
  155.1610  140.0917  161.9648 H   0  0  0  0  0  0  0  0  0  0  0  0
  154.1115  139.3422  160.7653 H   0  0  0  0  0  0  0  0  0  0  0  0
  153.4184  140.3313  162.0507 H   0  0  0  0  0  0  0  0  0  0  0  0
  154.5767  142.3629  161.1021 H   0  0  0  0  0  0  0  0  0  0  0  0
  155.2691  141.3904  159.8328 H   0  0  0  0  0  0  0  0  0  0  0  0
  150.2485  139.9305  157.5343 H   0  0  0  0  0  0  0  0  0  0  0  0
  149.9489  141.5338  156.9324 H   0  0  0  0  0  0  0  0  0  0  0  0
  152.2822  141.2799  155.6997 H   0  0  0  0  0  0  0  0  0  0  0  0
  152.9925  139.0988  156.7072 H   0  0  0  0  0  0  0  0  0  0  0  0
  152.7488  138.9273  154.9766 H   0  0  0  0  0  0  0  0  0  0  0  0
  151.5289  138.3298  156.0991 H   0  0  0  0  0  0  0  0  0  0  0  0
  149.8338  140.9087  155.0670 H   0  0  0  0  0  0  0  0  0  0  0  0
  149.5909  143.4820  157.8766 H   0  0  0  0  0  0  0  0  0  0  0  0
  149.7095  145.5738  159.2456 H   0  0  0  0  0  0  0  0  0  0  0  0
  151.5377  145.8980  160.8999 H   0  0  0  0  0  0  0  0  0  0  0  0
  153.2875  144.1346  161.2213 H   0  0  0  0  0  0  0  0  0  0  0  0
  1  2  1  0  0  0  0
  1 17  1  0  0  0  0
  1 18  1  0  0  0  0
  1 19  1  0  0  0  0
  2  3  1  0  0  0  0
  2 20  1  0  0  0  0
  2 21  1  0  0  0  0
  3 16  1  0  0  0  0
  3  4  1  0  0  0  0
  4  5  2  0  0  0  0
  4  6  1  0  0  0  0
  6  7  1  0  0  0  0
  6 11  1  0  0  0  0
  7  8  1  0  0  0  0
  7 22  1  0  0  0  0
  7 23  1  0  0  0  0
  8  9  1  0  0  0  0
  8 10  1  0  0  0  0
  8 24  1  0  0  0  0
  9 25  1  0  0  0  0
  9 26  1  0  0  0  0
  9 27  1  0  0  0  0
 10 28  1  0  0  0  0
 11 16  2  0  0  0  0
 11 12  1  0  0  0  0
 12 13  2  0  0  0  0
 12 29  1  0  0  0  0
 13 14  1  0  0  0  0
 13 30  1  0  0  0  0
 14 15  2  0  0  0  0
 14 31  1  0  0  0  0
 15 16  1  0  0  0  0
 15 32  1  0  0  0  0
M  END
> <s_m_source_file>
AV-unprocessed.smi

> <i_m_source_file_index>
2738

> <i_lp_mmshare_version>
43012

> <i_f3d_flags>
0

> <s_epik_input>
W2NIXTFbY0hdW2NIXVtjSF1jKGMxMiluKFtDSDJdW0NIM10pYyg9TyluMltDSDJdW0NASF0oW0NIM10pW09IXQ==

> <s_epik_cmdline>
J2VwaWtfcHl0aG9uJywgJy1waCcsICc3LjAnLCAnLXRuJywgJzgnLCAnLW1hJywgJzIwMCcsICctbWV0YWxfYmluZGluZycsICctaW1hZScsICc8aW5maWxlLm1hZT4nLCAnLW9tYWUnLCAnPG91dGZpbGUubWFlPic=

> <r_lp_tautomer_probability>
1

> <r_epik_Ionization_Penalty>
5.28302e-08

> <r_epik_Ionization_Penalty_Charging>
2.52071e-09

> <r_epik_Ionization_Penalty_Neutral>
5.03095e-08

> <r_epik_State_Penalty>
-0

> <r_epik_Charging_Adjusted_Penalty>
2.52071e-09

> <i_epik_Tot_Q>
0

> <i_epik_Tot_abs_Q>
0

> <r_epik_Metal_State_Penalty>
-0

> <b_epik_Metal_Only>
0

> <s_lp_Force_Field>
OPLS_2005

> <r_lp_Energy>
36.2216

> <b_lp_Chiralities_Consistent>
1

> <s_lp_Variant>
AV-unprocessed.smi:2738-2

> <Gold.Version>
5.8.1

> <Gold.Id.Protein>
6NUR|6NUR_protein|mol2

> <Gold.PLP.Fitness>
45.0145

> <Gold.PLP.PLP>
-39.5501

> <Gold.PLP.part.hbond>
-2.0000

> <Gold.PLP.part.metal>
0.0000

> <Gold.PLP.part.buried>
-4.5256

> <Gold.PLP.part.nonpolar>
-32.9429

> <Gold.PLP.part.repulsive>
0.0000

> <Gold.PLP.ligand.clash>
0.0000

> <Gold.PLP.ligand.torsion>
0.2790

> <Gold.PLP.Chemscore.Hbond>
2.0000

> <Gold.PLP.Chemscore.CHOScore>
0.0000

> <Gold.PLP.Chemscore.Metal>
0.0000

> <Gold.Chemscore.Hbonds>
donor molecule, donor type, donor heavy atom, donor atom, acceptor molecule, acceptor atom, score
      P1  H  7989  7998       L1    10  1.00
      P1  H  7997  8008       L1     5  1.00

> <Gold.PLP.Chemscore.Internal.Correction>
0.0224

> <Gold.Rescore>
     Score         DG    S(hbond)    S(metal)    S(lipo)     H(rot)  DE(clash)    DE(int)     intcor
     16.18     -18.07       1.70        0.00      98.83       1.81       0.17       1.72       ----

> <Gold.Chemscore.Fitness>
16.1767

> <Gold.Chemscore.DG>
-18.0730

> <Gold.Chemscore.ZeroCoef>
-5.4800

> <Gold.Chemscore.Hbond>
1.6964

> <Gold.Chemscore.Metal>
0.0000

> <Gold.Chemscore.Lipo>
98.8278

> <Gold.Chemscore.Internal_Hbond>
0.0000

> <Gold.Chemscore.DEClash>
0.1744

> <Gold.Chemscore.DEInternal>
1.7219

> <Gold.Chemscore.Rot>
1.8109

> <Gold.Chemscore.Internal.Correction>
   9.000000E+99

> <Gold.Chemscore.Hbonds>
donor molecule, donor type, donor heavy atom, donor atom, acceptor molecule, acceptor atom, score
      P1  H  7989  7998       L1    10  0.38
      P1  H  7997  8008       L1     5  0.61

> <Gold.Chemscore.Hbond.Weighted>
-5.6660

> <Gold.Chemscore.Metal.Weighted>
-0.0000

> <Gold.Chemscore.Lipo.Weighted>
-11.5628

> <Gold.Chemscore.Internal_Hbond.Weighted>
0.0000

> <Gold.Chemscore.DEClash.Weighted>
0.1744

> <Gold.Chemscore.DEInternal.Weighted>
1.7219

> <Gold.Chemscore.Rot.Weighted>
4.6358

> <Gold.Chemscore.Internal.Correction.Weighted>
   9.000000E+99

> <Gold.Protein.RotatedTorsions>
[ 6907 6896 6895 6894 ] final   31.06 input  -60.11 | X-H torsion
[ 7974 7965 7964 7962 ] final   76.10 input  175.53 | X-H torsion
[ 8008 7997 7996 7995 ] final  -90.99 input   59.86 | X-H torsion
[ 10167 10162 10161 10158 ] final  147.76 input  -65.29 | X-H torsion
[ 10718 10713 10712 10709 ] final  -55.72 input   66.30 | X-H torsion
[ 10763 10752 10751 10750 ] final  177.23 input  -60.55 | X-H torsion
[ 11005 11000 10999 10996 ] final -171.13 input  -57.11 | X-H torsion

> <Gold.Protein.ActiveResidues>
 VAL166  LYS551  ARG553  GLY616  TRP617  ASP618  TYR619  PRO620  LYS621  CYS622 
 ASP623  PHE694  ASN695  SER759  ASP760  ASP761  ALA762  ILE779  LEU786  VAL792 
 PHE793  MET794  SER795  GLU796  ALA797  LYS798  CYS799  TRP800  GLU811  SER814 

> <Gold.Protein.RotatedAtoms>
  152.0549  134.9631  160.0574 H   0  0  0  0  0  0  0  0  0  0  0  0  # atno 6907 bound_to 6896
  152.1017  133.4248  159.4598 H   0  0  0  0  0  0  0  0  0  0  0  0  # atno 6908 bound_to 6896
  150.6839  134.2671  159.4616 H   0  0  0  0  0  0  0  0  0  0  0  0  # atno 6909 bound_to 6896
  145.7071  139.2602  143.1672 H   0  0  0  0  0  0  0  0  0  0  0  0  # atno 7974 bound_to 7965
  154.7053  140.0524  157.0497 H   0  0  0  0  0  0  0  0  0  0  0  0  # atno 8008 bound_to 7997
  155.0629  140.3191  155.4636 H   0  0  0  0  0  0  0  0  0  0  0  0  # atno 8009 bound_to 7997
  156.2772  140.2095  156.5756 H   0  0  0  0  0  0  0  0  0  0  0  0  # atno 8010 bound_to 7997
  139.4885  144.5731  151.7017 H   0  0  0  0  0  0  0  0  0  0  0  0  # atno 10167 bound_to 10162
  156.1346  130.4157  150.0208 H   0  0  0  0  0  0  0  0  0  0  0  0  # atno 10718 bound_to 10713
  154.4916  135.2779  155.1492 H   0  0  0  0  0  0  0  0  0  0  0  0  # atno 10763 bound_to 10752
  154.3161  135.6219  153.5490 H   0  0  0  0  0  0  0  0  0  0  0  0  # atno 10764 bound_to 10752
  152.9889  135.5731  154.5339 H   0  0  0  0  0  0  0  0  0  0  0  0  # atno 10765 bound_to 10752
  140.5116  134.5796  157.5020 H   0  0  0  0  0  0  0  0  0  0  0  0  # atno 11005 bound_to 11000
  146.0746  140.7832  142.9671 LP  0  0  0  0  0  0  0  0  0  0  0  0  # atno 17320 bound_to 7965
  144.6952  140.3394  143.7202 LP  0  0  0  0  0  0  0  0  0  0  0  0  # atno 17321 bound_to 7965
  140.5322  144.0712  150.6057 LP  0  0  0  0  0  0  0  0  0  0  0  0  # atno 17342 bound_to 10162
  140.3706  143.2856  152.0282 LP  0  0  0  0  0  0  0  0  0  0  0  0  # atno 17343 bound_to 10162
  156.8111  130.9325  151.3644 LP  0  0  0  0  0  0  0  0  0  0  0  0  # atno 17370 bound_to 10713
  157.6520  130.8892  149.9652 LP  0  0  0  0  0  0  0  0  0  0  0  0  # atno 17371 bound_to 10713
  139.9655  134.7380  156.0147 LP  0  0  0  0  0  0  0  0  0  0  0  0  # atno 17394 bound_to 11000
  141.1382  133.6570  156.3654 LP  0  0  0  0  0  0  0  0  0  0  0  0  # atno 17395 bound_to 11000

$$$$
