#       Name:                AV-unprocessed.smi:2093
#       Creating user name   scv26
#       Creation time:       Fri Mar 27 11:27:00 2020


#       File generated by GOLD software.
#

@<TRIPOS>MOLECULE
AV-unprocessed.smi:2093
    36    37     1
SMALL
NO_CHARGES


@<TRIPOS>ATOM
      1 ****        -1.7078  -1.3166  -2.0954 C.3            1 S1                 0.0000
      2 ****        -1.2733  -0.5608  -0.8310 C.3            1 S1                 0.0000
      3 ****         0.1866  -0.4843  -0.7978 N.am           1 S1                 0.0000
      4 ****         0.9196   0.6372  -0.8625 C.2            1 S1                 0.0000
      5 ****         0.4364   1.7647  -0.9685 O.2            1 S1                 0.0000
      6 ****         2.2334   0.3596  -0.7919 N.am           1 S1                 0.0000
      7 ****         3.3261   1.2656  -0.8170 C.2            1 S1                 0.0000
      8 ****         3.2044   2.5934  -0.9312 N.2            1 S1                 0.0000
      9 ****         4.4451   3.2360  -0.9259 C.2            1 S1                 0.0000
     10 ****         5.5085   2.3761  -0.8060 C.2            1 S1                 0.0000
     11 ****         4.9909   0.7148  -0.6966 S.3            1 S1                 0.0000
     12 ****        -1.7942  -1.2360   0.4528 C.3            1 S1                 0.0000
     13 ****        -1.3834  -0.5397   1.7527 C.3            1 S1                 0.0000
     14 ****        -2.4758  -0.9849   2.6969 C.3            1 S1                 0.0000
     15 ****        -3.6995  -0.9490   1.7877 C.3            1 S1                 0.0000
     16 ****        -3.2207  -1.2384   0.4768 O.3            1 S1                 0.0000
     17 ****        -2.7944  -1.3645  -2.1719 H              1 S1                 0.0000
     18 ****        -1.3295  -2.3394  -2.0978 H              1 S1                 0.0000
     19 ****        -1.3392  -0.8218  -2.9945 H              1 S1                 0.0000
     20 ****        -1.7016   0.4419  -0.8799 H              1 S1                 0.0000
     21 ****         0.6777  -1.3618  -0.7105 H              1 S1                 0.0000
     22 ****         2.4813  -0.6148  -0.7053 H              1 S1                 0.0000
     23 ****         4.4792   4.3121  -1.0117 H              1 S1                 0.0000
     24 ****         6.5605   2.6185  -0.7757 H              1 S1                 0.0000
     25 ****        -1.4632  -2.2753   0.4910 H              1 S1                 0.0000
     26 ****        -0.3856  -0.8207   2.0908 H              1 S1                 0.0000
     27 ****        -1.4116   0.5449   1.6349 H              1 S1                 0.0000
     28 ****        -2.2863  -2.0046   3.0349 H              1 S1                 0.0000
     29 ****        -2.5761  -0.3450   3.5738 H              1 S1                 0.0000
     30 ****        -4.4690  -1.6565   2.0972 H              1 S1                 0.0000
     31 ****        -4.1390   0.0492   1.7812 H              1 S1                 0.0000
     32 ****        -0.5558   1.8815  -1.0111 LP             1 S1                 0.0000
     33 ****         1.0362   2.5637  -1.0120 LP             1 S1                 0.0000
     34 ****         2.3287   3.0696  -1.0109 LP             1 S1                 0.0000
     35 ****        -3.5528  -2.1391   0.1968 LP             1 S1                 0.0000
     36 ****        -3.5615  -0.5452  -0.1583 LP             1 S1                 0.0000
@<TRIPOS>BOND
    1    1    2 1     
    2    1   17 1     
    3    1   18 1     
    4    1   19 1     
    5    2    3 1     
    6    2   12 1     
    7    2   20 1     
    8    3    4 am    
    9    3   21 1     
   10    4    5 2     
   11    4    6 am    
   12    6    7 1     
   13    6   22 1     
   14    7   11 1     
   15    7    8 2     
   16    8    9 1     
   17    9   10 2     
   18    9   23 1     
   19   10   11 1     
   20   10   24 1     
   21   12   16 1     
   22   12   13 1     
   23   12   25 1     
   24   13   14 1     
   25   13   26 1     
   26   13   27 1     
   27   14   15 1     
   28   14   28 1     
   29   14   29 1     
   30   15   16 1     
   31   15   30 1     
   32   15   31 1     
   33    5   32 1     
   34    5   33 1     
   35    8   34 1     
   36   16   35 1     
   37   16   36 1     
@<TRIPOS>SUBSTRUCTURE
      1 S1             1
@<TRIPOS>SET
LONE_PAIRS      STATIC     ATOMS    <user>   **** ""
5 32 33 34 35 36
DONOR_HYDROGENS      STATIC     ATOMS    <user>   **** ""
2 21 22
ATOM$BLUE        STATIC     ATOMS    COLORGROUP SYSTEM
5 32 33 34 35 36
ATOM$RED        STATIC     ATOMS    COLORGROUP SYSTEM
2 21 22
