#       Name:                AV-unprocessed.smi:157
#       Creating user name   scv26
#       Creation time:       Thu Mar 26 19:01:01 2020


#       File generated by GOLD software.
#

@<TRIPOS>MOLECULE
AV-unprocessed.smi:157
    45    47     1
SMALL
NO_CHARGES


@<TRIPOS>ATOM
      1 ****        -4.8032   2.5120   1.4876 O.3            1 S1                 0.0000
      2 ****        -4.3358   1.3128   0.9077 C.3            1 S1                 0.0000
      3 ****        -2.8070   1.3624   0.7400 C.3            1 S1                 0.0000
      4 ****        -2.3006   0.1145   0.2741 O.3            1 S1                 0.0000
      5 ****        -1.1539   0.3147  -0.5002 C.3            1 S1                 0.0000
      6 ****        -0.0055  -0.3848   0.1525 N.pl3          1 S1                 0.0000
      7 ****         0.1497  -0.6183   1.4733 C.2            1 S1                 0.0000
      8 ****         1.2683  -1.2503   1.7864 N.pl3          1 S1                 1.0000
      9 ****         1.9382  -1.4696   0.6017 C.2            1 S1                 0.0000
     10 ****         1.1384  -0.9133  -0.3994 C.2            1 S1                 0.0000
     11 ****         1.3538  -0.8407  -1.7839 N.2            1 S1                 0.0000
     12 ****         2.5124  -1.0346  -2.3253 C.2            1 S1                 0.0000
     13 ****         3.7019  -1.4205  -1.7292 N.pl3          1 S1                 0.0000
     14 ****         3.7924  -2.5237  -0.7889 C.3            1 S1                 0.0000
     15 ****         3.2490  -2.1912   0.6072 C.3            1 S1                 0.0000
     16 ****         4.2434  -1.4968   1.3301 O.3            1 S1                 0.0000
     17 ****        -0.8867   1.8221  -0.5583 C.3            1 S1                 0.0000
     18 ****        -2.2515   2.3997  -0.2463 C.3            1 S1                 0.0000
     19 ****        -3.0333   2.5010  -1.4215 O.3            1 S1                 0.0000
     20 ****        -2.3478   1.5357   1.7151 H              1 S1                 0.0000
     21 ****        -1.2720  -0.1532  -1.4781 H              1 S1                 0.0000
     22 ****         3.1009  -3.1328   1.1371 H              1 S1                 0.0000
     23 ****        -2.1785   3.3893   0.2059 H              1 S1                 0.0000
     24 ****        -5.7408   2.4505   1.5910 H              1 S1                 0.0000
     25 ****        -4.6102   0.4860   1.5631 H              1 S1                 0.0000
     26 ****        -4.8392   1.1424  -0.0442 H              1 S1                 0.0000
     27 ****        -0.5769  -0.3148   2.2057 H              1 S1                 0.0000
     28 ****         2.6215  -0.8950  -3.4018 H              1 S1                 0.0000
     29 ****         4.5573  -1.3165  -2.2567 H              1 S1                 0.0000
     30 ****         3.2146  -3.3513  -1.2033 H              1 S1                 0.0000
     31 ****         4.8232  -2.8755  -0.7306 H              1 S1                 0.0000
     32 ****         4.4491  -0.6998   0.8654 H              1 S1                 0.0000
     33 ****        -0.1779   2.1028   0.2228 H              1 S1                 0.0000
     34 ****        -0.4797   2.1187  -1.5258 H              1 S1                 0.0000
     35 ****        -3.8846   2.8384  -1.1868 H              1 S1                 0.0000
     36 ****         1.5697  -1.5195   2.7145 H              1 S1                 0.0000
     37 ****        -4.5795   3.2838   0.8924 LP             1 S1                 0.0000
     38 ****        -4.3734   2.6444   2.3808 LP             1 S1                 0.0000
     39 ****        -2.9985  -0.3382  -0.2809 LP             1 S1                 0.0000
     40 ****        -2.0724  -0.4625   1.0584 LP             1 S1                 0.0000
     41 ****         0.5777  -0.6298  -2.3781 LP             1 S1                 0.0000
     42 ****         5.0633  -2.0642   1.4066 LP             1 S1                 0.0000
     43 ****         3.9041  -1.2764   2.2445 LP             1 S1                 0.0000
     44 ****        -3.1318   1.5982  -1.8401 LP             1 S1                 0.0000
     45 ****        -2.5909   3.1219  -2.0686 LP             1 S1                 0.0000
@<TRIPOS>BOND
    1    1    2 1     
    2    1   24 1     
    3    2    3 1     
    4    2   25 1     
    5    2   26 1     
    6    3   20 1     
    7    3   18 1     
    8    3    4 1     
    9    4    5 1     
   10    5   21 1     
   11    5    6 1     
   12    5   17 1     
   13    6   10 1     
   14    6    7 1     
   15    7    8 2     
   16    7   27 1     
   17    8    9 1     
   18    8   36 1     
   19    9   15 1     
   20    9   10 2     
   21   10   11 1     
   22   11   12 2     
   23   12   13 1     
   24   12   28 1     
   25   13   14 1     
   26   13   29 1     
   27   14   15 1     
   28   14   30 1     
   29   14   31 1     
   30   15   22 1     
   31   15   16 1     
   32   16   32 1     
   33   17   18 1     
   34   17   33 1     
   35   17   34 1     
   36   18   23 1     
   37   18   19 1     
   38   19   35 1     
   39    1   37 1     
   40    1   38 1     
   41    4   39 1     
   42    4   40 1     
   43   11   41 1     
   44   16   42 1     
   45   16   43 1     
   46   19   44 1     
   47   19   45 1     
@<TRIPOS>SUBSTRUCTURE
      1 S1             1
@<TRIPOS>SET
LONE_PAIRS      STATIC     ATOMS    <user>   **** ""
9 37 38 39 40 41 42 43 44 45
DONOR_HYDROGENS      STATIC     ATOMS    <user>   **** ""
5 24 36 29 32 35
ATOM$BLUE        STATIC     ATOMS    COLORGROUP SYSTEM
9 37 38 39 40 41 42 43 44 45
ATOM$RED        STATIC     ATOMS    COLORGROUP SYSTEM
5 24 36 29 32 35
