AV-unprocessed.smi:1709|AV-procd|sdf|6895|dock3
  -GOLD-   22720 8103D 1   1.00000     0.00000
 Structure written by MMmdl.
 43 45  0  0  0  0  0  0  0  0  2 V2000
  149.1658  138.9266  154.0436 C   0  0  0  0  0  0  0  0  0  0  0  0
  150.4157  138.5541  154.8250 C   0  0  0  0  0  0  0  0  0  0  0  0
  151.2145  139.5803  155.3731 C   0  0  0  0  0  0  0  0  0  0  0  0
  152.3713  139.2385  156.0934 C   0  0  0  0  0  0  0  0  0  0  0  0
  152.6833  137.8762  156.2341 C   0  0  0  0  0  0  0  0  0  0  0  0
  151.9259  136.8894  155.7128 N   0  0  0  0  0  0  0  0  0  0  0  0
  150.8003  137.1997  155.0185 C   0  0  0  0  0  0  0  0  0  0  0  0
  149.9489  136.2186  154.4216 N   0  0  0  0  0  0  0  0  0  0  0  0
  149.5053  135.0253  154.8706 C   0  0  0  0  0  0  0  0  0  0  0  0
  149.8270  134.6039  155.9801 O   0  0  0  0  0  0  0  0  0  0  0  0
  148.7023  134.3405  154.0396 N   0  0  0  0  0  0  0  0  0  0  0  0
  148.0801  133.0488  154.3201 C   0  0  2  0  0  0  0  0  0  0  0  0
  149.0893  131.8844  154.2924 C   0  0  0  0  0  0  0  0  0  0  0  0
  148.3657  130.7575  153.5486 C   0  0  0  0  0  0  0  0  0  0  0  0
  147.5213  131.4830  152.5928 N   0  3  1  0  0  0  0  0  0  0  0  0
  146.4823  130.7324  151.8589 C   0  0  0  0  0  0  0  0  0  0  0  0
  145.8623  131.6665  150.7975 C   0  0  0  0  0  0  0  0  0  0  0  0
  145.3751  133.0008  151.4061 C   0  0  0  0  0  0  0  0  0  0  0  0
  146.4679  133.6716  152.2656 C   0  0  0  0  0  0  0  0  0  0  0  0
  146.9835  132.6565  153.3021 C   0  0  2  0  0  0  0  0  0  0  0  0
  149.0102  140.0058  154.0337 H   0  0  0  0  0  0  0  0  0  0  0  0
  148.2836  138.4664  154.4896 H   0  0  0  0  0  0  0  0  0  0  0  0
  149.2479  138.5898  153.0099 H   0  0  0  0  0  0  0  0  0  0  0  0
  150.9466  140.6189  155.2444 H   0  0  0  0  0  0  0  0  0  0  0  0
  153.0028  140.0006  156.5256 H   0  0  0  0  0  0  0  0  0  0  0  0
  153.5636  137.5689  156.7785 H   0  0  0  0  0  0  0  0  0  0  0  0
  149.6713  136.4350  153.4752 H   0  0  0  0  0  0  0  0  0  0  0  0
  148.4927  134.7637  153.1461 H   0  0  0  0  0  0  0  0  0  0  0  0
  147.6303  133.0792  155.3146 H   0  0  0  0  0  0  0  0  0  0  0  0
  149.9807  132.1690  153.7309 H   0  0  0  0  0  0  0  0  0  0  0  0
  149.4120  131.5838  155.2897 H   0  0  0  0  0  0  0  0  0  0  0  0
  149.0521  130.0728  153.0494 H   0  0  0  0  0  0  0  0  0  0  0  0
  147.7392  130.1841  154.2338 H   0  0  0  0  0  0  0  0  0  0  0  0
  146.9272  129.8602  151.3786 H   0  0  0  0  0  0  0  0  0  0  0  0
  145.7211  130.3691  152.5511 H   0  0  0  0  0  0  0  0  0  0  0  0
  146.6083  131.8786  150.0305 H   0  0  0  0  0  0  0  0  0  0  0  0
  145.0381  131.1632  150.2912 H   0  0  0  0  0  0  0  0  0  0  0  0
  145.0533  133.6778  150.6143 H   0  0  0  0  0  0  0  0  0  0  0  0
  144.4965  132.8128  152.0244 H   0  0  0  0  0  0  0  0  0  0  0  0
  147.2848  134.0155  151.6296 H   0  0  0  0  0  0  0  0  0  0  0  0
  146.0578  134.5518  152.7614 H   0  0  0  0  0  0  0  0  0  0  0  0
  146.1282  132.3184  153.8914 H   0  0  0  0  0  0  0  0  0  0  0  0
  148.1564  131.8467  151.8969 H   0  0  0  0  0  0  0  0  0  0  0  0
  1  2  1  0  0  0  0
  1 21  1  0  0  0  0
  1 22  1  0  0  0  0
  1 23  1  0  0  0  0
  2  7  1  0  0  0  0
  2  3  2  0  0  0  0
  3  4  1  0  0  0  0
  3 24  1  0  0  0  0
  4  5  2  0  0  0  0
  4 25  1  0  0  0  0
  5  6  1  0  0  0  0
  5 26  1  0  0  0  0
  6  7  2  0  0  0  0
  7  8  1  0  0  0  0
  8  9  1  0  0  0  0
  8 27  1  0  0  0  0
  9 10  2  0  0  0  0
  9 11  1  0  0  0  0
 11 12  1  0  0  0  0
 11 28  1  0  0  0  0
 12 20  1  0  0  0  0
 12 13  1  0  0  0  0
 12 29  1  0  0  0  0
 13 14  1  0  0  0  0
 13 30  1  0  0  0  0
 13 31  1  0  0  0  0
 14 15  1  0  0  0  0
 14 32  1  0  0  0  0
 14 33  1  0  0  0  0
 15 20  1  0  0  0  0
 15 16  1  0  0  0  0
 15 43  1  0  0  0  0
 16 17  1  0  0  0  0
 16 34  1  0  0  0  0
 16 35  1  0  0  0  0
 17 18  1  0  0  0  0
 17 36  1  0  0  0  0
 17 37  1  0  0  0  0
 18 19  1  0  0  0  0
 18 38  1  0  0  0  0
 18 39  1  0  0  0  0
 19 20  1  0  0  0  0
 19 40  1  0  0  0  0
 19 41  1  0  0  0  0
 20 42  1  0  0  0  0
M  CHG  1  15   1
M  END
> <s_m_source_file>
AV-unprocessed.smi

> <i_m_source_file_index>
1709

> <i_lp_mmshare_version>
43012

> <i_f3d_flags>
0

> <s_epik_input>
W0NIM11jMVtjSF1bY0hdW2NIXW5jMVtOSF1DKD1PKVtOSF1bQ0BIXShbQ0gyXVtDSDJdMilbQ0BASF0oTjIzKVtDSDJdW0NIMl1bQ0gyXVtDSDJdMw==

> <s_epik_cmdline>
J2VwaWtfcHl0aG9uJywgJy1waCcsICc3LjAnLCAnLXRuJywgJzgnLCAnLW1hJywgJzIwMCcsICctbWV0YWxfYmluZGluZycsICctaW1hZScsICc8aW5maWxlLm1hZT4nLCAnLW9tYWUnLCAnPG91dGZpbGUubWFlPic=

> <r_epik_Ionization_Penalty>
0.00101524

> <r_epik_Ionization_Penalty_Charging>
0.000974069

> <r_epik_Ionization_Penalty_Neutral>
4.11757e-05

> <r_epik_State_Penalty>
0.000633842

> <r_epik_Charging_Adjusted_Penalty>
0.00160791

> <i_epik_Tot_Q>
1

> <i_epik_Tot_abs_Q>
1

> <r_epik_Metal_State_Penalty>
-0

> <b_epik_Metal_Only>
0

> <s_lp_Force_Field>
OPLS_2005

> <r_lp_Energy>
46.0593

> <b_lp_Chiralities_Consistent>
1

> <s_lp_Variant>
AV-unprocessed.smi:1709-5

> <Gold.Version>
5.8.1

> <Gold.Id.Protein>
6NUR|6NUR_protein|mol2

> <Gold.PLP.Fitness>
42.5843

> <Gold.PLP.PLP>
-32.9209

> <Gold.PLP.part.hbond>
-4.7847

> <Gold.PLP.part.metal>
0.0000

> <Gold.PLP.part.buried>
1.4111

> <Gold.PLP.part.nonpolar>
-29.3500

> <Gold.PLP.part.repulsive>
0.1253

> <Gold.PLP.ligand.clash>
0.0000

> <Gold.PLP.ligand.torsion>
0.4654

> <Gold.PLP.Chemscore.Hbond>
3.5307

> <Gold.PLP.Chemscore.CHOScore>
0.0000

> <Gold.PLP.Chemscore.Metal>
0.0000

> <Gold.Chemscore.Hbonds>
donor molecule, donor type, donor heavy atom, donor atom, acceptor molecule, acceptor atom, score
      L1  H     8    27       P1  7948  1.00
      L1  H    11    28       P1  7948  0.91
      L1  H    15    43       P1 10747  0.53
      P1  H 10752 10763       L1     6  1.00

> <Gold.PLP.Chemscore.Internal.Correction>
0.0022

> <Gold.Rescore>
     Score         DG    S(hbond)    S(metal)    S(lipo)     H(rot)  DE(clash)    DE(int)     intcor
     19.71     -20.57       2.42        0.00      81.72       1.00       0.36       0.50       ----

> <Gold.Chemscore.Fitness>
19.7085

> <Gold.Chemscore.DG>
-20.5689

> <Gold.Chemscore.ZeroCoef>
-5.4800

> <Gold.Chemscore.Hbond>
2.4215

> <Gold.Chemscore.Metal>
0.0000

> <Gold.Chemscore.Lipo>
81.7192

> <Gold.Chemscore.Internal_Hbond>
0.0000

> <Gold.Chemscore.DEClash>
0.3595

> <Gold.Chemscore.DEInternal>
0.5009

> <Gold.Chemscore.Rot>
1.0000

> <Gold.Chemscore.Internal.Correction>
   9.000000E+99

> <Gold.Chemscore.Hbonds>
donor molecule, donor type, donor heavy atom, donor atom, acceptor molecule, acceptor atom, score
      L1  H     8    27       P1  7948  0.39
      L1  H    11    28       P1  7948  0.49
      L1  H    15    43       P1 10747  0.50
      P1  H 10752 10763       L1     6  0.60

> <Gold.Chemscore.Hbond.Weighted>
-8.0877

> <Gold.Chemscore.Metal.Weighted>
-0.0000

> <Gold.Chemscore.Lipo.Weighted>
-9.5612

> <Gold.Chemscore.Internal_Hbond.Weighted>
0.0000

> <Gold.Chemscore.DEClash.Weighted>
0.3595

> <Gold.Chemscore.DEInternal.Weighted>
0.5009

> <Gold.Chemscore.Rot.Weighted>
2.5600

> <Gold.Chemscore.Internal.Correction.Weighted>
   9.000000E+99

> <Gold.Protein.RotatedTorsions>
[ 6907 6896 6895 6894 ] final  -90.44 input  -60.11 | X-H torsion
[ 7974 7965 7964 7962 ] final   -4.11 input  175.53 | X-H torsion
[ 8008 7997 7996 7995 ] final  -25.67 input   59.86 | X-H torsion
[ 10167 10162 10161 10158 ] final -141.21 input  -65.29 | X-H torsion
[ 10718 10713 10712 10709 ] final  -58.88 input   66.30 | X-H torsion
[ 10763 10752 10751 10750 ] final   67.29 input  -60.55 | X-H torsion
[ 11005 11000 10999 10996 ] final   68.25 input  -57.11 | X-H torsion

> <Gold.Protein.ActiveResidues>
 VAL166  LYS551  ARG553  GLY616  TRP617  ASP618  TYR619  PRO620  LYS621  CYS622 
 ASP623  PHE694  ASN695  SER759  ASP760  ASP761  ALA762  ILE779  LEU786  VAL792 
 PHE793  MET794  SER795  GLU796  ALA797  LYS798  CYS799  TRP800  GLU811  SER814 

> <Gold.Protein.RotatedAtoms>
  150.6882  134.2432  159.4480 H   0  0  0  0  0  0  0  0  0  0  0  0  # atno 6907 bound_to 6896
  152.0374  134.9729  160.0582 H   0  0  0  0  0  0  0  0  0  0  0  0  # atno 6908 bound_to 6896
  152.1244  133.4337  159.4728 H   0  0  0  0  0  0  0  0  0  0  0  0  # atno 6909 bound_to 6896
  146.2378  140.1822  142.8332 H   0  0  0  0  0  0  0  0  0  0  0  0  # atno 7974 bound_to 7965
  154.4464  140.1920  156.0656 H   0  0  0  0  0  0  0  0  0  0  0  0  # atno 8008 bound_to 7997
  156.0550  140.3304  155.7368 H   0  0  0  0  0  0  0  0  0  0  0  0  # atno 8009 bound_to 7997
  155.5499  140.0594  157.2843 H   0  0  0  0  0  0  0  0  0  0  0  0  # atno 8010 bound_to 7997
  139.8207  143.7578  152.2666 H   0  0  0  0  0  0  0  0  0  0  0  0  # atno 10167 bound_to 10162
  156.1102  130.4176  150.0639 H   0  0  0  0  0  0  0  0  0  0  0  0  # atno 10718 bound_to 10713
  153.0179  135.5289  154.6956 H   0  0  0  0  0  0  0  0  0  0  0  0  # atno 10763 bound_to 10752
  154.6079  135.2875  155.0467 H   0  0  0  0  0  0  0  0  0  0  0  0  # atno 10764 bound_to 10752
  154.1500  135.6564  153.5014 H   0  0  0  0  0  0  0  0  0  0  0  0  # atno 10765 bound_to 10752
  139.9722  134.6881  156.0424 H   0  0  0  0  0  0  0  0  0  0  0  0  # atno 11005 bound_to 11000
  144.9925  140.8560  143.5331 LP  0  0  0  0  0  0  0  0  0  0  0  0  # atno 17320 bound_to 7965
  145.1830  139.2341  143.5282 LP  0  0  0  0  0  0  0  0  0  0  0  0  # atno 17321 bound_to 7965
  139.7755  144.7462  151.0162 LP  0  0  0  0  0  0  0  0  0  0  0  0  # atno 17342 bound_to 10162
  140.7813  143.4598  151.0294 LP  0  0  0  0  0  0  0  0  0  0  0  0  # atno 17343 bound_to 10162
  156.8604  130.9489  151.3618 LP  0  0  0  0  0  0  0  0  0  0  0  0  # atno 17370 bound_to 10713
  157.6283  130.8709  149.9228 LP  0  0  0  0  0  0  0  0  0  0  0  0  # atno 17371 bound_to 10713
  141.1401  133.6566  156.3706 LP  0  0  0  0  0  0  0  0  0  0  0  0  # atno 17394 bound_to 11000
  140.5269  134.6250  157.5337 LP  0  0  0  0  0  0  0  0  0  0  0  0  # atno 17395 bound_to 11000

$$$$
