#       Name:                AV-unprocessed.smi:2784
#       Creating user name   scv26
#       Creation time:       Fri Mar 27 15:17:05 2020


#       File generated by GOLD software.
#

@<TRIPOS>MOLECULE
AV-unprocessed.smi:2784
    38    39     1
SMALL
NO_CHARGES


@<TRIPOS>ATOM
      1 ****        -1.4655   1.0755  -2.5927 C.3            1 S1                 0.0000
      2 ****        -0.9011   0.0103  -1.8443 O.3            1 S1                 0.0000
      3 ****         0.4837  -0.2072  -2.1038 C.3            1 S1                 0.0000
      4 ****         0.6306  -1.1421  -3.3098 C.3            1 S1                 0.0000
      5 ****         0.4316  -2.5373  -2.7257 C.3            1 S1                 0.0000
      6 ****         1.0923  -2.4801  -1.3458 C.3            1 S1                 0.0000
      7 ****         1.1233  -0.9946  -0.9361 C.3            1 S1                 0.0000
      8 ****         0.4412  -0.7845   0.3396 N.am           1 S1                 0.0000
      9 ****         0.5405   0.3256   1.0846 C.2            1 S1                 0.0000
     10 ****         1.2426   1.2906   0.7809 O.2            1 S1                 0.0000
     11 ****        -0.2201   0.2513   2.1871 N.am           1 S1                 0.0000
     12 ****        -0.3434   1.2580   3.1718 C.2            1 S1                 0.0000
     13 ****        -1.1130   1.1525   4.2541 N.pl3          1 S1                 1.0000
     14 ****        -0.9958   2.3043   4.9920 C.2            1 S1                 0.0000
     15 ****        -0.1192   3.1042   4.2988 C.2            1 S1                 0.0000
     16 ****         0.2995   2.4602   3.1519 O.3            1 S1                 0.0000
     17 ****        -2.5229   1.1713  -2.3467 H              1 S1                 0.0000
     18 ****        -1.3871   0.9053  -3.6663 H              1 S1                 0.0000
     19 ****        -0.9803   2.0225  -2.3529 H              1 S1                 0.0000
     20 ****         1.0001   0.7429  -2.2523 H              1 S1                 0.0000
     21 ****        -0.0630  -0.9259  -4.1220 H              1 S1                 0.0000
     22 ****         1.6409  -1.0596  -3.7128 H              1 S1                 0.0000
     23 ****        -0.6353  -2.7354  -2.6142 H              1 S1                 0.0000
     24 ****         0.8501  -3.3203  -3.3587 H              1 S1                 0.0000
     25 ****         0.5579  -3.1092  -0.6324 H              1 S1                 0.0000
     26 ****         2.1119  -2.8628  -1.4065 H              1 S1                 0.0000
     27 ****         2.1690  -0.6965  -0.8373 H              1 S1                 0.0000
     28 ****        -0.1614  -1.5290   0.6586 H              1 S1                 0.0000
     29 ****        -1.7007   0.3735   4.5237 H              1 S1                 0.0000
     30 ****        -1.5366   2.4378   5.9181 H              1 S1                 0.0000
     31 ****         0.2860   4.0910   4.4695 H              1 S1                 0.0000
     32 ****        -0.7570  -0.5911   2.3310 H              1 S1                 0.0000
     33 ****        -1.3985  -0.8285  -2.0659 LP             1 S1                 0.0000
     34 ****        -1.0107   0.2159  -0.8719 LP             1 S1                 0.0000
     35 ****         1.7793   1.2726  -0.0627 LP             1 S1                 0.0000
     36 ****         1.2761   2.0921   1.3778 LP             1 S1                 0.0000
     37 ****         0.0418   2.9839   2.3399 LP             1 S1                 0.0000
     38 ****         1.2909   2.3295   3.1634 LP             1 S1                 0.0000
@<TRIPOS>BOND
    1    1    2 1     
    2    1   17 1     
    3    1   18 1     
    4    1   19 1     
    5    2    3 1     
    6    3    7 1     
    7    3    4 1     
    8    3   20 1     
    9    4    5 1     
   10    4   21 1     
   11    4   22 1     
   12    5    6 1     
   13    5   23 1     
   14    5   24 1     
   15    6    7 1     
   16    6   25 1     
   17    6   26 1     
   18    7    8 1     
   19    7   27 1     
   20    8   28 1     
   21    8    9 am    
   22    9   11 am    
   23    9   10 2     
   24   11   12 1     
   25   11   32 1     
   26   12   16 1     
   27   12   13 2     
   28   13   29 1     
   29   13   14 1     
   30   14   30 1     
   31   14   15 2     
   32   15   31 1     
   33   15   16 1     
   34    2   33 1     
   35    2   34 1     
   36   10   35 1     
   37   10   36 1     
   38   16   37 1     
   39   16   38 1     
@<TRIPOS>SUBSTRUCTURE
      1 S1             1
@<TRIPOS>SET
LONE_PAIRS      STATIC     ATOMS    <user>   **** ""
6 33 34 35 36 37 38
DONOR_HYDROGENS      STATIC     ATOMS    <user>   **** ""
3 28 32 29
ATOM$BLUE        STATIC     ATOMS    COLORGROUP SYSTEM
6 33 34 35 36 37 38
ATOM$RED        STATIC     ATOMS    COLORGROUP SYSTEM
3 28 32 29
