AV-unprocessed.smi:1087|AV-procd|sdf|4726|dock6
  -GOLD-   22720 3253D 1   1.00000     0.00000
 Structure written by MMmdl.
 47 48  0  0  0  0  0  0  0  0  2 V2000
  144.6078  132.7426  150.2072 C   0  0  0  0  0  0  0  0  0  0  0  0
  144.6050  133.6135  151.3249 O   0  0  0  0  0  0  0  0  0  0  0  0
  145.8105  134.3502  151.4442 C   0  0  0  0  0  0  0  0  0  0  0  0
  146.9199  133.4107  151.9411 C   0  0  0  0  0  0  0  0  0  0  0  0
  147.6996  133.9949  153.0621 N   0  3  2  0  0  0  0  0  0  0  0  0
  148.8791  133.1646  153.4164 C   0  0  0  0  0  0  0  0  0  0  0  0
  149.7451  133.8592  154.4810 C   0  0  0  0  0  0  0  0  0  0  0  0
  148.9405  134.1916  155.7553 C   0  0  2  0  0  0  0  0  0  0  0  0
  148.5668  132.9647  156.6218 C   0  0  0  0  0  0  0  0  0  0  0  0
  147.5628  133.2851  157.6317 N   0  0  0  0  0  0  0  0  0  0  0  0
  147.7004  134.2018  158.6021 C   0  0  0  0  0  0  0  0  0  0  0  0
  148.7276  134.8597  158.7713 O   0  0  0  0  0  0  0  0  0  0  0  0
  146.4896  134.4012  159.5230 C   0  0  0  0  0  0  0  0  0  0  0  0
  146.7863  135.2887  160.6588 N   0  0  0  0  0  0  0  0  0  0  0  0
  146.7279  134.7371  161.9497 C   0  0  0  0  0  0  0  0  0  0  0  0
  146.9939  135.4851  163.0302 C   0  0  0  0  0  0  0  0  0  0  0  0
  147.3429  136.8900  162.7821 C   0  0  0  0  0  0  0  0  0  0  0  0
  147.4012  137.3948  161.6064 N   0  0  0  0  0  0  0  0  0  0  0  0
  147.1241  136.6068  160.4734 C   0  0  0  0  0  0  0  0  0  0  0  0
  147.1836  137.0840  159.3398 O   0  0  0  0  0  0  0  0  0  0  0  0
  147.7011  135.0104  155.3481 C   0  0  0  0  0  0  0  0  0  0  0  0
  146.8702  134.3101  154.2559 C   0  0  0  0  0  0  0  0  0  0  0  0
  143.6620  132.2027  150.1618 H   0  0  0  0  0  0  0  0  0  0  0  0
  145.4111  132.0083  150.2813 H   0  0  0  0  0  0  0  0  0  0  0  0
  144.7240  133.2968  149.2749 H   0  0  0  0  0  0  0  0  0  0  0  0
  146.0735  134.8175  150.4952 H   0  0  0  0  0  0  0  0  0  0  0  0
  145.6713  135.1557  152.1668 H   0  0  0  0  0  0  0  0  0  0  0  0
  146.4997  132.4517  152.2477 H   0  0  0  0  0  0  0  0  0  0  0  0
  147.5825  133.1991  151.1005 H   0  0  0  0  0  0  0  0  0  0  0  0
  148.5484  132.1855  153.7649 H   0  0  0  0  0  0  0  0  0  0  0  0
  149.4861  132.9921  152.5270 H   0  0  0  0  0  0  0  0  0  0  0  0
  150.6187  133.2508  154.7124 H   0  0  0  0  0  0  0  0  0  0  0  0
  150.1400  134.7848  154.0602 H   0  0  0  0  0  0  0  0  0  0  0  0
  149.5653  134.8342  156.3775 H   0  0  0  0  0  0  0  0  0  0  0  0
  148.1452  132.1869  155.9842 H   0  0  0  0  0  0  0  0  0  0  0  0
  149.4503  132.5215  157.0823 H   0  0  0  0  0  0  0  0  0  0  0  0
  146.6857  132.7876  157.5748 H   0  0  0  0  0  0  0  0  0  0  0  0
  145.6466  134.7975  158.9535 H   0  0  0  0  0  0  0  0  0  0  0  0
  146.1648  133.4205  159.8733 H   0  0  0  0  0  0  0  0  0  0  0  0
  146.4663  133.6902  161.9998 H   0  0  0  0  0  0  0  0  0  0  0  0
  146.9712  135.1241  164.0477 H   0  0  0  0  0  0  0  0  0  0  0  0
  147.5534  137.4841  163.6751 H   0  0  0  0  0  0  0  0  0  0  0  0
  147.0781  135.2126  156.2201 H   0  0  0  0  0  0  0  0  0  0  0  0
  148.0226  135.9844  154.9764 H   0  0  0  0  0  0  0  0  0  0  0  0
  146.0438  134.9628  153.9778 H   0  0  0  0  0  0  0  0  0  0  0  0
  146.4233  133.3940  154.6440 H   0  0  0  0  0  0  0  0  0  0  0  0
  148.0702  134.8705  152.7207 H   0  0  0  0  0  0  0  0  0  0  0  0
  1  2  1  0  0  0  0
  1 23  1  0  0  0  0
  1 24  1  0  0  0  0
  1 25  1  0  0  0  0
  2  3  1  0  0  0  0
  3  4  1  0  0  0  0
  3 26  1  0  0  0  0
  3 27  1  0  0  0  0
  4  5  1  0  0  0  0
  4 28  1  0  0  0  0
  4 29  1  0  0  0  0
  5 22  1  0  0  0  0
  5  6  1  0  0  0  0
  5 47  1  0  0  0  0
  6  7  1  0  0  0  0
  6 30  1  0  0  0  0
  6 31  1  0  0  0  0
  7  8  1  0  0  0  0
  7 32  1  0  0  0  0
  7 33  1  0  0  0  0
  8  9  1  0  0  0  0
  8 21  1  0  0  0  0
  8 34  1  0  0  0  0
  9 10  1  0  0  0  0
  9 35  1  0  0  0  0
  9 36  1  0  0  0  0
 10 11  1  0  0  0  0
 10 37  1  0  0  0  0
 11 12  2  0  0  0  0
 11 13  1  0  0  0  0
 13 14  1  0  0  0  0
 13 38  1  0  0  0  0
 13 39  1  0  0  0  0
 14 19  1  0  0  0  0
 14 15  1  0  0  0  0
 15 16  2  0  0  0  0
 15 40  1  0  0  0  0
 16 17  1  0  0  0  0
 16 41  1  0  0  0  0
 17 18  2  0  0  0  0
 17 42  1  0  0  0  0
 18 19  1  0  0  0  0
 19 20  2  0  0  0  0
 21 22  1  0  0  0  0
 21 43  1  0  0  0  0
 21 44  1  0  0  0  0
 22 45  1  0  0  0  0
 22 46  1  0  0  0  0
M  CHG  1   5   1
M  END
> <s_m_source_file>
AV-unprocessed.smi

> <i_m_source_file_index>
1087

> <i_lp_mmshare_version>
43012

> <i_f3d_flags>
0

> <s_epik_input>
W0NIM11PW0NIMl1bQ0gyXU4xW0NIMl1bQ0gyXVtDSF0oW0NIMl1bQ0gyXTEpW0NIMl1bTkhdQyg9TylbQ0gyXW4yW2NIXVtjSF1bY0hdbmMyPU8=

> <s_epik_cmdline>
J2VwaWtfcHl0aG9uJywgJy1waCcsICc3LjAnLCAnLXRuJywgJzgnLCAnLW1hJywgJzIwMCcsICctbWV0YWxfYmluZGluZycsICctaW1hZScsICc8aW5maWxlLm1hZT4nLCAnLW9tYWUnLCAnPG91dGZpbGUubWFlPic=

> <r_lp_tautomer_probability>
1

> <r_epik_Ionization_Penalty>
0.00982698

> <r_epik_Ionization_Penalty_Charging>
0.00982062

> <r_epik_Ionization_Penalty_Neutral>
6.35787e-06

> <r_epik_State_Penalty>
0.00747828

> <r_epik_Charging_Adjusted_Penalty>
0.0172989

> <i_epik_Tot_Q>
1

> <i_epik_Tot_abs_Q>
1

> <r_epik_Metal_State_Penalty>
0.00747829

> <b_epik_Metal_Only>
0

> <s_lp_Force_Field>
OPLS_2005

> <r_lp_Energy>
23.2089

> <b_lp_Chiralities_Consistent>
1

> <s_lp_Variant>
AV-unprocessed.smi:1087-2

> <Gold.Version>
5.8.1

> <Gold.Id.Protein>
6NUR|6NUR_protein|mol2

> <Gold.PLP.Fitness>
50.0914

> <Gold.PLP.PLP>
-37.3190

> <Gold.PLP.part.hbond>
-4.0000

> <Gold.PLP.part.metal>
0.0000

> <Gold.PLP.part.buried>
-4.8272

> <Gold.PLP.part.nonpolar>
-27.9295

> <Gold.PLP.part.repulsive>
0.1424

> <Gold.PLP.ligand.clash>
0.0000

> <Gold.PLP.ligand.torsion>
0.5793

> <Gold.PLP.Chemscore.Hbond>
4.5817

> <Gold.PLP.Chemscore.CHOScore>
0.0000

> <Gold.PLP.Chemscore.Metal>
0.0000

> <Gold.Chemscore.Hbonds>
donor molecule, donor type, donor heavy atom, donor atom, acceptor molecule, acceptor atom, score
      L1  H     5    47       P1  7948  2.00
      P1  H  6896  6909       L1    12  0.68
      P1  H  6931  6943       L1    18  0.57
      P1  H  6934  6947       L1    18  0.82

> <Gold.PLP.Chemscore.Internal.Correction>
0.1860

> <Gold.Rescore>
     Score         DG    S(hbond)    S(metal)    S(lipo)     H(rot)  DE(clash)    DE(int)     intcor
     16.81     -17.58       2.87        0.00      75.06       2.45       0.04       0.74       ----

> <Gold.Chemscore.Fitness>
16.8114

> <Gold.Chemscore.DG>
-17.5840

> <Gold.Chemscore.ZeroCoef>
-5.4800

> <Gold.Chemscore.Hbond>
2.8690

> <Gold.Chemscore.Metal>
0.0000

> <Gold.Chemscore.Lipo>
75.0592

> <Gold.Chemscore.Internal_Hbond>
0.0000

> <Gold.Chemscore.DEClash>
0.0355

> <Gold.Chemscore.DEInternal>
0.7371

> <Gold.Chemscore.Rot>
2.4454

> <Gold.Chemscore.Internal.Correction>
   9.000000E+99

> <Gold.Chemscore.Hbonds>
donor molecule, donor type, donor heavy atom, donor atom, acceptor molecule, acceptor atom, score
      L1  H     5    47       P1  7948  0.82
      P1  H  6896  6909       L1    12  0.64
      P1  H  6931  6943       L1    18  0.06
      P1  H  6934  6947       L1    18  0.24

> <Gold.Chemscore.Hbond.Weighted>
-9.5823

> <Gold.Chemscore.Metal.Weighted>
-0.0000

> <Gold.Chemscore.Lipo.Weighted>
-8.7819

> <Gold.Chemscore.Internal_Hbond.Weighted>
0.0000

> <Gold.Chemscore.DEClash.Weighted>
0.0355

> <Gold.Chemscore.DEInternal.Weighted>
0.7371

> <Gold.Chemscore.Rot.Weighted>
6.2603

> <Gold.Chemscore.Internal.Correction.Weighted>
   9.000000E+99

> <Gold.Protein.RotatedTorsions>
[ 6907 6896 6895 6894 ] final   17.60 input  -60.11 | X-H torsion
[ 7974 7965 7964 7962 ] final   22.87 input  175.53 | X-H torsion
[ 8008 7997 7996 7995 ] final  111.26 input   59.86 | X-H torsion
[ 10167 10162 10161 10158 ] final  143.93 input  -65.29 | X-H torsion
[ 10718 10713 10712 10709 ] final -130.46 input   66.30 | X-H torsion
[ 10763 10752 10751 10750 ] final -165.65 input  -60.55 | X-H torsion
[ 11005 11000 10999 10996 ] final -110.81 input  -57.11 | X-H torsion

> <Gold.Protein.ActiveResidues>
 VAL166  LYS551  ARG553  GLY616  TRP617  ASP618  TYR619  PRO620  LYS621  CYS622 
 ASP623  PHE694  ASN695  SER759  ASP760  ASP761  ALA762  ILE779  LEU786  VAL792 
 PHE793  MET794  SER795  GLU796  ALA797  LYS798  CYS799  TRP800  GLU811  SER814 

> <Gold.Protein.RotatedAtoms>
  151.8522  135.0553  160.0459 H   0  0  0  0  0  0  0  0  0  0  0  0  # atno 6907 bound_to 6896
  152.2727  133.5393  159.5457 H   0  0  0  0  0  0  0  0  0  0  0  0  # atno 6908 bound_to 6896
  150.7158  134.0591  159.3867 H   0  0  0  0  0  0  0  0  0  0  0  0  # atno 6909 bound_to 6896
  146.2010  139.7825  142.8761 H   0  0  0  0  0  0  0  0  0  0  0  0  # atno 7974 bound_to 7965
  156.2111  140.3022  155.9736 H   0  0  0  0  0  0  0  0  0  0  0  0  # atno 8008 bound_to 7997
  155.2720  140.0434  157.3025 H   0  0  0  0  0  0  0  0  0  0  0  0  # atno 8009 bound_to 7997
  154.5702  140.2346  155.8212 H   0  0  0  0  0  0  0  0  0  0  0  0  # atno 8010 bound_to 7997
  139.4958  144.6007  151.6487 H   0  0  0  0  0  0  0  0  0  0  0  0  # atno 10167 bound_to 10162
  156.2146  130.6940  151.0688 H   0  0  0  0  0  0  0  0  0  0  0  0  # atno 10718 bound_to 10713
  154.6911  135.2971  154.9478 H   0  0  0  0  0  0  0  0  0  0  0  0  # atno 10763 bound_to 10752
  154.0440  135.6653  153.4797 H   0  0  0  0  0  0  0  0  0  0  0  0  # atno 10764 bound_to 10752
  153.0613  135.5114  154.8004 H   0  0  0  0  0  0  0  0  0  0  0  0  # atno 10765 bound_to 10752
  141.0770  133.9284  157.2368 H   0  0  0  0  0  0  0  0  0  0  0  0  # atno 11005 bound_to 11000
  145.3484  141.0302  143.3352 LP  0  0  0  0  0  0  0  0  0  0  0  0  # atno 17320 bound_to 7965
  144.8683  139.5075  143.6780 LP  0  0  0  0  0  0  0  0  0  0  0  0  # atno 17321 bound_to 7965
  140.5656  144.0196  150.6191 LP  0  0  0  0  0  0  0  0  0  0  0  0  # atno 17342 bound_to 10162
  140.3296  143.3086  152.0701 LP  0  0  0  0  0  0  0  0  0  0  0  0  # atno 17343 bound_to 10162
  157.7056  131.0757  150.6676 LP  0  0  0  0  0  0  0  0  0  0  0  0  # atno 17370 bound_to 10713
  156.6737  130.4547  149.5649 LP  0  0  0  0  0  0  0  0  0  0  0  0  # atno 17371 bound_to 10713
  139.9583  135.0160  156.9190 LP  0  0  0  0  0  0  0  0  0  0  0  0  # atno 17394 bound_to 11000
  140.5551  134.0589  155.7381 LP  0  0  0  0  0  0  0  0  0  0  0  0  # atno 17395 bound_to 11000

$$$$
