AV-unprocessed.smi:441|AV-procd|sdf|2582|dock1
  -GOLD-   2262022573D 1   1.00000     0.00000
 Structure written by MMmdl.
 34 35  0  0  0  0  0  0  0  0  1 V2000
  152.7369  139.7819  155.2019 O   0  0  0  0  0  0  0  0  0  0  0  0
  151.5459  139.7979  155.5165 C   0  0  0  0  0  0  0  0  0  0  0  0
  150.5177  138.9533  154.7495 C   0  0  0  0  0  0  0  0  0  0  0  0
  149.1320  139.4092  154.9360 N   0  0  0  0  0  0  0  0  0  0  0  0
  148.3403  138.5296  155.6536 N   0  0  0  0  0  0  0  0  0  0  0  0
  147.1115  138.8337  155.8939 C   0  0  0  0  0  0  0  0  0  0  0  0
  146.5196  140.0702  155.4336 C   0  0  0  0  0  0  0  0  0  0  0  0
  144.8650  140.4235  155.7867 Cl  0  0  0  0  0  0  0  0  0  0  0  0
  147.3025  140.9226  154.7256 C   0  0  0  0  0  0  0  0  0  0  0  0
  146.6650  142.4206  154.1395 Cl  0  0  0  0  0  0  0  0  0  0  0  0
  148.7082  140.6094  154.4328 C   0  0  0  0  0  0  0  0  0  0  0  0
  149.4506  141.3552  153.7926 O   0  0  0  0  0  0  0  0  0  0  0  0
  151.0594  140.5512  156.5146 N   0  0  0  0  0  0  0  0  0  0  0  0
  151.8494  141.4307  157.3713 C   0  0  0  0  0  0  0  0  0  0  0  0
  151.8981  140.8528  158.7985 C   0  0  0  0  0  0  0  0  0  0  0  0
  152.6705  141.7766  159.7542 C   0  0  0  0  0  0  0  0  0  0  0  0
  152.0798  143.1951  159.7573 C   0  0  0  0  0  0  0  0  0  0  0  0
  152.0332  143.7789  158.3367 C   0  0  0  0  0  0  0  0  0  0  0  0
  151.2612  142.8571  157.3787 C   0  0  0  0  0  0  0  0  0  0  0  0
  150.7683  138.9480  153.6869 H   0  0  0  0  0  0  0  0  0  0  0  0
  150.6214  137.9177  155.0781 H   0  0  0  0  0  0  0  0  0  0  0  0
  146.4515  138.1739  156.4573 H   0  0  0  0  0  0  0  0  0  0  0  0
  150.0680  140.5072  156.7004 H   0  0  0  0  0  0  0  0  0  0  0  0
  152.8716  141.4726  156.9898 H   0  0  0  0  0  0  0  0  0  0  0  0
  150.8838  140.7115  159.1751 H   0  0  0  0  0  0  0  0  0  0  0  0
  152.3639  139.8666  158.7868 H   0  0  0  0  0  0  0  0  0  0  0  0
  152.6543  141.3649  160.7637 H   0  0  0  0  0  0  0  0  0  0  0  0
  153.7183  141.8178  159.4541 H   0  0  0  0  0  0  0  0  0  0  0  0
  151.0729  143.1707  160.1761 H   0  0  0  0  0  0  0  0  0  0  0  0
  152.6696  143.8424  160.4066 H   0  0  0  0  0  0  0  0  0  0  0  0
  151.5710  144.7660  158.3552 H   0  0  0  0  0  0  0  0  0  0  0  0
  153.0494  143.9204  157.9665 H   0  0  0  0  0  0  0  0  0  0  0  0
  151.2816  143.2795  156.3734 H   0  0  0  0  0  0  0  0  0  0  0  0
  150.2126  142.8230  157.6775 H   0  0  0  0  0  0  0  0  0  0  0  0
  1  2  2  0  0  0  0
  2  3  1  0  0  0  0
  2 13  1  0  0  0  0
  3  4  1  0  0  0  0
  3 20  1  0  0  0  0
  3 21  1  0  0  0  0
  4 11  1  0  0  0  0
  4  5  1  0  0  0  0
  5  6  2  0  0  0  0
  6  7  1  0  0  0  0
  6 22  1  0  0  0  0
  7  8  1  0  0  0  0
  7  9  2  0  0  0  0
  9 10  1  0  0  0  0
  9 11  1  0  0  0  0
 11 12  2  0  0  0  0
 13 14  1  0  0  0  0
 13 23  1  0  0  0  0
 14 19  1  0  0  0  0
 14 15  1  0  0  0  0
 14 24  1  0  0  0  0
 15 16  1  0  0  0  0
 15 25  1  0  0  0  0
 15 26  1  0  0  0  0
 16 17  1  0  0  0  0
 16 27  1  0  0  0  0
 16 28  1  0  0  0  0
 17 18  1  0  0  0  0
 17 29  1  0  0  0  0
 17 30  1  0  0  0  0
 18 19  1  0  0  0  0
 18 31  1  0  0  0  0
 18 32  1  0  0  0  0
 19 33  1  0  0  0  0
 19 34  1  0  0  0  0
M  END
> <s_m_source_file>
AV-unprocessed.smi

> <i_m_source_file_index>
441

> <i_lp_mmshare_version>
43012

> <i_f3d_flags>
0

> <s_epik_input>
W0NIMl0xW0NIMl1bQ0gyXVtDSDJdW0NIMl1bQ0hdMVtOSF1DKD1PKVtDSDJdbjJuW2NIXWMoQ2wpYyhDbCljMj1P

> <s_epik_cmdline>
J2VwaWtfcHl0aG9uJywgJy1waCcsICc3LjAnLCAnLXRuJywgJzgnLCAnLW1hJywgJzIwMCcsICctbWV0YWxfYmluZGluZycsICctaW1hZScsICc8aW5maWxlLm1hZT4nLCAnLW9tYWUnLCAnPG91dGZpbGUubWFlPic=

> <r_lp_tautomer_probability>
1

> <r_epik_Ionization_Penalty>
1.90776e-08

> <r_epik_Ionization_Penalty_Charging>
3.07389e-11

> <r_epik_Ionization_Penalty_Neutral>
1.90469e-08

> <r_epik_State_Penalty>
-0

> <r_epik_Charging_Adjusted_Penalty>
3.07389e-11

> <i_epik_Tot_Q>
0

> <i_epik_Tot_abs_Q>
0

> <r_epik_Metal_State_Penalty>
-0

> <b_epik_Metal_Only>
0

> <s_lp_Force_Field>
OPLS_2005

> <r_lp_Energy>
22.7857

> <b_lp_Chiralities_Consistent>
1

> <s_lp_Variant>
AV-unprocessed.smi:441-1

> <Gold.Version>
5.8.1

> <Gold.Id.Protein>
6NUR|6NUR_protein|mol2

> <Gold.PLP.Fitness>
40.2660

> <Gold.PLP.PLP>
-35.2858

> <Gold.PLP.part.hbond>
-3.9281

> <Gold.PLP.part.metal>
0.0000

> <Gold.PLP.part.buried>
-3.3632

> <Gold.PLP.part.nonpolar>
-28.2363

> <Gold.PLP.part.repulsive>
1.3064

> <Gold.PLP.ligand.clash>
0.0000

> <Gold.PLP.ligand.torsion>
0.3822

> <Gold.PLP.Chemscore.Hbond>
1.9124

> <Gold.PLP.Chemscore.CHOScore>
0.0000

> <Gold.PLP.Chemscore.Metal>
0.0000

> <Gold.Chemscore.Hbonds>
donor molecule, donor type, donor heavy atom, donor atom, acceptor molecule, acceptor atom, score
      P1  H  7989  7998       L1    12  0.12
      P1  H  7997  8009       L1     1  1.00
      P1  H  8011  8017       L1    12  0.82

> <Gold.PLP.Chemscore.Internal.Correction>
0.0074

> <Gold.Rescore>
     Score         DG    S(hbond)    S(metal)    S(lipo)     H(rot)  DE(clash)    DE(int)     intcor
     17.22     -18.08       2.15        0.00      79.49       1.51       0.47       0.39       ----

> <Gold.Chemscore.Fitness>
17.2223

> <Gold.Chemscore.DG>
-18.0810

> <Gold.Chemscore.ZeroCoef>
-5.4800

> <Gold.Chemscore.Hbond>
2.1470

> <Gold.Chemscore.Metal>
0.0000

> <Gold.Chemscore.Lipo>
79.4895

> <Gold.Chemscore.Internal_Hbond>
0.0000

> <Gold.Chemscore.DEClash>
0.4685

> <Gold.Chemscore.DEInternal>
0.3902

> <Gold.Chemscore.Rot>
1.5118

> <Gold.Chemscore.Internal.Correction>
   9.000000E+99

> <Gold.Chemscore.Hbonds>
donor molecule, donor type, donor heavy atom, donor atom, acceptor molecule, acceptor atom, score
      P1  H  7989  7998       L1    12  0.12
      P1  H  7997  8009       L1     1  1.00
      P1  H  8011  8017       L1    12  0.81

> <Gold.Chemscore.Hbond.Weighted>
-7.1709

> <Gold.Chemscore.Metal.Weighted>
-0.0000

> <Gold.Chemscore.Lipo.Weighted>
-9.3003

> <Gold.Chemscore.Internal_Hbond.Weighted>
0.0000

> <Gold.Chemscore.DEClash.Weighted>
0.4685

> <Gold.Chemscore.DEInternal.Weighted>
0.3902

> <Gold.Chemscore.Rot.Weighted>
3.8702

> <Gold.Chemscore.Internal.Correction.Weighted>
   9.000000E+99

> <Gold.Protein.RotatedTorsions>
[ 6907 6896 6895 6894 ] final   59.67 input  -60.11 | X-H torsion
[ 7974 7965 7964 7962 ] final  -29.29 input  175.53 | X-H torsion
[ 8008 7997 7996 7995 ] final -140.93 input   59.86 | X-H torsion
[ 10167 10162 10161 10158 ] final  -43.72 input  -65.29 | X-H torsion
[ 10718 10713 10712 10709 ] final -142.20 input   66.30 | X-H torsion
[ 10763 10752 10751 10750 ] final -135.19 input  -60.55 | X-H torsion
[ 11005 11000 10999 10996 ] final -159.93 input  -57.11 | X-H torsion

> <Gold.Protein.ActiveResidues>
 VAL166  LYS551  ARG553  GLY616  TRP617  ASP618  TYR619  PRO620  LYS621  CYS622 
 ASP623  PHE694  ASN695  SER759  ASP760  ASP761  ALA762  ILE779  LEU786  VAL792 
 PHE793  MET794  SER795  GLU796  ALA797  LYS798  CYS799  TRP800  GLU811  SER814 

> <Gold.Protein.RotatedAtoms>
  152.3935  134.6402  160.0097 H   0  0  0  0  0  0  0  0  0  0  0  0  # atno 6907 bound_to 6896
  151.6629  133.3311  159.3186 H   0  0  0  0  0  0  0  0  0  0  0  0  # atno 6908 bound_to 6896
  150.7847  134.6865  159.6518 H   0  0  0  0  0  0  0  0  0  0  0  0  # atno 6909 bound_to 6896
  146.1227  140.5393  142.8728 H   0  0  0  0  0  0  0  0  0  0  0  0  # atno 7974 bound_to 7965
  155.4694  140.0552  157.2981 H   0  0  0  0  0  0  0  0  0  0  0  0  # atno 8008 bound_to 7997
  154.4704  140.2038  155.9962 H   0  0  0  0  0  0  0  0  0  0  0  0  # atno 8009 bound_to 7997
  156.1047  140.3213  155.7994 H   0  0  0  0  0  0  0  0  0  0  0  0  # atno 8010 bound_to 7997
  140.6924  143.2968  151.3392 H   0  0  0  0  0  0  0  0  0  0  0  0  # atno 10167 bound_to 10162
  156.3431  130.7648  151.1788 H   0  0  0  0  0  0  0  0  0  0  0  0  # atno 10718 bound_to 10713
  154.8707  135.3711  154.4858 H   0  0  0  0  0  0  0  0  0  0  0  0  # atno 10763 bound_to 10752
  153.5508  135.7025  153.5597 H   0  0  0  0  0  0  0  0  0  0  0  0  # atno 10764 bound_to 10752
  153.3716  135.4020  155.1757 H   0  0  0  0  0  0  0  0  0  0  0  0  # atno 10765 bound_to 10752
  140.6371  134.4590  157.5232 H   0  0  0  0  0  0  0  0  0  0  0  0  # atno 11005 bound_to 11000
  144.7612  140.5427  143.6734 LP  0  0  0  0  0  0  0  0  0  0  0  0  # atno 17320 bound_to 7965
  145.5431  139.1475  143.3436 LP  0  0  0  0  0  0  0  0  0  0  0  0  # atno 17321 bound_to 7965
  139.6340  144.0666  152.2500 LP  0  0  0  0  0  0  0  0  0  0  0  0  # atno 17342 bound_to 10162
  140.0150  144.6196  150.7615 LP  0  0  0  0  0  0  0  0  0  0  0  0  # atno 17343 bound_to 10162
  157.7450  131.0449  150.4815 LP  0  0  0  0  0  0  0  0  0  0  0  0  # atno 17370 bound_to 10713
  156.4998  130.4114  149.6359 LP  0  0  0  0  0  0  0  0  0  0  0  0  # atno 17371 bound_to 10713
  139.9094  134.8378  156.1584 LP  0  0  0  0  0  0  0  0  0  0  0  0  # atno 17394 bound_to 11000
  141.0634  133.6831  156.1996 LP  0  0  0  0  0  0  0  0  0  0  0  0  # atno 17395 bound_to 11000

$$$$
