AV-unprocessed.smi:2470|AV-procd|sdf|9735|dock6
  -GOLD-   2272013373D 1   1.00000     0.00000
 Structure written by MMmdl.
 33 34  0  0  0  0  0  0  0  0  1 V2000
  146.6886  138.7137  152.3760 C   0  0  0  0  0  0  0  0  0  0  0  0
  146.8831  139.7233  153.3601 O   0  0  0  0  0  0  0  0  0  0  0  0
  148.1438  139.8725  153.8996 C   0  0  0  0  0  0  0  0  0  0  0  0
  148.4567  141.0505  154.6086 C   0  0  0  0  0  0  0  0  0  0  0  0
  149.7575  141.1618  155.1488 C   0  0  0  0  0  0  0  0  0  0  0  0
  150.0312  142.3627  155.8554 N   0  0  0  0  0  0  0  0  0  0  0  0
  150.7917  142.5243  156.9523 C   0  0  0  0  0  0  0  0  0  0  0  0
  151.3734  141.6199  157.5524 O   0  0  0  0  0  0  0  0  0  0  0  0
  150.8373  143.8130  157.3230 N   0  0  0  0  0  0  0  0  0  0  0  0
  151.5680  144.3497  158.4680 C   0  0  2  0  0  0  0  0  0  0  0  0
  152.9977  144.7014  158.0332 C   0  0  0  0  0  0  0  0  0  0  0  0
  151.5753  143.4000  159.6507 C   0  0  0  0  0  0  0  0  0  0  0  0
  152.4809  143.6385  160.8349 C   0  0  0  0  0  0  0  0  0  0  0  0
  152.7451  142.4784  159.9011 C   0  0  0  0  0  0  0  0  0  0  0  0
  150.6513  140.1572  154.9728 N   0  0  0  0  0  0  0  0  0  0  0  0
  150.2580  139.0837  154.2848 C   0  0  0  0  0  0  0  0  0  0  0  0
  149.0575  138.8847  153.7394 N   0  0  0  0  0  0  0  0  0  0  0  0
  145.6446  138.7113  152.0632 H   0  0  0  0  0  0  0  0  0  0  0  0
  146.9177  137.7225  152.7700 H   0  0  0  0  0  0  0  0  0  0  0  0
  147.2994  138.8976  151.4911 H   0  0  0  0  0  0  0  0  0  0  0  0
  147.7228  141.8336  154.7315 H   0  0  0  0  0  0  0  0  0  0  0  0
  149.6018  143.1950  155.4799 H   0  0  0  0  0  0  0  0  0  0  0  0
  150.3246  144.4809  156.7662 H   0  0  0  0  0  0  0  0  0  0  0  0
  151.0936  145.2735  158.8042 H   0  0  0  0  0  0  0  0  0  0  0  0
  153.5607  145.1419  158.8567 H   0  0  0  0  0  0  0  0  0  0  0  0
  152.9937  145.4237  157.2160 H   0  0  0  0  0  0  0  0  0  0  0  0
  153.5395  143.8173  157.6952 H   0  0  0  0  0  0  0  0  0  0  0  0
  150.5953  142.9857  159.8819 H   0  0  0  0  0  0  0  0  0  0  0  0
  153.1615  144.4865  160.7888 H   0  0  0  0  0  0  0  0  0  0  0  0
  152.0859  143.4103  161.8227 H   0  0  0  0  0  0  0  0  0  0  0  0
  152.5264  141.4774  160.2667 H   0  0  0  0  0  0  0  0  0  0  0  0
  153.6042  142.5556  159.2376 H   0  0  0  0  0  0  0  0  0  0  0  0
  150.9861  138.2966  154.1563 H   0  0  0  0  0  0  0  0  0  0  0  0
  1  2  1  0  0  0  0
  1 18  1  0  0  0  0
  1 19  1  0  0  0  0
  1 20  1  0  0  0  0
  2  3  1  0  0  0  0
  3 17  1  0  0  0  0
  3  4  2  0  0  0  0
  4  5  1  0  0  0  0
  4 21  1  0  0  0  0
  5  6  1  0  0  0  0
  5 15  2  0  0  0  0
  6  7  1  0  0  0  0
  6 22  1  0  0  0  0
  7  8  2  0  0  0  0
  7  9  1  0  0  0  0
  9 10  1  0  0  0  0
  9 23  1  0  0  0  0
 10 11  1  0  0  0  0
 10 12  1  0  0  0  0
 10 24  1  0  0  0  0
 11 25  1  0  0  0  0
 11 26  1  0  0  0  0
 11 27  1  0  0  0  0
 12 14  1  0  0  0  0
 12 13  1  0  0  0  0
 12 28  1  0  0  0  0
 13 14  1  0  0  0  0
 13 29  1  0  0  0  0
 13 30  1  0  0  0  0
 14 31  1  0  0  0  0
 14 32  1  0  0  0  0
 15 16  1  0  0  0  0
 16 17  2  0  0  0  0
 16 33  1  0  0  0  0
M  END
> <s_m_source_file>
AV-unprocessed.smi

> <i_m_source_file_index>
2470

> <i_lp_mmshare_version>
43012

> <i_f3d_flags>
0

> <s_epik_input>
W0NIM11PYzFbY0hdYyhuW2NIXW4xKVtOSF1DKD1PKVtOSF1bQ0BIXShbQ0gzXSlbQ0hdMltDSDJdW0NIMl0y

> <s_epik_cmdline>
J2VwaWtfcHl0aG9uJywgJy1waCcsICc3LjAnLCAnLXRuJywgJzgnLCAnLW1hJywgJzIwMCcsICctbWV0YWxfYmluZGluZycsICctaW1hZScsICc8aW5maWxlLm1hZT4nLCAnLW9tYWUnLCAnPG91dGZpbGUubWFlPic=

> <r_lp_tautomer_probability>
1

> <r_epik_Ionization_Penalty>
2.81207e-05

> <r_epik_Ionization_Penalty_Charging>
0

> <r_epik_Ionization_Penalty_Neutral>
2.81207e-05

> <r_epik_State_Penalty>
-0

> <r_epik_Charging_Adjusted_Penalty>
0

> <i_epik_Tot_Q>
0

> <i_epik_Tot_abs_Q>
0

> <r_epik_Metal_State_Penalty>
-0

> <b_epik_Metal_Only>
0

> <s_lp_Force_Field>
OPLS_2005

> <r_lp_Energy>
11.3699

> <b_lp_Chiralities_Consistent>
1

> <s_lp_Variant>
AV-unprocessed.smi:2470-1

> <Gold.Version>
5.8.1

> <Gold.Id.Protein>
6NUR|6NUR_protein|mol2

> <Gold.PLP.Fitness>
44.2147

> <Gold.PLP.PLP>
-38.0777

> <Gold.PLP.part.hbond>
-3.0000

> <Gold.PLP.part.metal>
0.0000

> <Gold.PLP.part.buried>
-5.7785

> <Gold.PLP.part.nonpolar>
-31.6285

> <Gold.PLP.part.repulsive>
1.8197

> <Gold.PLP.ligand.clash>
0.0000

> <Gold.PLP.ligand.torsion>
1.3854

> <Gold.PLP.Chemscore.Hbond>
2.6090

> <Gold.PLP.Chemscore.CHOScore>
0.0000

> <Gold.PLP.Chemscore.Metal>
0.0000

> <Gold.Chemscore.Hbonds>
donor molecule, donor type, donor heavy atom, donor atom, acceptor molecule, acceptor atom, score
      L1  H     6    22       P1  8028  1.00
      L1  H     9    23       P1  8028  0.93
      P1  H  7989  7998       L1    15  0.62

> <Gold.PLP.Chemscore.Internal.Correction>
1.0809

> <Gold.Rescore>
     Score         DG    S(hbond)    S(metal)    S(lipo)     H(rot)  DE(clash)    DE(int)     intcor
     12.08     -16.86       1.98        0.00      75.96       1.61       0.07       4.70       ----

> <Gold.Chemscore.Fitness>
12.0846

> <Gold.Chemscore.DG>
-16.8624

> <Gold.Chemscore.ZeroCoef>
-5.4800

> <Gold.Chemscore.Hbond>
1.9819

> <Gold.Chemscore.Metal>
0.0000

> <Gold.Chemscore.Lipo>
75.9566

> <Gold.Chemscore.Internal_Hbond>
0.0000

> <Gold.Chemscore.DEClash>
0.0734

> <Gold.Chemscore.DEInternal>
4.7044

> <Gold.Chemscore.Rot>
1.6109

> <Gold.Chemscore.Internal.Correction>
   9.000000E+99

> <Gold.Chemscore.Hbonds>
donor molecule, donor type, donor heavy atom, donor atom, acceptor molecule, acceptor atom, score
      L1  H     6    22       P1  8028  0.97
      L1  H     9    23       P1  8028  0.82
      P1  H  7989  7998       L1    15  0.01

> <Gold.Chemscore.Hbond.Weighted>
-6.6195

> <Gold.Chemscore.Metal.Weighted>
-0.0000

> <Gold.Chemscore.Lipo.Weighted>
-8.8869

> <Gold.Chemscore.Internal_Hbond.Weighted>
0.0000

> <Gold.Chemscore.DEClash.Weighted>
0.0734

> <Gold.Chemscore.DEInternal.Weighted>
4.7044

> <Gold.Chemscore.Rot.Weighted>
4.1240

> <Gold.Chemscore.Internal.Correction.Weighted>
   9.000000E+99

> <Gold.Protein.RotatedTorsions>
[ 6907 6896 6895 6894 ] final  -76.58 input  -60.11 | X-H torsion
[ 7974 7965 7964 7962 ] final -166.84 input  175.53 | X-H torsion
[ 8008 7997 7996 7995 ] final -115.82 input   59.86 | X-H torsion
[ 10167 10162 10161 10158 ] final -151.58 input  -65.29 | X-H torsion
[ 10718 10713 10712 10709 ] final   10.81 input   66.30 | X-H torsion
[ 10763 10752 10751 10750 ] final   24.76 input  -60.55 | X-H torsion
[ 11005 11000 10999 10996 ] final  -83.09 input  -57.11 | X-H torsion

> <Gold.Protein.ActiveResidues>
 VAL166  LYS551  ARG553  GLY616  TRP617  ASP618  TYR619  PRO620  LYS621  CYS622 
 ASP623  PHE694  ASN695  SER759  ASP760  ASP761  ALA762  ILE779  LEU786  VAL792 
 PHE793  MET794  SER795  GLU796  ALA797  LYS798  CYS799  TRP800  GLU811  SER814 

> <Gold.Protein.RotatedAtoms>
  150.7023  134.4551  159.5354 H   0  0  0  0  0  0  0  0  0  0  0  0  # atno 6907 bound_to 6896
  152.2236  134.8386  160.0492 H   0  0  0  0  0  0  0  0  0  0  0  0  # atno 6908 bound_to 6896
  151.9228  133.3555  159.3940 H   0  0  0  0  0  0  0  0  0  0  0  0  # atno 6909 bound_to 6896
  144.7236  140.2607  143.6265 H   0  0  0  0  0  0  0  0  0  0  0  0  # atno 7974 bound_to 7965
  155.0580  140.0393  157.2567 H   0  0  0  0  0  0  0  0  0  0  0  0  # atno 8008 bound_to 7997
  154.7083  140.2687  155.6629 H   0  0  0  0  0  0  0  0  0  0  0  0  # atno 8009 bound_to 7997
  156.2782  140.2727  156.1716 H   0  0  0  0  0  0  0  0  0  0  0  0  # atno 8010 bound_to 7997
  139.7255  143.8890  152.2517 H   0  0  0  0  0  0  0  0  0  0  0  0  # atno 10167 bound_to 10162
  156.9864  130.6025  149.5681 H   0  0  0  0  0  0  0  0  0  0  0  0  # atno 10718 bound_to 10713
  153.0741  135.6598  154.0184 H   0  0  0  0  0  0  0  0  0  0  0  0  # atno 10763 bound_to 10752
  153.9823  135.2954  155.3420 H   0  0  0  0  0  0  0  0  0  0  0  0  # atno 10764 bound_to 10752
  154.7124  135.5199  153.8756 H   0  0  0  0  0  0  0  0  0  0  0  0  # atno 10765 bound_to 10752
  141.1660  133.7277  156.8668 H   0  0  0  0  0  0  0  0  0  0  0  0  # atno 11005 bound_to 11000
  145.8138  139.2014  143.1977 LP  0  0  0  0  0  0  0  0  0  0  0  0  # atno 17320 bound_to 7965
  146.0573  140.8008  142.9752 LP  0  0  0  0  0  0  0  0  0  0  0  0  # atno 17321 bound_to 7965
  139.8798  144.7023  150.8890 LP  0  0  0  0  0  0  0  0  0  0  0  0  # atno 17342 bound_to 10162
  140.7762  143.3670  151.1720 LP  0  0  0  0  0  0  0  0  0  0  0  0  # atno 17343 bound_to 10162
  156.0224  130.5319  150.8313 LP  0  0  0  0  0  0  0  0  0  0  0  0  # atno 17370 bound_to 10713
  157.5490  131.0943  150.9722 LP  0  0  0  0  0  0  0  0  0  0  0  0  # atno 17371 bound_to 10713
  140.1810  134.9033  157.2948 LP  0  0  0  0  0  0  0  0  0  0  0  0  # atno 17394 bound_to 11000
  140.2395  134.3812  155.7486 LP  0  0  0  0  0  0  0  0  0  0  0  0  # atno 17395 bound_to 11000

$$$$
