AV-unprocessed.smi:2655|AV-procd|sdf|10300|dock5
  -GOLD-   2272014313D 1   1.00000     0.00000
 Structure written by MMmdl.
 34 35  0  0  0  0  0  0  0  0  1 V2000
  148.6981  141.8956  154.3196 C   0  0  0  0  0  0  0  0  0  0  0  0
  149.3116  140.5272  154.2354 C   0  0  0  0  0  0  0  0  0  0  0  0
  150.6335  140.4219  154.1432 N   0  0  0  0  0  0  0  0  0  0  0  0
  150.8612  139.0958  154.0972 N   0  0  0  0  0  0  0  0  0  0  0  0
  149.6941  138.3798  154.1614 C   0  0  0  0  0  0  0  0  0  0  0  0
  149.7059  137.0201  154.1374 O   0  0  0  0  0  0  0  0  0  0  0  0
  148.6530  139.2576  154.2495 C   0  0  0  0  0  0  0  0  0  0  0  0
  147.1801  138.9653  154.3464 C   0  0  0  0  0  0  0  0  0  0  0  0
  146.5661  138.7125  152.9599 C   0  0  0  0  0  0  0  0  0  0  0  0
  146.8377  137.3596  152.4881 N   0  0  0  0  0  0  0  0  0  0  0  0
  145.9268  136.3789  152.4042 C   0  0  0  0  0  0  0  0  0  0  0  0
  144.7467  136.5196  152.7267 O   0  0  0  0  0  0  0  0  0  0  0  0
  146.4707  135.2442  151.9314 N   0  0  0  0  0  0  0  0  0  0  0  0
  145.8233  134.0010  151.7140 C   0  0  0  0  0  0  0  0  0  0  0  0
  146.4762  132.7758  152.0144 C   0  0  0  0  0  0  0  0  0  0  0  0
  145.5411  131.8380  151.6772 C   0  0  0  0  0  0  0  0  0  0  0  0
  145.5325  130.3487  151.7284 C   0  0  0  0  0  0  0  0  0  0  0  0
  144.4144  132.4395  151.2078 O   0  0  0  0  0  0  0  0  0  0  0  0
  144.6015  133.8266  151.2342 N   0  0  0  0  0  0  0  0  0  0  0  0
  147.6270  141.8659  154.1212 H   0  0  0  0  0  0  0  0  0  0  0  0
  149.1472  142.5759  153.5954 H   0  0  0  0  0  0  0  0  0  0  0  0
  148.8387  142.3247  155.3120 H   0  0  0  0  0  0  0  0  0  0  0  0
  151.7920  138.7102  154.0260 H   0  0  0  0  0  0  0  0  0  0  0  0
  146.6610  139.7940  154.8294 H   0  0  0  0  0  0  0  0  0  0  0  0
  147.0028  138.0990  154.9844 H   0  0  0  0  0  0  0  0  0  0  0  0
  145.4896  138.8917  152.9805 H   0  0  0  0  0  0  0  0  0  0  0  0
  146.9829  139.4123  152.2351 H   0  0  0  0  0  0  0  0  0  0  0  0
  147.7854  137.1583  152.2039 H   0  0  0  0  0  0  0  0  0  0  0  0
  147.4544  135.2710  151.7071 H   0  0  0  0  0  0  0  0  0  0  0  0
  147.4655  132.6087  152.4135 H   0  0  0  0  0  0  0  0  0  0  0  0
  146.4081  129.9710  152.2569 H   0  0  0  0  0  0  0  0  0  0  0  0
  145.5363  129.9285  150.7226 H   0  0  0  0  0  0  0  0  0  0  0  0
  144.6440  129.9845  152.2445 H   0  0  0  0  0  0  0  0  0  0  0  0
  149.4684  136.7444  153.2652 H   0  0  0  0  0  0  0  0  0  0  0  0
  1 20  1  0  0  0  0
  1 21  1  0  0  0  0
  1 22  1  0  0  0  0
  1  2  1  0  0  0  0
  2  7  1  0  0  0  0
  2  3  2  0  0  0  0
  3  4  1  0  0  0  0
  4 23  1  0  0  0  0
  4  5  1  0  0  0  0
  5  7  2  0  0  0  0
  5  6  1  0  0  0  0
  6 34  1  0  0  0  0
  7  8  1  0  0  0  0
  8  9  1  0  0  0  0
  8 24  1  0  0  0  0
  8 25  1  0  0  0  0
  9 10  1  0  0  0  0
  9 26  1  0  0  0  0
  9 27  1  0  0  0  0
 10 11  1  0  0  0  0
 10 28  1  0  0  0  0
 11 12  2  0  0  0  0
 11 13  1  0  0  0  0
 13 14  1  0  0  0  0
 13 29  1  0  0  0  0
 14 19  2  0  0  0  0
 14 15  1  0  0  0  0
 15 16  2  0  0  0  0
 15 30  1  0  0  0  0
 16 17  1  0  0  0  0
 16 18  1  0  0  0  0
 17 31  1  0  0  0  0
 17 32  1  0  0  0  0
 17 33  1  0  0  0  0
 18 19  1  0  0  0  0
M  END
> <s_m_source_file>
AV-unprocessed.smi

> <i_m_source_file_index>
2655

> <i_lp_mmshare_version>
43012

> <i_f3d_flags>
0

> <s_epik_input>
W0NIM11DMT1OW05IXUMoPU8pW0NASF0xW0NIMl1bQ0gyXVtOSF1DKD1PKVtOSF1jMltjSF1jKFtDSDNdKW9uMg==

> <s_epik_cmdline>
J2VwaWtfcHl0aG9uJywgJy1waCcsICc3LjAnLCAnLXRuJywgJzgnLCAnLW1hJywgJzIwMCcsICctbWV0YWxfYmluZGluZycsICctaW1hZScsICc8aW5maWxlLm1hZT4nLCAnLW9tYWUnLCAnPG91dGZpbGUubWFlPic=

> <r_lp_tautomer_probability>
0.0227396

> <r_epik_Ionization_Penalty>
3.51829

> <r_epik_Ionization_Penalty_Charging>
0

> <r_epik_Ionization_Penalty_Neutral>
3.51829

> <r_epik_State_Penalty>
1.61027

> <r_epik_Charging_Adjusted_Penalty>
1.61027

> <i_epik_Tot_Q>
0

> <i_epik_Tot_abs_Q>
0

> <r_epik_Metal_State_Penalty>
3.01397

> <b_epik_Metal_Only>
0

> <s_lp_Force_Field>
OPLS_2005

> <r_lp_Energy>
-1.25166

> <b_lp_Chiralities_Consistent>
1

> <s_lp_Variant>
AV-unprocessed.smi:2655-3

> <Gold.Version>
5.8.1

> <Gold.Id.Protein>
6NUR|6NUR_protein|mol2

> <Gold.PLP.Fitness>
38.3974

> <Gold.PLP.PLP>
-28.0603

> <Gold.PLP.part.hbond>
-3.8298

> <Gold.PLP.part.metal>
0.0000

> <Gold.PLP.part.buried>
-3.7921

> <Gold.PLP.part.nonpolar>
-21.3911

> <Gold.PLP.part.repulsive>
0.8012

> <Gold.PLP.ligand.clash>
0.0000

> <Gold.PLP.ligand.torsion>
0.7776

> <Gold.PLP.Chemscore.Hbond>
3.9600

> <Gold.PLP.Chemscore.CHOScore>
0.0000

> <Gold.PLP.Chemscore.Metal>
0.0000

> <Gold.Chemscore.Hbonds>
donor molecule, donor type, donor heavy atom, donor atom, acceptor molecule, acceptor atom, score
      L1  H     6    34       P1  7948  1.00
      L1  H    10    28       P1  7948  0.96
      L1  H    13    29       P1  7948  0.93
      P1  H  7989  7998       L1     3  0.34

> <Gold.PLP.Chemscore.Internal.Correction>
0.0122

> <Gold.Rescore>
     Score         DG    S(hbond)    S(metal)    S(lipo)     H(rot)  DE(clash)    DE(int)     intcor
     17.22     -18.06       3.82        0.00      54.00       2.53       0.16       0.68       ----

> <Gold.Chemscore.Fitness>
17.2240

> <Gold.Chemscore.DG>
-18.0646

> <Gold.Chemscore.ZeroCoef>
-5.4800

> <Gold.Chemscore.Hbond>
3.8167

> <Gold.Chemscore.Metal>
0.0000

> <Gold.Chemscore.Lipo>
54.0033

> <Gold.Chemscore.Internal_Hbond>
0.0000

> <Gold.Chemscore.DEClash>
0.1615

> <Gold.Chemscore.DEInternal>
0.6790

> <Gold.Chemscore.Rot>
2.5318

> <Gold.Chemscore.Internal.Correction>
   9.000000E+99

> <Gold.Chemscore.Hbonds>
donor molecule, donor type, donor heavy atom, donor atom, acceptor molecule, acceptor atom, score
      L1  H     6    34       P1  7948  0.75
      L1  H    10    28       P1  7948  0.89
      L1  H    13    29       P1  7948  0.83
      P1  H  7989  7998       L1     3  0.11

> <Gold.Chemscore.Hbond.Weighted>
-12.7477

> <Gold.Chemscore.Metal.Weighted>
-0.0000

> <Gold.Chemscore.Lipo.Weighted>
-6.3184

> <Gold.Chemscore.Internal_Hbond.Weighted>
0.0000

> <Gold.Chemscore.DEClash.Weighted>
0.1615

> <Gold.Chemscore.DEInternal.Weighted>
0.6790

> <Gold.Chemscore.Rot.Weighted>
6.4815

> <Gold.Chemscore.Internal.Correction.Weighted>
   9.000000E+99

> <Gold.Protein.RotatedTorsions>
[ 6907 6896 6895 6894 ] final -160.14 input  -60.11 | X-H torsion
[ 7974 7965 7964 7962 ] final  134.20 input  175.53 | X-H torsion
[ 8008 7997 7996 7995 ] final  -43.44 input   59.86 | X-H torsion
[ 10167 10162 10161 10158 ] final -152.60 input  -65.29 | X-H torsion
[ 10718 10713 10712 10709 ] final   13.48 input   66.30 | X-H torsion
[ 10763 10752 10751 10750 ] final  161.44 input  -60.55 | X-H torsion
[ 11005 11000 10999 10996 ] final  114.19 input  -57.11 | X-H torsion

> <Gold.Protein.ActiveResidues>
 VAL166  LYS551  ARG553  GLY616  TRP617  ASP618  TYR619  PRO620  LYS621  CYS622 
 ASP623  PHE694  ASN695  SER759  ASP760  ASP761  ALA762  ILE779  LEU786  VAL792 
 PHE793  MET794  SER795  GLU796  ALA797  LYS798  CYS799  TRP800  GLU811  SER814 

> <Gold.Protein.RotatedAtoms>
  151.3445  133.3949  159.2674 H   0  0  0  0  0  0  0  0  0  0  0  0  # atno 6907 bound_to 6896
  150.9851  134.9199  159.7877 H   0  0  0  0  0  0  0  0  0  0  0  0  # atno 6908 bound_to 6896
  152.5229  134.3409  159.9269 H   0  0  0  0  0  0  0  0  0  0  0  0  # atno 6909 bound_to 6896
  144.9788  139.4526  143.5396 H   0  0  0  0  0  0  0  0  0  0  0  0  # atno 7974 bound_to 7965
  154.3997  140.1447  156.3520 H   0  0  0  0  0  0  0  0  0  0  0  0  # atno 8008 bound_to 7997
  155.8260  140.3467  155.5522 H   0  0  0  0  0  0  0  0  0  0  0  0  # atno 8009 bound_to 7997
  155.8238  140.0902  157.1824 H   0  0  0  0  0  0  0  0  0  0  0  0  # atno 8010 bound_to 7997
  139.7168  143.9021  152.2489 H   0  0  0  0  0  0  0  0  0  0  0  0  # atno 10167 bound_to 10162
  157.0253  130.6171  149.5727 H   0  0  0  0  0  0  0  0  0  0  0  0  # atno 10718 bound_to 10713
  154.2629  135.2768  155.2770 H   0  0  0  0  0  0  0  0  0  0  0  0  # atno 10763 bound_to 10752
  154.5368  135.5714  153.6809 H   0  0  0  0  0  0  0  0  0  0  0  0  # atno 10764 bound_to 10752
  152.9959  135.6241  154.2780 H   0  0  0  0  0  0  0  0  0  0  0  0  # atno 10765 bound_to 10752
  139.8973  134.9563  156.6854 H   0  0  0  0  0  0  0  0  0  0  0  0  # atno 11005 bound_to 11000
  146.3402  139.9047  142.8789 LP  0  0  0  0  0  0  0  0  0  0  0  0  # atno 17320 bound_to 7965
  145.2451  141.0023  143.3913 LP  0  0  0  0  0  0  0  0  0  0  0  0  # atno 17321 bound_to 7965
  139.8905  144.6968  150.8775 LP  0  0  0  0  0  0  0  0  0  0  0  0  # atno 17342 bound_to 10162
  140.7745  143.3590  151.1865 LP  0  0  0  0  0  0  0  0  0  0  0  0  # atno 17343 bound_to 10162
  156.0088  130.5178  150.7920 LP  0  0  0  0  0  0  0  0  0  0  0  0  # atno 17370 bound_to 10713
  157.5219  131.0932  151.0068 LP  0  0  0  0  0  0  0  0  0  0  0  0  # atno 17371 bound_to 10713
  140.7266  133.9094  155.8183 LP  0  0  0  0  0  0  0  0  0  0  0  0  # atno 17394 bound_to 11000
  141.0186  134.0921  157.4145 LP  0  0  0  0  0  0  0  0  0  0  0  0  # atno 17395 bound_to 11000

$$$$
