AV-unprocessed.smi:1522|AV-procd|sdf|6135|dock9
  -GOLD-   22720 6283D 1   1.00000     0.00000
 Structure written by MMmdl.
 35 36  0  0  0  0  0  0  0  0  2 V2000
  147.0220  140.8821  153.6011 C   0  0  0  0  0  0  0  0  0  0  0  0
  147.4661  139.4219  153.8446 C   0  0  1  0  0  0  0  0  0  0  0  0
  146.8142  138.4677  152.8151 C   0  0  0  0  0  0  0  0  0  0  0  0
  145.3574  138.5616  152.8252 N   0  0  0  0  0  0  0  0  0  0  0  0
  144.5323  137.5980  153.2583 C   0  0  0  0  0  0  0  0  0  0  0  0
  144.9262  136.5236  153.7121 O   0  0  0  0  0  0  0  0  0  0  0  0
  143.2446  137.9630  153.1284 N   0  0  0  0  0  0  0  0  0  0  0  0
  142.0817  137.2123  153.4467 C   0  0  0  0  0  0  0  0  0  0  0  0
  142.1132  135.9615  153.9329 N   0  0  0  0  0  0  0  0  0  0  0  0
  140.8381  135.4577  154.1541 N   0  0  0  0  0  0  0  0  0  0  0  0
  139.8963  136.3466  153.8260 C   0  0  0  0  0  0  0  0  0  0  0  0
  140.4750  137.8867  153.2143 S   0  0  0  0  0  0  0  0  0  0  0  0
  148.9541  139.3054  153.8153 N   0  3  0  0  0  0  0  0  0  0  0  0
  149.6799  140.2579  154.6838 C   0  0  0  0  0  0  0  0  0  0  0  0
  151.0833  139.6777  154.8725 C   0  0  0  0  0  0  0  0  0  0  0  0
  150.9582  138.1879  154.5446 C   0  0  0  0  0  0  0  0  0  0  0  0
  149.4907  137.9724  154.1666 C   0  0  0  0  0  0  0  0  0  0  0  0
  145.9369  140.9845  153.6133 H   0  0  0  0  0  0  0  0  0  0  0  0
  147.3748  141.2458  152.6355 H   0  0  0  0  0  0  0  0  0  0  0  0
  147.3970  141.5572  154.3702 H   0  0  0  0  0  0  0  0  0  0  0  0
  147.1280  139.1297  154.8402 H   0  0  0  0  0  0  0  0  0  0  0  0
  147.2069  138.6876  151.8206 H   0  0  0  0  0  0  0  0  0  0  0  0
  147.0622  137.4283  153.0301 H   0  0  0  0  0  0  0  0  0  0  0  0
  144.9502  139.4165  152.4750 H   0  0  0  0  0  0  0  0  0  0  0  0
  143.0740  138.8824  152.7485 H   0  0  0  0  0  0  0  0  0  0  0  0
  138.8534  136.0934  153.9453 H   0  0  0  0  0  0  0  0  0  0  0  0
  149.7142  141.2588  154.2525 H   0  0  0  0  0  0  0  0  0  0  0  0
  149.1792  140.3232  155.6512 H   0  0  0  0  0  0  0  0  0  0  0  0
  151.7842  140.1500  154.1829 H   0  0  0  0  0  0  0  0  0  0  0  0
  151.4538  139.8470  155.8840 H   0  0  0  0  0  0  0  0  0  0  0  0
  151.6075  137.9379  153.7045 H   0  0  0  0  0  0  0  0  0  0  0  0
  151.2503  137.5564  155.3843 H   0  0  0  0  0  0  0  0  0  0  0  0
  148.9472  137.5759  155.0259 H   0  0  0  0  0  0  0  0  0  0  0  0
  149.3886  137.2625  153.3452 H   0  0  0  0  0  0  0  0  0  0  0  0
  149.2556  139.4944  152.8699 H   0  0  0  0  0  0  0  0  0  0  0  0
  1  2  1  0  0  0  0
  1 18  1  0  0  0  0
  1 19  1  0  0  0  0
  1 20  1  0  0  0  0
  2  3  1  0  0  0  0
  2 13  1  0  0  0  0
  2 21  1  0  0  0  0
  3  4  1  0  0  0  0
  3 22  1  0  0  0  0
  3 23  1  0  0  0  0
  4  5  1  0  0  0  0
  4 24  1  0  0  0  0
  5  6  2  0  0  0  0
  5  7  1  0  0  0  0
  7  8  1  0  0  0  0
  7 25  1  0  0  0  0
  8 12  1  0  0  0  0
  8  9  2  0  0  0  0
  9 10  1  0  0  0  0
 10 11  2  0  0  0  0
 11 12  1  0  0  0  0
 11 26  1  0  0  0  0
 13 17  1  0  0  0  0
 13 14  1  0  0  0  0
 13 35  1  0  0  0  0
 14 15  1  0  0  0  0
 14 27  1  0  0  0  0
 14 28  1  0  0  0  0
 15 16  1  0  0  0  0
 15 29  1  0  0  0  0
 15 30  1  0  0  0  0
 16 17  1  0  0  0  0
 16 31  1  0  0  0  0
 16 32  1  0  0  0  0
 17 33  1  0  0  0  0
 17 34  1  0  0  0  0
M  CHG  1  13   1
M  END
> <s_m_source_file>
AV-unprocessed.smi

> <i_m_source_file_index>
1522

> <i_lp_mmshare_version>
43012

> <i_f3d_flags>
0

> <s_epik_input>
W0NIMl0xW0NIMl1bQ0gyXVtDSDJdTjFbQ0BIXShbQ0gzXSlbQ0gyXVtOSF1DKD1PKVtOSF1jMm5uW2NIXXMy

> <s_epik_cmdline>
J2VwaWtfcHl0aG9uJywgJy1waCcsICc3LjAnLCAnLXRuJywgJzgnLCAnLW1hJywgJzIwMCcsICctbWV0YWxfYmluZGluZycsICctaW1hZScsICc8aW5maWxlLm1hZT4nLCAnLW9tYWUnLCAnPG91dGZpbGUubWFlPic=

> <r_lp_tautomer_probability>
1

> <r_epik_Ionization_Penalty>
0.00457064

> <r_epik_Ionization_Penalty_Charging>
0.000848324

> <r_epik_Ionization_Penalty_Neutral>
0.00372231

> <r_epik_State_Penalty>
-0

> <r_epik_Charging_Adjusted_Penalty>
0.000848324

> <i_epik_Tot_Q>
1

> <i_epik_Tot_abs_Q>
1

> <r_epik_Metal_State_Penalty>
0.370178

> <b_epik_Metal_Only>
0

> <s_lp_Force_Field>
OPLS_2005

> <r_lp_Energy>
30.6198

> <b_lp_Chiralities_Consistent>
1

> <s_lp_Variant>
AV-unprocessed.smi:1522-2

> <Gold.Version>
5.8.1

> <Gold.Id.Protein>
6NUR|6NUR_protein|mol2

> <Gold.PLP.Fitness>
39.0435

> <Gold.PLP.PLP>
-27.2377

> <Gold.PLP.part.hbond>
-4.0000

> <Gold.PLP.part.metal>
0.0000

> <Gold.PLP.part.buried>
0.2491

> <Gold.PLP.part.nonpolar>
-23.9795

> <Gold.PLP.part.repulsive>
0.4002

> <Gold.PLP.ligand.clash>
0.0000

> <Gold.PLP.ligand.torsion>
0.0763

> <Gold.PLP.Chemscore.Hbond>
3.9760

> <Gold.PLP.Chemscore.CHOScore>
0.0000

> <Gold.PLP.Chemscore.Metal>
0.0000

> <Gold.Chemscore.Hbonds>
donor molecule, donor type, donor heavy atom, donor atom, acceptor molecule, acceptor atom, score
      L1  H     4    24       P1 10175  0.98
      L1  H     7    25       P1 10175  0.99
      L1  H    13    35       P1  7957  1.00
      P1  H 11000 11005       L1    10  0.98

> <Gold.PLP.Chemscore.Internal.Correction>
0.0304

> <Gold.Rescore>
     Score         DG    S(hbond)    S(metal)    S(lipo)     H(rot)  DE(clash)    DE(int)     intcor
     18.91     -20.35       3.70        0.00      58.77       1.70       0.07       1.37       ----

> <Gold.Chemscore.Fitness>
18.9142

> <Gold.Chemscore.DG>
-20.3503

> <Gold.Chemscore.ZeroCoef>
-5.4800

> <Gold.Chemscore.Hbond>
3.6987

> <Gold.Chemscore.Metal>
0.0000

> <Gold.Chemscore.Lipo>
58.7678

> <Gold.Chemscore.Internal_Hbond>
0.0000

> <Gold.Chemscore.DEClash>
0.0688

> <Gold.Chemscore.DEInternal>
1.3673

> <Gold.Chemscore.Rot>
1.7028

> <Gold.Chemscore.Internal.Correction>
   9.000000E+99

> <Gold.Chemscore.Hbonds>
donor molecule, donor type, donor heavy atom, donor atom, acceptor molecule, acceptor atom, score
      L1  H     4    24       P1 10175  0.93
      L1  H     7    25       P1 10175  0.93
      L1  H    13    35       P1  7957  1.00
      P1  H 11000 11005       L1    10  0.76

> <Gold.Chemscore.Hbond.Weighted>
-12.3536

> <Gold.Chemscore.Metal.Weighted>
-0.0000

> <Gold.Chemscore.Lipo.Weighted>
-6.8758

> <Gold.Chemscore.Internal_Hbond.Weighted>
0.0000

> <Gold.Chemscore.DEClash.Weighted>
0.0688

> <Gold.Chemscore.DEInternal.Weighted>
1.3673

> <Gold.Chemscore.Rot.Weighted>
4.3592

> <Gold.Chemscore.Internal.Correction.Weighted>
   9.000000E+99

> <Gold.Protein.RotatedTorsions>
[ 6907 6896 6895 6894 ] final  -84.14 input  -60.11 | X-H torsion
[ 7974 7965 7964 7962 ] final  156.76 input  175.53 | X-H torsion
[ 8008 7997 7996 7995 ] final   96.74 input   59.86 | X-H torsion
[ 10167 10162 10161 10158 ] final -112.57 input  -65.29 | X-H torsion
[ 10718 10713 10712 10709 ] final   18.42 input   66.30 | X-H torsion
[ 10763 10752 10751 10750 ] final -153.70 input  -60.55 | X-H torsion
[ 11005 11000 10999 10996 ] final   25.87 input  -57.11 | X-H torsion

> <Gold.Protein.ActiveResidues>
 VAL166  LYS551  ARG553  GLY616  TRP617  ASP618  TYR619  PRO620  LYS621  CYS622 
 ASP623  PHE694  ASN695  SER759  ASP760  ASP761  ALA762  ILE779  LEU786  VAL792 
 PHE793  MET794  SER795  GLU796  ALA797  LYS798  CYS799  TRP800  GLU811  SER814 

> <Gold.Protein.RotatedAtoms>
  150.6879  134.3404  159.4865 H   0  0  0  0  0  0  0  0  0  0  0  0  # atno 6907 bound_to 6896
  152.1258  134.9169  160.0570 H   0  0  0  0  0  0  0  0  0  0  0  0  # atno 6908 bound_to 6896
  152.0358  133.3921  159.4353 H   0  0  0  0  0  0  0  0  0  0  0  0  # atno 6909 bound_to 6896
  144.7943  139.7248  143.6208 H   0  0  0  0  0  0  0  0  0  0  0  0  # atno 7974 bound_to 7965
  156.0828  140.3268  155.7715 H   0  0  0  0  0  0  0  0  0  0  0  0  # atno 8008 bound_to 7997
  155.5125  140.0578  157.2938 H   0  0  0  0  0  0  0  0  0  0  0  0  # atno 8009 bound_to 7997
  154.4592  140.1958  156.0310 H   0  0  0  0  0  0  0  0  0  0  0  0  # atno 8010 bound_to 7997
  140.1213  143.4441  152.1689 H   0  0  0  0  0  0  0  0  0  0  0  0  # atno 10167 bound_to 10162
  157.0960  130.6448  149.5860 H   0  0  0  0  0  0  0  0  0  0  0  0  # atno 10718 bound_to 10713
  154.7910  135.3207  154.7778 H   0  0  0  0  0  0  0  0  0  0  0  0  # atno 10763 bound_to 10752
  153.8467  135.6866  153.4801 H   0  0  0  0  0  0  0  0  0  0  0  0  # atno 10764 bound_to 10752
  153.1580  135.4672  154.9672 H   0  0  0  0  0  0  0  0  0  0  0  0  # atno 10765 bound_to 10752
  140.3431  134.2311  155.7688 H   0  0  0  0  0  0  0  0  0  0  0  0  # atno 11005 bound_to 11000
  146.2206  139.5629  142.9620 LP  0  0  0  0  0  0  0  0  0  0  0  0  # atno 17320 bound_to 7965
  145.5713  141.0394  143.2173 LP  0  0  0  0  0  0  0  0  0  0  0  0  # atno 17321 bound_to 7965
  139.5567  144.7378  151.4273 LP  0  0  0  0  0  0  0  0  0  0  0  0  # atno 17342 bound_to 10162
  140.6870  143.7950  150.7201 LP  0  0  0  0  0  0  0  0  0  0  0  0  # atno 17343 bound_to 10162
  155.9885  130.4929  150.7175 LP  0  0  0  0  0  0  0  0  0  0  0  0  # atno 17370 bound_to 10713
  157.4681  131.0890  151.0673 LP  0  0  0  0  0  0  0  0  0  0  0  0  # atno 17371 bound_to 10713
  141.2033  133.7916  157.0347 LP  0  0  0  0  0  0  0  0  0  0  0  0  # atno 17394 bound_to 11000
  140.0764  134.9673  157.1553 LP  0  0  0  0  0  0  0  0  0  0  0  0  # atno 17395 bound_to 11000

$$$$
