AV-unprocessed.smi:2375|AV-procd|sdf|9443|dock8
  -GOLD-   2272013 73D 1   1.00000     0.00000
 Structure written by MMmdl.
 37 38  0  0  0  0  0  0  0  0  1 V2000
  145.5497  136.2275  152.7906 C   0  0  0  0  0  0  0  0  0  0  0  0
  146.1332  137.5993  152.7752 C   0  0  0  0  0  0  0  0  0  0  0  0
  146.1746  138.4830  151.7256 C   0  0  0  0  0  0  0  0  0  0  0  0
  146.7782  139.7026  152.0383 N   0  0  0  0  0  0  0  0  0  0  0  0
  147.1902  139.7584  153.3081 C   0  0  0  0  0  0  0  0  0  0  0  0
  147.8325  140.9648  153.9243 C   0  0  1  0  0  0  0  0  0  0  0  0
  146.9451  142.2128  153.8191 C   0  0  0  0  0  0  0  0  0  0  0  0
  148.3464  140.7108  155.3585 C   0  0  0  0  0  0  0  0  0  0  0  0
  149.0171  141.8766  155.9250 N   0  0  0  0  0  0  0  0  0  0  0  0
  150.1905  141.8576  156.5778 C   0  0  0  0  0  0  0  0  0  0  0  0
  150.8834  140.8489  156.6977 O   0  0  0  0  0  0  0  0  0  0  0  0
  150.5575  143.0414  157.1001 N   0  0  0  0  0  0  0  0  0  0  0  0
  151.7703  143.3476  157.8619 C   0  0  0  0  0  0  0  0  0  0  0  0
  151.9284  142.4200  159.0908 C   0  0  0  0  0  0  0  0  0  0  0  0
  152.3385  143.3580  160.1941 C   0  0  0  0  0  0  0  0  0  0  0  0
  152.2638  144.6361  159.8284 C   0  0  0  0  0  0  0  0  0  0  0  0
  151.7882  144.7976  158.4114 C   0  0  0  0  0  0  0  0  0  0  0  0
  146.8724  138.2760  154.2023 S   0  0  0  0  0  0  0  0  0  0  0  0
  145.2347  135.9236  151.7920 H   0  0  0  0  0  0  0  0  0  0  0  0
  144.6790  136.1873  153.4452 H   0  0  0  0  0  0  0  0  0  0  0  0
  146.2781  135.5005  153.1497 H   0  0  0  0  0  0  0  0  0  0  0  0
  145.7927  138.3305  150.7270 H   0  0  0  0  0  0  0  0  0  0  0  0
  148.7146  141.1738  153.3177 H   0  0  0  0  0  0  0  0  0  0  0  0
  146.6837  142.4215  152.7813 H   0  0  0  0  0  0  0  0  0  0  0  0
  147.4563  143.0908  154.2146 H   0  0  0  0  0  0  0  0  0  0  0  0
  146.0177  142.0877  154.3786 H   0  0  0  0  0  0  0  0  0  0  0  0
  147.5332  140.3827  156.0080 H   0  0  0  0  0  0  0  0  0  0  0  0
  149.0749  139.8995  155.3451 H   0  0  0  0  0  0  0  0  0  0  0  0
  148.5240  142.7556  155.8672 H   0  0  0  0  0  0  0  0  0  0  0  0
  149.9562  143.8274  156.8994 H   0  0  0  0  0  0  0  0  0  0  0  0
  152.6466  143.2022  157.2274 H   0  0  0  0  0  0  0  0  0  0  0  0
  150.9939  141.9299  159.3679 H   0  0  0  0  0  0  0  0  0  0  0  0
  152.6865  141.6537  158.9259 H   0  0  0  0  0  0  0  0  0  0  0  0
  152.6331  143.0055  161.1715 H   0  0  0  0  0  0  0  0  0  0  0  0
  152.4869  145.4825  160.4616 H   0  0  0  0  0  0  0  0  0  0  0  0
  152.4581  145.4413  157.8408 H   0  0  0  0  0  0  0  0  0  0  0  0
  150.7961  145.2497  158.4230 H   0  0  0  0  0  0  0  0  0  0  0  0
  1  2  1  0  0  0  0
  1 19  1  0  0  0  0
  1 20  1  0  0  0  0
  1 21  1  0  0  0  0
  2 18  1  0  0  0  0
  2  3  2  0  0  0  0
  3  4  1  0  0  0  0
  3 22  1  0  0  0  0
  4  5  2  0  0  0  0
  5  6  1  0  0  0  0
  5 18  1  0  0  0  0
  6  7  1  0  0  0  0
  6  8  1  0  0  0  0
  6 23  1  0  0  0  0
  7 24  1  0  0  0  0
  7 25  1  0  0  0  0
  7 26  1  0  0  0  0
  8  9  1  0  0  0  0
  8 27  1  0  0  0  0
  8 28  1  0  0  0  0
  9 10  1  0  0  0  0
  9 29  1  0  0  0  0
 10 11  2  0  0  0  0
 10 12  1  0  0  0  0
 12 13  1  0  0  0  0
 12 30  1  0  0  0  0
 13 17  1  0  0  0  0
 13 14  1  0  0  0  0
 13 31  1  0  0  0  0
 14 15  1  0  0  0  0
 14 32  1  0  0  0  0
 14 33  1  0  0  0  0
 15 16  2  0  0  0  0
 15 34  1  0  0  0  0
 16 17  1  0  0  0  0
 16 35  1  0  0  0  0
 17 36  1  0  0  0  0
 17 37  1  0  0  0  0
M  END
> <s_m_source_file>
AV-unprocessed.smi

> <i_m_source_file_index>
2375

> <i_lp_mmshare_version>
43012

> <i_f3d_flags>
0

> <s_epik_input>
W0NIM11jMVtjSF1uYyhzMSlbQ0BIXShbQ0gzXSlbQ0gyXVtOSF1DKD1PKVtOSF1bQ0hdMltDSDJdW0NIXT1bQ0hdW0NIMl0y

> <s_epik_cmdline>
J2VwaWtfcHl0aG9uJywgJy1waCcsICc3LjAnLCAnLXRuJywgJzgnLCAnLW1hJywgJzIwMCcsICctbWV0YWxfYmluZGluZycsICctaW1hZScsICc8aW5maWxlLm1hZT4nLCAnLW9tYWUnLCAnPG91dGZpbGUubWFlPic=

> <r_epik_Ionization_Penalty>
0.000644205

> <r_epik_Ionization_Penalty_Charging>
0

> <r_epik_Ionization_Penalty_Neutral>
0.000644205

> <r_epik_State_Penalty>
0.000370883

> <r_epik_Charging_Adjusted_Penalty>
0.000370883

> <i_epik_Tot_Q>
0

> <i_epik_Tot_abs_Q>
0

> <r_epik_Metal_State_Penalty>
-0

> <b_epik_Metal_Only>
0

> <s_lp_Force_Field>
OPLS_2005

> <r_lp_Energy>
15.8173

> <b_lp_Chiralities_Consistent>
1

> <s_lp_Variant>
AV-unprocessed.smi:2375-2

> <Gold.Version>
5.8.1

> <Gold.Id.Protein>
6NUR|6NUR_protein|mol2

> <Gold.PLP.Fitness>
44.2051

> <Gold.PLP.PLP>
-35.9724

> <Gold.PLP.part.hbond>
-2.0000

> <Gold.PLP.part.metal>
0.0000

> <Gold.PLP.part.buried>
-4.2882

> <Gold.PLP.part.nonpolar>
-32.3081

> <Gold.PLP.part.repulsive>
1.9547

> <Gold.PLP.ligand.clash>
0.0000

> <Gold.PLP.ligand.torsion>
0.1739

> <Gold.PLP.Chemscore.Hbond>
1.8240

> <Gold.PLP.Chemscore.CHOScore>
1.0000

> <Gold.PLP.Chemscore.Metal>
0.0000

> <Gold.Chemscore.Hbonds>
donor molecule, donor type, donor heavy atom, donor atom, acceptor molecule, acceptor atom, score
      L1  H     9    29       P1  8028  0.83
      L1  H    12    30       P1  8028  0.98
      L1  C     3    22       P1 10171  1.00

> <Gold.PLP.Chemscore.Internal.Correction>
0.1084

> <Gold.Rescore>
     Score         DG    S(hbond)    S(metal)    S(lipo)     H(rot)  DE(clash)    DE(int)     intcor
     18.85     -20.65       1.86        0.00     109.47       1.50       1.64       0.16       ----

> <Gold.Chemscore.Fitness>
18.8492

> <Gold.Chemscore.DG>
-20.6488

> <Gold.Chemscore.ZeroCoef>
-5.4800

> <Gold.Chemscore.Hbond>
1.8574

> <Gold.Chemscore.Metal>
0.0000

> <Gold.Chemscore.Lipo>
109.4710

> <Gold.Chemscore.Internal_Hbond>
0.0000

> <Gold.Chemscore.DEClash>
1.6383

> <Gold.Chemscore.DEInternal>
0.1612

> <Gold.Chemscore.Rot>
1.5012

> <Gold.Chemscore.Internal.Correction>
   9.000000E+99

> <Gold.Chemscore.Hbonds>
donor molecule, donor type, donor heavy atom, donor atom, acceptor molecule, acceptor atom, score
      L1  H     9    29       P1  8028  0.78
      L1  H    12    30       P1  8028  0.92

> <Gold.Chemscore.Hbond.Weighted>
-6.2036

> <Gold.Chemscore.Metal.Weighted>
-0.0000

> <Gold.Chemscore.Lipo.Weighted>
-12.8081

> <Gold.Chemscore.Internal_Hbond.Weighted>
0.0000

> <Gold.Chemscore.DEClash.Weighted>
1.6383

> <Gold.Chemscore.DEInternal.Weighted>
0.1612

> <Gold.Chemscore.Rot.Weighted>
3.8429

> <Gold.Chemscore.Internal.Correction.Weighted>
   9.000000E+99

> <Gold.Protein.RotatedTorsions>
[ 6907 6896 6895 6894 ] final  171.11 input  -60.11 | X-H torsion
[ 7974 7965 7964 7962 ] final  144.96 input  175.53 | X-H torsion
[ 8008 7997 7996 7995 ] final  -99.40 input   59.86 | X-H torsion
[ 10167 10162 10161 10158 ] final   44.31 input  -65.29 | X-H torsion
[ 10718 10713 10712 10709 ] final -120.99 input   66.30 | X-H torsion
[ 10763 10752 10751 10750 ] final   22.26 input  -60.55 | X-H torsion
[ 11005 11000 10999 10996 ] final  101.20 input  -57.11 | X-H torsion

> <Gold.Protein.ActiveResidues>
 VAL166  LYS551  ARG553  GLY616  TRP617  ASP618  TYR619  PRO620  LYS621  CYS622 
 ASP623  PHE694  ASN695  SER759  ASP760  ASP761  ALA762  ILE779  LEU786  VAL792 
 PHE793  MET794  SER795  GLU796  ALA797  LYS798  CYS799  TRP800  GLU811  SER814 

> <Gold.Protein.RotatedAtoms>
  151.8054  133.3375  159.3539 H   0  0  0  0  0  0  0  0  0  0  0  0  # atno 6907 bound_to 6896
  150.7344  134.5714  159.5901 H   0  0  0  0  0  0  0  0  0  0  0  0  # atno 6908 bound_to 6896
  152.3113  134.7495  160.0387 H   0  0  0  0  0  0  0  0  0  0  0  0  # atno 6909 bound_to 6896
  144.8792  139.5725  143.5850 H   0  0  0  0  0  0  0  0  0  0  0  0  # atno 7974 bound_to 7965
  154.8143  140.0448  157.1365 H   0  0  0  0  0  0  0  0  0  0  0  0  # atno 8008 bound_to 7997
  154.9333  140.3042  155.5137 H   0  0  0  0  0  0  0  0  0  0  0  0  # atno 8009 bound_to 7997
  156.2974  140.2319  156.4395 H   0  0  0  0  0  0  0  0  0  0  0  0  # atno 8010 bound_to 7997
  140.3356  144.2534  150.6162 H   0  0  0  0  0  0  0  0  0  0  0  0  # atno 10167 bound_to 10162
  156.1301  130.6389  150.9608 H   0  0  0  0  0  0  0  0  0  0  0  0  # atno 10718 bound_to 10713
  153.0929  135.6652  153.9818 H   0  0  0  0  0  0  0  0  0  0  0  0  # atno 10763 bound_to 10752
  153.9410  135.2994  155.3444 H   0  0  0  0  0  0  0  0  0  0  0  0  # atno 10764 bound_to 10752
  154.7346  135.5107  153.9093 H   0  0  0  0  0  0  0  0  0  0  0  0  # atno 10765 bound_to 10752
  139.8772  134.9173  156.4871 H   0  0  0  0  0  0  0  0  0  0  0  0  # atno 11005 bound_to 11000
  146.2983  139.7347  142.9110 LP  0  0  0  0  0  0  0  0  0  0  0  0  # atno 17320 bound_to 7965
  145.3985  141.0382  143.3084 LP  0  0  0  0  0  0  0  0  0  0  0  0  # atno 17321 bound_to 7965
  140.5357  143.2234  151.8167 LP  0  0  0  0  0  0  0  0  0  0  0  0  # atno 17342 bound_to 10162
  139.4849  144.4664  151.9478 LP  0  0  0  0  0  0  0  0  0  0  0  0  # atno 17343 bound_to 10162
  157.6480  131.0901  150.8112 LP  0  0  0  0  0  0  0  0  0  0  0  0  # atno 17370 bound_to 10713
  156.8198  130.4980  149.5344 LP  0  0  0  0  0  0  0  0  0  0  0  0  # atno 17371 bound_to 10713
  140.8685  133.8006  155.9340 LP  0  0  0  0  0  0  0  0  0  0  0  0  # atno 17394 bound_to 11000
  140.8976  134.2418  157.5059 LP  0  0  0  0  0  0  0  0  0  0  0  0  # atno 17395 bound_to 11000

$$$$
