#       Name:                AV-unprocessed.smi:1873
#       Creating user name   scv26
#       Creation time:       Fri Mar 27 09:33:08 2020


#       File generated by GOLD software.
#

@<TRIPOS>MOLECULE
AV-unprocessed.smi:1873
    41    43     1
SMALL
NO_CHARGES


@<TRIPOS>ATOM
      1 ****        -0.5675  -1.2175   0.9189 O.3            1 S1                 0.0000
      2 ****        -0.0855  -0.9012  -0.3734 C.3            1 S1                 0.0000
      3 ****        -0.7138   0.4159  -0.8706 C.3            1 S1                 0.0000
      4 ****        -2.1829   0.3762  -0.8995 N.pl3          1 S1                 0.0000
      5 ****        -3.0194  -0.1015  -1.8604 C.2            1 S1                 0.0000
      6 ****        -4.2962   0.0880  -1.4263 N.pl3          1 S1                 1.0000
      7 ****        -4.2763   0.6948  -0.1689 C.ar           1 S1                 0.0000
      8 ****        -5.3154   1.0832   0.6711 C.ar           1 S1                 0.0000
      9 ****        -4.9499   1.6766   1.8973 C.ar           1 S1                 0.0000
     10 ****        -3.5971   1.8626   2.2487 C.ar           1 S1                 0.0000
     11 ****        -2.5519   1.4654   1.3891 C.ar           1 S1                 0.0000
     12 ****        -2.9210   0.8819   0.1772 C.ar           1 S1                 0.0000
     13 ****         1.4328  -0.8347  -0.4231 C.ar           1 S1                 0.0000
     14 ****         2.1268  -1.3897  -1.5182 C.ar           1 S1                 0.0000
     15 ****         3.5319  -1.3199  -1.5775 C.ar           1 S1                 0.0000
     16 ****         4.2649  -0.7017  -0.5447 C.ar           1 S1                 0.0000
     17 ****         5.6350  -0.6533  -0.6694 O.3            1 S1                 0.0000
     18 ****         6.4060  -0.6208   0.4500 C.3            1 S1                 0.0000
     19 ****         7.6023  -1.2051   0.1990 F              1 S1                 0.0000
     20 ****         6.6472   0.6606   0.8221 F              1 S1                 0.0000
     21 ****         3.5661  -0.1322   0.5468 C.ar           1 S1                 0.0000
     22 ****         2.1608  -0.2005   0.6064 C.ar           1 S1                 0.0000
     23 ****        -0.2394  -2.0707   1.1596 H              1 S1                 0.0000
     24 ****        -0.4112  -1.7100  -1.0291 H              1 S1                 0.0000
     25 ****        -0.3879   1.2635  -0.2674 H              1 S1                 0.0000
     26 ****        -0.3807   0.6221  -1.8887 H              1 S1                 0.0000
     27 ****        -2.7240  -0.5498  -2.7981 H              1 S1                 0.0000
     28 ****        -6.3524   0.9395   0.4054 H              1 S1                 0.0000
     29 ****        -5.7223   1.9933   2.5831 H              1 S1                 0.0000
     30 ****        -3.3551   2.3175   3.1983 H              1 S1                 0.0000
     31 ****        -1.5194   1.6066   1.6723 H              1 S1                 0.0000
     32 ****         1.5843  -1.8678  -2.3206 H              1 S1                 0.0000
     33 ****         4.0521  -1.7457  -2.4230 H              1 S1                 0.0000
     34 ****         5.9403  -1.1583   1.2765 H              1 S1                 0.0000
     35 ****         4.0953   0.3689   1.3436 H              1 S1                 0.0000
     36 ****         1.6436   0.2432   1.4447 H              1 S1                 0.0000
     37 ****        -5.1190  -0.1788  -1.9514 H              1 S1                 0.0000
     38 ****        -1.5674  -1.2297   0.9127 LP             1 S1                 0.0000
     39 ****        -0.2466  -0.5348   1.5754 LP             1 S1                 0.0000
     40 ****         5.8508   0.1691  -1.1958 LP             1 S1                 0.0000
     41 ****         5.9091  -1.4628  -1.1886 LP             1 S1                 0.0000
@<TRIPOS>BOND
    1    1    2 1     
    2    1   23 1     
    3    2    3 1     
    4    2   13 1     
    5    2   24 1     
    6    3    4 1     
    7    3   25 1     
    8    3   26 1     
    9    4   12 1     
   10    4    5 1     
   11    5    6 2     
   12    5   27 1     
   13    6    7 1     
   14    6   37 1     
   15    7   12 ar    
   16    7    8 ar    
   17    8    9 ar    
   18    8   28 1     
   19    9   10 ar    
   20    9   29 1     
   21   10   11 ar    
   22   10   30 1     
   23   11   12 ar    
   24   11   31 1     
   25   13   22 ar    
   26   13   14 ar    
   27   14   15 ar    
   28   14   32 1     
   29   15   16 ar    
   30   15   33 1     
   31   16   17 1     
   32   16   21 ar    
   33   17   18 1     
   34   18   19 1     
   35   18   20 1     
   36   18   34 1     
   37   21   22 ar    
   38   21   35 1     
   39   22   36 1     
   40    1   38 1     
   41    1   39 1     
   42   17   40 1     
   43   17   41 1     
@<TRIPOS>SUBSTRUCTURE
      1 S1             1
@<TRIPOS>SET
LONE_PAIRS      STATIC     ATOMS    <user>   **** ""
4 38 39 40 41
DONOR_HYDROGENS      STATIC     ATOMS    <user>   **** ""
2 23 37
ATOM$BLUE        STATIC     ATOMS    COLORGROUP SYSTEM
4 38 39 40 41
ATOM$RED        STATIC     ATOMS    COLORGROUP SYSTEM
2 23 37
