#       Name:                AV-unprocessed.smi:678
#       Creating user name   scv26
#       Creation time:       Fri Mar 27 00:28:16 2020


#       File generated by GOLD software.
#

@<TRIPOS>MOLECULE
AV-unprocessed.smi:678
    57    58     1
SMALL
NO_CHARGES


@<TRIPOS>ATOM
      1 ****        -0.8939   3.5134   1.7384 C.3            1 S1                 0.0000
      2 ****        -2.1244   2.7415   1.2971 C.2            1 S1                 0.0000
      3 ****        -3.2754   2.7884   2.0021 C.2            1 S1                 0.0000
      4 ****        -4.4410   2.0531   1.5760 C.2            1 S1                 0.0000
      5 ****        -4.3551   1.3233   0.4547 C.2            1 S1                 0.0000
      6 ****        -3.1695   1.2600  -0.3004 N.am           1 S1                 0.0000
      7 ****        -3.1949   0.4322  -1.5187 C.3            1 S1                 0.0000
      8 ****        -2.4571  -0.9010  -1.3424 C.2            1 S1                 0.0000
      9 ****        -2.5476  -1.5310  -0.2883 O.2            1 S1                 0.0000
     10 ****        -1.7175  -1.3095  -2.3844 N.am           1 S1                 0.0000
     11 ****        -0.8522  -2.4847  -2.3990 C.3            1 S1                 0.0000
     12 ****         0.6025  -2.1262  -2.0377 C.3            1 S1                 0.0000
     13 ****         0.7835  -1.6775  -0.5705 C.3            1 S1                 0.0000
     14 ****         2.2118  -1.4150  -0.2699 N.4            1 S1                 1.0000
     15 ****         2.4592  -0.9518   1.1204 C.3            1 S1                 0.0000
     16 ****         1.9179   0.4656   1.4163 C.3            1 S1                 0.0000
     17 ****         2.5160   1.5245   0.4748 C.3            1 S1                 0.0000
     18 ****         2.1806   0.8403   2.8828 C.3            1 S1                 0.0000
     19 ****         3.0388  -2.5937  -0.6203 C.3            1 S1                 0.0000
     20 ****         2.7899  -3.0165  -2.0768 C.3            1 S1                 0.0000
     21 ****         1.4052  -3.2789  -2.2656 O.3            1 S1                 0.0000
     22 ****        -2.0332   1.9319   0.0680 C.2            1 S1                 0.0000
     23 ****        -0.9971   1.8575  -0.5966 O.2            1 S1                 0.0000
     24 ****        -1.0878   4.0892   2.6440 H              1 S1                 0.0000
     25 ****        -0.5763   4.2069   0.9593 H              1 S1                 0.0000
     26 ****        -0.0725   2.8289   1.9455 H              1 S1                 0.0000
     27 ****        -3.3327   3.3849   2.9009 H              1 S1                 0.0000
     28 ****        -5.3578   2.0885   2.1459 H              1 S1                 0.0000
     29 ****        -5.1807   0.7415   0.0714 H              1 S1                 0.0000
     30 ****        -4.2186   0.2136  -1.8255 H              1 S1                 0.0000
     31 ****        -2.7599   0.9929  -2.3485 H              1 S1                 0.0000
     32 ****        -1.7163  -0.7351  -3.2151 H              1 S1                 0.0000
     33 ****        -1.2329  -3.2654  -1.7383 H              1 S1                 0.0000
     34 ****        -0.8833  -2.8981  -3.4074 H              1 S1                 0.0000
     35 ****         0.9371  -1.3300  -2.7059 H              1 S1                 0.0000
     36 ****         0.2075  -0.7711  -0.3985 H              1 S1                 0.0000
     37 ****         0.3977  -2.4396   0.1085 H              1 S1                 0.0000
     38 ****         2.0299  -1.6733   1.8176 H              1 S1                 0.0000
     39 ****         3.5348  -0.9533   1.3042 H              1 S1                 0.0000
     40 ****         0.8361   0.4725   1.2863 H              1 S1                 0.0000
     41 ****         3.6029   1.5593   0.5561 H              1 S1                 0.0000
     42 ****         2.1338   2.5186   0.7095 H              1 S1                 0.0000
     43 ****         2.2642   1.3220  -0.5664 H              1 S1                 0.0000
     44 ****         3.2483   0.8595   3.1028 H              1 S1                 0.0000
     45 ****         1.7141   0.1250   3.5609 H              1 S1                 0.0000
     46 ****         1.7772   1.8250   3.1196 H              1 S1                 0.0000
     47 ****         4.0953  -2.3603  -0.4826 H              1 S1                 0.0000
     48 ****         2.8019  -3.4194   0.0527 H              1 S1                 0.0000
     49 ****         3.1267  -2.2449  -2.7711 H              1 S1                 0.0000
     50 ****         3.3552  -3.9196  -2.3073 H              1 S1                 0.0000
     51 ****         2.5078  -0.6664  -0.8801 H              1 S1                 0.0000
     52 ****        -3.1053  -1.1742   0.4611 LP             1 S1                 0.0000
     53 ****        -2.0633  -2.3993  -0.1816 LP             1 S1                 0.0000
     54 ****         1.2618  -3.5903  -3.2050 LP             1 S1                 0.0000
     55 ****         1.1242  -3.9976  -1.6296 LP             1 S1                 0.0000
     56 ****        -0.1804   2.3568  -0.3071 LP             1 S1                 0.0000
     57 ****        -0.9735   1.2979  -1.4250 LP             1 S1                 0.0000
@<TRIPOS>BOND
    1    1    2 1     
    2    1   24 1     
    3    1   25 1     
    4    1   26 1     
    5    2   22 1     
    6    2    3 2     
    7    3    4 1     
    8    3   27 1     
    9    4    5 2     
   10    4   28 1     
   11    5    6 1     
   12    5   29 1     
   13    6    7 1     
   14    6   22 am    
   15    7    8 1     
   16    7   30 1     
   17    7   31 1     
   18    8    9 2     
   19    8   10 am    
   20   10   11 1     
   21   10   32 1     
   22   11   12 1     
   23   11   33 1     
   24   11   34 1     
   25   12   21 1     
   26   12   13 1     
   27   12   35 1     
   28   13   14 1     
   29   13   36 1     
   30   13   37 1     
   31   14   15 1     
   32   14   19 1     
   33   14   51 1     
   34   15   16 1     
   35   15   38 1     
   36   15   39 1     
   37   16   17 1     
   38   16   18 1     
   39   16   40 1     
   40   17   41 1     
   41   17   42 1     
   42   17   43 1     
   43   18   44 1     
   44   18   45 1     
   45   18   46 1     
   46   19   20 1     
   47   19   47 1     
   48   19   48 1     
   49   20   21 1     
   50   20   49 1     
   51   20   50 1     
   52   22   23 2     
   53    9   52 1     
   54    9   53 1     
   55   21   54 1     
   56   21   55 1     
   57   23   56 1     
   58   23   57 1     
@<TRIPOS>SUBSTRUCTURE
      1 S1             1
@<TRIPOS>SET
LONE_PAIRS      STATIC     ATOMS    <user>   **** ""
6 52 53 54 55 56 57
DONOR_HYDROGENS      STATIC     ATOMS    <user>   **** ""
2 32 51
ATOM$BLUE        STATIC     ATOMS    COLORGROUP SYSTEM
6 52 53 54 55 56 57
ATOM$RED        STATIC     ATOMS    COLORGROUP SYSTEM
2 32 51
