AV-unprocessed.smi:1047|AV-procd|sdf|4569|dock1
  -GOLD-   22720 3 23D 1   1.00000     0.00000
 Structure written by MMmdl.
 56 58  0  0  0  0  0  0  0  0  2 V2000
  144.5538  132.7665  150.9181 C   0  0  0  0  0  0  0  0  0  0  0  0
  144.9543  134.2242  150.6494 C   0  0  0  0  0  0  0  0  0  0  0  0
  145.2215  135.0210  151.8459 N   0  0  0  0  0  0  0  0  0  0  0  0
  143.9992  135.2375  152.6117 C   0  0  0  0  0  0  0  0  0  0  0  0
  144.2551  136.0759  153.8745 C   0  0  0  0  0  0  0  0  0  0  0  0
  144.8516  137.3151  153.5066 O   0  0  0  0  0  0  0  0  0  0  0  0
  146.0814  137.1551  152.8033 C   0  0  2  0  0  0  0  0  0  0  0  0
  146.6232  138.5502  152.4643 C   0  0  0  0  0  0  0  0  0  0  0  0
  148.0139  138.7126  152.9323 N   0  3  0  0  0  0  0  0  0  0  0  0
  148.1235  139.2837  154.2888 C   0  0  0  0  0  0  0  0  0  0  0  0
  148.3630  140.8045  154.2456 C   0  0  2  0  0  0  0  0  0  0  0  0
  149.4677  141.0682  153.4022 O   0  0  0  0  0  0  0  0  0  0  0  0
  148.6265  141.4272  155.6347 C   0  0  0  0  0  0  0  0  0  0  0  0
  149.8610  140.9697  156.2528 N   0  0  0  0  0  0  0  0  0  0  0  0
  150.5709  139.8709  155.9299 C   0  0  0  0  0  0  0  0  0  0  0  0
  151.6708  139.6268  156.6357 N   0  0  0  0  0  0  0  0  0  0  0  0
  151.6840  140.6979  157.5122 C   0  0  0  0  0  0  0  0  0  0  0  0
  152.5947  141.0312  158.5387 C   0  0  0  0  0  0  0  0  0  0  0  0
  152.4070  142.1893  159.3263 C   0  0  0  0  0  0  0  0  0  0  0  0
  153.4070  142.5054  160.4245 C   0  0  0  0  0  0  0  0  0  0  0  0
  151.2963  143.0380  159.0883 C   0  0  0  0  0  0  0  0  0  0  0  0
  151.0745  144.2877  159.9220 C   0  0  0  0  0  0  0  0  0  0  0  0
  150.3788  142.7215  158.0649 C   0  0  0  0  0  0  0  0  0  0  0  0
  150.5710  141.5615  157.2933 C   0  0  0  0  0  0  0  0  0  0  0  0
  145.8217  136.3163  151.5351 C   0  0  0  0  0  0  0  0  0  0  0  0
  144.2630  132.2734  149.9904 H   0  0  0  0  0  0  0  0  0  0  0  0
  143.7057  132.7111  151.6014 H   0  0  0  0  0  0  0  0  0  0  0  0
  145.3729  132.1897  151.3469 H   0  0  0  0  0  0  0  0  0  0  0  0
  145.8204  134.2472  149.9860 H   0  0  0  0  0  0  0  0  0  0  0  0
  144.1390  134.6885  150.0932 H   0  0  0  0  0  0  0  0  0  0  0  0
  143.2569  135.7407  151.9899 H   0  0  0  0  0  0  0  0  0  0  0  0
  143.5659  134.2785  152.8985 H   0  0  0  0  0  0  0  0  0  0  0  0
  143.3185  136.2716  154.3964 H   0  0  0  0  0  0  0  0  0  0  0  0
  144.9056  135.5419  154.5690 H   0  0  0  0  0  0  0  0  0  0  0  0
  146.7981  136.6332  153.4402 H   0  0  0  0  0  0  0  0  0  0  0  0
  146.6007  138.7031  151.3845 H   0  0  0  0  0  0  0  0  0  0  0  0
  145.9906  139.3182  152.9114 H   0  0  0  0  0  0  0  0  0  0  0  0
  148.4593  137.8055  152.9339 H   0  0  0  0  0  0  0  0  0  0  0  0
  147.1947  139.0753  154.8207 H   0  0  0  0  0  0  0  0  0  0  0  0
  148.9249  138.7796  154.8314 H   0  0  0  0  0  0  0  0  0  0  0  0
  147.4888  141.2931  153.8132 H   0  0  0  0  0  0  0  0  0  0  0  0
  149.5156  140.3903  152.7450 H   0  0  0  0  0  0  0  0  0  0  0  0
  148.6602  142.5152  155.5597 H   0  0  0  0  0  0  0  0  0  0  0  0
  147.8008  141.1948  156.3080 H   0  0  0  0  0  0  0  0  0  0  0  0
  150.2565  139.2071  155.1374 H   0  0  0  0  0  0  0  0  0  0  0  0
  153.4414  140.3853  158.7190 H   0  0  0  0  0  0  0  0  0  0  0  0
  153.8570  143.4853  160.2635 H   0  0  0  0  0  0  0  0  0  0  0  0
  154.2114  141.7701  160.4545 H   0  0  0  0  0  0  0  0  0  0  0  0
  152.9163  142.5043  161.3983 H   0  0  0  0  0  0  0  0  0  0  0  0
  150.1823  144.8269  159.6025 H   0  0  0  0  0  0  0  0  0  0  0  0
  151.9240  144.9648  159.8301 H   0  0  0  0  0  0  0  0  0  0  0  0
  150.9502  144.0281  160.9736 H   0  0  0  0  0  0  0  0  0  0  0  0
  149.5302  143.3612  157.8747 H   0  0  0  0  0  0  0  0  0  0  0  0
  146.7669  136.1748  151.0114 H   0  0  0  0  0  0  0  0  0  0  0  0
  145.1698  136.8714  150.8583 H   0  0  0  0  0  0  0  0  0  0  0  0
  148.5071  139.3118  152.2860 H   0  0  0  0  0  0  0  0  0  0  0  0
  1  2  1  0  0  0  0
  1 26  1  0  0  0  0
  1 27  1  0  0  0  0
  1 28  1  0  0  0  0
  2  3  1  0  0  0  0
  2 29  1  0  0  0  0
  2 30  1  0  0  0  0
  3 25  1  0  0  0  0
  3  4  1  0  0  0  0
  4  5  1  0  0  0  0
  4 31  1  0  0  0  0
  4 32  1  0  0  0  0
  5  6  1  0  0  0  0
  5 33  1  0  0  0  0
  5 34  1  0  0  0  0
  6  7  1  0  0  0  0
  7  8  1  0  0  0  0
  7 25  1  0  0  0  0
  7 35  1  0  0  0  0
  8  9  1  0  0  0  0
  8 36  1  0  0  0  0
  8 37  1  0  0  0  0
  9 10  1  0  0  0  0
  9 38  1  0  0  0  0
  9 56  1  0  0  0  0
 10 11  1  0  0  0  0
 10 39  1  0  0  0  0
 10 40  1  0  0  0  0
 11 12  1  0  0  0  0
 11 13  1  0  0  0  0
 11 41  1  0  0  0  0
 12 42  1  0  0  0  0
 13 14  1  0  0  0  0
 13 43  1  0  0  0  0
 13 44  1  0  0  0  0
 14 24  1  0  0  0  0
 14 15  1  0  0  0  0
 15 16  2  0  0  0  0
 15 45  1  0  0  0  0
 16 17  1  0  0  0  0
 17 24  2  0  0  0  0
 17 18  1  0  0  0  0
 18 19  2  0  0  0  0
 18 46  1  0  0  0  0
 19 20  1  0  0  0  0
 19 21  1  0  0  0  0
 20 47  1  0  0  0  0
 20 48  1  0  0  0  0
 20 49  1  0  0  0  0
 21 22  1  0  0  0  0
 21 23  2  0  0  0  0
 22 50  1  0  0  0  0
 22 51  1  0  0  0  0
 22 52  1  0  0  0  0
 23 24  1  0  0  0  0
 23 53  1  0  0  0  0
 25 54  1  0  0  0  0
 25 55  1  0  0  0  0
M  CHG  1   9   1
M  END
> <s_m_source_file>
AV-unprocessed.smi

> <i_m_source_file_index>
1047

> <i_lp_mmshare_version>
43012

> <i_f3d_flags>
0

> <s_epik_input>
W0NIM11bQ0gyXU4xW0NIMl1bQ0gyXU9bQ0BIXShbQ0gyXTEpW0NIMl1bTkhdW0NIMl1bQ0BIXShbT0hdKVtDSDJdbihbY0hdbjIpYyhjMjMpW2NIXWMoW0NIM10pYyhbY0hdMylbQ0gzXQ==

> <s_epik_cmdline>
J2VwaWtfcHl0aG9uJywgJy1waCcsICc3LjAnLCAnLXRuJywgJzgnLCAnLW1hJywgJzIwMCcsICctbWV0YWxfYmluZGluZycsICctaW1hZScsICc8aW5maWxlLm1hZT4nLCAnLW9tYWUnLCAnPG91dGZpbGUubWFlPic=

> <r_epik_Ionization_Penalty>
0.692425

> <r_epik_Ionization_Penalty_Charging>
0.0243549

> <r_epik_Ionization_Penalty_Neutral>
0.66807

> <r_epik_State_Penalty>
0.592789

> <r_epik_Charging_Adjusted_Penalty>
0.617144

> <i_epik_Tot_Q>
1

> <i_epik_Tot_abs_Q>
1

> <r_epik_Metal_State_Penalty>
0.508021

> <b_epik_Metal_Only>
0

> <s_lp_Force_Field>
OPLS_2005

> <r_lp_Energy>
30.0257

> <b_lp_Chiralities_Consistent>
1

> <s_lp_Variant>
AV-unprocessed.smi:1047-10

> <Gold.Version>
5.8.1

> <Gold.Id.Protein>
6NUR|6NUR_protein|mol2

> <Gold.PLP.Fitness>
60.0485

> <Gold.PLP.PLP>
-47.9604

> <Gold.PLP.part.hbond>
-4.4468

> <Gold.PLP.part.metal>
0.0000

> <Gold.PLP.part.buried>
-5.3323

> <Gold.PLP.part.nonpolar>
-40.5078

> <Gold.PLP.part.repulsive>
0.9517

> <Gold.PLP.ligand.clash>
0.0000

> <Gold.PLP.ligand.torsion>
1.5115

> <Gold.PLP.Chemscore.Hbond>
4.9280

> <Gold.PLP.Chemscore.CHOScore>
0.0000

> <Gold.PLP.Chemscore.Metal>
0.0000

> <Gold.Chemscore.Hbonds>
donor molecule, donor type, donor heavy atom, donor atom, acceptor molecule, acceptor atom, score
      L1  H     9    38       P1  7948  1.82
      L1  H     9    56       P1  7957  1.00
      L1  H    12    42       P1  7957  0.93
      P1  H  7989  7998       L1    12  0.04
      P1  H  8011  8017       L1    12  0.80

> <Gold.PLP.Chemscore.Internal.Correction>
0.3269

> <Gold.Rescore>
     Score         DG    S(hbond)    S(metal)    S(lipo)     H(rot)  DE(clash)    DE(int)     intcor
     22.35     -25.66       3.24        0.00     136.94       2.60       0.34       2.96       ----

> <Gold.Chemscore.Fitness>
22.3545

> <Gold.Chemscore.DG>
-25.6554

> <Gold.Chemscore.ZeroCoef>
-5.4800

> <Gold.Chemscore.Hbond>
3.2402

> <Gold.Chemscore.Metal>
0.0000

> <Gold.Chemscore.Lipo>
136.9369

> <Gold.Chemscore.Internal_Hbond>
0.0000

> <Gold.Chemscore.DEClash>
0.3370

> <Gold.Chemscore.DEInternal>
2.9639

> <Gold.Chemscore.Rot>
2.6049

> <Gold.Chemscore.Internal.Correction>
   9.000000E+99

> <Gold.Chemscore.Hbonds>
donor molecule, donor type, donor heavy atom, donor atom, acceptor molecule, acceptor atom, score
      L1  H     9    38       P1  7948  0.87
      L1  H     9    56       P1  7957  1.00
      L1  H    12    42       P1  7957  0.89
      P1  H  8011  8017       L1    12  0.12

> <Gold.Chemscore.Hbond.Weighted>
-10.8222

> <Gold.Chemscore.Metal.Weighted>
-0.0000

> <Gold.Chemscore.Lipo.Weighted>
-16.0216

> <Gold.Chemscore.Internal_Hbond.Weighted>
0.0000

> <Gold.Chemscore.DEClash.Weighted>
0.3370

> <Gold.Chemscore.DEInternal.Weighted>
2.9639

> <Gold.Chemscore.Rot.Weighted>
6.6685

> <Gold.Chemscore.Internal.Correction.Weighted>
   9.000000E+99

> <Gold.Protein.RotatedTorsions>
[ 6907 6896 6895 6894 ] final -108.01 input  -60.11 | X-H torsion
[ 7974 7965 7964 7962 ] final -155.78 input  175.53 | X-H torsion
[ 8008 7997 7996 7995 ] final -109.78 input   59.86 | X-H torsion
[ 10167 10162 10161 10158 ] final  -58.80 input  -65.29 | X-H torsion
[ 10718 10713 10712 10709 ] final  133.44 input   66.30 | X-H torsion
[ 10763 10752 10751 10750 ] final   71.19 input  -60.55 | X-H torsion
[ 11005 11000 10999 10996 ] final -153.90 input  -57.11 | X-H torsion

> <Gold.Protein.ActiveResidues>
 VAL166  LYS551  ARG553  GLY616  TRP617  ASP618  TYR619  PRO620  LYS621  CYS622 
 ASP623  PHE694  ASN695  SER759  ASP760  ASP761  ALA762  ILE779  LEU786  VAL792 
 PHE793  MET794  SER795  GLU796  ALA797  LYS798  CYS799  TRP800  GLU811  SER814 

> <Gold.Protein.RotatedAtoms>
  150.7477  133.9742  159.3555 H   0  0  0  0  0  0  0  0  0  0  0  0  # atno 6907 bound_to 6896
  151.7678  135.0792  160.0364 H   0  0  0  0  0  0  0  0  0  0  0  0  # atno 6908 bound_to 6896
  152.3360  133.5975  159.5879 H   0  0  0  0  0  0  0  0  0  0  0  0  # atno 6909 bound_to 6896
  144.7623  140.4201  143.5967 H   0  0  0  0  0  0  0  0  0  0  0  0  # atno 7974 bound_to 7965
  154.9646  140.0398  157.2206 H   0  0  0  0  0  0  0  0  0  0  0  0  # atno 8008 bound_to 7997
  154.7858  140.2827  155.6007 H   0  0  0  0  0  0  0  0  0  0  0  0  # atno 8009 bound_to 7997
  156.2943  140.2583  156.2693 H   0  0  0  0  0  0  0  0  0  0  0  0  # atno 8010 bound_to 7997
  140.6175  143.2407  151.5562 H   0  0  0  0  0  0  0  0  0  0  0  0  # atno 10167 bound_to 10162
  157.4773  131.1084  150.9727 H   0  0  0  0  0  0  0  0  0  0  0  0  # atno 10718 bound_to 10713
  153.0384  135.5146  154.7555 H   0  0  0  0  0  0  0  0  0  0  0  0  # atno 10763 bound_to 10752
  154.6512  135.2925  154.9986 H   0  0  0  0  0  0  0  0  0  0  0  0  # atno 10764 bound_to 10752
  154.0869  135.6656  153.4899 H   0  0  0  0  0  0  0  0  0  0  0  0  # atno 10765 bound_to 10752
  140.7031  134.3915  157.5207 H   0  0  0  0  0  0  0  0  0  0  0  0  # atno 11005 bound_to 11000
  145.6578  139.1576  143.2825 LP  0  0  0  0  0  0  0  0  0  0  0  0  # atno 17320 bound_to 7965
  146.1699  140.6661  142.9238 LP  0  0  0  0  0  0  0  0  0  0  0  0  # atno 17321 bound_to 7965
  139.5410  144.2647  152.1351 LP  0  0  0  0  0  0  0  0  0  0  0  0  # atno 17342 bound_to 10162
  140.1859  144.4799  150.6504 LP  0  0  0  0  0  0  0  0  0  0  0  0  # atno 17343 bound_to 10162
  157.0472  130.5772  149.5365 LP  0  0  0  0  0  0  0  0  0  0  0  0  # atno 17370 bound_to 10713
  156.0103  130.5194  150.7967 LP  0  0  0  0  0  0  0  0  0  0  0  0  # atno 17371 bound_to 10713
  139.8891  134.8838  156.2437 LP  0  0  0  0  0  0  0  0  0  0  0  0  # atno 17394 bound_to 11000
  141.0147  133.7075  156.1169 LP  0  0  0  0  0  0  0  0  0  0  0  0  # atno 17395 bound_to 11000

$$$$
