#       Name:                AV-unprocessed.smi:527
#       Creating user name   scv26
#       Creation time:       Thu Mar 26 23:31:31 2020


#       File generated by GOLD software.
#

@<TRIPOS>MOLECULE
AV-unprocessed.smi:527
    47    48     1
SMALL
NO_CHARGES


@<TRIPOS>ATOM
      1 ****        -4.1997  -2.0978  -2.9112 C.3            1 S1                 0.0000
      2 ****        -3.7830  -1.3311  -1.6422 C.3            1 S1                 0.0000
      3 ****        -4.3089  -2.0744  -0.3978 C.3            1 S1                 0.0000
      4 ****        -3.9515  -1.3410   0.8993 C.3            1 S1                 0.0000
      5 ****        -2.4364  -1.1478   1.0088 C.3            1 S1                 0.0000
      6 ****        -1.8787  -0.3898  -0.2115 C.3            1 S1                 0.0000
      7 ****        -0.4274  -0.2635  -0.0798 N.am           1 S1                 0.0000
      8 ****         0.2112   0.7082   0.5889 C.2            1 S1                 0.0000
      9 ****        -0.3715   1.6110   1.1932 O.2            1 S1                 0.0000
     10 ****         1.5472   0.5561   0.5033 N.am           1 S1                 0.0000
     11 ****         2.4999   1.3430   1.0438 C.2            1 S1                 0.0000
     12 ****         2.2831   2.3516   1.7206 O.2            1 S1                 0.0000
     13 ****         3.9405   0.9009   0.7550 C.3            1 S1                 0.0000
     14 ****         4.9419   1.6872   1.4873 N.pl3          1 S1                 0.0000
     15 ****         5.4824   1.4076   2.7168 C.2            1 S1                 0.0000
     16 ****         6.3612   2.4221   2.9971 C.2            1 S1                 0.0000
     17 ****         6.3201   3.2777   1.9289 N.pl3          1 S1                 1.0000
     18 ****         5.4568   2.8293   1.0117 C.2            1 S1                 0.0000
     19 ****        -2.2487  -1.0920  -1.5467 C.3            1 S1                 0.0000
     20 ****        -1.7118  -0.2974  -2.7578 C.3            1 S1                 0.0000
     21 ****        -3.6758  -3.0509  -2.9897 H              1 S1                 0.0000
     22 ****        -3.9997  -1.5272  -3.8175 H              1 S1                 0.0000
     23 ****        -5.2694  -2.3091  -2.9057 H              1 S1                 0.0000
     24 ****        -4.2739  -0.3571  -1.6739 H              1 S1                 0.0000
     25 ****        -5.3921  -2.1857  -0.4594 H              1 S1                 0.0000
     26 ****        -3.8974  -3.0844  -0.3694 H              1 S1                 0.0000
     27 ****        -4.4512  -0.3718   0.9263 H              1 S1                 0.0000
     28 ****        -4.3174  -1.9035   1.7587 H              1 S1                 0.0000
     29 ****        -2.2071  -0.6061   1.9273 H              1 S1                 0.0000
     30 ****        -1.9514  -2.1214   1.0950 H              1 S1                 0.0000
     31 ****        -2.3212   0.6085  -0.2281 H              1 S1                 0.0000
     32 ****         0.1287  -0.9658  -0.5453 H              1 S1                 0.0000
     33 ****         1.8720  -0.2379  -0.0285 H              1 S1                 0.0000
     34 ****         4.0687  -0.1469   1.0307 H              1 S1                 0.0000
     35 ****         4.1475   0.9867  -0.3128 H              1 S1                 0.0000
     36 ****         5.2068   0.5325   3.2875 H              1 S1                 0.0000
     37 ****         6.9948   2.5955   3.8547 H              1 S1                 0.0000
     38 ****         5.2182   3.3006   0.0748 H              1 S1                 0.0000
     39 ****        -1.7611  -2.0684  -1.5543 H              1 S1                 0.0000
     40 ****        -2.1981   0.6753  -2.8380 H              1 S1                 0.0000
     41 ****        -1.8709  -0.8288  -3.6951 H              1 S1                 0.0000
     42 ****        -0.6382  -0.1233  -2.6879 H              1 S1                 0.0000
     43 ****         6.8609   4.1293   1.8443 H              1 S1                 0.0000
     44 ****        -1.3709   1.6436   1.2008 LP             1 S1                 0.0000
     45 ****         0.1553   2.3108   1.6757 LP             1 S1                 0.0000
     46 ****         1.3427   2.6385   1.9033 LP             1 S1                 0.0000
     47 ****         3.0478   2.8822   2.0864 LP             1 S1                 0.0000
@<TRIPOS>BOND
    1    1    2 1     
    2    1   21 1     
    3    1   22 1     
    4    1   23 1     
    5    2   19 1     
    6    2    3 1     
    7    2   24 1     
    8    3    4 1     
    9    3   25 1     
   10    3   26 1     
   11    4    5 1     
   12    4   27 1     
   13    4   28 1     
   14    5    6 1     
   15    5   29 1     
   16    5   30 1     
   17    6    7 1     
   18    6   19 1     
   19    6   31 1     
   20    7    8 1     
   21    7   32 1     
   22    8    9 2     
   23    8   10 1     
   24   10   11 1     
   25   10   33 1     
   26   11   12 2     
   27   11   13 1     
   28   13   14 1     
   29   13   34 1     
   30   13   35 1     
   31   14   18 1     
   32   14   15 1     
   33   15   16 2     
   34   15   36 1     
   35   16   17 1     
   36   16   37 1     
   37   17   18 2     
   38   17   43 1     
   39   18   38 1     
   40   19   20 1     
   41   19   39 1     
   42   20   40 1     
   43   20   41 1     
   44   20   42 1     
   45    9   44 1     
   46    9   45 1     
   47   12   46 1     
   48   12   47 1     
@<TRIPOS>SUBSTRUCTURE
      1 S1             1
@<TRIPOS>SET
LONE_PAIRS      STATIC     ATOMS    <user>   **** ""
4 44 45 46 47
DONOR_HYDROGENS      STATIC     ATOMS    <user>   **** ""
3 32 33 43
ATOM$BLUE        STATIC     ATOMS    COLORGROUP SYSTEM
4 44 45 46 47
ATOM$RED        STATIC     ATOMS    COLORGROUP SYSTEM
3 32 33 43
