AV-unprocessed.smi:2195|AV-procd|sdf|8907|dock4
  -GOLD-   2272012123D 1   1.00000     0.00000
 Structure written by MMmdl.
 40 42  0  0  0  0  0  0  0  0  2 V2000
  153.0221  142.9491  162.3878 C   0  0  0  0  0  0  0  0  0  0  0  0
  152.6103  142.4825  161.0067 C   0  0  0  0  0  0  0  0  0  0  0  0
  152.9563  141.1922  160.5595 C   0  0  0  0  0  0  0  0  0  0  0  0
  152.5695  140.7626  159.2754 C   0  0  0  0  0  0  0  0  0  0  0  0
  151.8314  141.6080  158.4218 C   0  0  0  0  0  0  0  0  0  0  0  0
  151.4932  141.1062  157.1831 O   0  0  0  0  0  0  0  0  0  0  0  0
  150.9121  141.9909  156.2344 C   0  0  0  0  0  0  0  0  0  0  0  0
  149.9612  141.1970  155.3259 C   0  0  1  0  0  0  0  0  0  0  0  0
  150.6999  140.1664  154.7000 O   0  0  0  0  0  0  0  0  0  0  0  0
  148.7683  140.6016  156.1002 C   0  0  0  0  0  0  0  0  0  0  0  0
  147.4698  140.9546  155.5081 N   0  0  0  0  0  0  0  0  0  0  0  0
  146.9122  140.5474  154.3357 C   0  0  0  0  0  0  0  0  0  0  0  0
  145.6961  141.1504  154.2263 N   0  3  0  0  0  0  0  0  0  0  0  0
  145.4721  141.9547  155.3457 C   0  0  0  0  0  0  0  0  0  0  0  0
  144.3884  142.7583  155.6872 C   0  0  0  0  0  0  0  0  0  0  0  0
  144.4765  143.4524  156.9118 C   0  0  0  0  0  0  0  0  0  0  0  0
  145.6079  143.3321  157.7446 C   0  0  0  0  0  0  0  0  0  0  0  0
  146.7009  142.5152  157.3879 C   0  0  0  0  0  0  0  0  0  0  0  0
  146.6077  141.8338  156.1746 C   0  0  0  0  0  0  0  0  0  0  0  0
  151.4837  142.9041  158.8796 C   0  0  0  0  0  0  0  0  0  0  0  0
  151.8719  143.3357  160.1630 C   0  0  0  0  0  0  0  0  0  0  0  0
  153.8970  142.4029  162.7419 H   0  0  0  0  0  0  0  0  0  0  0  0
  152.2085  142.7902  163.0958 H   0  0  0  0  0  0  0  0  0  0  0  0
  153.2685  144.0113  162.3793 H   0  0  0  0  0  0  0  0  0  0  0  0
  153.5191  140.5273  161.1984 H   0  0  0  0  0  0  0  0  0  0  0  0
  152.8423  139.7721  158.9422 H   0  0  0  0  0  0  0  0  0  0  0  0
  150.3530  142.7668  156.7606 H   0  0  0  0  0  0  0  0  0  0  0  0
  151.6837  142.4772  155.6349 H   0  0  0  0  0  0  0  0  0  0  0  0
  149.5904  141.8550  154.5387 H   0  0  0  0  0  0  0  0  0  0  0  0
  150.8327  139.4704  155.3257 H   0  0  0  0  0  0  0  0  0  0  0  0
  148.8464  139.5171  156.1794 H   0  0  0  0  0  0  0  0  0  0  0  0
  148.7634  140.9800  157.1231 H   0  0  0  0  0  0  0  0  0  0  0  0
  147.3549  139.8686  153.6210 H   0  0  0  0  0  0  0  0  0  0  0  0
  143.5194  142.8505  155.0524 H   0  0  0  0  0  0  0  0  0  0  0  0
  143.6594  144.0887  157.2196 H   0  0  0  0  0  0  0  0  0  0  0  0
  145.6381  143.8764  158.6773 H   0  0  0  0  0  0  0  0  0  0  0  0
  147.5598  142.4256  158.0362 H   0  0  0  0  0  0  0  0  0  0  0  0
  150.9177  143.5882  158.2659 H   0  0  0  0  0  0  0  0  0  0  0  0
  151.5995  144.3258  160.4977 H   0  0  0  0  0  0  0  0  0  0  0  0
  145.0668  141.0201  153.4445 H   0  0  0  0  0  0  0  0  0  0  0  0
  1  2  1  0  0  0  0
  1 22  1  0  0  0  0
  1 23  1  0  0  0  0
  1 24  1  0  0  0  0
  2 21  1  0  0  0  0
  2  3  2  0  0  0  0
  3  4  1  0  0  0  0
  3 25  1  0  0  0  0
  4  5  2  0  0  0  0
  4 26  1  0  0  0  0
  5  6  1  0  0  0  0
  5 20  1  0  0  0  0
  6  7  1  0  0  0  0
  7  8  1  0  0  0  0
  7 27  1  0  0  0  0
  7 28  1  0  0  0  0
  8  9  1  0  0  0  0
  8 10  1  0  0  0  0
  8 29  1  0  0  0  0
  9 30  1  0  0  0  0
 10 11  1  0  0  0  0
 10 31  1  0  0  0  0
 10 32  1  0  0  0  0
 11 19  1  0  0  0  0
 11 12  1  0  0  0  0
 12 13  2  0  0  0  0
 12 33  1  0  0  0  0
 13 14  1  0  0  0  0
 13 40  1  0  0  0  0
 14 19  2  0  0  0  0
 14 15  1  0  0  0  0
 15 16  2  0  0  0  0
 15 34  1  0  0  0  0
 16 17  1  0  0  0  0
 16 35  1  0  0  0  0
 17 18  2  0  0  0  0
 17 36  1  0  0  0  0
 18 19  1  0  0  0  0
 18 37  1  0  0  0  0
 20 21  2  0  0  0  0
 20 38  1  0  0  0  0
 21 39  1  0  0  0  0
M  CHG  1  13   1
M  END
> <s_m_source_file>
AV-unprocessed.smi

> <i_m_source_file_index>
2195

> <i_lp_mmshare_version>
43012

> <i_f3d_flags>
0

> <s_epik_input>
W0NIM11jMVtjSF1bY0hdYyhbY0hdW2NIXTEpT1tDSDJdW0NASF0oW09IXSlbQ0gyXW4oW2NIXW4yKWMoYzIzKVtjSF1bY0hdW2NIXVtjSF0z

> <s_epik_cmdline>
J2VwaWtfcHl0aG9uJywgJy1waCcsICc3LjAnLCAnLXRuJywgJzgnLCAnLW1hJywgJzIwMCcsICctbWV0YWxfYmluZGluZycsICctaW1hZScsICc8aW5maWxlLm1hZT4nLCAnLW9tYWUnLCAnPG91dGZpbGUubWFlPic=

> <r_lp_tautomer_probability>
1

> <r_epik_Ionization_Penalty>
1.3774

> <r_epik_Ionization_Penalty_Charging>
1.37739

> <r_epik_Ionization_Penalty_Neutral>
2.3993e-06

> <r_epik_State_Penalty>
1.45762

> <r_epik_Charging_Adjusted_Penalty>
2.83501

> <i_epik_Tot_Q>
1

> <i_epik_Tot_abs_Q>
1

> <r_epik_Metal_State_Penalty>
5.49752

> <b_epik_Metal_Only>
0

> <s_lp_Force_Field>
OPLS_2005

> <r_lp_Energy>
19.9339

> <b_lp_Chiralities_Consistent>
1

> <s_lp_Variant>
AV-unprocessed.smi:2195-4

> <Gold.Version>
5.8.1

> <Gold.Id.Protein>
6NUR|6NUR_protein|mol2

> <Gold.PLP.Fitness>
46.0561

> <Gold.PLP.PLP>
-39.1337

> <Gold.PLP.part.hbond>
-2.0000

> <Gold.PLP.part.metal>
0.0000

> <Gold.PLP.part.buried>
-5.9159

> <Gold.PLP.part.nonpolar>
-29.3445

> <Gold.PLP.part.repulsive>
0.0083

> <Gold.PLP.ligand.clash>
0.0000

> <Gold.PLP.ligand.torsion>
1.0754

> <Gold.PLP.Chemscore.Hbond>
3.0000

> <Gold.PLP.Chemscore.CHOScore>
0.0000

> <Gold.PLP.Chemscore.Metal>
0.0000

> <Gold.Chemscore.Hbonds>
donor molecule, donor type, donor heavy atom, donor atom, acceptor molecule, acceptor atom, score
      L1  H    13    40       P1 10175  2.00
      P1  H  7989  7998       L1     9  1.00

> <Gold.PLP.Chemscore.Internal.Correction>
0.0731

> <Gold.Rescore>
     Score         DG    S(hbond)    S(metal)    S(lipo)     H(rot)  DE(clash)    DE(int)     intcor
     17.27     -18.28       1.88        0.00     105.57       2.27       0.02       0.99       ----

> <Gold.Chemscore.Fitness>
17.2746

> <Gold.Chemscore.DG>
-18.2816

> <Gold.Chemscore.ZeroCoef>
-5.4800

> <Gold.Chemscore.Hbond>
1.8764

> <Gold.Chemscore.Metal>
0.0000

> <Gold.Chemscore.Lipo>
105.5670

> <Gold.Chemscore.Internal_Hbond>
0.0000

> <Gold.Chemscore.DEClash>
0.0201

> <Gold.Chemscore.DEInternal>
0.9869

> <Gold.Chemscore.Rot>
2.2723

> <Gold.Chemscore.Internal.Correction>
   9.000000E+99

> <Gold.Chemscore.Hbonds>
donor molecule, donor type, donor heavy atom, donor atom, acceptor molecule, acceptor atom, score
      L1  H    13    40       P1 10175  0.60
      P1  H  7989  7998       L1     9  0.60

> <Gold.Chemscore.Hbond.Weighted>
-6.2672

> <Gold.Chemscore.Metal.Weighted>
-0.0000

> <Gold.Chemscore.Lipo.Weighted>
-12.3513

> <Gold.Chemscore.Internal_Hbond.Weighted>
0.0000

> <Gold.Chemscore.DEClash.Weighted>
0.0201

> <Gold.Chemscore.DEInternal.Weighted>
0.9869

> <Gold.Chemscore.Rot.Weighted>
5.8170

> <Gold.Chemscore.Internal.Correction.Weighted>
   9.000000E+99

> <Gold.Protein.RotatedTorsions>
[ 6907 6896 6895 6894 ] final   -9.02 input  -60.11 | X-H torsion
[ 7974 7965 7964 7962 ] final  -46.56 input  175.53 | X-H torsion
[ 8008 7997 7996 7995 ] final  175.48 input   59.86 | X-H torsion
[ 10167 10162 10161 10158 ] final   63.40 input  -65.29 | X-H torsion
[ 10718 10713 10712 10709 ] final   84.74 input   66.30 | X-H torsion
[ 10763 10752 10751 10750 ] final -143.45 input  -60.55 | X-H torsion
[ 11005 11000 10999 10996 ] final  -53.48 input  -57.11 | X-H torsion

> <Gold.Protein.ActiveResidues>
 VAL166  LYS551  ARG553  GLY616  TRP617  ASP618  TYR619  PRO620  LYS621  CYS622 
 ASP623  PHE694  ASN695  SER759  ASP760  ASP761  ALA762  ILE779  LEU786  VAL792 
 PHE793  MET794  SER795  GLU796  ALA797  LYS798  CYS799  TRP800  GLU811  SER814 

> <Gold.Protein.RotatedAtoms>
  151.4244  135.1002  159.9623 H   0  0  0  0  0  0  0  0  0  0  0  0  # atno 6907 bound_to 6896
  152.4977  133.8677  159.7293 H   0  0  0  0  0  0  0  0  0  0  0  0  # atno 6908 bound_to 6896
  150.9200  133.6834  159.2862 H   0  0  0  0  0  0  0  0  0  0  0  0  # atno 6909 bound_to 6896
  145.9706  140.7387  142.9412 H   0  0  0  0  0  0  0  0  0  0  0  0  # atno 7974 bound_to 7965
  156.0865  140.1408  156.9646 H   0  0  0  0  0  0  0  0  0  0  0  0  # atno 8008 bound_to 7997
  154.4616  140.0941  156.6956 H   0  0  0  0  0  0  0  0  0  0  0  0  # atno 8009 bound_to 7997
  155.4989  140.3450  155.4370 H   0  0  0  0  0  0  0  0  0  0  0  0  # atno 8010 bound_to 7997
  140.1334  144.4621  150.6851 H   0  0  0  0  0  0  0  0  0  0  0  0  # atno 10167 bound_to 10162
  157.6903  131.0146  150.2718 H   0  0  0  0  0  0  0  0  0  0  0  0  # atno 10718 bound_to 10713
  154.8469  135.3467  154.6189 H   0  0  0  0  0  0  0  0  0  0  0  0  # atno 10763 bound_to 10752
  153.6798  135.6980  153.5126 H   0  0  0  0  0  0  0  0  0  0  0  0  # atno 10764 bound_to 10752
  153.2677  135.4303  155.0913 H   0  0  0  0  0  0  0  0  0  0  0  0  # atno 10765 bound_to 10752
  141.0978  133.6622  156.4179 H   0  0  0  0  0  0  0  0  0  0  0  0  # atno 11005 bound_to 11000
  144.6836  140.2742  143.7301 LP  0  0  0  0  0  0  0  0  0  0  0  0  # atno 17320 bound_to 7965
  145.7911  139.1927  143.2102 LP  0  0  0  0  0  0  0  0  0  0  0  0  # atno 17321 bound_to 7965
  140.6803  143.2324  151.5401 LP  0  0  0  0  0  0  0  0  0  0  0  0  # atno 17342 bound_to 10162
  139.5508  144.2401  152.1526 LP  0  0  0  0  0  0  0  0  0  0  0  0  # atno 17343 bound_to 10162
  156.3279  130.3796  149.7517 LP  0  0  0  0  0  0  0  0  0  0  0  0  # atno 17370 bound_to 10713
  156.5066  130.8153  151.3153 LP  0  0  0  0  0  0  0  0  0  0  0  0  # atno 17371 bound_to 10713
  140.5097  134.6407  157.5279 LP  0  0  0  0  0  0  0  0  0  0  0  0  # atno 17394 bound_to 11000
  139.9820  134.7122  155.9842 LP  0  0  0  0  0  0  0  0  0  0  0  0  # atno 17395 bound_to 11000

$$$$
