AV-unprocessed.smi:2217|AV-procd|sdf|8968|dock4
  -GOLD-   2272012183D 1   1.00000     0.00000
 Structure written by MMmdl.
 45 48  0  0  0  0  0  0  0  0  1 V2000
  149.4944  132.4394  154.2303 C   0  0  0  0  0  0  0  0  0  0  0  0
  149.9696  133.5660  155.1237 C   0  0  0  0  0  0  0  0  0  0  0  0
  149.9162  134.9050  154.6940 C   0  0  0  0  0  0  0  0  0  0  0  0
  150.3677  135.9156  155.5644 C   0  0  0  0  0  0  0  0  0  0  0  0
  150.8619  135.5694  156.8423 C   0  0  0  0  0  0  0  0  0  0  0  0
  151.2832  136.6798  157.6324 N   0  0  0  0  0  0  0  0  0  0  0  0
  151.6217  137.9421  157.2931 C   0  0  0  0  0  0  0  0  0  0  0  0
  151.5961  138.3127  156.1208 O   0  0  0  0  0  0  0  0  0  0  0  0
  151.9780  138.7523  158.3014 N   0  0  0  0  0  0  0  0  0  0  0  0
  152.3041  140.1658  158.1663 C   0  0  2  0  0  0  0  0  0  0  0  0
  152.1621  140.9248  159.4854 C   0  0  1  0  0  0  0  0  0  0  0  0
  153.1189  141.5865  160.4116 C   0  0  0  0  0  0  0  0  0  0  0  0
  152.3497  142.9205  160.5994 C   0  0  0  0  0  0  0  0  0  0  0  0
  151.2901  142.9108  159.6127 O   0  0  0  0  0  0  0  0  0  0  0  0
  151.7928  142.0845  158.5822 C   0  0  2  0  0  0  0  0  0  0  0  0
  151.0943  141.0498  157.6764 C   0  0  0  0  0  0  0  0  0  0  0  0
  151.0389  141.3658  156.1752 C   0  0  0  0  0  0  0  0  0  0  0  0
  149.5990  141.1816  155.6906 C   0  0  0  0  0  0  0  0  0  0  0  0
  148.9607  140.2569  156.7169 C   0  0  0  0  0  0  0  0  0  0  0  0
  149.6478  140.6387  158.0236 C   0  0  0  0  0  0  0  0  0  0  0  0
  150.9040  134.2740  157.2466 N   0  0  0  0  0  0  0  0  0  0  0  0
  150.4717  133.3051  156.4127 C   0  0  0  0  0  0  0  0  0  0  0  0
  149.5861  132.7114  153.1784 H   0  0  0  0  0  0  0  0  0  0  0  0
  148.4488  132.2112  154.4375 H   0  0  0  0  0  0  0  0  0  0  0  0
  150.0834  131.5375  154.3993 H   0  0  0  0  0  0  0  0  0  0  0  0
  149.5361  135.1577  153.7149 H   0  0  0  0  0  0  0  0  0  0  0  0
  150.3322  136.9483  155.2483 H   0  0  0  0  0  0  0  0  0  0  0  0
  151.3848  136.4739  158.6153 H   0  0  0  0  0  0  0  0  0  0  0  0
  151.9787  138.3689  159.2365 H   0  0  0  0  0  0  0  0  0  0  0  0
  153.2488  140.3626  157.6505 H   0  0  0  0  0  0  0  0  0  0  0  0
  151.3061  140.5470  160.0532 H   0  0  0  0  0  0  0  0  0  0  0  0
  153.2482  141.0420  161.3473 H   0  0  0  0  0  0  0  0  0  0  0  0
  154.0949  141.7393  159.9492 H   0  0  0  0  0  0  0  0  0  0  0  0
  151.9184  143.0055  161.5972 H   0  0  0  0  0  0  0  0  0  0  0  0
  153.0097  143.7744  160.4411 H   0  0  0  0  0  0  0  0  0  0  0  0
  152.6502  142.5575  158.0896 H   0  0  0  0  0  0  0  0  0  0  0  0
  151.3887  142.3752  155.9566 H   0  0  0  0  0  0  0  0  0  0  0  0
  151.6926  140.6888  155.6250 H   0  0  0  0  0  0  0  0  0  0  0  0
  149.0856  142.1440  155.7007 H   0  0  0  0  0  0  0  0  0  0  0  0
  149.5433  140.7861  154.6759 H   0  0  0  0  0  0  0  0  0  0  0  0
  147.8763  140.3577  156.7624 H   0  0  0  0  0  0  0  0  0  0  0  0
  149.1920  139.2195  156.4715 H   0  0  0  0  0  0  0  0  0  0  0  0
  149.5843  139.8206  158.7412 H   0  0  0  0  0  0  0  0  0  0  0  0
  149.1219  141.4837  158.4701 H   0  0  0  0  0  0  0  0  0  0  0  0
  150.5286  132.2936  156.7877 H   0  0  0  0  0  0  0  0  0  0  0  0
  1  2  1  0  0  0  0
  1 23  1  0  0  0  0
  1 24  1  0  0  0  0
  1 25  1  0  0  0  0
  2 22  1  0  0  0  0
  2  3  2  0  0  0  0
  3  4  1  0  0  0  0
  3 26  1  0  0  0  0
  4  5  2  0  0  0  0
  4 27  1  0  0  0  0
  5  6  1  0  0  0  0
  5 21  1  0  0  0  0
  6  7  1  0  0  0  0
  6 28  1  0  0  0  0
  7  8  2  0  0  0  0
  7  9  1  0  0  0  0
  9 10  1  0  0  0  0
  9 29  1  0  0  0  0
 10 16  1  0  0  0  0
 10 11  1  0  0  0  0
 10 30  1  0  0  0  0
 11 15  1  0  0  0  0
 11 12  1  0  0  0  0
 11 31  1  0  0  0  0
 12 13  1  0  0  0  0
 12 32  1  0  0  0  0
 12 33  1  0  0  0  0
 13 14  1  0  0  0  0
 13 34  1  0  0  0  0
 13 35  1  0  0  0  0
 14 15  1  0  0  0  0
 15 16  1  0  0  0  0
 15 36  1  0  0  0  0
 16 20  1  0  0  0  0
 16 17  1  0  0  0  0
 17 18  1  0  0  0  0
 17 37  1  0  0  0  0
 17 38  1  0  0  0  0
 18 19  1  0  0  0  0
 18 39  1  0  0  0  0
 18 40  1  0  0  0  0
 19 20  1  0  0  0  0
 19 41  1  0  0  0  0
 19 42  1  0  0  0  0
 20 43  1  0  0  0  0
 20 44  1  0  0  0  0
 21 22  2  0  0  0  0
 22 45  1  0  0  0  0
M  END
> <s_m_source_file>
AV-unprocessed.smi

> <i_m_source_file_index>
2217

> <i_lp_mmshare_version>
43012

> <i_f3d_flags>
0

> <s_epik_input>
W0NIM11jMVtjSF1bY0hdYyhuW2NIXTEpW05IXUMoPU8pW05IXVtDQEBIXTJbQ0BASF0oW0NIMl1bQ0gyXU8zKVtDQEhdM0MyNFtDSDJdW0NIMl1bQ0gyXVtDSDJdNA==

> <s_epik_cmdline>
J2VwaWtfcHl0aG9uJywgJy1waCcsICc3LjAnLCAnLXRuJywgJzgnLCAnLW1hJywgJzIwMCcsICctbWV0YWxfYmluZGluZycsICctaW1hZScsICc8aW5maWxlLm1hZT4nLCAnLW9tYWUnLCAnPG91dGZpbGUubWFlPic=

> <r_lp_tautomer_probability>
1

> <r_epik_Ionization_Penalty>
6.14796e-05

> <r_epik_Ionization_Penalty_Charging>
0

> <r_epik_Ionization_Penalty_Neutral>
6.14796e-05

> <r_epik_State_Penalty>
-0

> <r_epik_Charging_Adjusted_Penalty>
0

> <i_epik_Tot_Q>
0

> <i_epik_Tot_abs_Q>
0

> <r_epik_Metal_State_Penalty>
-0

> <b_epik_Metal_Only>
0

> <s_lp_Force_Field>
OPLS_2005

> <r_lp_Energy>
79.4862

> <b_lp_Chiralities_Consistent>
1

> <s_lp_Variant>
AV-unprocessed.smi:2217-1

> <Gold.Version>
5.8.1

> <Gold.Id.Protein>
6NUR|6NUR_protein|mol2

> <Gold.PLP.Fitness>
36.8475

> <Gold.PLP.PLP>
-35.7118

> <Gold.PLP.part.hbond>
-1.0806

> <Gold.PLP.part.metal>
0.0000

> <Gold.PLP.part.buried>
-5.8908

> <Gold.PLP.part.nonpolar>
-29.2892

> <Gold.PLP.part.repulsive>
0.1854

> <Gold.PLP.ligand.clash>
0.0000

> <Gold.PLP.ligand.torsion>
0.2402

> <Gold.PLP.Chemscore.Hbond>
0.4449

> <Gold.PLP.Chemscore.CHOScore>
0.0000

> <Gold.PLP.Chemscore.Metal>
0.0000

> <Gold.Chemscore.Hbonds>
donor molecule, donor type, donor heavy atom, donor atom, acceptor molecule, acceptor atom, score
      P1  H  6896  6909       L1    21  0.44

> <Gold.PLP.Chemscore.Internal.Correction>
0.2814

> <Gold.Rescore>
     Score         DG    S(hbond)    S(metal)    S(lipo)     H(rot)  DE(clash)    DE(int)     intcor
     14.55     -16.23       0.71        0.00      93.44       1.00       0.00       1.68       ----

> <Gold.Chemscore.Fitness>
14.5488

> <Gold.Chemscore.DG>
-16.2322

> <Gold.Chemscore.ZeroCoef>
-5.4800

> <Gold.Chemscore.Hbond>
0.7124

> <Gold.Chemscore.Metal>
0.0000

> <Gold.Chemscore.Lipo>
93.4416

> <Gold.Chemscore.Internal_Hbond>
0.0000

> <Gold.Chemscore.DEClash>
0.0000

> <Gold.Chemscore.DEInternal>
1.6833

> <Gold.Chemscore.Rot>
1.0000

> <Gold.Chemscore.Internal.Correction>
   9.000000E+99

> <Gold.Chemscore.Hbonds>
donor molecule, donor type, donor heavy atom, donor atom, acceptor molecule, acceptor atom, score
      P1  H  6896  6909       L1    21  0.37

> <Gold.Chemscore.Hbond.Weighted>
-2.3795

> <Gold.Chemscore.Metal.Weighted>
-0.0000

> <Gold.Chemscore.Lipo.Weighted>
-10.9327

> <Gold.Chemscore.Internal_Hbond.Weighted>
0.0000

> <Gold.Chemscore.DEClash.Weighted>
0.0000

> <Gold.Chemscore.DEInternal.Weighted>
1.6833

> <Gold.Chemscore.Rot.Weighted>
2.5600

> <Gold.Chemscore.Internal.Correction.Weighted>
   9.000000E+99

> <Gold.Protein.RotatedTorsions>
[ 6907 6896 6895 6894 ] final   -3.57 input  -60.11 | X-H torsion
[ 7974 7965 7964 7962 ] final  -54.88 input  175.53 | X-H torsion
[ 8008 7997 7996 7995 ] final -155.31 input   59.86 | X-H torsion
[ 10167 10162 10161 10158 ] final  124.97 input  -65.29 | X-H torsion
[ 10718 10713 10712 10709 ] final  -26.06 input   66.30 | X-H torsion
[ 10763 10752 10751 10750 ] final   89.52 input  -60.55 | X-H torsion
[ 11005 11000 10999 10996 ] final   10.84 input  -57.11 | X-H torsion

> <Gold.Protein.ActiveResidues>
 VAL166  LYS551  ARG553  GLY616  TRP617  ASP618  TYR619  PRO620  LYS621  CYS622 
 ASP623  PHE694  ASN695  SER759  ASP760  ASP761  ALA762  ILE779  LEU786  VAL792 
 PHE793  MET794  SER795  GLU796  ALA797  LYS798  CYS799  TRP800  GLU811  SER814 

> <Gold.Protein.RotatedAtoms>
  151.5117  135.1065  159.9855 H   0  0  0  0  0  0  0  0  0  0  0  0  # atno 6907 bound_to 6896
  152.4659  133.7917  159.6916 H   0  0  0  0  0  0  0  0  0  0  0  0  # atno 6908 bound_to 6896
  150.8642  133.7535  159.3008 H   0  0  0  0  0  0  0  0  0  0  0  0  # atno 6909 bound_to 6896
  145.8806  140.8148  142.9842 H   0  0  0  0  0  0  0  0  0  0  0  0  # atno 7974 bound_to 7965
  155.6999  140.0765  157.2414 H   0  0  0  0  0  0  0  0  0  0  0  0  # atno 8008 bound_to 7997
  154.4075  140.1649  156.2232 H   0  0  0  0  0  0  0  0  0  0  0  0  # atno 8009 bound_to 7997
  155.9377  140.3387  155.6304 H   0  0  0  0  0  0  0  0  0  0  0  0  # atno 8010 bound_to 7997
  139.5711  144.6939  151.3775 H   0  0  0  0  0  0  0  0  0  0  0  0  # atno 10167 bound_to 10162
  156.4562  130.4494  149.6958 H   0  0  0  0  0  0  0  0  0  0  0  0  # atno 10718 bound_to 10713
  153.1880  135.4467  155.0113 H   0  0  0  0  0  0  0  0  0  0  0  0  # atno 10763 bound_to 10752
  154.8072  135.3279  154.7402 H   0  0  0  0  0  0  0  0  0  0  0  0  # atno 10764 bound_to 10752
  153.7859  135.6974  153.4935 H   0  0  0  0  0  0  0  0  0  0  0  0  # atno 10765 bound_to 10752
  140.5099  134.0662  155.7815 H   0  0  0  0  0  0  0  0  0  0  0  0  # atno 11005 bound_to 11000
  144.6727  140.1377  143.7439 LP  0  0  0  0  0  0  0  0  0  0  0  0  # atno 17320 bound_to 7965
  145.9028  139.2441  143.1483 LP  0  0  0  0  0  0  0  0  0  0  0  0  # atno 17321 bound_to 7965
  140.6996  143.7665  150.7381 LP  0  0  0  0  0  0  0  0  0  0  0  0  # atno 17342 bound_to 10162
  140.1172  143.4645  152.2335 LP  0  0  0  0  0  0  0  0  0  0  0  0  # atno 17343 bound_to 10162
  156.3764  130.7557  151.2545 LP  0  0  0  0  0  0  0  0  0  0  0  0  # atno 17370 bound_to 10713
  157.7500  131.0308  150.4154 LP  0  0  0  0  0  0  0  0  0  0  0  0  # atno 17371 bound_to 10713
  141.1391  133.9170  157.2367 LP  0  0  0  0  0  0  0  0  0  0  0  0  # atno 17394 bound_to 11000
  139.9665  135.0140  156.9400 LP  0  0  0  0  0  0  0  0  0  0  0  0  # atno 17395 bound_to 11000

$$$$
