AV-unprocessed.smi:1736|AV-procd|sdf|6990|dock3
  -GOLD-   22720 8203D 1   1.00000     0.00000
 Structure written by MMmdl.
 45 46  0  0  0  0  0  0  0  0  2 V2000
  143.9840  133.2540  150.2717 C   0  0  0  0  0  0  0  0  0  0  0  0
  145.3551  133.8107  150.2080 N   0  3  0  0  0  0  0  0  0  0  0  0
  146.4227  132.7854  150.2428 C   0  0  0  0  0  0  0  0  0  0  0  0
  146.6284  132.2318  151.6669 C   0  0  0  0  0  0  0  0  0  0  0  0
  146.9807  133.3189  152.5958 N   0  0  0  0  0  0  0  0  0  0  0  0
  147.4417  132.8643  153.9361 C   0  0  0  0  0  0  0  0  0  0  0  0
  146.4003  131.8912  154.5452 C   0  0  0  0  0  0  0  0  0  0  0  0
  148.8061  132.1385  153.8589 C   0  0  0  0  0  0  0  0  0  0  0  0
  147.5782  134.0766  154.9049 C   0  0  0  0  0  0  0  0  0  0  0  0
  148.3900  135.1625  154.3543 N   0  0  0  0  0  0  0  0  0  0  0  0
  148.9721  136.1420  155.0608 C   0  0  0  0  0  0  0  0  0  0  0  0
  148.8974  136.2390  156.2854 O   0  0  0  0  0  0  0  0  0  0  0  0
  149.6278  136.9951  154.2579 N   0  0  0  0  0  0  0  0  0  0  0  0
  150.3785  138.1325  154.6460 C   0  0  0  0  0  0  0  0  0  0  0  0
  150.2295  139.4928  154.2447 C   0  0  0  0  0  0  0  0  0  0  0  0
  151.1260  140.2683  154.8382 N   0  0  0  0  0  0  0  0  0  0  0  0
  151.8419  139.4207  155.6109 N   0  0  0  0  0  0  0  0  0  0  0  0
  151.4197  138.1126  155.5251 C   0  0  0  0  0  0  0  0  0  0  0  0
  145.8499  134.2623  152.6164 C   0  0  0  0  0  0  0  0  0  0  0  0
  145.6240  134.8628  151.2141 C   0  0  0  0  0  0  0  0  0  0  0  0
  152.6056  139.7470  156.1856 H   0  0  0  0  0  0  0  0  0  0  0  0
  143.7930  132.7452  151.2165 H   0  0  0  0  0  0  0  0  0  0  0  0
  143.8244  132.5392  149.4638 H   0  0  0  0  0  0  0  0  0  0  0  0
  143.2452  134.0482  150.1594 H   0  0  0  0  0  0  0  0  0  0  0  0
  146.1860  131.9780  149.5489 H   0  0  0  0  0  0  0  0  0  0  0  0
  147.3514  133.2346  149.8877 H   0  0  0  0  0  0  0  0  0  0  0  0
  145.7334  131.7089  152.0039 H   0  0  0  0  0  0  0  0  0  0  0  0
  147.4217  131.4902  151.6092 H   0  0  0  0  0  0  0  0  0  0  0  0
  146.5980  131.7169  155.6035 H   0  0  0  0  0  0  0  0  0  0  0  0
  146.4190  130.9091  154.0733 H   0  0  0  0  0  0  0  0  0  0  0  0
  145.3847  132.2809  154.4674 H   0  0  0  0  0  0  0  0  0  0  0  0
  149.1124  131.7930  154.8469 H   0  0  0  0  0  0  0  0  0  0  0  0
  149.6021  132.7886  153.4964 H   0  0  0  0  0  0  0  0  0  0  0  0
  148.7737  131.2587  153.2168 H   0  0  0  0  0  0  0  0  0  0  0  0
  146.5860  134.4441  155.1737 H   0  0  0  0  0  0  0  0  0  0  0  0
  148.0141  133.7796  155.8578 H   0  0  0  0  0  0  0  0  0  0  0  0
  148.5040  135.1737  153.3518 H   0  0  0  0  0  0  0  0  0  0  0  0
  149.5908  136.8095  153.2665 H   0  0  0  0  0  0  0  0  0  0  0  0
  149.5216  139.9418  153.5639 H   0  0  0  0  0  0  0  0  0  0  0  0
  151.8833  137.3102  156.0798 H   0  0  0  0  0  0  0  0  0  0  0  0
  144.9431  133.7740  152.9731 H   0  0  0  0  0  0  0  0  0  0  0  0
  146.0435  135.0959  153.2878 H   0  0  0  0  0  0  0  0  0  0  0  0
  146.5108  135.4205  150.9086 H   0  0  0  0  0  0  0  0  0  0  0  0
  144.8018  135.5791  151.2324 H   0  0  0  0  0  0  0  0  0  0  0  0
  145.4197  134.2579  149.3046 H   0  0  0  0  0  0  0  0  0  0  0  0
  1  2  1  0  0  0  0
  1 22  1  0  0  0  0
  1 23  1  0  0  0  0
  1 24  1  0  0  0  0
  2 20  1  0  0  0  0
  2  3  1  0  0  0  0
  2 45  1  0  0  0  0
  3  4  1  0  0  0  0
  3 25  1  0  0  0  0
  3 26  1  0  0  0  0
  4  5  1  0  0  0  0
  4 27  1  0  0  0  0
  4 28  1  0  0  0  0
  5  6  1  0  0  0  0
  5 19  1  0  0  0  0
  6  7  1  0  0  0  0
  6  8  1  0  0  0  0
  6  9  1  0  0  0  0
  7 29  1  0  0  0  0
  7 30  1  0  0  0  0
  7 31  1  0  0  0  0
  8 32  1  0  0  0  0
  8 33  1  0  0  0  0
  8 34  1  0  0  0  0
  9 10  1  0  0  0  0
  9 35  1  0  0  0  0
  9 36  1  0  0  0  0
 10 11  1  0  0  0  0
 10 37  1  0  0  0  0
 11 12  2  0  0  0  0
 11 13  1  0  0  0  0
 13 14  1  0  0  0  0
 13 38  1  0  0  0  0
 14 18  2  0  0  0  0
 14 15  1  0  0  0  0
 15 16  2  0  0  0  0
 15 39  1  0  0  0  0
 16 17  1  0  0  0  0
 17 21  1  0  0  0  0
 17 18  1  0  0  0  0
 18 40  1  0  0  0  0
 19 20  1  0  0  0  0
 19 41  1  0  0  0  0
 19 42  1  0  0  0  0
 20 43  1  0  0  0  0
 20 44  1  0  0  0  0
M  CHG  1   2   1
M  END
> <s_m_source_file>
AV-unprocessed.smi

> <i_m_source_file_index>
1736

> <i_lp_mmshare_version>
43012

> <i_f3d_flags>
0

> <s_epik_input>
W0NIM11OMVtDSDJdW0NIMl1OKFtDSDJdW0NIMl0xKUMoW0NIM10pKFtDSDNdKVtDSDJdW05IXUMoPU8pW05IXWMyW2NIXW5bbkhdW2NIXTI=

> <s_epik_cmdline>
J2VwaWtfcHl0aG9uJywgJy1waCcsICc3LjAnLCAnLXRuJywgJzgnLCAnLW1hJywgJzIwMCcsICctbWV0YWxfYmluZGluZycsICctaW1hZScsICc8aW5maWxlLm1hZT4nLCAnLW9tYWUnLCAnPG91dGZpbGUubWFlPic=

> <r_lp_tautomer_probability>
0.5

> <r_epik_Ionization_Penalty>
0.0248316

> <r_epik_Ionization_Penalty_Charging>
0.0238192

> <r_epik_Ionization_Penalty_Neutral>
0.00101244

> <r_epik_State_Penalty>
0.139266

> <r_epik_Charging_Adjusted_Penalty>
0.163085

> <i_epik_Tot_Q>
1

> <i_epik_Tot_abs_Q>
1

> <r_epik_Metal_State_Penalty>
0.139266

> <b_epik_Metal_Only>
0

> <s_lp_Force_Field>
OPLS_2005

> <r_lp_Energy>
29.1357

> <b_lp_Chiralities_Consistent>
1

> <s_lp_Variant>
AV-unprocessed.smi:1736-1

> <Gold.Version>
5.8.1

> <Gold.Id.Protein>
6NUR|6NUR_protein|mol2

> <Gold.PLP.Fitness>
39.4209

> <Gold.PLP.PLP>
-27.6164

> <Gold.PLP.part.hbond>
-4.3946

> <Gold.PLP.part.metal>
0.0000

> <Gold.PLP.part.buried>
-1.3925

> <Gold.PLP.part.nonpolar>
-22.3257

> <Gold.PLP.part.repulsive>
0.4994

> <Gold.PLP.ligand.clash>
0.0000

> <Gold.PLP.ligand.torsion>
0.8829

> <Gold.PLP.Chemscore.Hbond>
3.5120

> <Gold.PLP.Chemscore.CHOScore>
1.0000

> <Gold.PLP.Chemscore.Metal>
0.0000

> <Gold.Chemscore.Hbonds>
donor molecule, donor type, donor heavy atom, donor atom, acceptor molecule, acceptor atom, score
      L1  H     2    45       P1  7921  1.00
      L1  H    10    37       P1  7948  0.93
      L1  H    13    38       P1  7948  1.00
      P1  H  7989  7998       L1    16  0.70
      L1  C    15    39       P1  7957  0.97

> <Gold.PLP.Chemscore.Internal.Correction>
0.0343

> <Gold.Rescore>
     Score         DG    S(hbond)    S(metal)    S(lipo)     H(rot)  DE(clash)    DE(int)     intcor
     17.41     -18.63       2.80        0.00      68.11       1.63       0.26       0.96       ----

> <Gold.Chemscore.Fitness>
17.4119

> <Gold.Chemscore.DG>
-18.6302

> <Gold.Chemscore.ZeroCoef>
-5.4800

> <Gold.Chemscore.Hbond>
2.7980

> <Gold.Chemscore.Metal>
0.0000

> <Gold.Chemscore.Lipo>
68.1142

> <Gold.Chemscore.Internal_Hbond>
0.0000

> <Gold.Chemscore.DEClash>
0.2613

> <Gold.Chemscore.DEInternal>
0.9570

> <Gold.Chemscore.Rot>
1.6267

> <Gold.Chemscore.Internal.Correction>
   9.000000E+99

> <Gold.Chemscore.Hbonds>
donor molecule, donor type, donor heavy atom, donor atom, acceptor molecule, acceptor atom, score
      L1  H     2    45       P1  7921  0.92
      L1  H    10    37       P1  7948  0.81
      L1  H    13    38       P1  7948  0.64
      P1  H  7989  7998       L1    16  0.07

> <Gold.Chemscore.Hbond.Weighted>
-9.3453

> <Gold.Chemscore.Metal.Weighted>
-0.0000

> <Gold.Chemscore.Lipo.Weighted>
-7.9694

> <Gold.Chemscore.Internal_Hbond.Weighted>
0.0000

> <Gold.Chemscore.DEClash.Weighted>
0.2613

> <Gold.Chemscore.DEInternal.Weighted>
0.9570

> <Gold.Chemscore.Rot.Weighted>
4.1645

> <Gold.Chemscore.Internal.Correction.Weighted>
   9.000000E+99

> <Gold.Protein.RotatedTorsions>
[ 6907 6896 6895 6894 ] final   -3.04 input  -60.11 | X-H torsion
[ 7974 7965 7964 7962 ] final  161.98 input  175.53 | X-H torsion
[ 8008 7997 7996 7995 ] final  -21.75 input   59.86 | X-H torsion
[ 10167 10162 10161 10158 ] final    4.57 input  -65.29 | X-H torsion
[ 10718 10713 10712 10709 ] final -153.15 input   66.30 | X-H torsion
[ 10763 10752 10751 10750 ] final -139.78 input  -60.55 | X-H torsion
[ 11005 11000 10999 10996 ] final -116.06 input  -57.11 | X-H torsion

> <Gold.Protein.ActiveResidues>
 VAL166  LYS551  ARG553  GLY616  TRP617  ASP618  TYR619  PRO620  LYS621  CYS622 
 ASP623  PHE694  ASN695  SER759  ASP760  ASP761  ALA762  ILE779  LEU786  VAL792 
 PHE793  MET794  SER795  GLU796  ALA797  LYS798  CYS799  TRP800  GLU811  SER814 

> <Gold.Protein.RotatedAtoms>
  151.5202  135.1067  159.9876 H   0  0  0  0  0  0  0  0  0  0  0  0  # atno 6907 bound_to 6896
  152.4624  133.7846  159.6879 H   0  0  0  0  0  0  0  0  0  0  0  0  # atno 6908 bound_to 6896
  150.8592  133.7605  159.3023 H   0  0  0  0  0  0  0  0  0  0  0  0  # atno 6909 bound_to 6896
  144.7659  139.7975  143.6315 H   0  0  0  0  0  0  0  0  0  0  0  0  # atno 7974 bound_to 7965
  154.4686  140.2026  156.0052 H   0  0  0  0  0  0  0  0  0  0  0  0  # atno 8008 bound_to 7997
  156.0972  140.3249  155.7864 H   0  0  0  0  0  0  0  0  0  0  0  0  # atno 8009 bound_to 7997
  155.4859  140.0542  157.2951 H   0  0  0  0  0  0  0  0  0  0  0  0  # atno 8010 bound_to 7997
  140.6528  143.7503  150.7603 H   0  0  0  0  0  0  0  0  0  0  0  0  # atno 10167 bound_to 10162
  156.4820  130.8307  151.2534 H   0  0  0  0  0  0  0  0  0  0  0  0  # atno 10718 bound_to 10713
  154.8599  135.3572  154.5601 H   0  0  0  0  0  0  0  0  0  0  0  0  # atno 10763 bound_to 10752
  153.6216  135.7005  153.5313 H   0  0  0  0  0  0  0  0  0  0  0  0  # atno 10764 bound_to 10752
  153.3124  135.4175  155.1307 H   0  0  0  0  0  0  0  0  0  0  0  0  # atno 10765 bound_to 10752
  141.0447  133.9781  157.2937 H   0  0  0  0  0  0  0  0  0  0  0  0  # atno 11005 bound_to 11000
  146.1765  139.4938  142.9894 LP  0  0  0  0  0  0  0  0  0  0  0  0  # atno 17320 bound_to 7965
  145.6472  141.0271  143.1779 LP  0  0  0  0  0  0  0  0  0  0  0  0  # atno 17321 bound_to 7965
  140.1157  143.4658  152.2343 LP  0  0  0  0  0  0  0  0  0  0  0  0  # atno 17342 bound_to 10162
  139.5745  144.7480  151.3801 LP  0  0  0  0  0  0  0  0  0  0  0  0  # atno 17343 bound_to 10162
  157.7482  131.0042  150.3066 LP  0  0  0  0  0  0  0  0  0  0  0  0  # atno 17370 bound_to 10713
  156.3512  130.3831  149.7327 LP  0  0  0  0  0  0  0  0  0  0  0  0  # atno 17371 bound_to 10713
  139.9302  135.0200  156.8375 LP  0  0  0  0  0  0  0  0  0  0  0  0  # atno 17394 bound_to 11000
  140.6169  134.0030  155.7601 LP  0  0  0  0  0  0  0  0  0  0  0  0  # atno 17395 bound_to 11000

$$$$
