AV-unprocessed.smi:400|AV-procd|sdf|2493|dock8
  -GOLD-   2262022443D 1   1.00000     0.00000
 Structure written by MMmdl.
 40 41  0  0  0  0  0  0  0  0  1 V2000
  153.7944  136.4969  163.9864 C   0  0  0  0  0  0  0  0  0  0  0  0
  155.1191  136.0999  163.3156 C   0  0  0  0  0  0  0  0  0  0  0  0
  155.0117  135.8512  161.7945 C   0  0  1  0  0  0  0  0  0  0  0  0
  154.4211  134.4601  161.5058 C   0  0  0  0  0  0  0  0  0  0  0  0
  154.1795  136.9379  161.0953 C   0  0  0  0  0  0  0  0  0  0  0  0
  153.2354  136.6120  160.3744 O   0  0  0  0  0  0  0  0  0  0  0  0
  154.5571  138.2088  161.3314 N   0  0  0  0  0  0  0  0  0  0  0  0
  153.9552  139.4071  160.8645 C   0  0  0  0  0  0  0  0  0  0  0  0
  154.2856  140.5679  161.5951 C   0  0  0  0  0  0  0  0  0  0  0  0
  153.7279  141.8056  161.2220 C   0  0  0  0  0  0  0  0  0  0  0  0
  152.8393  141.8675  160.1222 C   0  0  0  0  0  0  0  0  0  0  0  0
  152.2370  143.0701  159.6924 N   0  0  0  0  0  0  0  0  0  0  0  0
  152.2450  144.1656  160.6590 C   0  0  0  0  0  0  0  0  0  0  0  0
  151.2921  145.2861  160.2073 C   0  0  0  0  0  0  0  0  0  0  0  0
  151.6322  145.7064  158.8902 O   0  0  0  0  0  0  0  0  0  0  0  0
  151.5037  144.6470  157.9483 C   0  0  0  0  0  0  0  0  0  0  0  0
  152.4660  143.5049  158.3173 C   0  0  0  0  0  0  0  0  0  0  0  0
  152.5778  140.6506  159.4510 C   0  0  0  0  0  0  0  0  0  0  0  0
  153.1131  139.4640  159.8055 N   0  0  0  0  0  0  0  0  0  0  0  0
  153.9498  136.7239  165.0412 H   0  0  0  0  0  0  0  0  0  0  0  0
  153.0571  135.6959  163.9307 H   0  0  0  0  0  0  0  0  0  0  0  0
  153.3651  137.3823  163.5167 H   0  0  0  0  0  0  0  0  0  0  0  0
  155.8431  136.8960  163.4928 H   0  0  0  0  0  0  0  0  0  0  0  0
  155.5232  135.2162  163.8117 H   0  0  0  0  0  0  0  0  0  0  0  0
  156.0211  135.8689  161.3793 H   0  0  0  0  0  0  0  0  0  0  0  0
  154.3301  134.2806  160.4337 H   0  0  0  0  0  0  0  0  0  0  0  0
  153.4310  134.3442  161.9488 H   0  0  0  0  0  0  0  0  0  0  0  0
  155.0575  133.6745  161.9137 H   0  0  0  0  0  0  0  0  0  0  0  0
  155.3624  138.3305  161.9279 H   0  0  0  0  0  0  0  0  0  0  0  0
  154.9581  140.5158  162.4392 H   0  0  0  0  0  0  0  0  0  0  0  0
  153.9849  142.6824  161.7969 H   0  0  0  0  0  0  0  0  0  0  0  0
  151.9516  143.8315  161.6532 H   0  0  0  0  0  0  0  0  0  0  0  0
  153.2613  144.5532  160.7417 H   0  0  0  0  0  0  0  0  0  0  0  0
  150.2545  144.9497  160.2375 H   0  0  0  0  0  0  0  0  0  0  0  0
  151.3695  146.1384  160.8823 H   0  0  0  0  0  0  0  0  0  0  0  0
  150.4721  144.2930  157.9216 H   0  0  0  0  0  0  0  0  0  0  0  0
  151.7358  145.0266  156.9531 H   0  0  0  0  0  0  0  0  0  0  0  0
  153.4984  143.8405  158.2104 H   0  0  0  0  0  0  0  0  0  0  0  0
  152.3164  142.6725  157.6285 H   0  0  0  0  0  0  0  0  0  0  0  0
  151.9305  140.6181  158.5872 H   0  0  0  0  0  0  0  0  0  0  0  0
  1  2  1  0  0  0  0
  1 20  1  0  0  0  0
  1 21  1  0  0  0  0
  1 22  1  0  0  0  0
  2  3  1  0  0  0  0
  2 23  1  0  0  0  0
  2 24  1  0  0  0  0
  3  4  1  0  0  0  0
  3  5  1  0  0  0  0
  3 25  1  0  0  0  0
  4 26  1  0  0  0  0
  4 27  1  0  0  0  0
  4 28  1  0  0  0  0
  5  6  2  0  0  0  0
  5  7  1  0  0  0  0
  7  8  1  0  0  0  0
  7 29  1  0  0  0  0
  8 19  1  0  0  0  0
  8  9  2  0  0  0  0
  9 10  1  0  0  0  0
  9 30  1  0  0  0  0
 10 11  2  0  0  0  0
 10 31  1  0  0  0  0
 11 12  1  0  0  0  0
 11 18  1  0  0  0  0
 12 17  1  0  0  0  0
 12 13  1  0  0  0  0
 13 14  1  0  0  0  0
 13 32  1  0  0  0  0
 13 33  1  0  0  0  0
 14 15  1  0  0  0  0
 14 34  1  0  0  0  0
 14 35  1  0  0  0  0
 15 16  1  0  0  0  0
 16 17  1  0  0  0  0
 16 36  1  0  0  0  0
 16 37  1  0  0  0  0
 17 38  1  0  0  0  0
 17 39  1  0  0  0  0
 18 19  2  0  0  0  0
 18 40  1  0  0  0  0
M  END
> <s_m_source_file>
AV-unprocessed.smi

> <i_m_source_file_index>
400

> <i_lp_mmshare_version>
43012

> <i_f3d_flags>
0

> <s_epik_input>
W0NIM11bQ0gyXVtDQEhdKFtDSDNdKUMoPU8pW05IXWMxW2NIXVtjSF1jKFtjSF1uMSlOMltDSDJdW0NIMl1PW0NIMl1bQ0gyXTI=

> <s_epik_cmdline>
J2VwaWtfcHl0aG9uJywgJy1waCcsICc3LjAnLCAnLXRuJywgJzgnLCAnLW1hJywgJzIwMCcsICctbWV0YWxfYmluZGluZycsICctaW1hZScsICc8aW5maWxlLm1hZT4nLCAnLW9tYWUnLCAnPG91dGZpbGUubWFlPic=

> <r_lp_tautomer_probability>
1

> <r_epik_Ionization_Penalty>
0.00393323

> <r_epik_Ionization_Penalty_Charging>
0

> <r_epik_Ionization_Penalty_Neutral>
0.00393323

> <r_epik_State_Penalty>
0.00357844

> <r_epik_Charging_Adjusted_Penalty>
0.00357844

> <i_epik_Tot_Q>
0

> <i_epik_Tot_abs_Q>
0

> <r_epik_Metal_State_Penalty>
-0

> <b_epik_Metal_Only>
0

> <s_lp_Force_Field>
OPLS_2005

> <r_lp_Energy>
25.3606

> <b_lp_Chiralities_Consistent>
1

> <s_lp_Variant>
AV-unprocessed.smi:400-2

> <Gold.Version>
5.8.1

> <Gold.Id.Protein>
6NUR|6NUR_protein|mol2

> <Gold.PLP.Fitness>
44.1368

> <Gold.PLP.PLP>
-41.8815

> <Gold.PLP.part.hbond>
-1.9385

> <Gold.PLP.part.metal>
0.0000

> <Gold.PLP.part.buried>
-5.6239

> <Gold.PLP.part.nonpolar>
-35.0144

> <Gold.PLP.part.repulsive>
0.1293

> <Gold.PLP.ligand.clash>
0.0000

> <Gold.PLP.ligand.torsion>
0.5302

> <Gold.PLP.Chemscore.Hbond>
0.9750

> <Gold.PLP.Chemscore.CHOScore>
0.0000

> <Gold.PLP.Chemscore.Metal>
0.0000

> <Gold.Chemscore.Hbonds>
donor molecule, donor type, donor heavy atom, donor atom, acceptor molecule, acceptor atom, score
      P1  H  6896  6909       L1     6  1.00

> <Gold.PLP.Chemscore.Internal.Correction>
0.3906

> <Gold.Rescore>
     Score         DG    S(hbond)    S(metal)    S(lipo)     H(rot)  DE(clash)    DE(int)     intcor
     16.56     -18.28       0.99        0.00     109.82       1.30       0.06       1.66       ----

> <Gold.Chemscore.Fitness>
16.5640

> <Gold.Chemscore.DG>
-18.2847

> <Gold.Chemscore.ZeroCoef>
-5.4800

> <Gold.Chemscore.Hbond>
0.9863

> <Gold.Chemscore.Metal>
0.0000

> <Gold.Chemscore.Lipo>
109.8196

> <Gold.Chemscore.Internal_Hbond>
0.0000

> <Gold.Chemscore.DEClash>
0.0565

> <Gold.Chemscore.DEInternal>
1.6643

> <Gold.Chemscore.Rot>
1.3041

> <Gold.Chemscore.Internal.Correction>
   9.000000E+99

> <Gold.Chemscore.Hbonds>
donor molecule, donor type, donor heavy atom, donor atom, acceptor molecule, acceptor atom, score
      P1  H  6896  6909       L1     6  0.97

> <Gold.Chemscore.Hbond.Weighted>
-3.2944

> <Gold.Chemscore.Metal.Weighted>
-0.0000

> <Gold.Chemscore.Lipo.Weighted>
-12.8489

> <Gold.Chemscore.Internal_Hbond.Weighted>
0.0000

> <Gold.Chemscore.DEClash.Weighted>
0.0565

> <Gold.Chemscore.DEInternal.Weighted>
1.6643

> <Gold.Chemscore.Rot.Weighted>
3.3385

> <Gold.Chemscore.Internal.Correction.Weighted>
   9.000000E+99

> <Gold.Protein.RotatedTorsions>
[ 6907 6896 6895 6894 ] final  158.56 input  -60.11 | X-H torsion
[ 7974 7965 7964 7962 ] final  132.63 input  175.53 | X-H torsion
[ 8008 7997 7996 7995 ] final  -54.67 input   59.86 | X-H torsion
[ 10167 10162 10161 10158 ] final -139.50 input  -65.29 | X-H torsion
[ 10718 10713 10712 10709 ] final -131.19 input   66.30 | X-H torsion
[ 10763 10752 10751 10750 ] final  100.13 input  -60.55 | X-H torsion
[ 11005 11000 10999 10996 ] final  120.31 input  -57.11 | X-H torsion

> <Gold.Protein.ActiveResidues>
 VAL166  LYS551  ARG553  GLY616  TRP617  ASP618  TYR619  PRO620  LYS621  CYS622 
 ASP623  PHE694  ASN695  SER759  ASP760  ASP761  ALA762  ILE779  LEU786  VAL792 
 PHE793  MET794  SER795  GLU796  ALA797  LYS798  CYS799  TRP800  GLU811  SER814 

> <Gold.Protein.RotatedAtoms>
  151.9985  133.3817  159.4172 H   0  0  0  0  0  0  0  0  0  0  0  0  # atno 6907 bound_to 6896
  150.6913  134.3859  159.5064 H   0  0  0  0  0  0  0  0  0  0  0  0  # atno 6908 bound_to 6896
  152.1603  134.8917  160.0592 H   0  0  0  0  0  0  0  0  0  0  0  0  # atno 6909 bound_to 6896
  144.9948  139.4370  143.5321 H   0  0  0  0  0  0  0  0  0  0  0  0  # atno 7974 bound_to 7965
  154.4170  140.1171  156.5352 H   0  0  0  0  0  0  0  0  0  0  0  0  # atno 8008 bound_to 7997
  155.6564  140.3496  155.4747 H   0  0  0  0  0  0  0  0  0  0  0  0  # atno 8009 bound_to 7997
  155.9749  140.1149  157.0768 H   0  0  0  0  0  0  0  0  0  0  0  0  # atno 8010 bound_to 7997
  139.8373  143.7368  152.2664 H   0  0  0  0  0  0  0  0  0  0  0  0  # atno 10167 bound_to 10162
  156.2219  130.6984  151.0765 H   0  0  0  0  0  0  0  0  0  0  0  0  # atno 10718 bound_to 10713
  153.3100  135.4089  155.1327 H   0  0  0  0  0  0  0  0  0  0  0  0  # atno 10763 bound_to 10752
  154.8573  135.3562  154.5736 H   0  0  0  0  0  0  0  0  0  0  0  0  # atno 10764 bound_to 10752
  153.6165  135.7066  153.5385 H   0  0  0  0  0  0  0  0  0  0  0  0  # atno 10765 bound_to 10752
  139.9180  134.9634  156.7787 H   0  0  0  0  0  0  0  0  0  0  0  0  # atno 11005 bound_to 11000
  146.3439  139.9302  142.8754 LP  0  0  0  0  0  0  0  0  0  0  0  0  # atno 17320 bound_to 7965
  145.2234  140.9944  143.4032 LP  0  0  0  0  0  0  0  0  0  0  0  0  # atno 17321 bound_to 7965
  139.7594  144.7511  151.0387 LP  0  0  0  0  0  0  0  0  0  0  0  0  # atno 17342 bound_to 10162
  140.7801  143.4768  151.0071 LP  0  0  0  0  0  0  0  0  0  0  0  0  # atno 17343 bound_to 10162
  157.7092  131.0742  150.6562 LP  0  0  0  0  0  0  0  0  0  0  0  0  # atno 17370 bound_to 10713
  156.6625  130.4516  149.5683 LP  0  0  0  0  0  0  0  0  0  0  0  0  # atno 17371 bound_to 10713
  140.6561  133.9687  155.7780 LP  0  0  0  0  0  0  0  0  0  0  0  0  # atno 17394 bound_to 11000
  141.0675  134.0255  157.3573 LP  0  0  0  0  0  0  0  0  0  0  0  0  # atno 17395 bound_to 11000

$$$$
