AV-unprocessed.smi:694|AV-procd|sdf|3382|dock6
  -GOLD-   22720 0363D 1   1.00000     0.00000
 Structure written by MMmdl.
 42 43  0  0  0  0  0  0  0  0  1 V2000
  154.3184  141.0968  161.5791 C   0  0  0  0  0  0  0  0  0  0  0  0
  153.3021  142.1411  161.4977 N   0  0  0  0  0  0  0  0  0  0  0  0
  153.0889  143.0386  162.6263 C   0  0  0  0  0  0  0  0  0  0  0  0
  152.5176  142.2679  160.3285 C   0  0  0  0  0  0  0  0  0  0  0  0
  152.2687  143.5310  159.7369 C   0  0  0  0  0  0  0  0  0  0  0  0
  151.4776  143.6015  158.5743 C   0  0  0  0  0  0  0  0  0  0  0  0
  150.9468  142.4187  158.0250 C   0  0  0  0  0  0  0  0  0  0  0  0
  150.1677  142.5271  156.8402 N   0  0  0  0  0  0  0  0  0  0  0  0
  149.8561  141.5742  155.9445 C   0  0  0  0  0  0  0  0  0  0  0  0
  150.1680  140.3867  156.0265 O   0  0  0  0  0  0  0  0  0  0  0  0
  149.1312  142.0771  154.9352 N   0  0  0  0  0  0  0  0  0  0  0  0
  148.6333  141.3087  153.7984 C   0  0  0  0  0  0  0  0  0  0  0  0
  147.4061  140.4462  154.1646 C   0  0  2  0  0  0  0  0  0  0  0  0
  147.5960  139.5807  155.4154 C   0  0  0  0  0  0  0  0  0  0  0  0
  146.5623  138.4500  155.3003 C   0  0  0  0  0  0  0  0  0  0  0  0
  146.0007  138.5113  153.8708 C   0  0  0  0  0  0  0  0  0  0  0  0
  146.9240  139.4552  153.0929 C   0  0  2  0  0  0  0  0  0  0  0  0
  147.9994  138.7066  152.5567 O   0  0  0  0  0  0  0  0  0  0  0  0
  151.2571  141.2013  158.6760 C   0  0  0  0  0  0  0  0  0  0  0  0
  152.0137  141.1302  159.7914 N   0  0  0  0  0  0  0  0  0  0  0  0
  155.0631  141.2247  160.7928 H   0  0  0  0  0  0  0  0  0  0  0  0
  153.8636  140.1116  161.4683 H   0  0  0  0  0  0  0  0  0  0  0  0
  154.8376  141.1183  162.5373 H   0  0  0  0  0  0  0  0  0  0  0  0
  152.0743  142.9358  163.0122 H   0  0  0  0  0  0  0  0  0  0  0  0
  153.2467  144.0752  162.3273 H   0  0  0  0  0  0  0  0  0  0  0  0
  153.7780  142.8210  163.4423 H   0  0  0  0  0  0  0  0  0  0  0  0
  152.6671  144.4453  160.1499 H   0  0  0  0  0  0  0  0  0  0  0  0
  151.2808  144.5579  158.1128 H   0  0  0  0  0  0  0  0  0  0  0  0
  149.7747  143.4406  156.6674 H   0  0  0  0  0  0  0  0  0  0  0  0
  148.9169  143.0635  154.9476 H   0  0  0  0  0  0  0  0  0  0  0  0
  148.3836  142.0077  152.9999 H   0  0  0  0  0  0  0  0  0  0  0  0
  149.4311  140.6758  153.4061 H   0  0  0  0  0  0  0  0  0  0  0  0
  146.5721  141.1188  154.3732 H   0  0  0  0  0  0  0  0  0  0  0  0
  148.5998  139.1539  155.4258 H   0  0  0  0  0  0  0  0  0  0  0  0
  147.4775  140.1571  156.3335 H   0  0  0  0  0  0  0  0  0  0  0  0
  147.0344  137.4861  155.4936 H   0  0  0  0  0  0  0  0  0  0  0  0
  145.7616  138.5713  156.0307 H   0  0  0  0  0  0  0  0  0  0  0  0
  145.9114  137.5261  153.4113 H   0  0  0  0  0  0  0  0  0  0  0  0
  144.9985  138.9408  153.9025 H   0  0  0  0  0  0  0  0  0  0  0  0
  146.3999  139.9551  152.2776 H   0  0  0  0  0  0  0  0  0  0  0  0
  148.6077  139.3043  152.1500 H   0  0  0  0  0  0  0  0  0  0  0  0
  150.9199  140.2463  158.3062 H   0  0  0  0  0  0  0  0  0  0  0  0
  1  2  1  0  0  0  0
  1 21  1  0  0  0  0
  1 22  1  0  0  0  0
  1 23  1  0  0  0  0
  2  3  1  0  0  0  0
  2  4  1  0  0  0  0
  3 24  1  0  0  0  0
  3 25  1  0  0  0  0
  3 26  1  0  0  0  0
  4 20  1  0  0  0  0
  4  5  2  0  0  0  0
  5  6  1  0  0  0  0
  5 27  1  0  0  0  0
  6  7  2  0  0  0  0
  6 28  1  0  0  0  0
  7  8  1  0  0  0  0
  7 19  1  0  0  0  0
  8  9  1  0  0  0  0
  8 29  1  0  0  0  0
  9 10  2  0  0  0  0
  9 11  1  0  0  0  0
 11 12  1  0  0  0  0
 11 30  1  0  0  0  0
 12 13  1  0  0  0  0
 12 31  1  0  0  0  0
 12 32  1  0  0  0  0
 13 17  1  0  0  0  0
 13 14  1  0  0  0  0
 13 33  1  0  0  0  0
 14 15  1  0  0  0  0
 14 34  1  0  0  0  0
 14 35  1  0  0  0  0
 15 16  1  0  0  0  0
 15 36  1  0  0  0  0
 15 37  1  0  0  0  0
 16 17  1  0  0  0  0
 16 38  1  0  0  0  0
 16 39  1  0  0  0  0
 17 18  1  0  0  0  0
 17 40  1  0  0  0  0
 18 41  1  0  0  0  0
 19 20  2  0  0  0  0
 19 42  1  0  0  0  0
M  END
> <s_m_source_file>
AV-unprocessed.smi

> <i_m_source_file_index>
694

> <i_lp_mmshare_version>
43012

> <i_f3d_flags>
0

> <s_epik_input>
W0NIM11OKFtDSDNdKWMxW2NIXVtjSF1jKFtjSF1uMSlbTkhdQyg9TylbTkhdW0NIMl1bQ0BASF0yW0NIMl1bQ0gyXVtDSDJdW0NASF0yW09IXQ==

> <s_epik_cmdline>
J2VwaWtfcHl0aG9uJywgJy1waCcsICc3LjAnLCAnLXRuJywgJzgnLCAnLW1hJywgJzIwMCcsICctbWV0YWxfYmluZGluZycsICctaW1hZScsICc8aW5maWxlLm1hZT4nLCAnLW9tYWUnLCAnPG91dGZpbGUubWFlPic=

> <r_lp_tautomer_probability>
1

> <r_epik_Ionization_Penalty>
0.60335

> <r_epik_Ionization_Penalty_Charging>
0

> <r_epik_Ionization_Penalty_Neutral>
0.60335

> <r_epik_State_Penalty>
0.616805

> <r_epik_Charging_Adjusted_Penalty>
0.616805

> <i_epik_Tot_Q>
0

> <i_epik_Tot_abs_Q>
0

> <r_epik_Metal_State_Penalty>
0.301709

> <b_epik_Metal_Only>
0

> <s_lp_Force_Field>
OPLS_2005

> <r_lp_Energy>
30.3621

> <b_lp_Chiralities_Consistent>
1

> <s_lp_Variant>
AV-unprocessed.smi:694-7

> <Gold.Version>
5.8.1

> <Gold.Id.Protein>
6NUR|6NUR_protein|mol2

> <Gold.PLP.Fitness>
47.2581

> <Gold.PLP.PLP>
-40.2021

> <Gold.PLP.part.hbond>
-3.8853

> <Gold.PLP.part.metal>
0.0000

> <Gold.PLP.part.buried>
-3.5753

> <Gold.PLP.part.nonpolar>
-33.0972

> <Gold.PLP.part.repulsive>
0.2716

> <Gold.PLP.ligand.clash>
0.0000

> <Gold.PLP.ligand.torsion>
0.9797

> <Gold.PLP.Chemscore.Hbond>
3.0000

> <Gold.PLP.Chemscore.CHOScore>
0.0000

> <Gold.PLP.Chemscore.Metal>
0.0000

> <Gold.Chemscore.Hbonds>
donor molecule, donor type, donor heavy atom, donor atom, acceptor molecule, acceptor atom, score
      L1  H     8    29       P1  8028  1.00
      L1  H    11    30       P1  8028  1.00
      L1  H    18    41       P1  7957  1.00

> <Gold.PLP.Chemscore.Internal.Correction>
0.0154

> <Gold.Rescore>
     Score         DG    S(hbond)    S(metal)    S(lipo)     H(rot)  DE(clash)    DE(int)     intcor
     17.09     -21.07       2.98        0.00      86.02       1.73       0.77       3.21       ----

> <Gold.Chemscore.Fitness>
17.0874

> <Gold.Chemscore.DG>
-21.0679

> <Gold.Chemscore.ZeroCoef>
-5.4800

> <Gold.Chemscore.Hbond>
2.9766

> <Gold.Chemscore.Metal>
0.0000

> <Gold.Chemscore.Lipo>
86.0211

> <Gold.Chemscore.Internal_Hbond>
0.0000

> <Gold.Chemscore.DEClash>
0.7731

> <Gold.Chemscore.DEInternal>
3.2074

> <Gold.Chemscore.Rot>
1.7259

> <Gold.Chemscore.Internal.Correction>
   9.000000E+99

> <Gold.Chemscore.Hbonds>
donor molecule, donor type, donor heavy atom, donor atom, acceptor molecule, acceptor atom, score
      L1  H     8    29       P1  8028  0.98
      L1  H    11    30       P1  8028  0.99
      L1  H    18    41       P1  7957  0.97

> <Gold.Chemscore.Hbond.Weighted>
-9.9418

> <Gold.Chemscore.Metal.Weighted>
-0.0000

> <Gold.Chemscore.Lipo.Weighted>
-10.0645

> <Gold.Chemscore.Internal_Hbond.Weighted>
0.0000

> <Gold.Chemscore.DEClash.Weighted>
0.7731

> <Gold.Chemscore.DEInternal.Weighted>
3.2074

> <Gold.Chemscore.Rot.Weighted>
4.4184

> <Gold.Chemscore.Internal.Correction.Weighted>
   9.000000E+99

> <Gold.Protein.RotatedTorsions>
[ 6907 6896 6895 6894 ] final -157.66 input  -60.11 | X-H torsion
[ 7974 7965 7964 7962 ] final  147.90 input  175.53 | X-H torsion
[ 8008 7997 7996 7995 ] final  -35.33 input   59.86 | X-H torsion
[ 10167 10162 10161 10158 ] final  -40.76 input  -65.29 | X-H torsion
[ 10718 10713 10712 10709 ] final -179.03 input   66.30 | X-H torsion
[ 10763 10752 10751 10750 ] final   39.06 input  -60.55 | X-H torsion
[ 11005 11000 10999 10996 ] final  -37.50 input  -57.11 | X-H torsion

> <Gold.Protein.ActiveResidues>
 VAL166  LYS551  ARG553  GLY616  TRP617  ASP618  TYR619  PRO620  LYS621  CYS622 
 ASP623  PHE694  ASN695  SER759  ASP760  ASP761  ALA762  ILE779  LEU786  VAL792 
 PHE793  MET794  SER795  GLU796  ALA797  LYS798  CYS799  TRP800  GLU811  SER814 

> <Gold.Protein.RotatedAtoms>
  151.3063  133.4100  159.2643 H   0  0  0  0  0  0  0  0  0  0  0  0  # atno 6907 bound_to 6896
  151.0152  134.9428  159.8039 H   0  0  0  0  0  0  0  0  0  0  0  0  # atno 6908 bound_to 6896
  152.5311  134.3027  159.9137 H   0  0  0  0  0  0  0  0  0  0  0  0  # atno 6909 bound_to 6896
  144.8555  139.6086  143.5954 H   0  0  0  0  0  0  0  0  0  0  0  0  # atno 7974 bound_to 7965
  154.4098  140.1660  156.2194 H   0  0  0  0  0  0  0  0  0  0  0  0  # atno 8008 bound_to 7997
  155.9376  140.3410  155.6278 H   0  0  0  0  0  0  0  0  0  0  0  0  # atno 8009 bound_to 7997
  155.7028  140.0747  157.2394 H   0  0  0  0  0  0  0  0  0  0  0  0  # atno 8010 bound_to 7997
  140.7024  143.3134  151.2970 H   0  0  0  0  0  0  0  0  0  0  0  0  # atno 10167 bound_to 10162
  156.8531  130.9726  151.3090 H   0  0  0  0  0  0  0  0  0  0  0  0  # atno 10718 bound_to 10713
  152.9979  135.6231  154.2405 H   0  0  0  0  0  0  0  0  0  0  0  0  # atno 10763 bound_to 10752
  154.2146  135.2798  155.2948 H   0  0  0  0  0  0  0  0  0  0  0  0  # atno 10764 bound_to 10752
  154.5579  135.5714  153.7039 H   0  0  0  0  0  0  0  0  0  0  0  0  # atno 10765 bound_to 10752
  140.9956  133.6982  156.1929 H   0  0  0  0  0  0  0  0  0  0  0  0  # atno 11005 bound_to 11000
  146.2820  139.6902  142.9222 LP  0  0  0  0  0  0  0  0  0  0  0  0  # atno 17320 bound_to 7965
  145.4414  141.0422  143.2855 LP  0  0  0  0  0  0  0  0  0  0  0  0  # atno 17321 bound_to 7965
  139.6565  144.0267  152.2663 LP  0  0  0  0  0  0  0  0  0  0  0  0  # atno 17342 bound_to 10162
  139.9820  144.6421  150.7892 LP  0  0  0  0  0  0  0  0  0  0  0  0  # atno 17343 bound_to 10162
  157.6292  130.8716  149.9244 LP  0  0  0  0  0  0  0  0  0  0  0  0  # atno 17370 bound_to 10713
  156.0817  130.3672  150.0567 LP  0  0  0  0  0  0  0  0  0  0  0  0  # atno 17371 bound_to 10713
  140.6970  134.4604  157.5587 LP  0  0  0  0  0  0  0  0  0  0  0  0  # atno 17394 bound_to 11000
  139.9013  134.8549  156.1884 LP  0  0  0  0  0  0  0  0  0  0  0  0  # atno 17395 bound_to 11000

$$$$
