AV-unprocessed.smi:1830|AV-procd|sdf|7440|dock10
  -GOLD-   22720 9123D 1   1.00000     0.00000
 Structure written by MMmdl.
 52 55  0  0  0  0  0  0  0  0  1 V2000
  150.3931  139.7391  154.1133 O   0  0  0  0  0  0  0  0  0  0  0  0
  149.8588  139.3970  155.1671 C   0  0  0  0  0  0  0  0  0  0  0  0
  150.4576  139.4950  156.3623 N   0  0  0  0  0  0  0  0  0  0  0  0
  151.8178  139.9727  156.5877 C   0  0  0  0  0  0  0  0  0  0  0  0
  152.1148  140.1402  158.0874 C   0  0  2  0  0  0  0  0  0  0  0  0
  151.8572  141.5867  158.5693 C   0  0  0  0  0  0  0  0  0  0  0  0
  152.2498  141.7189  159.9595 N   0  0  0  0  0  0  0  0  0  0  0  0
  152.1402  143.0322  160.5505 C   0  0  0  0  0  0  0  0  0  0  0  0
  152.9881  142.9419  161.8317 C   0  0  0  0  0  0  0  0  0  0  0  0
  153.9275  141.7395  161.5886 C   0  0  0  0  0  0  0  0  0  0  0  0
  153.6341  141.3707  160.1335 C   0  0  1  0  0  0  0  0  0  0  0  0
  153.8883  139.9202  159.6999 C   0  0  0  0  0  0  0  0  0  0  0  0
  153.4833  139.7923  158.3352 O   0  0  0  0  0  0  0  0  0  0  0  0
  148.6256  138.8775  155.2933 N   0  0  0  0  0  0  0  0  0  0  0  0
  147.6510  138.5596  154.2997 C   0  0  0  0  0  0  0  0  0  0  0  0
  147.6607  139.0968  152.9876 C   0  0  0  0  0  0  0  0  0  0  0  0
  146.6581  138.7139  152.0787 C   0  0  0  0  0  0  0  0  0  0  0  0
  145.6749  137.8080  152.5103 C   0  0  0  0  0  0  0  0  0  0  0  0
  145.6462  137.2911  153.7544 N   0  0  0  0  0  0  0  0  0  0  0  0
  146.6111  137.6497  154.6366 C   0  0  0  0  0  0  0  0  0  0  0  0
  146.5308  137.1166  155.9403 N   0  0  0  0  0  0  0  0  0  0  0  0
  147.6329  136.2151  156.2653 C   0  0  0  0  0  0  0  0  0  0  0  0
  147.9871  136.4714  157.7316 C   0  0  0  0  0  0  0  0  0  0  0  0
  147.5617  137.9193  157.9400 C   0  0  0  0  0  0  0  0  0  0  0  0
  146.3131  138.0232  157.0665 C   0  0  0  0  0  0  0  0  0  0  0  0
  149.9442  139.1898  157.1759 H   0  0  0  0  0  0  0  0  0  0  0  0
  152.5500  139.3114  156.1209 H   0  0  0  0  0  0  0  0  0  0  0  0
  151.9111  140.9362  156.0860 H   0  0  0  0  0  0  0  0  0  0  0  0
  151.4759  139.4602  158.6540 H   0  0  0  0  0  0  0  0  0  0  0  0
  152.4210  142.2893  157.9535 H   0  0  0  0  0  0  0  0  0  0  0  0
  150.8027  141.8406  158.4562 H   0  0  0  0  0  0  0  0  0  0  0  0
  152.5600  143.7834  159.8794 H   0  0  0  0  0  0  0  0  0  0  0  0
  151.1021  143.2989  160.7506 H   0  0  0  0  0  0  0  0  0  0  0  0
  153.5415  143.8657  162.0025 H   0  0  0  0  0  0  0  0  0  0  0  0
  152.3596  142.7611  162.7045 H   0  0  0  0  0  0  0  0  0  0  0  0
  154.9776  141.9866  161.7468 H   0  0  0  0  0  0  0  0  0  0  0  0
  153.6669  140.9170  162.2561 H   0  0  0  0  0  0  0  0  0  0  0  0
  154.2424  142.0204  159.5004 H   0  0  0  0  0  0  0  0  0  0  0  0
  154.9455  139.6701  159.7881 H   0  0  0  0  0  0  0  0  0  0  0  0
  153.3315  139.2171  160.3212 H   0  0  0  0  0  0  0  0  0  0  0  0
  148.3516  138.6420  156.2358 H   0  0  0  0  0  0  0  0  0  0  0  0
  148.4070  139.7956  152.6480 H   0  0  0  0  0  0  0  0  0  0  0  0
  146.6442  139.1080  151.0735 H   0  0  0  0  0  0  0  0  0  0  0  0
  144.8887  137.4922  151.8406 H   0  0  0  0  0  0  0  0  0  0  0  0
  147.3496  135.1753  156.1011 H   0  0  0  0  0  0  0  0  0  0  0  0
  148.4956  136.4291  155.6320 H   0  0  0  0  0  0  0  0  0  0  0  0
  147.3970  135.8178  158.3753 H   0  0  0  0  0  0  0  0  0  0  0  0
  149.0413  136.2989  157.9495 H   0  0  0  0  0  0  0  0  0  0  0  0
  147.3718  138.1645  158.9851 H   0  0  0  0  0  0  0  0  0  0  0  0
  148.3348  138.5922  157.5661 H   0  0  0  0  0  0  0  0  0  0  0  0
  146.1008  139.0536  156.7806 H   0  0  0  0  0  0  0  0  0  0  0  0
  145.4440  137.6630  157.6176 H   0  0  0  0  0  0  0  0  0  0  0  0
  1  2  2  0  0  0  0
  2  3  1  0  0  0  0
  2 14  1  0  0  0  0
  3  4  1  0  0  0  0
  3 26  1  0  0  0  0
  4  5  1  0  0  0  0
  4 27  1  0  0  0  0
  4 28  1  0  0  0  0
  5 13  1  0  0  0  0
  5  6  1  0  0  0  0
  5 29  1  0  0  0  0
  6  7  1  0  0  0  0
  6 30  1  0  0  0  0
  6 31  1  0  0  0  0
  7 11  1  0  0  0  0
  7  8  1  0  0  0  0
  8  9  1  0  0  0  0
  8 32  1  0  0  0  0
  8 33  1  0  0  0  0
  9 10  1  0  0  0  0
  9 34  1  0  0  0  0
  9 35  1  0  0  0  0
 10 11  1  0  0  0  0
 10 36  1  0  0  0  0
 10 37  1  0  0  0  0
 11 12  1  0  0  0  0
 11 38  1  0  0  0  0
 12 13  1  0  0  0  0
 12 39  1  0  0  0  0
 12 40  1  0  0  0  0
 14 15  1  0  0  0  0
 14 41  1  0  0  0  0
 15 20  1  0  0  0  0
 15 16  2  0  0  0  0
 16 17  1  0  0  0  0
 16 42  1  0  0  0  0
 17 18  2  0  0  0  0
 17 43  1  0  0  0  0
 18 19  1  0  0  0  0
 18 44  1  0  0  0  0
 19 20  2  0  0  0  0
 20 21  1  0  0  0  0
 21 25  1  0  0  0  0
 21 22  1  0  0  0  0
 22 23  1  0  0  0  0
 22 45  1  0  0  0  0
 22 46  1  0  0  0  0
 23 24  1  0  0  0  0
 23 47  1  0  0  0  0
 23 48  1  0  0  0  0
 24 25  1  0  0  0  0
 24 49  1  0  0  0  0
 24 50  1  0  0  0  0
 25 51  1  0  0  0  0
 25 52  1  0  0  0  0
M  END
> <s_m_source_file>
AV-unprocessed.smi

> <i_m_source_file_index>
1830

> <i_lp_mmshare_version>
43012

> <i_f3d_flags>
0

> <s_epik_input>
W0NIMl0xW0NIMl1bQ0gyXVtDQEhdKE4xMilbQ0gyXU9bQ0BASF0oW0NIMl0yKVtDSDJdW05IXUMoPU8pW05IXWMzW2NIXVtjSF1bY0hdbmMzTjRbQ0gyXVtDSDJdW0NIMl1bQ0gyXTQ=

> <s_epik_cmdline>
J2VwaWtfcHl0aG9uJywgJy1waCcsICc3LjAnLCAnLXRuJywgJzgnLCAnLW1hJywgJzIwMCcsICctbWV0YWxfYmluZGluZycsICctaW1hZScsICc8aW5maWxlLm1hZT4nLCAnLW9tYWUnLCAnPG91dGZpbGUubWFlPic=

> <r_lp_tautomer_probability>
1

> <r_epik_Ionization_Penalty>
1.16487

> <r_epik_Ionization_Penalty_Charging>
0

> <r_epik_Ionization_Penalty_Neutral>
1.16487

> <r_epik_State_Penalty>
1.21807

> <r_epik_Charging_Adjusted_Penalty>
1.21807

> <i_epik_Tot_Q>
0

> <i_epik_Tot_abs_Q>
0

> <r_epik_Metal_State_Penalty>
1.19922

> <b_epik_Metal_Only>
0

> <s_lp_Force_Field>
OPLS_2005

> <r_lp_Energy>
77.1598

> <b_lp_Chiralities_Consistent>
1

> <s_lp_Variant>
AV-unprocessed.smi:1830-9

> <Gold.Version>
5.8.1

> <Gold.Id.Protein>
6NUR|6NUR_protein|mol2

> <Gold.PLP.Fitness>
41.5654

> <Gold.PLP.PLP>
-33.7277

> <Gold.PLP.part.hbond>
-2.0000

> <Gold.PLP.part.metal>
0.0000

> <Gold.PLP.part.buried>
-1.4595

> <Gold.PLP.part.nonpolar>
-30.3313

> <Gold.PLP.part.repulsive>
0.7424

> <Gold.PLP.ligand.clash>
0.0000

> <Gold.PLP.ligand.torsion>
0.6390

> <Gold.PLP.Chemscore.Hbond>
2.0000

> <Gold.PLP.Chemscore.CHOScore>
1.0000

> <Gold.PLP.Chemscore.Metal>
0.0000

> <Gold.Chemscore.Hbonds>
donor molecule, donor type, donor heavy atom, donor atom, acceptor molecule, acceptor atom, score
      P1  H  7989  7998       L1     1  1.00
      P1  H  7997  8008       L1    13  1.00
      L1  C    18    44       P1 10171  1.00

> <Gold.PLP.Chemscore.Internal.Correction>
0.1157

> <Gold.Rescore>
     Score         DG    S(hbond)    S(metal)    S(lipo)     H(rot)  DE(clash)    DE(int)     intcor
     16.70     -19.93       1.94        0.00      98.09       1.37       0.18       3.04       ----

> <Gold.Chemscore.Fitness>
16.7024

> <Gold.Chemscore.DG>
-19.9273

> <Gold.Chemscore.ZeroCoef>
-5.4800

> <Gold.Chemscore.Hbond>
1.9429

> <Gold.Chemscore.Metal>
0.0000

> <Gold.Chemscore.Lipo>
98.0935

> <Gold.Chemscore.Internal_Hbond>
0.0000

> <Gold.Chemscore.DEClash>
0.1826

> <Gold.Chemscore.DEInternal>
3.0423

> <Gold.Chemscore.Rot>
1.3746

> <Gold.Chemscore.Internal.Correction>
   9.000000E+99

> <Gold.Chemscore.Hbonds>
donor molecule, donor type, donor heavy atom, donor atom, acceptor molecule, acceptor atom, score
      P1  H  7989  7998       L1     1  0.99
      P1  H  7997  8008       L1    13  0.91

> <Gold.Chemscore.Hbond.Weighted>
-6.4892

> <Gold.Chemscore.Metal.Weighted>
-0.0000

> <Gold.Chemscore.Lipo.Weighted>
-11.4769

> <Gold.Chemscore.Internal_Hbond.Weighted>
0.0000

> <Gold.Chemscore.DEClash.Weighted>
0.1826

> <Gold.Chemscore.DEInternal.Weighted>
3.0423

> <Gold.Chemscore.Rot.Weighted>
3.5189

> <Gold.Chemscore.Internal.Correction.Weighted>
   9.000000E+99

> <Gold.Protein.RotatedTorsions>
[ 6907 6896 6895 6894 ] final   13.66 input  -60.11 | X-H torsion
[ 7974 7965 7964 7962 ] final  -85.33 input  175.53 | X-H torsion
[ 8008 7997 7996 7995 ] final  -96.93 input   59.86 | X-H torsion
[ 10167 10162 10161 10158 ] final   35.04 input  -65.29 | X-H torsion
[ 10718 10713 10712 10709 ] final   74.82 input   66.30 | X-H torsion
[ 10763 10752 10751 10750 ] final   12.51 input  -60.55 | X-H torsion
[ 11005 11000 10999 10996 ] final  -29.23 input  -57.11 | X-H torsion

> <Gold.Protein.ActiveResidues>
 VAL166  LYS551  ARG553  GLY616  TRP617  ASP618  TYR619  PRO620  LYS621  CYS622 
 ASP623  PHE694  ASN695  SER759  ASP760  ASP761  ALA762  ILE779  LEU786  VAL792 
 PHE793  MET794  SER795  GLU796  ALA797  LYS798  CYS799  TRP800  GLU811  SER814 

> <Gold.Protein.RotatedAtoms>
  151.7898  135.0739  160.0385 H   0  0  0  0  0  0  0  0  0  0  0  0  # atno 6907 bound_to 6896
  152.3164  133.5802  159.5723 H   0  0  0  0  0  0  0  0  0  0  0  0  # atno 6908 bound_to 6896
  150.7346  133.9992  159.3674 H   0  0  0  0  0  0  0  0  0  0  0  0  # atno 6909 bound_to 6896
  145.4947  140.9551  143.1793 H   0  0  0  0  0  0  0  0  0  0  0  0  # atno 7974 bound_to 7965
  154.7809  140.0467  157.1126 H   0  0  0  0  0  0  0  0  0  0  0  0  # atno 8008 bound_to 7997
  154.9706  140.3089  155.4970 H   0  0  0  0  0  0  0  0  0  0  0  0  # atno 8009 bound_to 7997
  156.2936  140.2254  156.4798 H   0  0  0  0  0  0  0  0  0  0  0  0  # atno 8010 bound_to 7997
  140.4259  144.1393  150.6153 H   0  0  0  0  0  0  0  0  0  0  0  0  # atno 10167 bound_to 10162
  157.6608  130.9696  150.1265 H   0  0  0  0  0  0  0  0  0  0  0  0  # atno 10718 bound_to 10713
  153.1815  135.6828  153.8471 H   0  0  0  0  0  0  0  0  0  0  0  0  # atno 10763 bound_to 10752
  153.7801  135.3183  155.3365 H   0  0  0  0  0  0  0  0  0  0  0  0  # atno 10764 bound_to 10752
  154.8063  135.4746  154.0495 H   0  0  0  0  0  0  0  0  0  0  0  0  # atno 10765 bound_to 10752
  140.9278  133.7357  156.0893 H   0  0  0  0  0  0  0  0  0  0  0  0  # atno 11005 bound_to 11000
  144.7814  139.6518  143.7153 LP  0  0  0  0  0  0  0  0  0  0  0  0  # atno 17320 bound_to 7965
  146.2263  139.5728  142.9585 LP  0  0  0  0  0  0  0  0  0  0  0  0  # atno 17321 bound_to 7965
  140.4481  143.2498  151.9384 LP  0  0  0  0  0  0  0  0  0  0  0  0  # atno 17342 bound_to 10162
  139.4783  144.5589  151.8271 LP  0  0  0  0  0  0  0  0  0  0  0  0  # atno 17343 bound_to 10162
  156.2123  130.3667  149.8655 LP  0  0  0  0  0  0  0  0  0  0  0  0  # atno 17370 bound_to 10713
  156.6531  130.8751  151.3534 LP  0  0  0  0  0  0  0  0  0  0  0  0  # atno 17371 bound_to 10713
  140.7903  134.3625  157.5466 LP  0  0  0  0  0  0  0  0  0  0  0  0  # atno 17394 bound_to 11000
  139.8789  134.9136  156.3087 LP  0  0  0  0  0  0  0  0  0  0  0  0  # atno 17395 bound_to 11000

$$$$
