AV-unprocessed.smi:2000|AV-procd|sdf|8101|dock7
  -GOLD-   2272010323D 1   1.00000     0.00000
 Structure written by MMmdl.
 43 44  0  0  0  0  0  0  0  0  1 V2000
  146.1711  136.8801  158.9252 C   0  0  0  0  0  0  0  0  0  0  0  0
  147.2359  136.0966  159.7098 C   0  0  1  0  0  0  0  0  0  0  0  0
  148.6465  136.3529  159.1618 C   0  0  0  0  0  0  0  0  0  0  0  0
  149.4229  135.4163  158.9712 O   0  0  0  0  0  0  0  0  0  0  0  0
  148.9725  137.6334  158.9233 N   0  0  0  0  0  0  0  0  0  0  0  0
  150.2669  138.0858  158.4210 C   0  0  0  0  0  0  0  0  0  0  0  0
  150.3627  138.2282  156.8993 C   0  0  0  0  0  0  0  0  0  0  0  0
  150.1280  137.1255  156.0438 C   0  0  0  0  0  0  0  0  0  0  0  0
  150.2490  137.2901  154.6525 C   0  0  0  0  0  0  0  0  0  0  0  0
  150.6090  138.5563  154.1601 C   0  0  0  0  0  0  0  0  0  0  0  0
  150.8454  139.6166  154.9583 N   0  0  0  0  0  0  0  0  0  0  0  0
  150.7297  139.4633  156.3004 C   0  0  0  0  0  0  0  0  0  0  0  0
  150.9673  140.5959  157.0986 N   0  0  0  0  0  0  0  0  0  0  0  0
  152.1195  140.4338  157.9763 C   0  0  0  0  0  0  0  0  0  0  0  0
  152.4400  141.7664  158.6757 C   0  0  0  0  0  0  0  0  0  0  0  0
  151.2859  142.2386  159.3664 O   0  0  0  0  0  0  0  0  0  0  0  0
  150.1886  142.4631  158.4854 C   0  0  0  0  0  0  0  0  0  0  0  0
  149.8076  141.1425  157.7951 C   0  0  0  0  0  0  0  0  0  0  0  0
  147.1559  136.5481  161.5067 S   0  0  0  0  0  0  0  0  0  0  0  0
  146.5332  135.0049  162.2968 C   0  0  0  0  0  0  0  0  0  0  0  0
  148.5198  136.7938  162.0000 O   0  0  0  0  0  0  0  0  0  0  0  0
  146.1325  137.5919  161.6689 O   0  0  0  0  0  0  0  0  0  0  0  0
  146.2256  136.6644  157.8575 H   0  0  0  0  0  0  0  0  0  0  0  0
  146.2885  137.9566  159.0565 H   0  0  0  0  0  0  0  0  0  0  0  0
  145.1685  136.6165  159.2622 H   0  0  0  0  0  0  0  0  0  0  0  0
  147.0083  135.0325  159.6357 H   0  0  0  0  0  0  0  0  0  0  0  0
  148.2816  138.3459  159.1090 H   0  0  0  0  0  0  0  0  0  0  0  0
  150.5230  139.0269  158.9091 H   0  0  0  0  0  0  0  0  0  0  0  0
  151.0198  137.3647  158.7397 H   0  0  0  0  0  0  0  0  0  0  0  0
  149.8613  136.1553  156.4354 H   0  0  0  0  0  0  0  0  0  0  0  0
  150.0721  136.4644  153.9793 H   0  0  0  0  0  0  0  0  0  0  0  0
  150.7127  138.7221  153.0980 H   0  0  0  0  0  0  0  0  0  0  0  0
  151.9013  139.6654  158.7194 H   0  0  0  0  0  0  0  0  0  0  0  0
  152.9852  140.0921  157.4077 H   0  0  0  0  0  0  0  0  0  0  0  0
  153.2509  141.6301  159.3914 H   0  0  0  0  0  0  0  0  0  0  0  0
  152.7745  142.5124  157.9531 H   0  0  0  0  0  0  0  0  0  0  0  0
  149.3441  142.8452  159.0589 H   0  0  0  0  0  0  0  0  0  0  0  0
  150.4477  143.2270  157.7504 H   0  0  0  0  0  0  0  0  0  0  0  0
  148.9948  141.3071  157.0868 H   0  0  0  0  0  0  0  0  0  0  0  0
  149.4505  140.4314  158.5416 H   0  0  0  0  0  0  0  0  0  0  0  0
  146.3668  135.1880  163.3582 H   0  0  0  0  0  0  0  0  0  0  0  0
  147.2673  134.2074  162.1854 H   0  0  0  0  0  0  0  0  0  0  0  0
  145.5940  134.7075  161.8310 H   0  0  0  0  0  0  0  0  0  0  0  0
  1  2  1  0  0  0  0
  1 23  1  0  0  0  0
  1 24  1  0  0  0  0
  1 25  1  0  0  0  0
  2  3  1  0  0  0  0
  2 19  1  0  0  0  0
  2 26  1  0  0  0  0
  3  4  2  0  0  0  0
  3  5  1  0  0  0  0
  5  6  1  0  0  0  0
  5 27  1  0  0  0  0
  6  7  1  0  0  0  0
  6 28  1  0  0  0  0
  6 29  1  0  0  0  0
  7 12  1  0  0  0  0
  7  8  2  0  0  0  0
  8  9  1  0  0  0  0
  8 30  1  0  0  0  0
  9 10  2  0  0  0  0
  9 31  1  0  0  0  0
 10 11  1  0  0  0  0
 10 32  1  0  0  0  0
 11 12  2  0  0  0  0
 12 13  1  0  0  0  0
 13 18  1  0  0  0  0
 13 14  1  0  0  0  0
 14 15  1  0  0  0  0
 14 33  1  0  0  0  0
 14 34  1  0  0  0  0
 15 16  1  0  0  0  0
 15 35  1  0  0  0  0
 15 36  1  0  0  0  0
 16 17  1  0  0  0  0
 17 18  1  0  0  0  0
 17 37  1  0  0  0  0
 17 38  1  0  0  0  0
 18 39  1  0  0  0  0
 18 40  1  0  0  0  0
 19 20  1  0  0  0  0
 19 21  2  0  0  0  0
 19 22  2  0  0  0  0
 20 41  1  0  0  0  0
 20 42  1  0  0  0  0
 20 43  1  0  0  0  0
M  END
> <s_m_source_file>
AV-unprocessed.smi

> <i_m_source_file_index>
2000

> <i_lp_mmshare_version>
43012

> <i_f3d_flags>
0

> <s_epik_input>
W0NIM11TKD1PKSg9TylbQ0BIXShbQ0gzXSlDKD1PKVtOSF1bQ0gyXWMxW2NIXVtjSF1bY0hdbmMxTjJbQ0gyXVtDSDJdT1tDSDJdW0NIMl0y

> <s_epik_cmdline>
J2VwaWtfcHl0aG9uJywgJy1waCcsICc3LjAnLCAnLXRuJywgJzgnLCAnLW1hJywgJzIwMCcsICctbWV0YWxfYmluZGluZycsICctaW1hZScsICc8aW5maWxlLm1hZT4nLCAnLW9tYWUnLCAnPG91dGZpbGUubWFlPic=

> <r_lp_tautomer_probability>
1

> <r_epik_Ionization_Penalty>
0.00349769

> <r_epik_Ionization_Penalty_Charging>
0

> <r_epik_Ionization_Penalty_Neutral>
0.00349769

> <r_epik_State_Penalty>
0.00248024

> <r_epik_Charging_Adjusted_Penalty>
0.00248024

> <i_epik_Tot_Q>
0

> <i_epik_Tot_abs_Q>
0

> <r_epik_Metal_State_Penalty>
-0

> <b_epik_Metal_Only>
0

> <s_lp_Force_Field>
OPLS_2005

> <r_lp_Energy>
18.4728

> <b_lp_Chiralities_Consistent>
1

> <s_lp_Variant>
AV-unprocessed.smi:2000-2

> <Gold.Version>
5.8.1

> <Gold.Id.Protein>
6NUR|6NUR_protein|mol2

> <Gold.PLP.Fitness>
41.3158

> <Gold.PLP.PLP>
-28.4447

> <Gold.PLP.part.hbond>
-4.1793

> <Gold.PLP.part.metal>
0.0000

> <Gold.PLP.part.buried>
-5.7557

> <Gold.PLP.part.nonpolar>
-19.1457

> <Gold.PLP.part.repulsive>
0.2544

> <Gold.PLP.ligand.clash>
0.0000

> <Gold.PLP.ligand.torsion>
0.8288

> <Gold.PLP.Chemscore.Hbond>
3.7424

> <Gold.PLP.Chemscore.CHOScore>
1.0000

> <Gold.PLP.Chemscore.Metal>
0.0000

> <Gold.Chemscore.Hbonds>
donor molecule, donor type, donor heavy atom, donor atom, acceptor molecule, acceptor atom, score
      P1  H  6896  6907       L1     4  1.00
      P1  H  6931  6943       L1    21  1.00
      P1  H  6934  6947       L1    22  0.79
      P1  H  7989  7998       L1    11  0.75
      L1  C    10    32       P1  7957  0.91

> <Gold.PLP.Chemscore.Internal.Correction>
0.3015

> <Gold.Rescore>
     Score         DG    S(hbond)    S(metal)    S(lipo)     H(rot)  DE(clash)    DE(int)     intcor
     14.85     -16.75       2.87        0.00      59.78       2.08       0.06       1.84       ----

> <Gold.Chemscore.Fitness>
14.8467

> <Gold.Chemscore.DG>
-16.7493

> <Gold.Chemscore.ZeroCoef>
-5.4800

> <Gold.Chemscore.Hbond>
2.8716

> <Gold.Chemscore.Metal>
0.0000

> <Gold.Chemscore.Lipo>
59.7753

> <Gold.Chemscore.Internal_Hbond>
0.0000

> <Gold.Chemscore.DEClash>
0.0605

> <Gold.Chemscore.DEInternal>
1.8421

> <Gold.Chemscore.Rot>
2.0764

> <Gold.Chemscore.Internal.Correction>
   9.000000E+99

> <Gold.Chemscore.Hbonds>
donor molecule, donor type, donor heavy atom, donor atom, acceptor molecule, acceptor atom, score
      P1  H  6896  6907       L1     4  0.99
      P1  H  6931  6943       L1    21  0.90
      P1  H  6934  6947       L1    22  0.13
      P1  H  7989  7998       L1    11  0.13

> <Gold.Chemscore.Hbond.Weighted>
-9.5911

> <Gold.Chemscore.Metal.Weighted>
-0.0000

> <Gold.Chemscore.Lipo.Weighted>
-6.9937

> <Gold.Chemscore.Internal_Hbond.Weighted>
0.0000

> <Gold.Chemscore.DEClash.Weighted>
0.0605

> <Gold.Chemscore.DEInternal.Weighted>
1.8421

> <Gold.Chemscore.Rot.Weighted>
5.3155

> <Gold.Chemscore.Internal.Correction.Weighted>
   9.000000E+99

> <Gold.Protein.RotatedTorsions>
[ 6907 6896 6895 6894 ] final  -55.57 input  -60.11 | X-H torsion
[ 7974 7965 7964 7962 ] final    6.60 input  175.53 | X-H torsion
[ 8008 7997 7996 7995 ] final   10.33 input   59.86 | X-H torsion
[ 10167 10162 10161 10158 ] final  160.60 input  -65.29 | X-H torsion
[ 10718 10713 10712 10709 ] final   -2.87 input   66.30 | X-H torsion
[ 10763 10752 10751 10750 ] final -101.63 input  -60.55 | X-H torsion
[ 11005 11000 10999 10996 ] final -163.22 input  -57.11 | X-H torsion

> <Gold.Protein.ActiveResidues>
 VAL166  LYS551  ARG553  GLY616  TRP617  ASP618  TYR619  PRO620  LYS621  CYS622 
 ASP623  PHE694  ASN695  SER759  ASP760  ASP761  ALA762  ILE779  LEU786  VAL792 
 PHE793  MET794  SER795  GLU796  ALA797  LYS798  CYS799  TRP800  GLU811  SER814 

> <Gold.Protein.RotatedAtoms>
  150.8241  134.7463  159.6796 H   0  0  0  0  0  0  0  0  0  0  0  0  # atno 6907 bound_to 6896
  152.4353  134.5695  159.9927 H   0  0  0  0  0  0  0  0  0  0  0  0  # atno 6908 bound_to 6896
  151.5871  133.3333  159.3056 H   0  0  0  0  0  0  0  0  0  0  0  0  # atno 6909 bound_to 6896
  146.2433  140.0208  142.8398 H   0  0  0  0  0  0  0  0  0  0  0  0  # atno 7974 bound_to 7965
  154.7919  140.2837  155.5985 H   0  0  0  0  0  0  0  0  0  0  0  0  # atno 8008 bound_to 7997
  156.2965  140.2603  156.2697 H   0  0  0  0  0  0  0  0  0  0  0  0  # atno 8009 bound_to 7997
  154.9660  140.0377  157.2202 H   0  0  0  0  0  0  0  0  0  0  0  0  # atno 8010 bound_to 7997
  139.4841  144.4618  151.8694 H   0  0  0  0  0  0  0  0  0  0  0  0  # atno 10167 bound_to 10162
  156.7844  130.5341  149.5745 H   0  0  0  0  0  0  0  0  0  0  0  0  # atno 10718 bound_to 10713
  154.7673  135.4890  153.9579 H   0  0  0  0  0  0  0  0  0  0  0  0  # atno 10763 bound_to 10752
  153.1323  135.6755  153.9166 H   0  0  0  0  0  0  0  0  0  0  0  0  # atno 10764 bound_to 10752
  153.8865  135.3126  155.3425 H   0  0  0  0  0  0  0  0  0  0  0  0  # atno 10765 bound_to 10752
  140.6006  134.4951  157.5204 H   0  0  0  0  0  0  0  0  0  0  0  0  # atno 11005 bound_to 11000
  145.1242  140.9480  143.4582 LP  0  0  0  0  0  0  0  0  0  0  0  0  # atno 17320 bound_to 7965
  145.0451  139.3228  143.5957 LP  0  0  0  0  0  0  0  0  0  0  0  0  # atno 17321 bound_to 7965
  140.4081  144.2405  150.5890 LP  0  0  0  0  0  0  0  0  0  0  0  0  # atno 17342 bound_to 10162
  140.4993  143.2323  151.8703 LP  0  0  0  0  0  0  0  0  0  0  0  0  # atno 17343 bound_to 10162
  156.1198  130.6101  151.0176 LP  0  0  0  0  0  0  0  0  0  0  0  0  # atno 17370 bound_to 10713
  157.6631  131.0877  150.7792 LP  0  0  0  0  0  0  0  0  0  0  0  0  # atno 17371 bound_to 10713
  139.9234  134.8103  156.1141 LP  0  0  0  0  0  0  0  0  0  0  0  0  # atno 17394 bound_to 11000
  141.0875  133.6728  156.2467 LP  0  0  0  0  0  0  0  0  0  0  0  0  # atno 17395 bound_to 11000

$$$$
