AV-unprocessed.smi:3145|AV-procd|sdf|11984|dock5
  -GOLD-   2272017393D 1   1.00000     0.00000
 Structure written by MMmdl.
 34 34  0  0  0  0  0  0  0  0  3 V2000
  145.6920  137.3645  152.2235 C   0  0  0  0  0  0  0  0  0  0  0  0
  145.5125  135.8420  152.2879 C   0  0  1  0  0  0  0  0  0  0  0  0
  145.1551  135.2718  150.8991 C   0  0  0  0  0  0  0  0  0  0  0  0
  145.0922  133.8215  150.8866 N   0  0  0  0  0  0  0  0  0  0  0  0
  144.0003  133.0125  150.6531 C   0  0  0  0  0  0  0  0  0  0  0  0
  144.4211  131.7192  150.7726 C   0  0  0  0  0  0  0  0  0  0  0  0
  145.8053  131.8402  151.0803 C   0  0  0  0  0  0  0  0  0  0  0  0
  146.2047  133.1003  151.1445 N   0  0  0  0  0  0  0  0  0  0  0  0
  146.7480  135.2223  152.8170 N   0  3  0  0  0  0  0  0  0  0  0  0
  146.8511  135.1977  154.2913 C   0  0  0  0  0  0  0  0  0  0  0  0
  148.1608  134.5330  154.7297 C   0  0  0  0  0  0  0  0  0  0  0  0
  148.9564  135.1640  155.4355 O   0  0  0  0  0  0  0  0  0  0  0  0
  148.2431  133.2757  154.2188 N   0  5  0  0  0  0  0  0  0  0  0  0
  149.4706  132.4819  154.1909 C   0  0  0  0  0  0  0  0  0  0  0  0
  149.7707  131.8917  155.5796 C   0  0  0  0  0  0  0  0  0  0  0  0
  150.1225  132.8932  156.6015 C   0  0  0  0  0  0  0  0  0  0  0  0
  150.4041  133.6803  157.4038 N   0  0  0  0  0  0  0  0  0  0  0  0
  144.7845  137.8520  151.8664 H   0  0  0  0  0  0  0  0  0  0  0  0
  146.5055  137.6420  151.5520 H   0  0  0  0  0  0  0  0  0  0  0  0
  145.9177  137.7748  153.2086 H   0  0  0  0  0  0  0  0  0  0  0  0
  144.6887  135.6425  152.9755 H   0  0  0  0  0  0  0  0  0  0  0  0
  144.1833  135.6499  150.5789 H   0  0  0  0  0  0  0  0  0  0  0  0
  145.8766  135.6029  150.1502 H   0  0  0  0  0  0  0  0  0  0  0  0
  143.0250  133.4201  150.4309 H   0  0  0  0  0  0  0  0  0  0  0  0
  143.8302  130.8224  150.6598 H   0  0  0  0  0  0  0  0  0  0  0  0
  146.5259  131.0557  151.2590 H   0  0  0  0  0  0  0  0  0  0  0  0
  146.8058  134.2725  152.4778 H   0  0  0  0  0  0  0  0  0  0  0  0
  146.7902  136.2216  154.6649 H   0  0  0  0  0  0  0  0  0  0  0  0
  146.0195  134.6408  154.7229 H   0  0  0  0  0  0  0  0  0  0  0  0
  149.4082  131.6673  153.4682 H   0  0  0  0  0  0  0  0  0  0  0  0
  150.3215  133.0839  153.8721 H   0  0  0  0  0  0  0  0  0  0  0  0
  148.9222  131.3150  155.9485 H   0  0  0  0  0  0  0  0  0  0  0  0
  150.6112  131.2014  155.5079 H   0  0  0  0  0  0  0  0  0  0  0  0
  147.5454  135.7346  152.4689 H   0  0  0  0  0  0  0  0  0  0  0  0
  1  2  1  0  0  0  0
  1 18  1  0  0  0  0
  1 19  1  0  0  0  0
  1 20  1  0  0  0  0
  2  3  1  0  0  0  0
  2  9  1  0  0  0  0
  2 21  1  0  0  0  0
  3  4  1  0  0  0  0
  3 22  1  0  0  0  0
  3 23  1  0  0  0  0
  4  8  1  0  0  0  0
  4  5  1  0  0  0  0
  5  6  2  0  0  0  0
  5 24  1  0  0  0  0
  6  7  1  0  0  0  0
  6 25  1  0  0  0  0
  7  8  2  0  0  0  0
  7 26  1  0  0  0  0
  9 10  1  0  0  0  0
  9 27  1  0  0  0  0
  9 34  1  0  0  0  0
 10 11  1  0  0  0  0
 10 28  1  0  0  0  0
 10 29  1  0  0  0  0
 11 12  2  0  0  0  0
 11 13  1  0  0  0  0
 13 14  1  0  0  0  0
 14 15  1  0  0  0  0
 14 30  1  0  0  0  0
 14 31  1  0  0  0  0
 15 16  1  0  0  0  0
 15 32  1  0  0  0  0
 15 33  1  0  0  0  0
 16 17  3  0  0  0  0
M  CHG  1   9   1
M  CHG  1  13  -1
M  END
> <s_m_source_file>
AV-unprocessed.smi

> <i_m_source_file_index>
3145

> <i_lp_mmshare_version>
43012

> <i_f3d_flags>
0

> <s_epik_input>
bjFbY0hdW2NIXVtjSF1uMVtDSDJdW0NAQEhdKFtDSDNdKVtOSF1bQ0gyXUMoPU8pW05IXVtDSDJdW0NIMl1DI04=

> <s_epik_cmdline>
J2VwaWtfcHl0aG9uJywgJy1waCcsICc3LjAnLCAnLXRuJywgJzgnLCAnLW1hJywgJzIwMCcsICctbWV0YWxfYmluZGluZycsICctaW1hZScsICc8aW5maWxlLm1hZT4nLCAnLW9tYWUnLCAnPG91dGZpbGUubWFlPic=

> <r_lp_tautomer_probability>
1

> <r_epik_Ionization_Penalty>
6.20835

> <r_epik_Ionization_Penalty_Charging>
6.20835

> <r_epik_Ionization_Penalty_Neutral>
3.57231e-06

> <r_epik_State_Penalty>
6.38139

> <r_epik_Charging_Adjusted_Penalty>
12.5897

> <i_epik_Tot_Q>
0

> <i_epik_Tot_abs_Q>
2

> <r_epik_Metal_State_Penalty>
2.31725

> <b_epik_Metal_Only>
1

> <s_lp_Force_Field>
OPLS_2005

> <r_lp_Energy>
1.97057

> <b_lp_Chiralities_Consistent>
1

> <s_lp_Variant>
AV-unprocessed.smi:3145-6

> <Gold.Version>
5.8.1

> <Gold.Id.Protein>
6NUR|6NUR_protein|mol2

> <Gold.PLP.Fitness>
42.5121

> <Gold.PLP.PLP>
-28.3675

> <Gold.PLP.part.hbond>
-2.0000

> <Gold.PLP.part.metal>
0.0000

> <Gold.PLP.part.buried>
-5.6317

> <Gold.PLP.part.nonpolar>
-22.3894

> <Gold.PLP.part.repulsive>
0.3730

> <Gold.PLP.ligand.clash>
0.0000

> <Gold.PLP.ligand.torsion>
0.4997

> <Gold.PLP.Chemscore.Hbond>
2.9760

> <Gold.PLP.Chemscore.CHOScore>
2.0000

> <Gold.PLP.Chemscore.Metal>
0.0000

> <Gold.Chemscore.Hbonds>
donor molecule, donor type, donor heavy atom, donor atom, acceptor molecule, acceptor atom, score
      L1  H     9    34       P1  7948  2.00
      P1  H  6896  6909       L1    17  0.83
      L1  C     5    24       P1 10186  1.00
      L1  C     7    26       P1 10747  0.68

> <Gold.PLP.Chemscore.Internal.Correction>
0.2160

> <Gold.Rescore>
     Score         DG    S(hbond)    S(metal)    S(lipo)     H(rot)  DE(clash)    DE(int)     intcor
     11.27     -11.82       1.98        0.00      58.73       2.79       0.03       0.52       ----

> <Gold.Chemscore.Fitness>
11.2733

> <Gold.Chemscore.DG>
-11.8184

> <Gold.Chemscore.ZeroCoef>
-5.4800

> <Gold.Chemscore.Hbond>
1.9827

> <Gold.Chemscore.Metal>
0.0000

> <Gold.Chemscore.Lipo>
58.7282

> <Gold.Chemscore.Internal_Hbond>
0.0000

> <Gold.Chemscore.DEClash>
0.0291

> <Gold.Chemscore.DEInternal>
0.5160

> <Gold.Chemscore.Rot>
2.7949

> <Gold.Chemscore.Internal.Correction>
   9.000000E+99

> <Gold.Chemscore.Hbonds>
donor molecule, donor type, donor heavy atom, donor atom, acceptor molecule, acceptor atom, score
      L1  H     9    34       P1  7948  0.98
      P1  H  6896  6909       L1    17  0.81

> <Gold.Chemscore.Hbond.Weighted>
-6.6222

> <Gold.Chemscore.Metal.Weighted>
-0.0000

> <Gold.Chemscore.Lipo.Weighted>
-6.8712

> <Gold.Chemscore.Internal_Hbond.Weighted>
0.0000

> <Gold.Chemscore.DEClash.Weighted>
0.0291

> <Gold.Chemscore.DEInternal.Weighted>
0.5160

> <Gold.Chemscore.Rot.Weighted>
7.1551

> <Gold.Chemscore.Internal.Correction.Weighted>
   9.000000E+99

> <Gold.Protein.RotatedTorsions>
[ 6907 6896 6895 6894 ] final  -19.17 input  -60.11 | X-H torsion
[ 7974 7965 7964 7962 ] final  -84.27 input  175.53 | X-H torsion
[ 8008 7997 7996 7995 ] final  -46.16 input   59.86 | X-H torsion
[ 10167 10162 10161 10158 ] final  -69.40 input  -65.29 | X-H torsion
[ 10718 10713 10712 10709 ] final -111.52 input   66.30 | X-H torsion
[ 10763 10752 10751 10750 ] final  -85.20 input  -60.55 | X-H torsion
[ 11005 11000 10999 10996 ] final  -10.07 input  -57.11 | X-H torsion

> <Gold.Protein.ActiveResidues>
 VAL166  LYS551  ARG553  GLY616  TRP617  ASP618  TYR619  PRO620  LYS621  CYS622 
 ASP623  PHE694  ASN695  SER759  ASP760  ASP761  ALA762  ILE779  LEU786  VAL792 
 PHE793  MET794  SER795  GLU796  ALA797  LYS798  CYS799  TRP800  GLU811  SER814 

> <Gold.Protein.RotatedAtoms>
  151.2671  135.0673  159.9119 H   0  0  0  0  0  0  0  0  0  0  0  0  # atno 6907 bound_to 6896
  152.5356  134.0169  159.7974 H   0  0  0  0  0  0  0  0  0  0  0  0  # atno 6908 bound_to 6896
  151.0402  133.5663  159.2683 H   0  0  0  0  0  0  0  0  0  0  0  0  # atno 6909 bound_to 6896
  145.5089  140.9541  143.1718 H   0  0  0  0  0  0  0  0  0  0  0  0  # atno 7974 bound_to 7965
  154.4005  140.1378  156.3966 H   0  0  0  0  0  0  0  0  0  0  0  0  # atno 8008 bound_to 7997
  155.7863  140.3480  155.5304 H   0  0  0  0  0  0  0  0  0  0  0  0  # atno 8009 bound_to 7997
  155.8623  140.0958  157.1595 H   0  0  0  0  0  0  0  0  0  0  0  0  # atno 8010 bound_to 7997
  140.5434  143.2314  151.7048 H   0  0  0  0  0  0  0  0  0  0  0  0  # atno 10167 bound_to 10162
  156.0652  130.5872  150.8384 H   0  0  0  0  0  0  0  0  0  0  0  0  # atno 10718 bound_to 10713
  154.6084  135.5493  153.7447 H   0  0  0  0  0  0  0  0  0  0  0  0  # atno 10763 bound_to 10752
  153.0184  135.6383  154.1614 H   0  0  0  0  0  0  0  0  0  0  0  0  # atno 10764 bound_to 10752
  154.1552  135.2900  155.3104 H   0  0  0  0  0  0  0  0  0  0  0  0  # atno 10765 bound_to 10752
  140.7408  133.8672  155.8966 H   0  0  0  0  0  0  0  0  0  0  0  0  # atno 11005 bound_to 11000
  144.7738  139.6675  143.7183 LP  0  0  0  0  0  0  0  0  0  0  0  0  # atno 17320 bound_to 7965
  146.2179  139.5582  142.9638 LP  0  0  0  0  0  0  0  0  0  0  0  0  # atno 17321 bound_to 7965
  139.4997  144.3934  152.0257 LP  0  0  0  0  0  0  0  0  0  0  0  0  # atno 17342 bound_to 10162
  140.3044  144.3609  150.6051 LP  0  0  0  0  0  0  0  0  0  0  0  0  # atno 17343 bound_to 10162
  157.5688  131.0946  150.9449 LP  0  0  0  0  0  0  0  0  0  0  0  0  # atno 17370 bound_to 10713
  156.9670  130.5476  149.5288 LP  0  0  0  0  0  0  0  0  0  0  0  0  # atno 17371 bound_to 10713
  140.9838  134.1370  157.4470 LP  0  0  0  0  0  0  0  0  0  0  0  0  # atno 17394 bound_to 11000
  139.8806  135.0019  156.6094 LP  0  0  0  0  0  0  0  0  0  0  0  0  # atno 17395 bound_to 11000

$$$$
