AV-unprocessed.smi:2603|AV-procd|sdf|10186|dock6
  -GOLD-   2272014203D 1   1.00000     0.00000
 Structure written by MMmdl.
 35 36  0  0  0  0  0  0  0  0  1 V2000
  152.4811  144.7089  158.1598 C   0  0  0  0  0  0  0  0  0  0  0  0
  151.7895  144.7878  159.5228 C   0  0  0  0  0  0  0  0  0  0  0  0
  151.8257  143.5095  160.1315 O   0  0  0  0  0  0  0  0  0  0  0  0
  153.1471  143.0043  160.2408 C   0  0  1  0  0  0  0  0  0  0  0  0
  153.3037  141.9332  161.2838 C   0  0  0  0  0  0  0  0  0  0  0  0
  153.2777  141.5580  159.8125 C   0  0  1  0  0  0  0  0  0  0  0  0
  152.1127  140.9020  159.3150 N   0  0  0  0  0  0  0  0  0  0  0  0
  152.0790  140.0135  158.3119 C   0  0  0  0  0  0  0  0  0  0  0  0
  153.0802  139.6149  157.7170 O   0  0  0  0  0  0  0  0  0  0  0  0
  150.6949  139.5070  157.9069 C   0  0  0  0  0  0  0  0  0  0  0  0
  150.3781  139.9718  156.5080 C   0  0  0  0  0  0  0  0  0  0  0  0
  149.3488  140.8617  156.0814 C   0  0  0  0  0  0  0  0  0  0  0  0
  148.3098  141.5714  156.9015 C   0  0  0  0  0  0  0  0  0  0  0  0
  149.3684  141.0470  154.7724 N   0  0  0  0  0  0  0  0  0  0  0  0
  150.4304  140.2758  154.2910 O   0  0  0  0  0  0  0  0  0  0  0  0
  151.0163  139.6487  155.3420 C   0  0  0  0  0  0  0  0  0  0  0  0
  152.1842  138.7753  155.0304 C   0  0  0  0  0  0  0  0  0  0  0  0
  152.4715  145.6785  157.6618 H   0  0  0  0  0  0  0  0  0  0  0  0
  151.9809  143.9928  157.5073 H   0  0  0  0  0  0  0  0  0  0  0  0
  153.5207  144.3975  158.2653 H   0  0  0  0  0  0  0  0  0  0  0  0
  152.2941  145.5190  160.1560 H   0  0  0  0  0  0  0  0  0  0  0  0
  150.7563  145.1150  159.3981 H   0  0  0  0  0  0  0  0  0  0  0  0
  153.9533  143.7033  160.0248 H   0  0  0  0  0  0  0  0  0  0  0  0
  154.2600  141.8716  161.7992 H   0  0  0  0  0  0  0  0  0  0  0  0
  152.4332  141.6862  161.8894 H   0  0  0  0  0  0  0  0  0  0  0  0
  154.2342  141.2760  159.3746 H   0  0  0  0  0  0  0  0  0  0  0  0
  151.2343  141.1698  159.7348 H   0  0  0  0  0  0  0  0  0  0  0  0
  150.6805  138.4188  157.9762 H   0  0  0  0  0  0  0  0  0  0  0  0
  149.9554  139.8624  158.6254 H   0  0  0  0  0  0  0  0  0  0  0  0
  148.5005  141.4703  157.9693 H   0  0  0  0  0  0  0  0  0  0  0  0
  147.3152  141.1716  156.7040 H   0  0  0  0  0  0  0  0  0  0  0  0
  148.2917  142.6370  156.6726 H   0  0  0  0  0  0  0  0  0  0  0  0
  152.8132  138.6359  155.9098 H   0  0  0  0  0  0  0  0  0  0  0  0
  152.7995  139.2144  154.2450 H   0  0  0  0  0  0  0  0  0  0  0  0
  151.8518  137.7938  154.6932 H   0  0  0  0  0  0  0  0  0  0  0  0
  1  2  1  0  0  0  0
  1 18  1  0  0  0  0
  1 19  1  0  0  0  0
  1 20  1  0  0  0  0
  2  3  1  0  0  0  0
  2 21  1  0  0  0  0
  2 22  1  0  0  0  0
  3  4  1  0  0  0  0
  4  6  1  0  0  0  0
  4  5  1  0  0  0  0
  4 23  1  0  0  0  0
  5  6  1  0  0  0  0
  5 24  1  0  0  0  0
  5 25  1  0  0  0  0
  6  7  1  0  0  0  0
  6 26  1  0  0  0  0
  7  8  1  0  0  0  0
  7 27  1  0  0  0  0
  8  9  2  0  0  0  0
  8 10  1  0  0  0  0
 10 11  1  0  0  0  0
 10 28  1  0  0  0  0
 10 29  1  0  0  0  0
 11 16  2  0  0  0  0
 11 12  1  0  0  0  0
 12 13  1  0  0  0  0
 12 14  2  0  0  0  0
 13 30  1  0  0  0  0
 13 31  1  0  0  0  0
 13 32  1  0  0  0  0
 14 15  1  0  0  0  0
 15 16  1  0  0  0  0
 16 17  1  0  0  0  0
 17 33  1  0  0  0  0
 17 34  1  0  0  0  0
 17 35  1  0  0  0  0
M  END
> <s_m_source_file>
AV-unprocessed.smi

> <i_m_source_file_index>
2603

> <i_lp_mmshare_version>
43012

> <i_f3d_flags>
0

> <s_epik_input>
W0NIM11bQ0gyXU9bQ0BASF0xW0NIMl1bQ0BIXTFbTkhdQyg9TylbQ0gyXWMyYyhbQ0gzXSlub2MyW0NIM10=

> <s_epik_cmdline>
J2VwaWtfcHl0aG9uJywgJy1waCcsICc3LjAnLCAnLXRuJywgJzgnLCAnLW1hJywgJzIwMCcsICctbWV0YWxfYmluZGluZycsICctaW1hZScsICc8aW5maWxlLm1hZT4nLCAnLW9tYWUnLCAnPG91dGZpbGUubWFlPic=

> <r_lp_tautomer_probability>
1

> <r_epik_Ionization_Penalty>
2.37325e-08

> <r_epik_Ionization_Penalty_Charging>
0

> <r_epik_Ionization_Penalty_Neutral>
2.37325e-08

> <r_epik_State_Penalty>
-0

> <r_epik_Charging_Adjusted_Penalty>
0

> <i_epik_Tot_Q>
0

> <i_epik_Tot_abs_Q>
0

> <r_epik_Metal_State_Penalty>
-0

> <b_epik_Metal_Only>
0

> <s_lp_Force_Field>
OPLS_2005

> <r_lp_Energy>
11.0439

> <b_lp_Chiralities_Consistent>
1

> <s_lp_Variant>
AV-unprocessed.smi:2603-2

> <Gold.Version>
5.8.1

> <Gold.Id.Protein>
6NUR|6NUR_protein|mol2

> <Gold.PLP.Fitness>
42.6731

> <Gold.PLP.PLP>
-37.6416

> <Gold.PLP.part.hbond>
-2.1373

> <Gold.PLP.part.metal>
0.0000

> <Gold.PLP.part.buried>
-6.4979

> <Gold.PLP.part.nonpolar>
-30.2642

> <Gold.PLP.part.repulsive>
0.4250

> <Gold.PLP.ligand.clash>
0.0000

> <Gold.PLP.ligand.torsion>
0.8256

> <Gold.PLP.Chemscore.Hbond>
2.0000

> <Gold.PLP.Chemscore.CHOScore>
0.0000

> <Gold.PLP.Chemscore.Metal>
0.0000

> <Gold.Chemscore.Hbonds>
donor molecule, donor type, donor heavy atom, donor atom, acceptor molecule, acceptor atom, score
      P1  H  7989  7998       L1    15  1.00
      P1  H  7997  8009       L1     9  1.00

> <Gold.PLP.Chemscore.Internal.Correction>
0.6826

> <Gold.Rescore>
     Score         DG    S(hbond)    S(metal)    S(lipo)     H(rot)  DE(clash)    DE(int)     intcor
     16.77     -17.82       1.78        0.00      91.70       1.69       0.09       0.96       ----

> <Gold.Chemscore.Fitness>
16.7672

> <Gold.Chemscore.DG>
-17.8194

> <Gold.Chemscore.ZeroCoef>
-5.4800

> <Gold.Chemscore.Hbond>
1.7802

> <Gold.Chemscore.Metal>
0.0000

> <Gold.Chemscore.Lipo>
91.6955

> <Gold.Chemscore.Internal_Hbond>
0.0000

> <Gold.Chemscore.DEClash>
0.0901

> <Gold.Chemscore.DEInternal>
0.9622

> <Gold.Chemscore.Rot>
1.6933

> <Gold.Chemscore.Internal.Correction>
   9.000000E+99

> <Gold.Chemscore.Hbonds>
donor molecule, donor type, donor heavy atom, donor atom, acceptor molecule, acceptor atom, score
      P1  H  7989  7998       L1    15  0.46
      P1  H  7997  8009       L1     9  0.98

> <Gold.Chemscore.Hbond.Weighted>
-5.9458

> <Gold.Chemscore.Metal.Weighted>
-0.0000

> <Gold.Chemscore.Lipo.Weighted>
-10.7284

> <Gold.Chemscore.Internal_Hbond.Weighted>
0.0000

> <Gold.Chemscore.DEClash.Weighted>
0.0901

> <Gold.Chemscore.DEInternal.Weighted>
0.9622

> <Gold.Chemscore.Rot.Weighted>
4.3348

> <Gold.Chemscore.Internal.Correction.Weighted>
   9.000000E+99

> <Gold.Protein.RotatedTorsions>
[ 6907 6896 6895 6894 ] final  -91.82 input  -60.11 | X-H torsion
[ 7974 7965 7964 7962 ] final  169.23 input  175.53 | X-H torsion
[ 8008 7997 7996 7995 ] final -179.39 input   59.86 | X-H torsion
[ 10167 10162 10161 10158 ] final -115.20 input  -65.29 | X-H torsion
[ 10718 10713 10712 10709 ] final -103.48 input   66.30 | X-H torsion
[ 10763 10752 10751 10750 ] final  -45.21 input  -60.55 | X-H torsion
[ 11005 11000 10999 10996 ] final  169.05 input  -57.11 | X-H torsion

> <Gold.Protein.ActiveResidues>
 VAL166  LYS551  ARG553  GLY616  TRP617  ASP618  TYR619  PRO620  LYS621  CYS622 
 ASP623  PHE694  ASN695  SER759  ASP760  ASP761  ALA762  ILE779  LEU786  VAL792 
 PHE793  MET794  SER795  GLU796  ALA797  LYS798  CYS799  TRP800  GLU811  SER814 

> <Gold.Protein.RotatedAtoms>
  150.6897  134.2217  159.4399 H   0  0  0  0  0  0  0  0  0  0  0  0  # atno 6907 bound_to 6896
  152.0173  134.9840  160.0579 H   0  0  0  0  0  0  0  0  0  0  0  0  # atno 6908 bound_to 6896
  152.1431  133.4441  159.4813 H   0  0  0  0  0  0  0  0  0  0  0  0  # atno 6909 bound_to 6896
  144.7362  139.9024  143.6410 H   0  0  0  0  0  0  0  0  0  0  0  0  # atno 7974 bound_to 7965
  156.0300  140.1280  157.0268 H   0  0  0  0  0  0  0  0  0  0  0  0  # atno 8008 bound_to 7997
  154.4346  140.1051  156.6155 H   0  0  0  0  0  0  0  0  0  0  0  0  # atno 8009 bound_to 7997
  155.5821  140.3468  155.4545 H   0  0  0  0  0  0  0  0  0  0  0  0  # atno 8010 bound_to 7997
  140.0927  143.4685  152.1860 H   0  0  0  0  0  0  0  0  0  0  0  0  # atno 10167 bound_to 10162
  156.0267  130.5469  150.7259 H   0  0  0  0  0  0  0  0  0  0  0  0  # atno 10718 bound_to 10713
  154.0248  135.6664  153.4775 H   0  0  0  0  0  0  0  0  0  0  0  0  # atno 10763 bound_to 10752
  153.0565  135.5053  154.7989 H   0  0  0  0  0  0  0  0  0  0  0  0  # atno 10764 bound_to 10752
  154.6915  135.3062  154.9437 H   0  0  0  0  0  0  0  0  0  0  0  0  # atno 10765 bound_to 10752
  140.2936  134.7653  157.3859 H   0  0  0  0  0  0  0  0  0  0  0  0  # atno 11005 bound_to 11000
  146.1062  139.4062  143.0316 LP  0  0  0  0  0  0  0  0  0  0  0  0  # atno 17320 bound_to 7965
  145.7509  140.9973  143.1251 LP  0  0  0  0  0  0  0  0  0  0  0  0  # atno 17321 bound_to 7965
  139.5715  144.7465  151.3877 LP  0  0  0  0  0  0  0  0  0  0  0  0  # atno 17342 bound_to 10162
  140.7020  143.7608  150.7418 LP  0  0  0  0  0  0  0  0  0  0  0  0  # atno 17343 bound_to 10162
  157.4864  131.0907  151.0478 LP  0  0  0  0  0  0  0  0  0  0  0  0  # atno 17370 bound_to 10713
  157.0897  130.5937  149.5437 LP  0  0  0  0  0  0  0  0  0  0  0  0  # atno 17371 bound_to 10713
  140.1172  134.5267  155.8214 LP  0  0  0  0  0  0  0  0  0  0  0  0  # atno 17394 bound_to 11000
  141.2141  133.6744  156.6800 LP  0  0  0  0  0  0  0  0  0  0  0  0  # atno 17395 bound_to 11000

$$$$
