AV-unprocessed.smi:17|AV-procd|sdf|100|dock7
  -GOLD-   2262015243D 1   1.00000     0.00000
 Structure written by MMmdl.
 57 59  0  0  0  0  0  0  0  0  1 V2000
  149.0294  130.9147  158.3824 C   0  0  0  0  0  0  0  0  0  0  0  0
  147.7855  131.5026  159.0634 C   0  0  0  0  0  0  0  0  0  0  0  0
  147.8231  132.9667  159.1244 N   0  0  0  0  0  0  0  0  0  0  0  0
  148.0160  133.6681  157.9738 C   0  0  0  0  0  0  0  0  0  0  0  0
  149.1473  134.4131  157.8580 N   0  0  0  0  0  0  0  0  0  0  0  0
  149.3982  135.1021  156.7420 C   0  0  0  0  0  0  0  0  0  0  0  0
  148.6603  135.1933  155.6356 N   0  0  0  0  0  0  0  0  0  0  0  0
  147.5126  134.4666  155.7488 C   0  0  0  0  0  0  0  0  0  0  0  0
  147.1094  133.6883  156.8719 C   0  0  0  0  0  0  0  0  0  0  0  0
  145.8635  133.1216  156.6202 N   0  0  0  0  0  0  0  0  0  0  0  0
  145.5639  133.5168  155.4137 C   0  0  0  0  0  0  0  0  0  0  0  0
  146.5046  134.3206  154.8133 N   0  0  0  0  0  0  0  0  0  0  0  0
  146.4393  134.8999  153.4840 C   0  0  0  0  0  0  0  0  0  0  0  0
  145.1139  134.5975  152.7347 C   0  0  1  0  0  0  0  0  0  0  0  0
  144.8149  135.6383  151.6249 C   0  0  0  0  0  0  0  0  0  0  0  0
  144.9447  136.9645  152.0954 O   0  0  0  0  0  0  0  0  0  0  0  0
  145.1288  133.1565  152.1605 C   0  0  2  0  0  0  0  0  0  0  0  0
  146.2171  132.8927  151.1256 C   0  0  0  0  0  0  0  0  0  0  0  0
  145.6473  131.7761  150.2471 C   0  0  0  0  0  0  0  0  0  0  0  0
  144.2877  131.6214  150.6335 O   0  0  0  0  0  0  0  0  0  0  0  0
  143.8845  132.7713  151.3576 C   0  0  0  0  0  0  0  0  0  0  0  0
  147.6717  133.6762  160.4000 C   0  0  2  0  0  0  0  0  0  0  0  0
  147.2901  132.7073  161.5311 C   0  0  0  0  0  0  0  0  0  0  0  0
  146.6920  134.8666  160.3111 C   0  0  0  0  0  0  0  0  0  0  0  0
  147.1109  136.2461  161.4743 S   0  0  0  0  0  0  0  0  0  0  0  0
  147.1921  135.3919  163.1025 C   0  0  0  0  0  0  0  0  0  0  0  0
  148.4680  136.7130  161.1537 O   0  0  0  0  0  0  0  0  0  0  0  0
  145.9979  137.2074  161.5139 O   0  0  0  0  0  0  0  0  0  0  0  0
  148.9897  129.8255  158.3820 H   0  0  0  0  0  0  0  0  0  0  0  0
  149.9412  131.2135  158.9002 H   0  0  0  0  0  0  0  0  0  0  0  0
  149.1095  131.2418  157.3455 H   0  0  0  0  0  0  0  0  0  0  0  0
  146.8838  131.1653  158.5518 H   0  0  0  0  0  0  0  0  0  0  0  0
  147.7192  131.0971  160.0724 H   0  0  0  0  0  0  0  0  0  0  0  0
  150.3239  135.6582  156.7337 H   0  0  0  0  0  0  0  0  0  0  0  0
  144.6461  133.2256  154.9239 H   0  0  0  0  0  0  0  0  0  0  0  0
  146.5868  135.9773  153.5671 H   0  0  0  0  0  0  0  0  0  0  0  0
  147.2947  134.5138  152.9303 H   0  0  0  0  0  0  0  0  0  0  0  0
  144.2994  134.6399  153.4596 H   0  0  0  0  0  0  0  0  0  0  0  0
  145.4685  135.4882  150.7651 H   0  0  0  0  0  0  0  0  0  0  0  0
  143.7931  135.5457  151.2599 H   0  0  0  0  0  0  0  0  0  0  0  0
  144.6158  137.5539  151.4340 H   0  0  0  0  0  0  0  0  0  0  0  0
  145.2436  132.4404  152.9760 H   0  0  0  0  0  0  0  0  0  0  0  0
  146.3893  133.7814  150.5166 H   0  0  0  0  0  0  0  0  0  0  0  0
  147.1675  132.6101  151.5793 H   0  0  0  0  0  0  0  0  0  0  0  0
  145.7114  132.0387  149.1906 H   0  0  0  0  0  0  0  0  0  0  0  0
  146.1764  130.8344  150.3955 H   0  0  0  0  0  0  0  0  0  0  0  0
  143.0234  132.5456  151.9867 H   0  0  0  0  0  0  0  0  0  0  0  0
  143.6049  133.5617  150.6589 H   0  0  0  0  0  0  0  0  0  0  0  0
  148.6249  134.1150  160.6863 H   0  0  0  0  0  0  0  0  0  0  0  0
  147.2619  133.2204  162.4924 H   0  0  0  0  0  0  0  0  0  0  0  0
  148.0157  131.8976  161.6139 H   0  0  0  0  0  0  0  0  0  0  0  0
  146.3094  132.2606  161.3673 H   0  0  0  0  0  0  0  0  0  0  0  0
  146.6000  135.2673  159.3025 H   0  0  0  0  0  0  0  0  0  0  0  0
  145.6977  134.5234  160.5982 H   0  0  0  0  0  0  0  0  0  0  0  0
  147.5159  136.1012  163.8636 H   0  0  0  0  0  0  0  0  0  0  0  0
  147.9046  134.5695  163.0507 H   0  0  0  0  0  0  0  0  0  0  0  0
  146.2117  135.0079  163.3737 H   0  0  0  0  0  0  0  0  0  0  0  0
  1  2  1  0  0  0  0
  1 29  1  0  0  0  0
  1 30  1  0  0  0  0
  1 31  1  0  0  0  0
  2  3  1  0  0  0  0
  2 32  1  0  0  0  0
  2 33  1  0  0  0  0
  3  4  1  0  0  0  0
  3 22  1  0  0  0  0
  4  9  1  0  0  0  0
  4  5  2  0  0  0  0
  5  6  1  0  0  0  0
  6  7  2  0  0  0  0
  6 34  1  0  0  0  0
  7  8  1  0  0  0  0
  8 12  1  0  0  0  0
  8  9  2  0  0  0  0
  9 10  1  0  0  0  0
 10 11  2  0  0  0  0
 11 12  1  0  0  0  0
 11 35  1  0  0  0  0
 12 13  1  0  0  0  0
 13 14  1  0  0  0  0
 13 36  1  0  0  0  0
 13 37  1  0  0  0  0
 14 15  1  0  0  0  0
 14 17  1  0  0  0  0
 14 38  1  0  0  0  0
 15 16  1  0  0  0  0
 15 39  1  0  0  0  0
 15 40  1  0  0  0  0
 16 41  1  0  0  0  0
 17 21  1  0  0  0  0
 17 18  1  0  0  0  0
 17 42  1  0  0  0  0
 18 19  1  0  0  0  0
 18 43  1  0  0  0  0
 18 44  1  0  0  0  0
 19 20  1  0  0  0  0
 19 45  1  0  0  0  0
 19 46  1  0  0  0  0
 20 21  1  0  0  0  0
 21 47  1  0  0  0  0
 21 48  1  0  0  0  0
 22 23  1  0  0  0  0
 22 24  1  0  0  0  0
 22 49  1  0  0  0  0
 23 50  1  0  0  0  0
 23 51  1  0  0  0  0
 23 52  1  0  0  0  0
 24 25  1  0  0  0  0
 24 53  1  0  0  0  0
 24 54  1  0  0  0  0
 25 26  1  0  0  0  0
 25 27  2  0  0  0  0
 25 28  2  0  0  0  0
 26 55  1  0  0  0  0
 26 56  1  0  0  0  0
 26 57  1  0  0  0  0
M  END
> <s_m_source_file>
AV-unprocessed.smi

> <i_m_source_file_index>
17

> <i_lp_mmshare_version>
43012

> <i_f3d_flags>
0

> <s_epik_input>
W0NIM11TKD1PKSg9TylbQ0gyXVtDQEBIXShbQ0gzXSlOKFtDSDJdW0NIM10pYyhuW2NIXW4xKWMoYzEyKW5bY0hdbjJbQ0gyXVtDQEhdKFtDSDJdW09IXSlbQ0BASF0zW0NIMl1bQ0gyXU9bQ0gyXTM=

> <s_epik_cmdline>
J2VwaWtfcHl0aG9uJywgJy1waCcsICc3LjAnLCAnLXRuJywgJzgnLCAnLW1hJywgJzIwMCcsICctbWV0YWxfYmluZGluZycsICctaW1hZScsICc8aW5maWxlLm1hZT4nLCAnLW9tYWUnLCAnPG91dGZpbGUubWFlPic=

> <r_lp_tautomer_probability>
1

> <r_epik_Ionization_Penalty>
0.00119955

> <r_epik_Ionization_Penalty_Charging>
0

> <r_epik_Ionization_Penalty_Neutral>
0.00119955

> <r_epik_State_Penalty>
0.000665399

> <r_epik_Charging_Adjusted_Penalty>
0.000665399

> <i_epik_Tot_Q>
0

> <i_epik_Tot_abs_Q>
0

> <r_epik_Metal_State_Penalty>
-0

> <b_epik_Metal_Only>
0

> <s_lp_Force_Field>
OPLS_2005

> <r_lp_Energy>
33.0306

> <b_lp_Chiralities_Consistent>
1

> <s_lp_Variant>
AV-unprocessed.smi:17-2

> <Gold.Version>
5.8.1

> <Gold.Id.Protein>
6NUR|6NUR_protein|mol2

> <Gold.PLP.Fitness>
45.2459

> <Gold.PLP.PLP>
-34.7848

> <Gold.PLP.part.hbond>
-3.8608

> <Gold.PLP.part.metal>
0.0000

> <Gold.PLP.part.buried>
-6.7607

> <Gold.PLP.part.nonpolar>
-25.8604

> <Gold.PLP.part.repulsive>
0.2812

> <Gold.PLP.ligand.clash>
0.0000

> <Gold.PLP.ligand.torsion>
2.1333

> <Gold.PLP.Chemscore.Hbond>
3.7313

> <Gold.PLP.Chemscore.CHOScore>
0.9853

> <Gold.PLP.Chemscore.Metal>
0.0000

> <Gold.Chemscore.Hbonds>
donor molecule, donor type, donor heavy atom, donor atom, acceptor molecule, acceptor atom, score
      L1  H    16    41       P1 10171  0.93
      P1  H  6896  6908       L1     5  0.71
      P1  H  6931  6943       L1    27  1.00
      P1  H  6934  6947       L1    28  0.45
      L1  C    11    35       P1 10957  1.00

> <Gold.PLP.Chemscore.Internal.Correction>
0.5781

> <Gold.Rescore>
     Score         DG    S(hbond)    S(metal)    S(lipo)     H(rot)  DE(clash)    DE(int)     intcor
     12.95     -15.33       3.25        0.00      68.05       3.51       0.10       2.28       ----

> <Gold.Chemscore.Fitness>
12.9517

> <Gold.Chemscore.DG>
-15.3301

> <Gold.Chemscore.ZeroCoef>
-5.4800

> <Gold.Chemscore.Hbond>
3.2524

> <Gold.Chemscore.Metal>
0.0000

> <Gold.Chemscore.Lipo>
68.0510

> <Gold.Chemscore.Internal_Hbond>
0.0000

> <Gold.Chemscore.DEClash>
0.0971

> <Gold.Chemscore.DEInternal>
2.2812

> <Gold.Chemscore.Rot>
3.5059

> <Gold.Chemscore.Internal.Correction>
   9.000000E+99

> <Gold.Chemscore.Hbonds>
donor molecule, donor type, donor heavy atom, donor atom, acceptor molecule, acceptor atom, score
      L1  H    16    41       P1 10171  0.89
      P1  H  6896  6908       L1     5  0.66
      P1  H  6931  6943       L1    27  0.97
      P1  H  6934  6947       L1    28  0.09

> <Gold.Chemscore.Hbond.Weighted>
-10.8631

> <Gold.Chemscore.Metal.Weighted>
-0.0000

> <Gold.Chemscore.Lipo.Weighted>
-7.9620

> <Gold.Chemscore.Internal_Hbond.Weighted>
0.0000

> <Gold.Chemscore.DEClash.Weighted>
0.0971

> <Gold.Chemscore.DEInternal.Weighted>
2.2812

> <Gold.Chemscore.Rot.Weighted>
8.9750

> <Gold.Chemscore.Internal.Correction.Weighted>
   9.000000E+99

> <Gold.Protein.RotatedTorsions>
[ 6907 6896 6895 6894 ] final  142.13 input  -60.11 | X-H torsion
[ 7974 7965 7964 7962 ] final -154.24 input  175.53 | X-H torsion
[ 8008 7997 7996 7995 ] final  174.07 input   59.86 | X-H torsion
[ 10167 10162 10161 10158 ] final -120.38 input  -65.29 | X-H torsion
[ 10718 10713 10712 10709 ] final  128.56 input   66.30 | X-H torsion
[ 10763 10752 10751 10750 ] final   47.46 input  -60.55 | X-H torsion
[ 11005 11000 10999 10996 ] final  -89.43 input  -57.11 | X-H torsion

> <Gold.Protein.ActiveResidues>
 VAL166  LYS551  ARG553  GLY616  TRP617  ASP618  TYR619  PRO620  LYS621  CYS622 
 ASP623  PHE694  ASN695  SER759  ASP760  ASP761  ALA762  ILE779  LEU786  VAL792 
 PHE793  MET794  SER795  GLU796  ALA797  LYS798  CYS799  TRP800  GLU811  SER814 

> <Gold.Protein.RotatedAtoms>
  152.2225  133.4994  159.5170 H   0  0  0  0  0  0  0  0  0  0  0  0  # atno 6907 bound_to 6896
  150.7016  134.1323  159.4083 H   0  0  0  0  0  0  0  0  0  0  0  0  # atno 6908 bound_to 6896
  151.9244  135.0284  160.0575 H   0  0  0  0  0  0  0  0  0  0  0  0  # atno 6909 bound_to 6896
  144.7699  140.4415  143.5915 H   0  0  0  0  0  0  0  0  0  0  0  0  # atno 7974 bound_to 7965
  156.1011  140.1444  156.9466 H   0  0  0  0  0  0  0  0  0  0  0  0  # atno 8008 bound_to 7997
  154.4703  140.0912  156.7173 H   0  0  0  0  0  0  0  0  0  0  0  0  # atno 8009 bound_to 7997
  155.4758  140.3443  155.4334 H   0  0  0  0  0  0  0  0  0  0  0  0  # atno 8010 bound_to 7997
  140.0365  143.5196  152.2151 H   0  0  0  0  0  0  0  0  0  0  0  0  # atno 10167 bound_to 10162
  157.5233  131.1098  150.9120 H   0  0  0  0  0  0  0  0  0  0  0  0  # atno 10718 bound_to 10713
  152.9800  135.5975  154.3767 H   0  0  0  0  0  0  0  0  0  0  0  0  # atno 10763 bound_to 10752
  154.3435  135.2767  155.2412 H   0  0  0  0  0  0  0  0  0  0  0  0  # atno 10764 bound_to 10752
  154.4483  135.5996  153.6229 H   0  0  0  0  0  0  0  0  0  0  0  0  # atno 10765 bound_to 10752
  141.1585  133.7630  156.9594 H   0  0  0  0  0  0  0  0  0  0  0  0  # atno 11005 bound_to 11000
  145.6355  139.1542  143.2945 LP  0  0  0  0  0  0  0  0  0  0  0  0  # atno 17320 bound_to 7965
  146.1837  140.6456  142.9177 LP  0  0  0  0  0  0  0  0  0  0  0  0  # atno 17321 bound_to 7965
  139.6042  144.7591  151.3101 LP  0  0  0  0  0  0  0  0  0  0  0  0  # atno 17342 bound_to 10162
  140.7279  143.6950  150.7891 LP  0  0  0  0  0  0  0  0  0  0  0  0  # atno 17343 bound_to 10162
  156.9724  130.5496  149.5291 LP  0  0  0  0  0  0  0  0  0  0  0  0  # atno 17370 bound_to 10713
  156.0369  130.5456  150.8676 LP  0  0  0  0  0  0  0  0  0  0  0  0  # atno 17371 bound_to 10713
  140.1203  134.9421  157.2194 LP  0  0  0  0  0  0  0  0  0  0  0  0  # atno 17394 bound_to 11000
  140.3080  134.3056  155.7273 LP  0  0  0  0  0  0  0  0  0  0  0  0  # atno 17395 bound_to 11000

$$$$
