AV-unprocessed.smi:1209|AV-procd|sdf|5075|dock1
  -GOLD-   22720 4123D 1   1.00000     0.00000
 Structure written by MMmdl.
 49 51  0  0  0  0  0  0  0  0  2 V2000
  145.8609  132.6483  152.0618 C   0  0  0  0  0  0  0  0  0  0  0  0
  145.9000  134.0944  152.4186 C   0  0  0  0  0  0  0  0  0  0  0  0
  146.5469  134.7975  153.3950 C   0  0  0  0  0  0  0  0  0  0  0  0
  146.1602  136.1450  153.1507 C   0  0  0  0  0  0  0  0  0  0  0  0
  146.5874  137.3918  153.8756 C   0  0  0  0  0  0  0  0  0  0  0  0
  147.3994  138.2984  153.0159 N   0  3  1  0  0  0  0  0  0  0  0  0
  146.7122  138.5989  151.7390 C   0  0  0  0  0  0  0  0  0  0  0  0
  147.8676  139.5414  153.6918 C   0  0  0  0  0  0  0  0  0  0  0  0
  149.2040  139.3618  154.4374 C   0  0  1  0  0  0  0  0  0  0  0  0
  150.0712  138.5579  153.6619 O   0  0  0  0  0  0  0  0  0  0  0  0
  149.8948  140.7026  154.7435 C   0  0  0  0  0  0  0  0  0  0  0  0
  150.9277  140.5492  155.7506 N   0  0  0  0  0  0  0  0  0  0  0  0
  151.8825  139.6013  155.8138 C   0  0  0  0  0  0  0  0  0  0  0  0
  152.7191  139.6502  156.8471 N   0  0  0  0  0  0  0  0  0  0  0  0
  152.2536  140.7596  157.5328 C   0  0  0  0  0  0  0  0  0  0  0  0
  152.7036  141.3562  158.7312 C   0  0  0  0  0  0  0  0  0  0  0  0
  152.0664  142.5047  159.2535 C   0  0  0  0  0  0  0  0  0  0  0  0
  152.5851  143.1128  160.5446 C   0  0  0  0  0  0  0  0  0  0  0  0
  150.9584  143.0738  158.5752 C   0  0  0  0  0  0  0  0  0  0  0  0
  150.2620  144.3127  159.1104 C   0  0  0  0  0  0  0  0  0  0  0  0
  150.4941  142.4882  157.3795 C   0  0  0  0  0  0  0  0  0  0  0  0
  151.1371  141.3464  156.8701 C   0  0  0  0  0  0  0  0  0  0  0  0
  145.3333  136.2384  152.1218 N   0  0  0  0  0  0  0  0  0  0  0  0
  145.1627  134.9338  151.6472 O   0  0  0  0  0  0  0  0  0  0  0  0
  146.7384  132.1295  152.4450 H   0  0  0  0  0  0  0  0  0  0  0  0
  145.8395  132.5146  150.9800 H   0  0  0  0  0  0  0  0  0  0  0  0
  144.9752  132.1707  152.4808 H   0  0  0  0  0  0  0  0  0  0  0  0
  147.2087  134.4081  154.1542 H   0  0  0  0  0  0  0  0  0  0  0  0
  145.6873  137.9107  154.2080 H   0  0  0  0  0  0  0  0  0  0  0  0
  147.1349  137.1450  154.7861 H   0  0  0  0  0  0  0  0  0  0  0  0
  145.7957  139.1644  151.9128 H   0  0  0  0  0  0  0  0  0  0  0  0
  146.4550  137.6807  151.2095 H   0  0  0  0  0  0  0  0  0  0  0  0
  147.3557  139.1813  151.0786 H   0  0  0  0  0  0  0  0  0  0  0  0
  147.9982  140.3370  152.9565 H   0  0  0  0  0  0  0  0  0  0  0  0
  147.0930  139.8949  154.3737 H   0  0  0  0  0  0  0  0  0  0  0  0
  149.0375  138.8566  155.3837 H   0  0  0  0  0  0  0  0  0  0  0  0
  149.9415  138.7632  152.7483 H   0  0  0  0  0  0  0  0  0  0  0  0
  150.3292  141.1375  153.8420 H   0  0  0  0  0  0  0  0  0  0  0  0
  149.1690  141.4236  155.1216 H   0  0  0  0  0  0  0  0  0  0  0  0
  151.9639  138.8282  155.0637 H   0  0  0  0  0  0  0  0  0  0  0  0
  153.5469  140.9225  159.2483 H   0  0  0  0  0  0  0  0  0  0  0  0
  151.8458  143.0037  161.3381 H   0  0  0  0  0  0  0  0  0  0  0  0
  152.7992  144.1737  160.4124 H   0  0  0  0  0  0  0  0  0  0  0  0
  153.5041  142.6261  160.8727 H   0  0  0  0  0  0  0  0  0  0  0  0
  149.3400  144.5156  158.5650 H   0  0  0  0  0  0  0  0  0  0  0  0
  150.9111  145.1829  159.0121 H   0  0  0  0  0  0  0  0  0  0  0  0
  150.0044  144.1914  160.1623 H   0  0  0  0  0  0  0  0  0  0  0  0
  149.6515  142.9108  156.8529 H   0  0  0  0  0  0  0  0  0  0  0  0
  148.2284  137.7809  152.7583 H   0  0  0  0  0  0  0  0  0  0  0  0
  1  2  1  0  0  0  0
  1 25  1  0  0  0  0
  1 26  1  0  0  0  0
  1 27  1  0  0  0  0
  2 24  1  0  0  0  0
  2  3  2  0  0  0  0
  3  4  1  0  0  0  0
  3 28  1  0  0  0  0
  4  5  1  0  0  0  0
  4 23  2  0  0  0  0
  5  6  1  0  0  0  0
  5 29  1  0  0  0  0
  5 30  1  0  0  0  0
  6  7  1  0  0  0  0
  6  8  1  0  0  0  0
  6 49  1  0  0  0  0
  7 31  1  0  0  0  0
  7 32  1  0  0  0  0
  7 33  1  0  0  0  0
  8  9  1  0  0  0  0
  8 34  1  0  0  0  0
  8 35  1  0  0  0  0
  9 10  1  0  0  0  0
  9 11  1  0  0  0  0
  9 36  1  0  0  0  0
 10 37  1  0  0  0  0
 11 12  1  0  0  0  0
 11 38  1  0  0  0  0
 11 39  1  0  0  0  0
 12 22  1  0  0  0  0
 12 13  1  0  0  0  0
 13 14  2  0  0  0  0
 13 40  1  0  0  0  0
 14 15  1  0  0  0  0
 15 22  2  0  0  0  0
 15 16  1  0  0  0  0
 16 17  2  0  0  0  0
 16 41  1  0  0  0  0
 17 18  1  0  0  0  0
 17 19  1  0  0  0  0
 18 42  1  0  0  0  0
 18 43  1  0  0  0  0
 18 44  1  0  0  0  0
 19 20  1  0  0  0  0
 19 21  2  0  0  0  0
 20 45  1  0  0  0  0
 20 46  1  0  0  0  0
 20 47  1  0  0  0  0
 21 22  1  0  0  0  0
 21 48  1  0  0  0  0
 23 24  1  0  0  0  0
M  CHG  1   6   1
M  END
> <s_m_source_file>
AV-unprocessed.smi

> <i_m_source_file_index>
1209

> <i_lp_mmshare_version>
43012

> <i_f3d_flags>
0

> <s_epik_input>
W0NIM11jMVtjSF1jKG5vMSlbQ0gyXU4oW0NIM10pW0NIMl1bQ0BIXShbT0hdKVtDSDJdbihbY0hdbjIpYyhjMjMpW2NIXWMoW0NIM10pYyhbY0hdMylbQ0gzXQ==

> <s_epik_cmdline>
J2VwaWtfcHl0aG9uJywgJy1waCcsICc3LjAnLCAnLXRuJywgJzgnLCAnLW1hJywgJzIwMCcsICctbWV0YWxfYmluZGluZycsICctaW1hZScsICc8aW5maWxlLm1hZT4nLCAnLW9tYWUnLCAnPG91dGZpbGUubWFlPic=

> <r_epik_Ionization_Penalty>
2.05249

> <r_epik_Ionization_Penalty_Charging>
1.96618

> <r_epik_Ionization_Penalty_Neutral>
0.0863156

> <r_epik_State_Penalty>
2.19215

> <r_epik_Charging_Adjusted_Penalty>
4.15833

> <i_epik_Tot_Q>
1

> <i_epik_Tot_abs_Q>
1

> <r_epik_Metal_State_Penalty>
2.17654

> <b_epik_Metal_Only>
0

> <s_lp_Force_Field>
OPLS_2005

> <r_lp_Energy>
8.33494

> <b_lp_Chiralities_Consistent>
1

> <s_lp_Variant>
AV-unprocessed.smi:1209-7

> <Gold.Version>
5.8.1

> <Gold.Id.Protein>
6NUR|6NUR_protein|mol2

> <Gold.PLP.Fitness>
53.1660

> <Gold.PLP.PLP>
-42.6202

> <Gold.PLP.part.hbond>
-4.0415

> <Gold.PLP.part.metal>
0.0000

> <Gold.PLP.part.buried>
-1.6402

> <Gold.PLP.part.nonpolar>
-38.4185

> <Gold.PLP.part.repulsive>
0.4297

> <Gold.PLP.ligand.clash>
0.0009

> <Gold.PLP.ligand.torsion>
0.8842

> <Gold.PLP.Chemscore.Hbond>
4.0000

> <Gold.PLP.Chemscore.CHOScore>
0.0000

> <Gold.PLP.Chemscore.Metal>
0.0000

> <Gold.Chemscore.Hbonds>
donor molecule, donor type, donor heavy atom, donor atom, acceptor molecule, acceptor atom, score
      L1  H     6    49       P1  7948  1.89
      L1  H    10    37       P1  7957  0.96
      P1  H  7997  8010       L1    14  1.00

> <Gold.PLP.Chemscore.Internal.Correction>
0.3151

> <Gold.Rescore>
     Score         DG    S(hbond)    S(metal)    S(lipo)     H(rot)  DE(clash)    DE(int)     intcor
     15.99     -19.60       2.23        0.00     112.53       2.53       0.52       3.09       ----

> <Gold.Chemscore.Fitness>
15.9909

> <Gold.Chemscore.DG>
-19.6014

> <Gold.Chemscore.ZeroCoef>
-5.4800

> <Gold.Chemscore.Hbond>
2.2276

> <Gold.Chemscore.Metal>
0.0000

> <Gold.Chemscore.Lipo>
112.5324

> <Gold.Chemscore.Internal_Hbond>
0.0000

> <Gold.Chemscore.DEClash>
0.5247

> <Gold.Chemscore.DEInternal>
3.0859

> <Gold.Chemscore.Rot>
2.5332

> <Gold.Chemscore.Internal.Correction>
   9.000000E+99

> <Gold.Chemscore.Hbonds>
donor molecule, donor type, donor heavy atom, donor atom, acceptor molecule, acceptor atom, score
      L1  H     6    49       P1  7948  0.91
      L1  H    10    37       P1  7957  0.54
      P1  H  7997  8010       L1    14  0.33

> <Gold.Chemscore.Hbond.Weighted>
-7.4402

> <Gold.Chemscore.Metal.Weighted>
-0.0000

> <Gold.Chemscore.Lipo.Weighted>
-13.1663

> <Gold.Chemscore.Internal_Hbond.Weighted>
0.0000

> <Gold.Chemscore.DEClash.Weighted>
0.5247

> <Gold.Chemscore.DEInternal.Weighted>
3.0859

> <Gold.Chemscore.Rot.Weighted>
6.4851

> <Gold.Chemscore.Internal.Correction.Weighted>
   9.000000E+99

> <Gold.Protein.RotatedTorsions>
[ 6907 6896 6895 6894 ] final   54.58 input  -60.11 | X-H torsion
[ 7974 7965 7964 7962 ] final   21.55 input  175.53 | X-H torsion
[ 8008 7997 7996 7995 ] final   80.83 input   59.86 | X-H torsion
[ 10167 10162 10161 10158 ] final -157.91 input  -65.29 | X-H torsion
[ 10718 10713 10712 10709 ] final   19.94 input   66.30 | X-H torsion
[ 10763 10752 10751 10750 ] final  -66.08 input  -60.55 | X-H torsion
[ 11005 11000 10999 10996 ] final  139.59 input  -57.11 | X-H torsion

> <Gold.Protein.ActiveResidues>
 VAL166  LYS551  ARG553  GLY616  TRP617  ASP618  TYR619  PRO620  LYS621  CYS622 
 ASP623  PHE694  ASN695  SER759  ASP760  ASP761  ALA762  ILE779  LEU786  VAL792 
 PHE793  MET794  SER795  GLU796  ALA797  LYS798  CYS799  TRP800  GLU811  SER814 

> <Gold.Protein.RotatedAtoms>
  152.3453  134.7079  160.0251 H   0  0  0  0  0  0  0  0  0  0  0  0  # atno 6907 bound_to 6896
  151.7451  133.3318  159.3384 H   0  0  0  0  0  0  0  0  0  0  0  0  # atno 6908 bound_to 6896
  150.7505  134.6176  159.6163 H   0  0  0  0  0  0  0  0  0  0  0  0  # atno 6909 bound_to 6896
  146.2066  139.8011  142.8721 H   0  0  0  0  0  0  0  0  0  0  0  0  # atno 7974 bound_to 7965
  155.8888  140.3440  155.5941 H   0  0  0  0  0  0  0  0  0  0  0  0  # atno 8008 bound_to 7997
  155.7635  140.0835  157.2163 H   0  0  0  0  0  0  0  0  0  0  0  0  # atno 8009 bound_to 7997
  154.4031  140.1531  156.2847 H   0  0  0  0  0  0  0  0  0  0  0  0  # atno 8010 bound_to 7997
  139.6733  143.9707  152.2296 H   0  0  0  0  0  0  0  0  0  0  0  0  # atno 10167 bound_to 10162
  157.1174  130.6535  149.5914 H   0  0  0  0  0  0  0  0  0  0  0  0  # atno 10718 bound_to 10713
  154.3545  135.6129  153.5659 H   0  0  0  0  0  0  0  0  0  0  0  0  # atno 10763 bound_to 10752
  152.9796  135.5800  154.4705 H   0  0  0  0  0  0  0  0  0  0  0  0  # atno 10764 bound_to 10752
  154.4432  135.2850  155.1811 H   0  0  0  0  0  0  0  0  0  0  0  0  # atno 10765 bound_to 10752
  140.0266  134.9372  157.0580 H   0  0  0  0  0  0  0  0  0  0  0  0  # atno 11005 bound_to 11000
  145.3296  141.0263  143.3454 LP  0  0  0  0  0  0  0  0  0  0  0  0  # atno 17320 bound_to 7965
  144.8808  139.4906  143.6723 LP  0  0  0  0  0  0  0  0  0  0  0  0  # atno 17321 bound_to 7965
  139.9477  144.6641  150.8203 LP  0  0  0  0  0  0  0  0  0  0  0  0  # atno 17342 bound_to 10162
  140.7626  143.3203  151.2638 LP  0  0  0  0  0  0  0  0  0  0  0  0  # atno 17343 bound_to 10162
  155.9836  130.4856  150.6942 LP  0  0  0  0  0  0  0  0  0  0  0  0  # atno 17370 bound_to 10713
  157.4506  131.0872  151.0850 LP  0  0  0  0  0  0  0  0  0  0  0  0  # atno 17371 bound_to 10713
  140.4296  134.1794  155.7167 LP  0  0  0  0  0  0  0  0  0  0  0  0  # atno 17394 bound_to 11000
  141.1806  133.8421  157.1270 LP  0  0  0  0  0  0  0  0  0  0  0  0  # atno 17395 bound_to 11000

$$$$
