AV-unprocessed.smi:283|AV-procd|sdf|2143|dock10
  -GOLD-   2262021473D 1   1.00000     0.00000
 Structure written by MMmdl.
 48 51  0  0  0  0  0  0  0  0  1 V2000
  151.7244  140.0494  158.5872 C   0  0  0  0  0  0  0  0  0  0  0  0
  152.9170  140.8246  159.1626 C   0  0  2  0  0  0  0  0  0  0  0  0
  153.4604  140.1154  160.3203 N   0  0  0  0  0  0  0  0  0  0  0  0
  153.5878  138.7695  160.3146 C   0  0  0  0  0  0  0  0  0  0  0  0
  153.4137  138.0412  161.4484 N   0  0  0  0  0  0  0  0  0  0  0  0
  153.5431  136.7120  161.4154 C   0  0  0  0  0  0  0  0  0  0  0  0
  153.8388  135.9285  160.3757 N   0  0  0  0  0  0  0  0  0  0  0  0
  154.0197  136.6552  159.2350 C   0  0  0  0  0  0  0  0  0  0  0  0
  153.9150  138.0697  159.1245 C   0  0  0  0  0  0  0  0  0  0  0  0
  154.1653  138.4598  157.8155 N   0  0  0  0  0  0  0  0  0  0  0  0
  154.4052  137.3375  157.1923 C   0  0  0  0  0  0  0  0  0  0  0  0
  154.3328  136.2025  157.9693 N   0  0  0  0  0  0  0  0  0  0  0  0
  154.5516  134.7890  157.5390 C   0  0  1  0  0  0  0  0  0  0  0  0
  155.7519  134.7317  156.8345 O   0  0  0  0  0  0  0  0  0  0  0  0
  156.4306  133.5125  157.1162 C   0  0  2  0  0  0  0  0  0  0  0  0
  155.9521  132.4278  156.1310 C   0  0  0  0  0  0  0  0  0  0  0  0
  156.3848  131.1574  156.5673 O   0  0  0  0  0  0  0  0  0  0  0  0
  156.0405  133.2106  158.5701 C   0  0  1  0  0  0  0  0  0  0  0  0
  156.9892  133.7991  159.4373 O   0  0  0  0  0  0  0  0  0  0  0  0
  154.6653  133.8504  158.7515 C   0  0  2  0  0  0  0  0  0  0  0  0
  153.6711  132.8461  158.7088 O   0  0  0  0  0  0  0  0  0  0  0  0
  152.5261  142.2785  159.4385 C   0  0  0  0  0  0  0  0  0  0  0  0
  152.0285  143.0835  158.3871 C   0  0  0  0  0  0  0  0  0  0  0  0
  151.6653  144.4234  158.6189 C   0  0  0  0  0  0  0  0  0  0  0  0
  151.8024  144.9761  159.9048 C   0  0  0  0  0  0  0  0  0  0  0  0
  152.3071  144.1882  160.9558 C   0  0  0  0  0  0  0  0  0  0  0  0
  152.6717  142.8456  160.7298 C   0  0  0  0  0  0  0  0  0  0  0  0
  153.2976  141.9292  162.0559 Cl  0  0  0  0  0  0  0  0  0  0  0  0
  153.7114  134.5595  156.8814 H   0  0  0  0  0  0  0  0  0  0  0  0
  157.5102  133.6414  157.0190 H   0  0  0  0  0  0  0  0  0  0  0  0
  156.0383  132.1402  158.7820 H   0  0  0  0  0  0  0  0  0  0  0  0
  154.5811  134.3991  159.6915 H   0  0  0  0  0  0  0  0  0  0  0  0
  151.3584  140.5176  157.6727 H   0  0  0  0  0  0  0  0  0  0  0  0
  150.8961  140.0103  159.2956 H   0  0  0  0  0  0  0  0  0  0  0  0
  152.0025  139.0239  158.3416 H   0  0  0  0  0  0  0  0  0  0  0  0
  153.7031  140.8087  158.4084 H   0  0  0  0  0  0  0  0  0  0  0  0
  153.8694  140.6981  161.0366 H   0  0  0  0  0  0  0  0  0  0  0  0
  153.3874  136.2041  162.3559 H   0  0  0  0  0  0  0  0  0  0  0  0
  154.6399  137.3071  156.1382 H   0  0  0  0  0  0  0  0  0  0  0  0
  154.8625  132.4025  156.0987 H   0  0  0  0  0  0  0  0  0  0  0  0
  156.2985  132.6151  155.1142 H   0  0  0  0  0  0  0  0  0  0  0  0
  156.1488  130.5191  155.9112 H   0  0  0  0  0  0  0  0  0  0  0  0
  156.5280  134.1783  160.1711 H   0  0  0  0  0  0  0  0  0  0  0  0
  154.0299  132.0870  158.2749 H   0  0  0  0  0  0  0  0  0  0  0  0
  151.9215  142.6761  157.3925 H   0  0  0  0  0  0  0  0  0  0  0  0
  151.2825  145.0272  157.8093 H   0  0  0  0  0  0  0  0  0  0  0  0
  151.5243  146.0043  160.0846 H   0  0  0  0  0  0  0  0  0  0  0  0
  152.4163  144.6180  161.9408 H   0  0  0  0  0  0  0  0  0  0  0  0
  1  2  1  0  0  0  0
  1 33  1  0  0  0  0
  1 34  1  0  0  0  0
  1 35  1  0  0  0  0
  2  3  1  0  0  0  0
  2 22  1  0  0  0  0
  2 36  1  0  0  0  0
  3  4  1  0  0  0  0
  3 37  1  0  0  0  0
  4  9  1  0  0  0  0
  4  5  2  0  0  0  0
  5  6  1  0  0  0  0
  6  7  2  0  0  0  0
  6 38  1  0  0  0  0
  7  8  1  0  0  0  0
  8 12  1  0  0  0  0
  8  9  2  0  0  0  0
  9 10  1  0  0  0  0
 10 11  2  0  0  0  0
 11 12  1  0  0  0  0
 11 39  1  0  0  0  0
 12 13  1  0  0  0  0
 13 29  1  0  0  0  0
 13 20  1  0  0  0  0
 13 14  1  0  0  0  0
 14 15  1  0  0  0  0
 15 30  1  0  0  0  0
 15 16  1  0  0  0  0
 15 18  1  0  0  0  0
 16 17  1  0  0  0  0
 16 40  1  0  0  0  0
 16 41  1  0  0  0  0
 17 42  1  0  0  0  0
 18 31  1  0  0  0  0
 18 19  1  0  0  0  0
 18 20  1  0  0  0  0
 19 43  1  0  0  0  0
 20 32  1  0  0  0  0
 20 21  1  0  0  0  0
 21 44  1  0  0  0  0
 22 27  1  0  0  0  0
 22 23  2  0  0  0  0
 23 24  1  0  0  0  0
 23 45  1  0  0  0  0
 24 25  2  0  0  0  0
 24 46  1  0  0  0  0
 25 26  1  0  0  0  0
 25 47  1  0  0  0  0
 26 27  2  0  0  0  0
 26 48  1  0  0  0  0
 27 28  1  0  0  0  0
M  END
> <s_m_source_file>
AV-unprocessed.smi

> <i_m_source_file_index>
283

> <i_lp_mmshare_version>
43012

> <i_f3d_flags>
0

> <s_epik_input>
Q2xjMVtjSF1bY0hdW2NIXVtjSF1jMVtDQEhdKFtDSDNdKVtOSF1jKG5bY0hdbjIpYyhjMjMpbltjSF1uM1tDQEBIXTRPW0NASF0oW0NIMl1bT0hdKVtDQEBIXShbT0hdKVtDQEhdNFtPSF0=

> <s_epik_cmdline>
J2VwaWtfcHl0aG9uJywgJy1waCcsICc3LjAnLCAnLXRuJywgJzgnLCAnLW1hJywgJzIwMCcsICctbWV0YWxfYmluZGluZycsICctaW1hZScsICc8aW5maWxlLm1hZT4nLCAnLW9tYWUnLCAnPG91dGZpbGUubWFlPic=

> <r_lp_tautomer_probability>
1

> <r_epik_Ionization_Penalty>
0.000266407

> <r_epik_Ionization_Penalty_Charging>
0

> <r_epik_Ionization_Penalty_Neutral>
0.000266407

> <r_epik_State_Penalty>
-0

> <r_epik_Charging_Adjusted_Penalty>
0

> <i_epik_Tot_Q>
0

> <i_epik_Tot_abs_Q>
0

> <r_epik_Metal_State_Penalty>
-0

> <b_epik_Metal_Only>
0

> <s_epik_Chemistry_Notes>
This compound contains an acetal/aminal-like group ( X-CH(R)-Y where X, Y are N, S, or O) that may be acid/base labile, releasing an aldehyde.

> <s_lp_Force_Field>
OPLS_2005

> <r_lp_Energy>
39.2487

> <b_lp_Chiralities_Consistent>
1

> <s_lp_Variant>
AV-unprocessed.smi:283-19

> <Gold.Version>
5.8.1

> <Gold.Id.Protein>
6NUR|6NUR_protein|mol2

> <Gold.PLP.Fitness>
49.6039

> <Gold.PLP.PLP>
-41.1813

> <Gold.PLP.part.hbond>
-3.9147

> <Gold.PLP.part.metal>
0.0000

> <Gold.PLP.part.buried>
-5.6921

> <Gold.PLP.part.nonpolar>
-32.7869

> <Gold.PLP.part.repulsive>
0.0689

> <Gold.PLP.ligand.clash>
0.0000

> <Gold.PLP.ligand.torsion>
0.7345

> <Gold.PLP.Chemscore.Hbond>
3.2696

> <Gold.PLP.Chemscore.CHOScore>
0.0000

> <Gold.PLP.Chemscore.Metal>
0.0000

> <Gold.Chemscore.Hbonds>
donor molecule, donor type, donor heavy atom, donor atom, acceptor molecule, acceptor atom, score
      P1  H  6896  6908       L1     7  1.00
      P1  H  6896  6909       L1    21  1.00
      P1  H  7997  8009       L1    10  0.96
      P1  H 10752 10764       L1    14  0.29

> <Gold.PLP.Chemscore.Internal.Correction>
0.0829

> <Gold.Rescore>
     Score         DG    S(hbond)    S(metal)    S(lipo)     H(rot)  DE(clash)    DE(int)     intcor
      8.15     -15.32       2.38        0.00     105.93       4.10       0.00       7.17       ----

> <Gold.Chemscore.Fitness>
8.1497

> <Gold.Chemscore.DG>
-15.3216

> <Gold.Chemscore.ZeroCoef>
-5.4800

> <Gold.Chemscore.Hbond>
2.3760

> <Gold.Chemscore.Metal>
0.0000

> <Gold.Chemscore.Lipo>
105.9304

> <Gold.Chemscore.Internal_Hbond>
0.0000

> <Gold.Chemscore.DEClash>
0.0042

> <Gold.Chemscore.DEInternal>
7.1677

> <Gold.Chemscore.Rot>
4.0968

> <Gold.Chemscore.Internal.Correction>
   9.000000E+99

> <Gold.Chemscore.Hbonds>
donor molecule, donor type, donor heavy atom, donor atom, acceptor molecule, acceptor atom, score
      P1  H  6896  6908       L1     7  0.15
      P1  H  6896  6909       L1    21  0.78
      P1  H  7997  8009       L1    10  0.90
      P1  H 10752 10764       L1    14  0.01

> <Gold.Chemscore.Hbond.Weighted>
-7.9357

> <Gold.Chemscore.Metal.Weighted>
-0.0000

> <Gold.Chemscore.Lipo.Weighted>
-12.3939

> <Gold.Chemscore.Internal_Hbond.Weighted>
0.0000

> <Gold.Chemscore.DEClash.Weighted>
0.0042

> <Gold.Chemscore.DEInternal.Weighted>
7.1677

> <Gold.Chemscore.Rot.Weighted>
10.4879

> <Gold.Chemscore.Internal.Correction.Weighted>
   9.000000E+99

> <Gold.Protein.RotatedTorsions>
[ 6907 6896 6895 6894 ] final  -87.23 input  -60.11 | X-H torsion
[ 7974 7965 7964 7962 ] final -118.48 input  175.53 | X-H torsion
[ 8008 7997 7996 7995 ] final  138.06 input   59.86 | X-H torsion
[ 10167 10162 10161 10158 ] final  101.29 input  -65.29 | X-H torsion
[ 10718 10713 10712 10709 ] final  -30.48 input   66.30 | X-H torsion
[ 10763 10752 10751 10750 ] final   69.64 input  -60.55 | X-H torsion
[ 11005 11000 10999 10996 ] final  -15.91 input  -57.11 | X-H torsion

> <Gold.Protein.ActiveResidues>
 VAL166  LYS551  ARG553  GLY616  TRP617  ASP618  TYR619  PRO620  LYS621  CYS622 
 ASP623  PHE694  ASN695  SER759  ASP760  ASP761  ALA762  ILE779  LEU786  VAL792 
 PHE793  MET794  SER795  GLU796  ALA797  LYS798  CYS799  TRP800  GLU811  SER814 

> <Gold.Protein.RotatedAtoms>
  150.6866  134.2928  159.4673 H   0  0  0  0  0  0  0  0  0  0  0  0  # atno 6907 bound_to 6896
  152.0831  134.9455  160.0582 H   0  0  0  0  0  0  0  0  0  0  0  0  # atno 6908 bound_to 6896
  152.0800  133.4113  159.4534 H   0  0  0  0  0  0  0  0  0  0  0  0  # atno 6909 bound_to 6896
  145.0734  140.8375  143.4082 H   0  0  0  0  0  0  0  0  0  0  0  0  # atno 7974 bound_to 7965
  156.2999  140.2403  156.4012 H   0  0  0  0  0  0  0  0  0  0  0  0  # atno 8008 bound_to 7997
  154.8525  140.0423  157.1633 H   0  0  0  0  0  0  0  0  0  0  0  0  # atno 8009 bound_to 7997
  154.8983  140.2973  155.5336 H   0  0  0  0  0  0  0  0  0  0  0  0  # atno 8010 bound_to 7997
  139.7451  144.7000  151.0517 H   0  0  0  0  0  0  0  0  0  0  0  0  # atno 10167 bound_to 10162
  156.3993  130.4387  149.7334 H   0  0  0  0  0  0  0  0  0  0  0  0  # atno 10718 bound_to 10713
  153.0298  135.5203  154.7319 H   0  0  0  0  0  0  0  0  0  0  0  0  # atno 10763 bound_to 10752
  154.6344  135.2904  155.0181 H   0  0  0  0  0  0  0  0  0  0  0  0  # atno 10764 bound_to 10752
  154.1121  135.6620  153.4939 H   0  0  0  0  0  0  0  0  0  0  0  0  # atno 10765 bound_to 10752
  140.8014  133.8211  155.9474 H   0  0  0  0  0  0  0  0  0  0  0  0  # atno 11005 bound_to 11000
  145.1265  139.2659  143.5561 LP  0  0  0  0  0  0  0  0  0  0  0  0  # atno 17320 bound_to 7965
  146.3529  140.0904  142.8613 LP  0  0  0  0  0  0  0  0  0  0  0  0  # atno 17321 bound_to 7965
  140.7791  143.4877  150.9934 LP  0  0  0  0  0  0  0  0  0  0  0  0  # atno 17342 bound_to 10162
  139.8565  143.7370  152.3175 LP  0  0  0  0  0  0  0  0  0  0  0  0  # atno 17343 bound_to 10162
  156.4357  130.7836  151.2857 LP  0  0  0  0  0  0  0  0  0  0  0  0  # atno 17370 bound_to 10713
  157.7503  131.0140  150.3448 LP  0  0  0  0  0  0  0  0  0  0  0  0  # atno 17371 bound_to 10713
  140.9291  134.2045  157.4876 LP  0  0  0  0  0  0  0  0  0  0  0  0  # atno 17394 bound_to 11000
  139.8721  134.9825  156.5159 LP  0  0  0  0  0  0  0  0  0  0  0  0  # atno 17395 bound_to 11000

$$$$
