AV-unprocessed.smi:1033|AV-procd|sdf|4502|dock3
  -GOLD-   22720 2503D 1   1.00000     0.00000
 Structure written by MMmdl.
 57 59  0  0  0  0  0  0  0  0  3 V2000
  152.8156  142.9129  161.8050 C   0  0  0  0  0  0  0  0  0  0  0  0
  152.3603  142.4888  160.4190 C   0  0  0  0  0  0  0  0  0  0  0  0
  152.3965  141.1150  160.0881 C   0  0  0  0  0  0  0  0  0  0  0  0
  151.9758  140.7587  158.8122 C   0  0  0  0  0  0  0  0  0  0  0  0
  151.8938  139.5113  158.1887 N   0  3  0  0  0  0  0  0  0  0  0  0
  151.4184  139.6666  156.9217 C   0  0  0  0  0  0  0  0  0  0  0  0
  151.1913  140.9946  156.7301 N   0  0  0  0  0  0  0  0  0  0  0  0
  150.6827  141.7089  155.5525 C   0  0  0  0  0  0  0  0  0  0  0  0
  149.4314  141.0433  154.9443 C   0  0  2  0  0  0  0  0  0  0  0  0
  149.5118  141.1120  153.5355 O   0  0  0  0  0  0  0  0  0  0  0  0
  148.1239  141.7323  155.3797 C   0  0  0  0  0  0  0  0  0  0  0  0
  146.9099  141.2622  154.7015 N   0  0  0  0  0  0  0  0  0  0  0  0
  145.8039  141.0192  155.6271 C   0  0  0  0  0  0  0  0  0  0  0  0
  145.1884  142.3145  156.1953 C   0  0  0  0  0  0  0  0  0  0  0  0
  144.7263  143.1967  155.0928 N   0  3  0  0  0  0  0  0  0  0  0  0
  144.0590  144.4261  155.5931 C   0  0  0  0  0  0  0  0  0  0  0  0
  143.5677  145.3423  154.4549 C   0  0  2  0  0  0  0  0  0  0  0  0
  143.0340  146.6806  154.9821 C   0  0  0  0  0  0  0  0  0  0  0  0
  142.5227  144.6971  153.7551 O   0  0  0  0  0  0  0  0  0  0  0  0
  145.8337  143.4632  154.1359 C   0  0  0  0  0  0  0  0  0  0  0  0
  146.4308  142.1355  153.6266 C   0  0  0  0  0  0  0  0  0  0  0  0
  151.5292  141.7147  157.8800 C   0  0  0  0  0  0  0  0  0  0  0  0
  151.4877  143.0720  158.1883 C   0  0  0  0  0  0  0  0  0  0  0  0
  151.9116  143.4548  159.4809 C   0  0  0  0  0  0  0  0  0  0  0  0
  151.8775  144.9287  159.8470 C   0  0  0  0  0  0  0  0  0  0  0  0
  153.1136  142.0543  162.4075 H   0  0  0  0  0  0  0  0  0  0  0  0
  152.0115  143.4257  162.3331 H   0  0  0  0  0  0  0  0  0  0  0  0
  153.6711  143.5855  161.7376 H   0  0  0  0  0  0  0  0  0  0  0  0
  152.7375  140.3744  160.7968 H   0  0  0  0  0  0  0  0  0  0  0  0
  151.2497  138.8792  156.2009 H   0  0  0  0  0  0  0  0  0  0  0  0
  150.4792  142.7404  155.8428 H   0  0  0  0  0  0  0  0  0  0  0  0
  151.4884  141.7486  154.8178 H   0  0  0  0  0  0  0  0  0  0  0  0
  149.4055  139.9857  155.2034 H   0  0  0  0  0  0  0  0  0  0  0  0
  149.2915  140.2640  153.1811 H   0  0  0  0  0  0  0  0  0  0  0  0
  148.0094  141.5778  156.4536 H   0  0  0  0  0  0  0  0  0  0  0  0
  148.2303  142.8093  155.2510 H   0  0  0  0  0  0  0  0  0  0  0  0
  145.0255  140.4561  155.1103 H   0  0  0  0  0  0  0  0  0  0  0  0
  146.1379  140.3788  156.4442 H   0  0  0  0  0  0  0  0  0  0  0  0
  144.3429  142.0573  156.8344 H   0  0  0  0  0  0  0  0  0  0  0  0
  145.9055  142.8457  156.8226 H   0  0  0  0  0  0  0  0  0  0  0  0
  143.2023  144.1523  156.2116 H   0  0  0  0  0  0  0  0  0  0  0  0
  144.7458  144.9642  156.2485 H   0  0  0  0  0  0  0  0  0  0  0  0
  144.3734  145.5495  153.7517 H   0  0  0  0  0  0  0  0  0  0  0  0
  143.8120  147.2291  155.5142 H   0  0  0  0  0  0  0  0  0  0  0  0
  142.2007  146.5357  155.6706 H   0  0  0  0  0  0  0  0  0  0  0  0
  142.6854  147.3147  154.1661 H   0  0  0  0  0  0  0  0  0  0  0  0
  142.8776  143.9473  153.3014 H   0  0  0  0  0  0  0  0  0  0  0  0
  145.4655  144.0299  153.2817 H   0  0  0  0  0  0  0  0  0  0  0  0
  146.5997  144.0782  154.6097 H   0  0  0  0  0  0  0  0  0  0  0  0
  147.2254  142.3355  152.9096 H   0  0  0  0  0  0  0  0  0  0  0  0
  145.6632  141.6053  153.0609 H   0  0  0  0  0  0  0  0  0  0  0  0
  151.1472  143.8058  157.4731 H   0  0  0  0  0  0  0  0  0  0  0  0
  151.4972  145.5355  159.0247 H   0  0  0  0  0  0  0  0  0  0  0  0
  152.8789  145.2853  160.0895 H   0  0  0  0  0  0  0  0  0  0  0  0
  151.2315  145.0948  160.7093 H   0  0  0  0  0  0  0  0  0  0  0  0
  144.0222  142.6735  154.5914 H   0  0  0  0  0  0  0  0  0  0  0  0
  152.1448  138.6188  158.5947 H   0  0  0  0  0  0  0  0  0  0  0  0
  1  2  1  0  0  0  0
  1 26  1  0  0  0  0
  1 27  1  0  0  0  0
  1 28  1  0  0  0  0
  2 24  1  0  0  0  0
  2  3  2  0  0  0  0
  3  4  1  0  0  0  0
  3 29  1  0  0  0  0
  4 22  2  0  0  0  0
  4  5  1  0  0  0  0
  5  6  2  0  0  0  0
  5 57  1  0  0  0  0
  6  7  1  0  0  0  0
  6 30  1  0  0  0  0
  7  8  1  0  0  0  0
  7 22  1  0  0  0  0
  8  9  1  0  0  0  0
  8 31  1  0  0  0  0
  8 32  1  0  0  0  0
  9 10  1  0  0  0  0
  9 11  1  0  0  0  0
  9 33  1  0  0  0  0
 10 34  1  0  0  0  0
 11 12  1  0  0  0  0
 11 35  1  0  0  0  0
 11 36  1  0  0  0  0
 12 21  1  0  0  0  0
 12 13  1  0  0  0  0
 13 14  1  0  0  0  0
 13 37  1  0  0  0  0
 13 38  1  0  0  0  0
 14 15  1  0  0  0  0
 14 39  1  0  0  0  0
 14 40  1  0  0  0  0
 15 16  1  0  0  0  0
 15 20  1  0  0  0  0
 15 56  1  0  0  0  0
 16 17  1  0  0  0  0
 16 41  1  0  0  0  0
 16 42  1  0  0  0  0
 17 18  1  0  0  0  0
 17 19  1  0  0  0  0
 17 43  1  0  0  0  0
 18 44  1  0  0  0  0
 18 45  1  0  0  0  0
 18 46  1  0  0  0  0
 19 47  1  0  0  0  0
 20 21  1  0  0  0  0
 20 48  1  0  0  0  0
 20 49  1  0  0  0  0
 21 50  1  0  0  0  0
 21 51  1  0  0  0  0
 22 23  1  0  0  0  0
 23 24  2  0  0  0  0
 23 52  1  0  0  0  0
 24 25  1  0  0  0  0
 25 53  1  0  0  0  0
 25 54  1  0  0  0  0
 25 55  1  0  0  0  0
M  CHG  1   5   1
M  CHG  1  15   1
M  END
> <s_m_source_file>
AV-unprocessed.smi

> <i_m_source_file_index>
1033

> <i_lp_mmshare_version>
43012

> <i_f3d_flags>
0

> <s_epik_input>
W0NIM11jKFtjSF0xKWMoW0NIM10pW2NIXWMoYzEyKW4oW2NIXW4yKVtDSDJdW0NASF0oW09IXSlbQ0gyXU4zW0NIMl1bQ0gyXU4oW0NIMl1bQ0gyXTMpW0NIMl1bQ0BIXShbQ0gzXSlbT0hd

> <s_epik_cmdline>
J2VwaWtfcHl0aG9uJywgJy1waCcsICc3LjAnLCAnLXRuJywgJzgnLCAnLW1hJywgJzIwMCcsICctbWV0YWxfYmluZGluZycsICctaW1hZScsICc8aW5maWxlLm1hZT4nLCAnLW9tYWUnLCAnPG91dGZpbGUubWFlPic=

> <r_epik_Ionization_Penalty>
1.28617

> <r_epik_Ionization_Penalty_Charging>
1.23646

> <r_epik_Ionization_Penalty_Neutral>
0.0497112

> <r_epik_State_Penalty>
1.79157

> <r_epik_Charging_Adjusted_Penalty>
3.02803

> <i_epik_Tot_Q>
2

> <i_epik_Tot_abs_Q>
2

> <r_epik_Metal_State_Penalty>
5.81739

> <b_epik_Metal_Only>
0

> <s_lp_Force_Field>
OPLS_2005

> <r_lp_Energy>
39.1755

> <b_lp_Chiralities_Consistent>
1

> <s_lp_Variant>
AV-unprocessed.smi:1033-13

> <Gold.Version>
5.8.1

> <Gold.Id.Protein>
6NUR|6NUR_protein|mol2

> <Gold.PLP.Fitness>
58.6536

> <Gold.PLP.PLP>
-54.2988

> <Gold.PLP.part.hbond>
-5.0000

> <Gold.PLP.part.metal>
0.0000

> <Gold.PLP.part.buried>
-4.6309

> <Gold.PLP.part.nonpolar>
-43.5566

> <Gold.PLP.part.repulsive>
0.2241

> <Gold.PLP.ligand.clash>
0.0000

> <Gold.PLP.ligand.torsion>
1.3818

> <Gold.PLP.Chemscore.Hbond>
2.3252

> <Gold.PLP.Chemscore.CHOScore>
0.0000

> <Gold.PLP.Chemscore.Metal>
0.0000

> <Gold.Chemscore.Hbonds>
donor molecule, donor type, donor heavy atom, donor atom, acceptor molecule, acceptor atom, score
      L1  H    10    34       P1  7957  0.28
      L1  H    19    47       P1 10174  0.99
      P1  H  7989  7998       L1    10  0.13
      P1  H  8011  8017       L1    10  1.00

> <Gold.PLP.Chemscore.Internal.Correction>
0.1427

> <Gold.Rescore>
     Score         DG    S(hbond)    S(metal)    S(lipo)     H(rot)  DE(clash)    DE(int)     intcor
     18.50     -20.54       2.02        0.00     139.85       3.15       0.67       1.37       ----

> <Gold.Chemscore.Fitness>
18.4955

> <Gold.Chemscore.DG>
-20.5371

> <Gold.Chemscore.ZeroCoef>
-5.4800

> <Gold.Chemscore.Hbond>
2.0223

> <Gold.Chemscore.Metal>
0.0000

> <Gold.Chemscore.Lipo>
139.8480

> <Gold.Chemscore.Internal_Hbond>
0.0000

> <Gold.Chemscore.DEClash>
0.6746

> <Gold.Chemscore.DEInternal>
1.3670

> <Gold.Chemscore.Rot>
3.1483

> <Gold.Chemscore.Internal.Correction>
   9.000000E+99

> <Gold.Chemscore.Hbonds>
donor molecule, donor type, donor heavy atom, donor atom, acceptor molecule, acceptor atom, score
      L1  H    10    34       P1  7957  0.27
      L1  H    19    47       P1 10174  0.94
      P1  H  8011  8017       L1    10  0.88

> <Gold.Chemscore.Hbond.Weighted>
-6.7546

> <Gold.Chemscore.Metal.Weighted>
-0.0000

> <Gold.Chemscore.Lipo.Weighted>
-16.3622

> <Gold.Chemscore.Internal_Hbond.Weighted>
0.0000

> <Gold.Chemscore.DEClash.Weighted>
0.6746

> <Gold.Chemscore.DEInternal.Weighted>
1.3670

> <Gold.Chemscore.Rot.Weighted>
8.0597

> <Gold.Chemscore.Internal.Correction.Weighted>
   9.000000E+99

> <Gold.Protein.RotatedTorsions>
[ 6907 6896 6895 6894 ] final   90.70 input  -60.11 | X-H torsion
[ 7974 7965 7964 7962 ] final  -79.70 input  175.53 | X-H torsion
[ 8008 7997 7996 7995 ] final  -92.87 input   59.86 | X-H torsion
[ 10167 10162 10161 10158 ] final -158.77 input  -65.29 | X-H torsion
[ 10718 10713 10712 10709 ] final   65.27 input   66.30 | X-H torsion
[ 10763 10752 10751 10750 ] final  -31.89 input  -60.55 | X-H torsion
[ 11005 11000 10999 10996 ] final -127.15 input  -57.11 | X-H torsion

> <Gold.Protein.ActiveResidues>
 VAL166  LYS551  ARG553  GLY616  TRP617  ASP618  TYR619  PRO620  LYS621  CYS622 
 ASP623  PHE694  ASN695  SER759  ASP760  ASP761  ALA762  ILE779  LEU786  VAL792 
 PHE793  MET794  SER795  GLU796  ALA797  LYS798  CYS799  TRP800  GLU811  SER814 

> <Gold.Protein.RotatedAtoms>
  152.5446  134.1771  159.8620 H   0  0  0  0  0  0  0  0  0  0  0  0  # atno 6907 bound_to 6896
  151.1776  133.4738  159.2601 H   0  0  0  0  0  0  0  0  0  0  0  0  # atno 6908 bound_to 6896
  151.1211  135.0091  159.8594 H   0  0  0  0  0  0  0  0  0  0  0  0  # atno 6909 bound_to 6896
  145.5697  140.9468  143.1402 H   0  0  0  0  0  0  0  0  0  0  0  0  # atno 7974 bound_to 7965
  154.7286  140.0504  157.0705 H   0  0  0  0  0  0  0  0  0  0  0  0  # atno 8008 bound_to 7997
  155.0332  140.3160  155.4732 H   0  0  0  0  0  0  0  0  0  0  0  0  # atno 8009 bound_to 7997
  156.2835  140.2146  156.5454 H   0  0  0  0  0  0  0  0  0  0  0  0  # atno 8010 bound_to 7997
  139.6666  143.9818  152.2258 H   0  0  0  0  0  0  0  0  0  0  0  0  # atno 10167 bound_to 10162
  157.6095  130.9205  149.9955 H   0  0  0  0  0  0  0  0  0  0  0  0  # atno 10718 bound_to 10713
  153.8047  135.6887  153.4850 H   0  0  0  0  0  0  0  0  0  0  0  0  # atno 10763 bound_to 10752
  153.1666  135.4559  154.9844 H   0  0  0  0  0  0  0  0  0  0  0  0  # atno 10764 bound_to 10752
  154.7992  135.3331  154.7533 H   0  0  0  0  0  0  0  0  0  0  0  0  # atno 10765 bound_to 10752
  140.9623  134.0919  157.3955 H   0  0  0  0  0  0  0  0  0  0  0  0  # atno 11005 bound_to 11000
  144.7444  139.7361  143.7298 LP  0  0  0  0  0  0  0  0  0  0  0  0  # atno 17320 bound_to 7965
  146.1793  139.4978  142.9877 LP  0  0  0  0  0  0  0  0  0  0  0  0  # atno 17321 bound_to 7965
  139.9571  144.6582  150.8115 LP  0  0  0  0  0  0  0  0  0  0  0  0  # atno 17342 bound_to 10162
  140.7602  143.3145  151.2766 LP  0  0  0  0  0  0  0  0  0  0  0  0  # atno 17343 bound_to 10162
  156.1192  130.3646  149.9915 LP  0  0  0  0  0  0  0  0  0  0  0  0  # atno 17370 bound_to 10713
  156.7999  130.9287  151.3646 LP  0  0  0  0  0  0  0  0  0  0  0  0  # atno 17371 bound_to 10713
  139.8882  135.0096  156.6608 LP  0  0  0  0  0  0  0  0  0  0  0  0  # atno 17394 bound_to 11000
  140.7449  133.8946  155.8305 LP  0  0  0  0  0  0  0  0  0  0  0  0  # atno 17395 bound_to 11000

$$$$
