AV-unprocessed.smi:2988|AV-procd|sdf|11390|dock9
  -GOLD-   2272016313D 1   1.00000     0.00000
 Structure written by MMmdl.
 37 38  0  0  0  0  0  0  0  0  1 V2000
  150.5563  140.3899  158.2138 C   0  0  0  0  0  0  0  0  0  0  0  0
  150.9166  141.8722  158.4217 C   0  0  1  0  0  0  0  0  0  0  0  0
  152.0625  142.0129  159.4446 C   0  0  0  0  0  0  0  0  0  0  0  0
  152.4408  143.4824  159.6820 C   0  0  0  0  0  0  0  0  0  0  0  0
  152.8143  144.1747  158.3644 C   0  0  0  0  0  0  0  0  0  0  0  0
  151.6783  144.0563  157.3380 C   0  0  0  0  0  0  0  0  0  0  0  0
  151.2789  142.5862  157.0955 C   0  0  2  0  0  0  0  0  0  0  0  0
  150.1524  142.5335  156.1663 N   0  0  0  0  0  0  0  0  0  0  0  0
  149.8367  141.4923  155.3815 C   0  0  0  0  0  0  0  0  0  0  0  0
  150.4978  140.4543  155.3339 O   0  0  0  0  0  0  0  0  0  0  0  0
  148.5913  141.6643  154.5007 C   0  0  0  0  0  0  0  0  0  0  0  0
  147.6318  140.5604  154.6473 N   0  0  0  0  0  0  0  0  0  0  0  0
  148.1365  139.3209  154.2947 N   0  0  0  0  0  0  0  0  0  0  0  0
  147.3874  138.2779  154.4010 C   0  0  0  0  0  0  0  0  0  0  0  0
  146.0229  138.3540  154.8741 C   0  0  0  0  0  0  0  0  0  0  0  0
  145.0659  136.9198  154.9957 Cl  0  0  0  0  0  0  0  0  0  0  0  0
  145.5358  139.5748  155.2106 C   0  0  0  0  0  0  0  0  0  0  0  0
  143.9125  139.7461  155.7849 Cl  0  0  0  0  0  0  0  0  0  0  0  0
  146.3606  140.7862  155.1019 C   0  0  0  0  0  0  0  0  0  0  0  0
  145.9546  141.9125  155.3927 O   0  0  0  0  0  0  0  0  0  0  0  0
  151.3873  139.8394  157.7719 H   0  0  0  0  0  0  0  0  0  0  0  0
  149.6935  140.2710  157.5579 H   0  0  0  0  0  0  0  0  0  0  0  0
  150.3085  139.9111  159.1615 H   0  0  0  0  0  0  0  0  0  0  0  0
  150.0389  142.3654  158.8425 H   0  0  0  0  0  0  0  0  0  0  0  0
  151.7749  141.5553  160.3917 H   0  0  0  0  0  0  0  0  0  0  0  0
  152.9388  141.4665  159.0931 H   0  0  0  0  0  0  0  0  0  0  0  0
  151.6050  144.0055  160.1482 H   0  0  0  0  0  0  0  0  0  0  0  0
  153.2740  143.5433  160.3827 H   0  0  0  0  0  0  0  0  0  0  0  0
  153.0415  145.2252  158.5474 H   0  0  0  0  0  0  0  0  0  0  0  0
  153.7222  143.7267  157.9591 H   0  0  0  0  0  0  0  0  0  0  0  0
  150.8140  144.6207  157.6913 H   0  0  0  0  0  0  0  0  0  0  0  0
  151.9863  144.5205  156.4003 H   0  0  0  0  0  0  0  0  0  0  0  0
  152.1330  142.0644  156.6590 H   0  0  0  0  0  0  0  0  0  0  0  0
  149.5556  143.3473  156.1329 H   0  0  0  0  0  0  0  0  0  0  0  0
  148.1021  142.6143  154.7259 H   0  0  0  0  0  0  0  0  0  0  0  0
  148.9217  141.7453  153.4636 H   0  0  0  0  0  0  0  0  0  0  0  0
  147.7429  137.2810  154.1397 H   0  0  0  0  0  0  0  0  0  0  0  0
  1  2  1  0  0  0  0
  1 21  1  0  0  0  0
  1 22  1  0  0  0  0
  1 23  1  0  0  0  0
  2  7  1  0  0  0  0
  2  3  1  0  0  0  0
  2 24  1  0  0  0  0
  3  4  1  0  0  0  0
  3 25  1  0  0  0  0
  3 26  1  0  0  0  0
  4  5  1  0  0  0  0
  4 27  1  0  0  0  0
  4 28  1  0  0  0  0
  5  6  1  0  0  0  0
  5 29  1  0  0  0  0
  5 30  1  0  0  0  0
  6  7  1  0  0  0  0
  6 31  1  0  0  0  0
  6 32  1  0  0  0  0
  7  8  1  0  0  0  0
  7 33  1  0  0  0  0
  8  9  1  0  0  0  0
  8 34  1  0  0  0  0
  9 10  2  0  0  0  0
  9 11  1  0  0  0  0
 11 12  1  0  0  0  0
 11 35  1  0  0  0  0
 11 36  1  0  0  0  0
 12 19  1  0  0  0  0
 12 13  1  0  0  0  0
 13 14  2  0  0  0  0
 14 15  1  0  0  0  0
 14 37  1  0  0  0  0
 15 16  1  0  0  0  0
 15 17  2  0  0  0  0
 17 18  1  0  0  0  0
 17 19  1  0  0  0  0
 19 20  2  0  0  0  0
M  END
> <s_m_source_file>
AV-unprocessed.smi

> <i_m_source_file_index>
2988

> <i_lp_mmshare_version>
43012

> <i_f3d_flags>
0

> <s_epik_input>
W0NIM11bQ0BASF0xW0NIMl1bQ0gyXVtDSDJdW0NIMl1bQ0BIXTFbTkhdQyg9TylbQ0gyXW4ybltjSF1jKENsKWMoQ2wpYzI9Tw==

> <s_epik_cmdline>
J2VwaWtfcHl0aG9uJywgJy1waCcsICc3LjAnLCAnLXRuJywgJzgnLCAnLW1hJywgJzIwMCcsICctbWV0YWxfYmluZGluZycsICctaW1hZScsICc8aW5maWxlLm1hZT4nLCAnLW9tYWUnLCAnPG91dGZpbGUubWFlPic=

> <r_lp_tautomer_probability>
1

> <r_epik_Ionization_Penalty>
1.90782e-08

> <r_epik_Ionization_Penalty_Charging>
3.13143e-11

> <r_epik_Ionization_Penalty_Neutral>
1.90469e-08

> <r_epik_State_Penalty>
-0

> <r_epik_Charging_Adjusted_Penalty>
3.13143e-11

> <i_epik_Tot_Q>
0

> <i_epik_Tot_abs_Q>
0

> <r_epik_Metal_State_Penalty>
-0

> <b_epik_Metal_Only>
0

> <s_lp_Force_Field>
OPLS_2005

> <r_lp_Energy>
24.109

> <b_lp_Chiralities_Consistent>
1

> <s_lp_Variant>
AV-unprocessed.smi:2988-4

> <Gold.Version>
5.8.1

> <Gold.Id.Protein>
6NUR|6NUR_protein|mol2

> <Gold.PLP.Fitness>
41.1087

> <Gold.PLP.PLP>
-32.9296

> <Gold.PLP.part.hbond>
-2.0000

> <Gold.PLP.part.metal>
0.0000

> <Gold.PLP.part.buried>
-4.0992

> <Gold.PLP.part.nonpolar>
-27.5772

> <Gold.PLP.part.repulsive>
0.4502

> <Gold.PLP.ligand.clash>
0.0000

> <Gold.PLP.ligand.torsion>
0.3773

> <Gold.PLP.Chemscore.Hbond>
1.9760

> <Gold.PLP.Chemscore.CHOScore>
1.0000

> <Gold.PLP.Chemscore.Metal>
0.0000

> <Gold.Chemscore.Hbonds>
donor molecule, donor type, donor heavy atom, donor atom, acceptor molecule, acceptor atom, score
      L1  H     8    34       P1  8028  1.00
      P1  H  7989  7998       L1    10  0.53
      L1  C    14    37       P1  7948  0.37

> <Gold.PLP.Chemscore.Internal.Correction>
0.0057

> <Gold.Rescore>
     Score         DG    S(hbond)    S(metal)    S(lipo)     H(rot)  DE(clash)    DE(int)     intcor
     15.40     -17.26       1.68        0.00      85.52       1.50       0.13       1.73       ----

> <Gold.Chemscore.Fitness>
15.3991

> <Gold.Chemscore.DG>
-17.2574

> <Gold.Chemscore.ZeroCoef>
-5.4800

> <Gold.Chemscore.Hbond>
1.6783

> <Gold.Chemscore.Metal>
0.0000

> <Gold.Chemscore.Lipo>
85.5225

> <Gold.Chemscore.Internal_Hbond>
0.0000

> <Gold.Chemscore.DEClash>
0.1275

> <Gold.Chemscore.DEInternal>
1.7308

> <Gold.Chemscore.Rot>
1.4977

> <Gold.Chemscore.Internal.Correction>
   9.000000E+99

> <Gold.Chemscore.Hbonds>
donor molecule, donor type, donor heavy atom, donor atom, acceptor molecule, acceptor atom, score
      L1  H     8    34       P1  8028  0.98
      P1  H  7989  7998       L1    10  0.10

> <Gold.Chemscore.Hbond.Weighted>
-5.6054

> <Gold.Chemscore.Metal.Weighted>
-0.0000

> <Gold.Chemscore.Lipo.Weighted>
-10.0061

> <Gold.Chemscore.Internal_Hbond.Weighted>
0.0000

> <Gold.Chemscore.DEClash.Weighted>
0.1275

> <Gold.Chemscore.DEInternal.Weighted>
1.7308

> <Gold.Chemscore.Rot.Weighted>
3.8341

> <Gold.Chemscore.Internal.Correction.Weighted>
   9.000000E+99

> <Gold.Protein.RotatedTorsions>
[ 6907 6896 6895 6894 ] final  108.79 input  -60.11 | X-H torsion
[ 7974 7965 7964 7962 ] final  -60.60 input  175.53 | X-H torsion
[ 8008 7997 7996 7995 ] final -146.92 input   59.86 | X-H torsion
[ 10167 10162 10161 10158 ] final -133.73 input  -65.29 | X-H torsion
[ 10718 10713 10712 10709 ] final -101.39 input   66.30 | X-H torsion
[ 10763 10752 10751 10750 ] final   51.12 input  -60.55 | X-H torsion
[ 11005 11000 10999 10996 ] final   10.47 input  -57.11 | X-H torsion

> <Gold.Protein.ActiveResidues>
 VAL166  LYS551  ARG553  GLY616  TRP617  ASP618  TYR619  PRO620  LYS621  CYS622 
 ASP623  PHE694  ASN695  SER759  ASP760  ASP761  ALA762  ILE779  LEU786  VAL792 
 PHE793  MET794  SER795  GLU796  ALA797  LYS798  CYS799  TRP800  GLU811  SER814 

> <Gold.Protein.RotatedAtoms>
  152.5097  133.9038  159.7454 H   0  0  0  0  0  0  0  0  0  0  0  0  # atno 6907 bound_to 6896
  150.9448  133.6607  159.2790 H   0  0  0  0  0  0  0  0  0  0  0  0  # atno 6908 bound_to 6896
  151.3906  135.0960  159.9577 H   0  0  0  0  0  0  0  0  0  0  0  0  # atno 6909 bound_to 6896
  145.8136  140.8583  143.0169 H   0  0  0  0  0  0  0  0  0  0  0  0  # atno 7974 bound_to 7965
  155.5672  140.0631  157.2815 H   0  0  0  0  0  0  0  0  0  0  0  0  # atno 8008 bound_to 7997
  154.4372  140.1875  156.0888 H   0  0  0  0  0  0  0  0  0  0  0  0  # atno 8009 bound_to 7997
  156.0403  140.3296  155.7240 H   0  0  0  0  0  0  0  0  0  0  0  0  # atno 8010 bound_to 7997
  139.8952  143.6674  152.2605 H   0  0  0  0  0  0  0  0  0  0  0  0  # atno 10167 bound_to 10162
  156.0193  130.5371  150.6956 H   0  0  0  0  0  0  0  0  0  0  0  0  # atno 10718 bound_to 10713
  152.9785  135.5856  154.4364 H   0  0  0  0  0  0  0  0  0  0  0  0  # atno 10763 bound_to 10752
  154.3971  135.2768  155.2121 H   0  0  0  0  0  0  0  0  0  0  0  0  # atno 10764 bound_to 10752
  154.3968  135.6112  153.5929 H   0  0  0  0  0  0  0  0  0  0  0  0  # atno 10765 bound_to 10752
  140.5141  134.0623  155.7826 H   0  0  0  0  0  0  0  0  0  0  0  0  # atno 11005 bound_to 11000
  144.6755  140.0431  143.7480 LP  0  0  0  0  0  0  0  0  0  0  0  0  # atno 17320 bound_to 7965
  145.9751  139.2898  143.1076 LP  0  0  0  0  0  0  0  0  0  0  0  0  # atno 17321 bound_to 7965
  139.7074  144.7626  151.1170 LP  0  0  0  0  0  0  0  0  0  0  0  0  # atno 17342 bound_to 10162
  140.7718  143.5376  150.9350 LP  0  0  0  0  0  0  0  0  0  0  0  0  # atno 17343 bound_to 10162
  157.4628  131.0885  151.0727 LP  0  0  0  0  0  0  0  0  0  0  0  0  # atno 17370 bound_to 10713
  157.1210  130.6062  149.5505 LP  0  0  0  0  0  0  0  0  0  0  0  0  # atno 17371 bound_to 10713
  141.1370  133.9205  157.2412 LP  0  0  0  0  0  0  0  0  0  0  0  0  # atno 17394 bound_to 11000
  139.9642  135.0146  156.9343 LP  0  0  0  0  0  0  0  0  0  0  0  0  # atno 17395 bound_to 11000

$$$$
