AV-unprocessed.smi:111|AV-procd|sdf|1080|dock7
  -GOLD-   2262018173D 1   1.00000     0.00000
 Structure written by MMmdl.
 46 48  0  0  0  0  0  0  0  0  1 V2000
  153.3549  139.5414  155.3906 O   0  0  0  0  0  0  0  0  0  0  0  0
  152.8324  138.4386  155.5620 C   0  0  0  0  0  0  0  0  0  0  0  0
  153.4309  137.3886  156.3782 C   0  0  0  0  0  0  0  0  0  0  0  0
  154.6177  137.6024  156.9710 F   0  0  0  0  0  0  0  0  0  0  0  0
  152.8147  136.1990  156.5442 C   0  0  0  0  0  0  0  0  0  0  0  0
  151.5938  135.8941  155.9678 N   0  0  0  0  0  0  0  0  0  0  0  0
  150.9423  134.5479  156.1899 C   0  0  1  0  0  0  0  0  0  0  0  0
  150.8192  133.7892  154.8636 C   0  0  0  0  0  0  0  0  0  0  0  0
  152.0286  132.8801  154.9062 C   0  0  0  0  0  0  0  0  0  0  0  0
  152.1328  132.5791  156.3961 C   0  0  0  0  0  0  0  0  0  0  0  0
  151.7501  133.7889  157.0430 O   0  0  0  0  0  0  0  0  0  0  0  0
  150.9529  136.8405  155.1384 C   0  0  0  0  0  0  0  0  0  0  0  0
  149.8850  136.5686  154.5852 O   0  0  0  0  0  0  0  0  0  0  0  0
  151.5936  138.0925  154.9663 N   0  0  0  0  0  0  0  0  0  0  0  0
  150.9616  139.0923  154.1142 C   0  0  0  0  0  0  0  0  0  0  0  0
  150.1885  140.1871  154.8864 C   0  0  2  0  0  0  0  0  0  0  0  0
  149.5360  141.0165  153.9470 O   0  0  0  0  0  0  0  0  0  0  0  0
  151.0615  141.0640  155.8157 C   0  0  0  0  0  0  0  0  0  0  0  0
  150.2466  141.9868  156.7382 C   0  0  0  0  0  0  0  0  0  0  0  0
  151.1174  142.7349  157.7342 C   0  0  0  0  0  0  0  0  0  0  0  0
  151.8600  142.0310  158.7061 C   0  0  0  0  0  0  0  0  0  0  0  0
  152.6826  142.7293  159.6114 C   0  0  0  0  0  0  0  0  0  0  0  0
  152.7609  144.1340  159.5535 C   0  0  0  0  0  0  0  0  0  0  0  0
  152.0152  144.8403  158.5906 C   0  0  0  0  0  0  0  0  0  0  0  0
  151.1964  144.1424  157.6823 C   0  0  0  0  0  0  0  0  0  0  0  0
  153.3100  135.4581  157.1538 H   0  0  0  0  0  0  0  0  0  0  0  0
  149.9853  134.7403  156.6771 H   0  0  0  0  0  0  0  0  0  0  0  0
  149.9003  133.2020  154.8835 H   0  0  0  0  0  0  0  0  0  0  0  0
  150.7913  134.4574  154.0027 H   0  0  0  0  0  0  0  0  0  0  0  0
  151.9127  131.9842  154.2958 H   0  0  0  0  0  0  0  0  0  0  0  0
  152.9171  133.4130  154.5675 H   0  0  0  0  0  0  0  0  0  0  0  0
  151.4306  131.7927  156.6759 H   0  0  0  0  0  0  0  0  0  0  0  0
  153.1335  132.2656  156.6938 H   0  0  0  0  0  0  0  0  0  0  0  0
  151.7100  139.5259  153.4504 H   0  0  0  0  0  0  0  0  0  0  0  0
  150.2944  138.5358  153.4526 H   0  0  0  0  0  0  0  0  0  0  0  0
  149.3917  139.7168  155.4600 H   0  0  0  0  0  0  0  0  0  0  0  0
  149.7461  140.7095  153.0783 H   0  0  0  0  0  0  0  0  0  0  0  0
  151.7073  140.4477  156.4376 H   0  0  0  0  0  0  0  0  0  0  0  0
  151.7479  141.6674  155.2195 H   0  0  0  0  0  0  0  0  0  0  0  0
  149.7104  142.7210  156.1360 H   0  0  0  0  0  0  0  0  0  0  0  0
  149.4846  141.4121  157.2662 H   0  0  0  0  0  0  0  0  0  0  0  0
  151.8102  140.9530  158.7535 H   0  0  0  0  0  0  0  0  0  0  0  0
  153.2551  142.1865  160.3491 H   0  0  0  0  0  0  0  0  0  0  0  0
  153.3928  144.6689  160.2470 H   0  0  0  0  0  0  0  0  0  0  0  0
  152.0726  145.9172  158.5471 H   0  0  0  0  0  0  0  0  0  0  0  0
  150.6320  144.6892  156.9413 H   0  0  0  0  0  0  0  0  0  0  0  0
  1  2  2  0  0  0  0
  2 14  1  0  0  0  0
  2  3  1  0  0  0  0
  3  4  1  0  0  0  0
  3  5  2  0  0  0  0
  5  6  1  0  0  0  0
  5 26  1  0  0  0  0
  6  7  1  0  0  0  0
  6 12  1  0  0  0  0
  7 11  1  0  0  0  0
  7  8  1  0  0  0  0
  7 27  1  0  0  0  0
  8  9  1  0  0  0  0
  8 28  1  0  0  0  0
  8 29  1  0  0  0  0
  9 10  1  0  0  0  0
  9 30  1  0  0  0  0
  9 31  1  0  0  0  0
 10 11  1  0  0  0  0
 10 32  1  0  0  0  0
 10 33  1  0  0  0  0
 12 13  2  0  0  0  0
 12 14  1  0  0  0  0
 14 15  1  0  0  0  0
 15 16  1  0  0  0  0
 15 34  1  0  0  0  0
 15 35  1  0  0  0  0
 16 17  1  0  0  0  0
 16 18  1  0  0  0  0
 16 36  1  0  0  0  0
 17 37  1  0  0  0  0
 18 19  1  0  0  0  0
 18 38  1  0  0  0  0
 18 39  1  0  0  0  0
 19 20  1  0  0  0  0
 19 40  1  0  0  0  0
 19 41  1  0  0  0  0
 20 25  1  0  0  0  0
 20 21  2  0  0  0  0
 21 22  1  0  0  0  0
 21 42  1  0  0  0  0
 22 23  2  0  0  0  0
 22 43  1  0  0  0  0
 23 24  1  0  0  0  0
 23 44  1  0  0  0  0
 24 25  2  0  0  0  0
 24 45  1  0  0  0  0
 25 46  1  0  0  0  0
M  END
> <s_m_source_file>
AV-unprocessed.smi

> <i_m_source_file_index>
111

> <i_lp_mmshare_version>
43012

> <i_f3d_flags>
0

> <s_epik_input>
TzFbQ0gyXVtDSDJdW0NIMl1bQ0BIXTFuKFtjSF1jKEYpYzI9TyljKD1PKW4yW0NIMl1bQ0BIXShbT0hdKVtDSDJdW0NIMl1jM1tjSF1bY0hdW2NIXVtjSF1bY0hdMw==

> <s_epik_cmdline>
J2VwaWtfcHl0aG9uJywgJy1waCcsICc3LjAnLCAnLXRuJywgJzgnLCAnLW1hJywgJzIwMCcsICctbWV0YWxfYmluZGluZycsICctaW1hZScsICc8aW5maWxlLm1hZT4nLCAnLW9tYWUnLCAnPG91dGZpbGUubWFlPic=

> <r_lp_tautomer_probability>
1

> <r_epik_Ionization_Penalty>
1.88248e-07

> <r_epik_Ionization_Penalty_Charging>
4.03974e-08

> <r_epik_Ionization_Penalty_Neutral>
1.47851e-07

> <r_epik_State_Penalty>
-0

> <r_epik_Charging_Adjusted_Penalty>
4.03974e-08

> <i_epik_Tot_Q>
0

> <i_epik_Tot_abs_Q>
0

> <r_epik_Metal_State_Penalty>
-0

> <b_epik_Metal_Only>
0

> <s_epik_Chemistry_Notes>
This compound contains an acetal/aminal-like group ( X-CH(R)-Y where X, Y are N, S, or O) that may be acid/base labile, releasing an aldehyde.

> <s_lp_Force_Field>
OPLS_2005

> <r_lp_Energy>
34.7798

> <b_lp_Chiralities_Consistent>
1

> <s_lp_Variant>
AV-unprocessed.smi:111-2

> <Gold.Version>
5.8.1

> <Gold.Id.Protein>
6NUR|6NUR_protein|mol2

> <Gold.PLP.Fitness>
57.1226

> <Gold.PLP.PLP>
-48.9562

> <Gold.PLP.part.hbond>
-5.0000

> <Gold.PLP.part.metal>
0.0000

> <Gold.PLP.part.buried>
-3.5444

> <Gold.PLP.part.nonpolar>
-41.5768

> <Gold.PLP.part.repulsive>
1.6945

> <Gold.PLP.ligand.clash>
0.0000

> <Gold.PLP.ligand.torsion>
0.3594

> <Gold.PLP.Chemscore.Hbond>
2.9440

> <Gold.PLP.Chemscore.CHOScore>
0.0000

> <Gold.PLP.Chemscore.Metal>
0.0000

> <Gold.Chemscore.Hbonds>
donor molecule, donor type, donor heavy atom, donor atom, acceptor molecule, acceptor atom, score
      L1  H    17    37       P1  7957  1.00
      P1  H  6896  6908       L1    11  0.07
      P1  H  7997  8008       L1     1  0.68

> <Gold.PLP.Chemscore.Internal.Correction>
0.0531

> <Gold.Rescore>
     Score         DG    S(hbond)    S(metal)    S(lipo)     H(rot)  DE(clash)    DE(int)     intcor
     17.95     -21.72       2.65        0.00     121.67       2.67       0.83       2.94       ----

> <Gold.Chemscore.Fitness>
17.9508

> <Gold.Chemscore.DG>
-21.7211

> <Gold.Chemscore.ZeroCoef>
-5.4800

> <Gold.Chemscore.Hbond>
2.6502

> <Gold.Chemscore.Metal>
0.0000

> <Gold.Chemscore.Lipo>
121.6712

> <Gold.Chemscore.Internal_Hbond>
0.0000

> <Gold.Chemscore.DEClash>
0.8329

> <Gold.Chemscore.DEInternal>
2.9374

> <Gold.Chemscore.Rot>
2.6743

> <Gold.Chemscore.Internal.Correction>
   9.000000E+99

> <Gold.Chemscore.Hbonds>
donor molecule, donor type, donor heavy atom, donor atom, acceptor molecule, acceptor atom, score
      L1  H    17    37       P1  7957  0.93
      P1  H  6896  6908       L1    11  0.06
      P1  H  7997  8008       L1     1  0.68

> <Gold.Chemscore.Hbond.Weighted>
-8.8518

> <Gold.Chemscore.Metal.Weighted>
-0.0000

> <Gold.Chemscore.Lipo.Weighted>
-14.2355

> <Gold.Chemscore.Internal_Hbond.Weighted>
0.0000

> <Gold.Chemscore.DEClash.Weighted>
0.8329

> <Gold.Chemscore.DEInternal.Weighted>
2.9374

> <Gold.Chemscore.Rot.Weighted>
6.8463

> <Gold.Chemscore.Internal.Correction.Weighted>
   9.000000E+99

> <Gold.Protein.RotatedTorsions>
[ 6907 6896 6895 6894 ] final  111.52 input  -60.11 | X-H torsion
[ 7974 7965 7964 7962 ] final   53.56 input  175.53 | X-H torsion
[ 8008 7997 7996 7995 ] final  -34.42 input   59.86 | X-H torsion
[ 10167 10162 10161 10158 ] final  -94.57 input  -65.29 | X-H torsion
[ 10718 10713 10712 10709 ] final  117.75 input   66.30 | X-H torsion
[ 10763 10752 10751 10750 ] final  134.45 input  -60.55 | X-H torsion
[ 11005 11000 10999 10996 ] final -144.17 input  -57.11 | X-H torsion

> <Gold.Protein.ActiveResidues>
 VAL166  LYS551  ARG553  GLY616  TRP617  ASP618  TYR619  PRO620  LYS621  CYS622 
 ASP623  PHE694  ASN695  SER759  ASP760  ASP761  ALA762  ILE779  LEU786  VAL792 
 PHE793  MET794  SER795  GLU796  ALA797  LYS798  CYS799  TRP800  GLU811  SER814 

> <Gold.Protein.RotatedAtoms>
  152.4965  133.8645  159.7266 H   0  0  0  0  0  0  0  0  0  0  0  0  # atno 6907 bound_to 6896
  150.9148  133.6944  159.2853 H   0  0  0  0  0  0  0  0  0  0  0  0  # atno 6908 bound_to 6896
  151.4341  135.1017  159.9703 H   0  0  0  0  0  0  0  0  0  0  0  0  # atno 6909 bound_to 6896
  145.9699  139.4139  143.0196 H   0  0  0  0  0  0  0  0  0  0  0  0  # atno 7974 bound_to 7965
  154.4121  140.1684  156.2046 H   0  0  0  0  0  0  0  0  0  0  0  0  # atno 8008 bound_to 7997
  155.9495  140.3402  155.6372 H   0  0  0  0  0  0  0  0  0  0  0  0  # atno 8009 bound_to 7997
  155.6888  140.0731  157.2447 H   0  0  0  0  0  0  0  0  0  0  0  0  # atno 8010 bound_to 7997
  140.3131  143.3093  152.0127 H   0  0  0  0  0  0  0  0  0  0  0  0  # atno 10167 bound_to 10162
  157.6076  131.1040  150.7659 H   0  0  0  0  0  0  0  0  0  0  0  0  # atno 10718 bound_to 10713
  153.8237  135.3113  155.3412 H   0  0  0  0  0  0  0  0  0  0  0  0  # atno 10763 bound_to 10752
  154.8002  135.4731  154.0260 H   0  0  0  0  0  0  0  0  0  0  0  0  # atno 10764 bound_to 10752
  153.1677  135.6872  153.8742 H   0  0  0  0  0  0  0  0  0  0  0  0  # atno 10765 bound_to 10752
  140.8052  134.2810  157.4963 H   0  0  0  0  0  0  0  0  0  0  0  0  # atno 11005 bound_to 11000
  145.7920  140.9810  143.1044 LP  0  0  0  0  0  0  0  0  0  0  0  0  # atno 17320 bound_to 7965
  144.6834  139.9695  143.7482 LP  0  0  0  0  0  0  0  0  0  0  0  0  # atno 17321 bound_to 7965
  139.4889  144.6369  151.6957 LP  0  0  0  0  0  0  0  0  0  0  0  0  # atno 17342 bound_to 10162
  140.5550  144.0362  150.6144 LP  0  0  0  0  0  0  0  0  0  0  0  0  # atno 17343 bound_to 10162
  156.8043  130.4931  149.5365 LP  0  0  0  0  0  0  0  0  0  0  0  0  # atno 17370 bound_to 10713
  156.1167  130.6080  151.0132 LP  0  0  0  0  0  0  0  0  0  0  0  0  # atno 17371 bound_to 10713
  139.8718  134.9452  156.3902 LP  0  0  0  0  0  0  0  0  0  0  0  0  # atno 17394 bound_to 11000
  140.9254  133.7616  155.9958 LP  0  0  0  0  0  0  0  0  0  0  0  0  # atno 17395 bound_to 11000

$$$$
