#       Name:                AV-unprocessed.smi:2572
#       Creating user name   scv26
#       Creation time:       Fri Mar 27 14:13:00 2020


#       File generated by GOLD software.
#

@<TRIPOS>MOLECULE
AV-unprocessed.smi:2572
    45    46     1
SMALL
NO_CHARGES


@<TRIPOS>ATOM
      1 ****        -1.2823   3.1956  -3.3519 C.3            1 S1                 0.0000
      2 ****        -1.9359   4.0725  -2.4365 O.3            1 S1                 0.0000
      3 ****        -2.2361   3.5604  -1.1863 C.2            1 S1                 0.0000
      4 ****        -2.8857   4.4261  -0.2252 C.2            1 S1                 0.0000
      5 ****        -3.1799   3.9403   1.0000 C.2            1 S1                 0.0000
      6 ****        -2.8608   2.5647   1.3813 C.2            1 S1                 0.0000
      7 ****        -3.1131   2.0994   2.4923 O.2            1 S1                 0.0000
      8 ****        -2.2554   1.8451   0.3902 N.am           1 S1                 0.0000
      9 ****        -1.8496   0.4504   0.5995 C.3            1 S1                 0.0000
     10 ****        -0.3643   0.3392   1.0090 C.3            1 S1                 0.0000
     11 ****        -0.2698   0.4951   2.4115 O.3            1 S1                 0.0000
     12 ****         0.2269  -1.0363   0.6467 C.3            1 S1                 0.0000
     13 ****         1.7442  -1.1324   0.8785 C.3            1 S1                 0.0000
     14 ****         2.3050  -2.4731   0.4439 C.ar           1 S1                 0.0000
     15 ****         2.4601  -3.5157   1.3816 C.ar           1 S1                 0.0000
     16 ****         2.9785  -4.7609   0.9752 C.ar           1 S1                 0.0000
     17 ****         3.3407  -4.9687  -0.3699 C.ar           1 S1                 0.0000
     18 ****         3.1845  -3.9308  -1.3090 C.ar           1 S1                 0.0000
     19 ****         2.6686  -2.6846  -0.9028 C.ar           1 S1                 0.0000
     20 ****        -1.9493   2.3375  -0.8677 N.2            1 S1                 0.0000
     21 ****        -1.1091   3.7244  -4.2890 H              1 S1                 0.0000
     22 ****        -1.8910   2.3188  -3.5803 H              1 S1                 0.0000
     23 ****        -0.3102   2.8693  -2.9775 H              1 S1                 0.0000
     24 ****        -3.1262   5.4440  -0.4947 H              1 S1                 0.0000
     25 ****        -3.6641   4.5837   1.7198 H              1 S1                 0.0000
     26 ****        -2.4942  -0.0680   1.3120 H              1 S1                 0.0000
     27 ****        -2.0046  -0.0768  -0.3438 H              1 S1                 0.0000
     28 ****         0.2213   1.1191   0.5201 H              1 S1                 0.0000
     29 ****         0.6417   0.4617   2.6579 H              1 S1                 0.0000
     30 ****        -0.2866  -1.8219   1.2033 H              1 S1                 0.0000
     31 ****         0.0318  -1.2353  -0.4080 H              1 S1                 0.0000
     32 ****         2.2566  -0.3423   0.3280 H              1 S1                 0.0000
     33 ****         1.9789  -0.9732   1.9316 H              1 S1                 0.0000
     34 ****         2.1814  -3.3643   2.4143 H              1 S1                 0.0000
     35 ****         3.0978  -5.5569   1.6952 H              1 S1                 0.0000
     36 ****         3.7378  -5.9237  -0.6810 H              1 S1                 0.0000
     37 ****         3.4604  -4.0905  -2.3411 H              1 S1                 0.0000
     38 ****         2.5504  -1.8924  -1.6277 H              1 S1                 0.0000
     39 ****        -2.7946   4.3641  -2.8579 LP             1 S1                 0.0000
     40 ****        -1.3433   4.8670  -2.3034 LP             1 S1                 0.0000
     41 ****        -3.5569   2.6692   3.1840 LP             1 S1                 0.0000
     42 ****        -2.8742   1.1516   2.7034 LP             1 S1                 0.0000
     43 ****        -0.7690  -0.2421   2.8668 LP             1 S1                 0.0000
     44 ****        -0.6591   1.3764   2.6795 LP             1 S1                 0.0000
     45 ****        -1.5025   1.7434  -1.5366 LP             1 S1                 0.0000
@<TRIPOS>BOND
    1    1    2 1     
    2    1   21 1     
    3    1   22 1     
    4    1   23 1     
    5    2    3 1     
    6    3   20 2     
    7    3    4 1     
    8    4    5 2     
    9    4   24 1     
   10    5    6 1     
   11    5   25 1     
   12    6    7 2     
   13    6    8 am    
   14    8    9 1     
   15    8   20 1     
   16    9   10 1     
   17    9   26 1     
   18    9   27 1     
   19   10   11 1     
   20   10   12 1     
   21   10   28 1     
   22   11   29 1     
   23   12   13 1     
   24   12   30 1     
   25   12   31 1     
   26   13   14 1     
   27   13   32 1     
   28   13   33 1     
   29   14   19 ar    
   30   14   15 ar    
   31   15   16 ar    
   32   15   34 1     
   33   16   17 ar    
   34   16   35 1     
   35   17   18 ar    
   36   17   36 1     
   37   18   19 ar    
   38   18   37 1     
   39   19   38 1     
   40    2   39 1     
   41    2   40 1     
   42    7   41 1     
   43    7   42 1     
   44   11   43 1     
   45   11   44 1     
   46   20   45 1     
@<TRIPOS>SUBSTRUCTURE
      1 S1             1
@<TRIPOS>SET
LONE_PAIRS      STATIC     ATOMS    <user>   **** ""
7 39 40 41 42 43 44 45
DONOR_HYDROGENS      STATIC     ATOMS    <user>   **** ""
1 29
ATOM$BLUE        STATIC     ATOMS    COLORGROUP SYSTEM
7 39 40 41 42 43 44 45
ATOM$RED        STATIC     ATOMS    COLORGROUP SYSTEM
1 29
