AV-unprocessed.smi:1932|AV-procd|sdf|7814|dock2
  -GOLD-   22720 9553D 1   1.00000     0.00000
 Structure written by MMmdl.
 44 45  0  0  0  0  0  0  0  0  1 V2000
  147.4018  135.4610  163.1233 C   0  0  0  0  0  0  0  0  0  0  0  0
  147.4207  135.9802  161.6825 C   0  0  0  0  0  0  0  0  0  0  0  0
  147.5631  137.1902  161.5049 O   0  0  0  0  0  0  0  0  0  0  0  0
  147.2822  135.1024  160.6582 N   0  0  0  0  0  0  0  0  0  0  0  0
  147.0933  133.6741  160.9272 C   0  0  0  0  0  0  0  0  0  0  0  0
  147.2674  135.4878  159.2358 C   0  0  0  0  0  0  0  0  0  0  0  0
  148.5750  136.1076  158.7144 C   0  0  0  0  0  0  0  0  0  0  0  0
  149.5534  135.3809  158.5462 O   0  0  0  0  0  0  0  0  0  0  0  0
  148.6029  137.4295  158.4786 N   0  0  0  0  0  0  0  0  0  0  0  0
  149.7762  138.1878  158.0637 C   0  0  0  0  0  0  0  0  0  0  0  0
  149.5733  138.8606  156.7124 C   0  0  0  0  0  0  0  0  0  0  0  0
  148.9187  138.1585  155.6786 C   0  0  0  0  0  0  0  0  0  0  0  0
  148.7688  138.7713  154.4213 C   0  0  0  0  0  0  0  0  0  0  0  0
  149.2861  140.0678  154.2455 C   0  0  0  0  0  0  0  0  0  0  0  0
  149.9117  140.7534  155.2248 N   0  0  0  0  0  0  0  0  0  0  0  0
  150.0556  140.1681  156.4387 C   0  0  0  0  0  0  0  0  0  0  0  0
  150.6829  140.9170  157.4494 N   0  0  0  0  0  0  0  0  0  0  0  0
  150.8449  142.3227  157.1032 C   0  0  0  0  0  0  0  0  0  0  0  0
  151.3116  143.1139  158.3373 C   0  0  0  0  0  0  0  0  0  0  0  0
  152.5089  142.5361  158.8507 O   0  0  0  0  0  0  0  0  0  0  0  0
  152.3202  141.1820  159.2524 C   0  0  0  0  0  0  0  0  0  0  0  0
  151.8854  140.3408  158.0393 C   0  0  0  0  0  0  0  0  0  0  0  0
  148.2759  134.8405  163.3207 H   0  0  0  0  0  0  0  0  0  0  0  0
  146.5029  134.8783  163.3233 H   0  0  0  0  0  0  0  0  0  0  0  0
  147.4200  136.2922  163.8289 H   0  0  0  0  0  0  0  0  0  0  0  0
  147.6742  133.3311  161.7835 H   0  0  0  0  0  0  0  0  0  0  0  0
  147.4010  133.0656  160.0758 H   0  0  0  0  0  0  0  0  0  0  0  0
  146.0416  133.4667  161.1263 H   0  0  0  0  0  0  0  0  0  0  0  0
  147.0553  134.6043  158.6317 H   0  0  0  0  0  0  0  0  0  0  0  0
  146.4459  136.1708  159.0193 H   0  0  0  0  0  0  0  0  0  0  0  0
  147.7579  137.9573  158.6439 H   0  0  0  0  0  0  0  0  0  0  0  0
  150.0434  138.9273  158.8205 H   0  0  0  0  0  0  0  0  0  0  0  0
  150.6236  137.5055  158.0053 H   0  0  0  0  0  0  0  0  0  0  0  0
  148.5427  137.1592  155.8419 H   0  0  0  0  0  0  0  0  0  0  0  0
  148.2744  138.2576  153.6100 H   0  0  0  0  0  0  0  0  0  0  0  0
  149.1940  140.5685  153.2931 H   0  0  0  0  0  0  0  0  0  0  0  0
  151.5791  142.4135  156.3015 H   0  0  0  0  0  0  0  0  0  0  0  0
  149.9085  142.7344  156.7263 H   0  0  0  0  0  0  0  0  0  0  0  0
  151.5035  144.1526  158.0683 H   0  0  0  0  0  0  0  0  0  0  0  0
  150.5394  143.1209  159.1087 H   0  0  0  0  0  0  0  0  0  0  0  0
  153.2536  140.7973  159.6629 H   0  0  0  0  0  0  0  0  0  0  0  0
  151.5759  141.1333  160.0486 H   0  0  0  0  0  0  0  0  0  0  0  0
  151.6924  139.3111  158.3423 H   0  0  0  0  0  0  0  0  0  0  0  0
  152.6878  140.3186  157.3007 H   0  0  0  0  0  0  0  0  0  0  0  0
  1  2  1  0  0  0  0
  1 23  1  0  0  0  0
  1 24  1  0  0  0  0
  1 25  1  0  0  0  0
  2  3  2  0  0  0  0
  2  4  1  0  0  0  0
  4  5  1  0  0  0  0
  4  6  1  0  0  0  0
  5 26  1  0  0  0  0
  5 27  1  0  0  0  0
  5 28  1  0  0  0  0
  6  7  1  0  0  0  0
  6 29  1  0  0  0  0
  6 30  1  0  0  0  0
  7  8  2  0  0  0  0
  7  9  1  0  0  0  0
  9 10  1  0  0  0  0
  9 31  1  0  0  0  0
 10 11  1  0  0  0  0
 10 32  1  0  0  0  0
 10 33  1  0  0  0  0
 11 16  1  0  0  0  0
 11 12  2  0  0  0  0
 12 13  1  0  0  0  0
 12 34  1  0  0  0  0
 13 14  2  0  0  0  0
 13 35  1  0  0  0  0
 14 15  1  0  0  0  0
 14 36  1  0  0  0  0
 15 16  2  0  0  0  0
 16 17  1  0  0  0  0
 17 22  1  0  0  0  0
 17 18  1  0  0  0  0
 18 19  1  0  0  0  0
 18 37  1  0  0  0  0
 18 38  1  0  0  0  0
 19 20  1  0  0  0  0
 19 39  1  0  0  0  0
 19 40  1  0  0  0  0
 20 21  1  0  0  0  0
 21 22  1  0  0  0  0
 21 41  1  0  0  0  0
 21 42  1  0  0  0  0
 22 43  1  0  0  0  0
 22 44  1  0  0  0  0
M  END
> <s_m_source_file>
AV-unprocessed.smi

> <i_m_source_file_index>
1932

> <i_lp_mmshare_version>
43012

> <i_f3d_flags>
0

> <s_epik_input>
W0NIM11DKD1PKU4oW0NIM10pW0NIMl1DKD1PKVtOSF1bQ0gyXWMxW2NIXVtjSF1bY0hdbmMxTjJbQ0gyXVtDSDJdT1tDSDJdW0NIMl0y

> <s_epik_cmdline>
J2VwaWtfcHl0aG9uJywgJy1waCcsICc3LjAnLCAnLXRuJywgJzgnLCAnLW1hJywgJzIwMCcsICctbWV0YWxfYmluZGluZycsICctaW1hZScsICc8aW5maWxlLm1hZT4nLCAnLW9tYWUnLCAnPG91dGZpbGUubWFlPic=

> <r_lp_tautomer_probability>
1

> <r_epik_Ionization_Penalty>
0.00462916

> <r_epik_Ionization_Penalty_Charging>
0

> <r_epik_Ionization_Penalty_Neutral>
0.00462916

> <r_epik_State_Penalty>
0.00334737

> <r_epik_Charging_Adjusted_Penalty>
0.00334737

> <i_epik_Tot_Q>
0

> <i_epik_Tot_abs_Q>
0

> <r_epik_Metal_State_Penalty>
-0

> <b_epik_Metal_Only>
0

> <s_lp_Force_Field>
OPLS_2005

> <r_lp_Energy>
20.2877

> <b_lp_Chiralities_Consistent>
1

> <s_lp_Variant>
AV-unprocessed.smi:1932-1

> <Gold.Version>
5.8.1

> <Gold.Id.Protein>
6NUR|6NUR_protein|mol2

> <Gold.PLP.Fitness>
42.3672

> <Gold.PLP.PLP>
-31.8005

> <Gold.PLP.part.hbond>
-3.1798

> <Gold.PLP.part.metal>
0.0000

> <Gold.PLP.part.buried>
-5.1397

> <Gold.PLP.part.nonpolar>
-24.5697

> <Gold.PLP.part.repulsive>
0.2419

> <Gold.PLP.ligand.clash>
0.0000

> <Gold.PLP.ligand.torsion>
0.5777

> <Gold.PLP.Chemscore.Hbond>
2.8240

> <Gold.PLP.Chemscore.CHOScore>
1.0000

> <Gold.PLP.Chemscore.Metal>
0.0000

> <Gold.Chemscore.Hbonds>
donor molecule, donor type, donor heavy atom, donor atom, acceptor molecule, acceptor atom, score
      P1  H  6896  6909       L1     8  1.00
      P1  H  6931  6943       L1     3  0.96
      P1  H  6934  6947       L1     3  0.83
      L1  C    14    36       P1  7957  1.00

> <Gold.PLP.Chemscore.Internal.Correction>
0.2500

> <Gold.Rescore>
     Score         DG    S(hbond)    S(metal)    S(lipo)     H(rot)  DE(clash)    DE(int)     intcor
     16.47     -17.47       2.77        0.00      67.21       2.00       0.30       0.71       ----

> <Gold.Chemscore.Fitness>
16.4671

> <Gold.Chemscore.DG>
-17.4729

> <Gold.Chemscore.ZeroCoef>
-5.4800

> <Gold.Chemscore.Hbond>
2.7658

> <Gold.Chemscore.Metal>
0.0000

> <Gold.Chemscore.Lipo>
67.2114

> <Gold.Chemscore.Internal_Hbond>
0.0000

> <Gold.Chemscore.DEClash>
0.2967

> <Gold.Chemscore.DEInternal>
0.7090

> <Gold.Chemscore.Rot>
1.9956

> <Gold.Chemscore.Internal.Correction>
   9.000000E+99

> <Gold.Chemscore.Hbonds>
donor molecule, donor type, donor heavy atom, donor atom, acceptor molecule, acceptor atom, score
      P1  H  6896  6909       L1     8  0.99
      P1  H  6931  6943       L1     3  0.92
      P1  H  6934  6947       L1     3  0.81

> <Gold.Chemscore.Hbond.Weighted>
-9.2378

> <Gold.Chemscore.Metal.Weighted>
-0.0000

> <Gold.Chemscore.Lipo.Weighted>
-7.8637

> <Gold.Chemscore.Internal_Hbond.Weighted>
0.0000

> <Gold.Chemscore.DEClash.Weighted>
0.2967

> <Gold.Chemscore.DEInternal.Weighted>
0.7090

> <Gold.Chemscore.Rot.Weighted>
5.1087

> <Gold.Chemscore.Internal.Correction.Weighted>
   9.000000E+99

> <Gold.Protein.RotatedTorsions>
[ 6907 6896 6895 6894 ] final   36.53 input  -60.11 | X-H torsion
[ 7974 7965 7964 7962 ] final -166.66 input  175.53 | X-H torsion
[ 8008 7997 7996 7995 ] final   71.76 input   59.86 | X-H torsion
[ 10167 10162 10161 10158 ] final   75.05 input  -65.29 | X-H torsion
[ 10718 10713 10712 10709 ] final  -30.58 input   66.30 | X-H torsion
[ 10763 10752 10751 10750 ] final  171.79 input  -60.55 | X-H torsion
[ 11005 11000 10999 10996 ] final   51.68 input  -57.11 | X-H torsion

> <Gold.Protein.ActiveResidues>
 VAL166  LYS551  ARG553  GLY616  TRP617  ASP618  TYR619  PRO620  LYS621  CYS622 
 ASP623  PHE694  ASN695  SER759  ASP760  ASP761  ALA762  ILE779  LEU786  VAL792 
 PHE793  MET794  SER795  GLU796  ALA797  LYS798  CYS799  TRP800  GLU811  SER814 

> <Gold.Protein.RotatedAtoms>
  152.1309  134.9135  160.0558 H   0  0  0  0  0  0  0  0  0  0  0  0  # atno 6907 bound_to 6896
  152.0240  133.3905  159.4278 H   0  0  0  0  0  0  0  0  0  0  0  0  # atno 6908 bound_to 6896
  150.6856  134.3516  159.4955 H   0  0  0  0  0  0  0  0  0  0  0  0  # atno 6909 bound_to 6896
  144.7240  140.2633  143.6261 H   0  0  0  0  0  0  0  0  0  0  0  0  # atno 7974 bound_to 7965
  155.7587  140.3487  155.5187 H   0  0  0  0  0  0  0  0  0  0  0  0  # atno 8008 bound_to 7997
  155.8935  140.1022  157.1422 H   0  0  0  0  0  0  0  0  0  0  0  0  # atno 8009 bound_to 7997
  154.4036  140.1300  156.4333 H   0  0  0  0  0  0  0  0  0  0  0  0  # atno 8010 bound_to 7997
  140.0071  144.5642  150.7689 H   0  0  0  0  0  0  0  0  0  0  0  0  # atno 10167 bound_to 10162
  156.3980  130.4385  149.7344 H   0  0  0  0  0  0  0  0  0  0  0  0  # atno 10718 bound_to 10713
  154.4170  135.2757  155.2000 H   0  0  0  0  0  0  0  0  0  0  0  0  # atno 10763 bound_to 10752
  154.3962  135.6055  153.5875 H   0  0  0  0  0  0  0  0  0  0  0  0  # atno 10764 bound_to 10752
  152.9832  135.5915  154.4460 H   0  0  0  0  0  0  0  0  0  0  0  0  # atno 10765 bound_to 10752
  140.0912  134.5206  155.8850 H   0  0  0  0  0  0  0  0  0  0  0  0  # atno 11005 bound_to 11000
  145.8114  139.2005  143.1991 LP  0  0  0  0  0  0  0  0  0  0  0  0  # atno 17320 bound_to 7965
  146.0593  140.7988  142.9743 LP  0  0  0  0  0  0  0  0  0  0  0  0  # atno 17321 bound_to 7965
  140.7396  143.2793  151.3645 LP  0  0  0  0  0  0  0  0  0  0  0  0  # atno 17342 bound_to 10162
  139.6231  144.0868  152.2409 LP  0  0  0  0  0  0  0  0  0  0  0  0  # atno 17343 bound_to 10162
  156.4371  130.7843  151.2864 LP  0  0  0  0  0  0  0  0  0  0  0  0  # atno 17370 bound_to 10713
  157.7502  131.0136  150.3432 LP  0  0  0  0  0  0  0  0  0  0  0  0  # atno 17371 bound_to 10713
  141.2078  133.6668  156.6332 LP  0  0  0  0  0  0  0  0  0  0  0  0  # atno 17394 bound_to 11000
  140.3349  134.7897  157.4354 LP  0  0  0  0  0  0  0  0  0  0  0  0  # atno 17395 bound_to 11000

$$$$
