AV-unprocessed.smi:3228|AV-procd|sdf|12325|dock8
  -GOLD-   2272018173D 1   1.00000     0.00000
 Structure written by MMmdl.
 30 31  0  0  0  0  0  0  0  0  2 V2000
  150.9151  140.3677  156.6164 O   0  0  0  0  0  0  0  0  0  0  0  0
  150.1114  140.9318  157.3629 C   0  0  0  0  0  0  0  0  0  0  0  0
  150.5476  141.5519  158.4687 N   0  0  0  0  0  0  0  0  0  0  0  0
  151.9341  141.6216  158.9199 C   0  0  0  0  0  0  0  0  0  0  0  0
  152.3956  143.0782  159.1413 C   0  0  2  0  0  0  0  0  0  0  0  0
  151.9343  143.7159  160.4572 C   0  0  0  0  0  0  0  0  0  0  0  0
  152.0455  145.2319  160.2383 C   0  0  0  0  0  0  0  0  0  0  0  0
  152.2118  145.4454  158.7243 C   0  0  0  0  0  0  0  0  0  0  0  0
  151.9541  144.0835  158.0682 C   0  0  2  0  0  0  0  0  0  0  0  0
  150.5725  143.9654  157.7813 O   0  0  0  0  0  0  0  0  0  0  0  0
  148.7712  140.9984  157.1937 N   0  5  0  0  0  0  0  0  0  0  0  0
  148.2488  140.9785  155.9566 C   0  0  0  0  0  0  0  0  0  0  0  0
  146.9325  141.0109  155.7191 N   0  0  0  0  0  0  0  0  0  0  0  0
  146.6125  140.9757  154.3606 C   0  0  0  0  0  0  0  0  0  0  0  0
  147.7106  140.9048  153.5449 C   0  0  0  0  0  0  0  0  0  0  0  0
  149.1884  140.8809  154.4643 S   0  0  0  0  0  0  0  0  0  0  0  0
  149.8554  142.0007  159.0504 H   0  0  0  0  0  0  0  0  0  0  0  0
  152.0566  141.0414  159.8356 H   0  0  0  0  0  0  0  0  0  0  0  0
  152.5500  141.1364  158.1629 H   0  0  0  0  0  0  0  0  0  0  0  0
  153.4870  143.0879  159.1452 H   0  0  0  0  0  0  0  0  0  0  0  0
  150.8938  143.4522  160.6526 H   0  0  0  0  0  0  0  0  0  0  0  0
  152.5234  143.3757  161.3095 H   0  0  0  0  0  0  0  0  0  0  0  0
  151.1562  145.7386  160.6143 H   0  0  0  0  0  0  0  0  0  0  0  0
  152.9035  145.6402  160.7736 H   0  0  0  0  0  0  0  0  0  0  0  0
  151.5635  146.2334  158.3383 H   0  0  0  0  0  0  0  0  0  0  0  0
  153.2393  145.7503  158.5214 H   0  0  0  0  0  0  0  0  0  0  0  0
  152.5176  143.9646  157.1420 H   0  0  0  0  0  0  0  0  0  0  0  0
  150.4179  144.3049  156.9129 H   0  0  0  0  0  0  0  0  0  0  0  0
  145.5746  141.0030  154.0638 H   0  0  0  0  0  0  0  0  0  0  0  0
  147.7413  140.8638  152.4666 H   0  0  0  0  0  0  0  0  0  0  0  0
  1  2  2  0  0  0  0
  2  3  1  0  0  0  0
  2 11  1  0  0  0  0
  3  4  1  0  0  0  0
  3 17  1  0  0  0  0
  4  5  1  0  0  0  0
  4 18  1  0  0  0  0
  4 19  1  0  0  0  0
  5  9  1  0  0  0  0
  5  6  1  0  0  0  0
  5 20  1  0  0  0  0
  6  7  1  0  0  0  0
  6 21  1  0  0  0  0
  6 22  1  0  0  0  0
  7  8  1  0  0  0  0
  7 23  1  0  0  0  0
  7 24  1  0  0  0  0
  8  9  1  0  0  0  0
  8 25  1  0  0  0  0
  8 26  1  0  0  0  0
  9 10  1  0  0  0  0
  9 27  1  0  0  0  0
 10 28  1  0  0  0  0
 11 12  1  0  0  0  0
 12 16  1  0  0  0  0
 12 13  2  0  0  0  0
 13 14  1  0  0  0  0
 14 15  2  0  0  0  0
 14 29  1  0  0  0  0
 15 16  1  0  0  0  0
 15 30  1  0  0  0  0
M  CHG  1  11  -1
M  END
> <s_m_source_file>
AV-unprocessed.smi

> <i_m_source_file_index>
3228

> <i_lp_mmshare_version>
43012

> <i_f3d_flags>
0

> <s_epik_input>
czFbY0hdW2NIXW5jMVtOSF1DKD1PKVtOSF1bQ0gyXVtDQEBIXTJbQ0gyXVtDSDJdW0NIMl1bQ0BIXTJbT0hd

> <s_epik_cmdline>
J2VwaWtfcHl0aG9uJywgJy1waCcsICc3LjAnLCAnLXRuJywgJzgnLCAnLW1hJywgJzIwMCcsICctbWV0YWxfYmluZGluZycsICctaW1hZScsICc8aW5maWxlLm1hZT4nLCAnLW9tYWUnLCAnPG91dGZpbGUubWFlPic=

> <r_lp_tautomer_probability>
0.999

> <r_epik_Ionization_Penalty>
8.49756

> <r_epik_Ionization_Penalty_Charging>
6.79645

> <r_epik_Ionization_Penalty_Neutral>
1.70111

> <r_epik_State_Penalty>
6.79662

> <r_epik_Charging_Adjusted_Penalty>
13.5931

> <i_epik_Tot_Q>
-1

> <i_epik_Tot_abs_Q>
1

> <r_epik_Metal_State_Penalty>
2.71629

> <b_epik_Metal_Only>
1

> <s_lp_Force_Field>
OPLS_2005

> <r_lp_Energy>
19.9343

> <b_lp_Chiralities_Consistent>
1

> <s_lp_Variant>
AV-unprocessed.smi:3228-7

> <Gold.Version>
5.8.1

> <Gold.Id.Protein>
6NUR|6NUR_protein|mol2

> <Gold.PLP.Fitness>
41.2610

> <Gold.PLP.PLP>
-33.7699

> <Gold.PLP.part.hbond>
-1.0572

> <Gold.PLP.part.metal>
0.0000

> <Gold.PLP.part.buried>
-4.2772

> <Gold.PLP.part.nonpolar>
-28.5179

> <Gold.PLP.part.repulsive>
0.2593

> <Gold.PLP.ligand.clash>
0.0000

> <Gold.PLP.ligand.torsion>
0.3552

> <Gold.PLP.Chemscore.Hbond>
0.9280

> <Gold.PLP.Chemscore.CHOScore>
1.8032

> <Gold.PLP.Chemscore.Metal>
0.0000

> <Gold.Chemscore.Hbonds>
donor molecule, donor type, donor heavy atom, donor atom, acceptor molecule, acceptor atom, score
      L1  H    10    28       P1  8028  0.82
      L1  C    14    29       P1 10175  1.00
      L1  C    15    30       P1  7957  0.92

> <Gold.PLP.Chemscore.Internal.Correction>
0.0080

> <Gold.Rescore>
     Score         DG    S(hbond)    S(metal)    S(lipo)     H(rot)  DE(clash)    DE(int)     intcor
     10.72     -14.23       0.81        0.00      91.97       1.85       0.01       3.50       ----

> <Gold.Chemscore.Fitness>
10.7168

> <Gold.Chemscore.DG>
-14.2261

> <Gold.Chemscore.ZeroCoef>
-5.4800

> <Gold.Chemscore.Hbond>
0.8136

> <Gold.Chemscore.Metal>
0.0000

> <Gold.Chemscore.Lipo>
91.9665

> <Gold.Chemscore.Internal_Hbond>
0.0000

> <Gold.Chemscore.DEClash>
0.0133

> <Gold.Chemscore.DEInternal>
3.4960

> <Gold.Chemscore.Rot>
1.8481

> <Gold.Chemscore.Internal.Correction>
   9.000000E+99

> <Gold.Chemscore.Hbonds>
donor molecule, donor type, donor heavy atom, donor atom, acceptor molecule, acceptor atom, score
      L1  H    10    28       P1  8028  0.74

> <Gold.Chemscore.Hbond.Weighted>
-2.7173

> <Gold.Chemscore.Metal.Weighted>
-0.0000

> <Gold.Chemscore.Lipo.Weighted>
-10.7601

> <Gold.Chemscore.Internal_Hbond.Weighted>
0.0000

> <Gold.Chemscore.DEClash.Weighted>
0.0133

> <Gold.Chemscore.DEInternal.Weighted>
3.4960

> <Gold.Chemscore.Rot.Weighted>
4.7313

> <Gold.Chemscore.Internal.Correction.Weighted>
   9.000000E+99

> <Gold.Protein.RotatedTorsions>
[ 6907 6896 6895 6894 ] final   49.42 input  -60.11 | X-H torsion
[ 7974 7965 7964 7962 ] final   19.80 input  175.53 | X-H torsion
[ 8008 7997 7996 7995 ] final  160.06 input   59.86 | X-H torsion
[ 10167 10162 10161 10158 ] final  -18.27 input  -65.29 | X-H torsion
[ 10718 10713 10712 10709 ] final -136.00 input   66.30 | X-H torsion
[ 10763 10752 10751 10750 ] final  166.57 input  -60.55 | X-H torsion
[ 11005 11000 10999 10996 ] final -168.86 input  -57.11 | X-H torsion

> <Gold.Protein.ActiveResidues>
 VAL166  LYS551  ARG553  GLY616  TRP617  ASP618  TYR619  PRO620  LYS621  CYS622 
 ASP623  PHE694  ASN695  SER759  ASP760  ASP761  ALA762  ILE779  LEU786  VAL792 
 PHE793  MET794  SER795  GLU796  ALA797  LYS798  CYS799  TRP800  GLU811  SER814 

> <Gold.Protein.RotatedAtoms>
  152.2906  134.7726  160.0378 H   0  0  0  0  0  0  0  0  0  0  0  0  # atno 6907 bound_to 6896
  151.8273  133.3398  159.3611 H   0  0  0  0  0  0  0  0  0  0  0  0  # atno 6908 bound_to 6896
  150.7228  134.5445  159.5808 H   0  0  0  0  0  0  0  0  0  0  0  0  # atno 6909 bound_to 6896
  146.2136  139.8261  142.8670 H   0  0  0  0  0  0  0  0  0  0  0  0  # atno 7974 bound_to 7965
  156.2198  140.1814  156.7504 H   0  0  0  0  0  0  0  0  0  0  0  0  # atno 8008 bound_to 7997
  154.5847  140.0660  156.9183 H   0  0  0  0  0  0  0  0  0  0  0  0  # atno 8009 bound_to 7997
  155.2440  140.3324  155.4291 H   0  0  0  0  0  0  0  0  0  0  0  0  # atno 8010 bound_to 7997
  140.7257  143.4933  150.9964 H   0  0  0  0  0  0  0  0  0  0  0  0  # atno 10167 bound_to 10162
  156.2722  130.7272  151.1243 H   0  0  0  0  0  0  0  0  0  0  0  0  # atno 10718 bound_to 10713
  154.3409  135.2754  155.2423 H   0  0  0  0  0  0  0  0  0  0  0  0  # atno 10763 bound_to 10752
  154.4694  135.5887  153.6314 H   0  0  0  0  0  0  0  0  0  0  0  0  # atno 10764 bound_to 10752
  152.9857  135.6084  154.3610 H   0  0  0  0  0  0  0  0  0  0  0  0  # atno 10765 bound_to 10752
  140.5373  134.5557  157.5090 H   0  0  0  0  0  0  0  0  0  0  0  0  # atno 11005 bound_to 11000
  145.3046  141.0203  143.3589 LP  0  0  0  0  0  0  0  0  0  0  0  0  # atno 17320 bound_to 7965
  144.8981  139.4686  143.6646 LP  0  0  0  0  0  0  0  0  0  0  0  0  # atno 17321 bound_to 7965
  139.8638  143.7280  152.3171 LP  0  0  0  0  0  0  0  0  0  0  0  0  # atno 17342 bound_to 10162
  139.7505  144.7535  151.0514 LP  0  0  0  0  0  0  0  0  0  0  0  0  # atno 17343 bound_to 10162
  157.7288  131.0629  150.5805 LP  0  0  0  0  0  0  0  0  0  0  0  0  # atno 17370 bound_to 10713
  156.5902  130.4327  149.5940 LP  0  0  0  0  0  0  0  0  0  0  0  0  # atno 17371 bound_to 10713
  139.9522  134.7596  156.0421 LP  0  0  0  0  0  0  0  0  0  0  0  0  # atno 17394 bound_to 11000
  141.1247  133.6602  156.3306 LP  0  0  0  0  0  0  0  0  0  0  0  0  # atno 17395 bound_to 11000

$$$$
