#       Name:                AV-unprocessed.smi:2061
#       Creating user name   scv26
#       Creation time:       Fri Mar 27 11:06:11 2020


#       File generated by GOLD software.
#

@<TRIPOS>MOLECULE
AV-unprocessed.smi:2061
    53    54     1
SMALL
NO_CHARGES


@<TRIPOS>ATOM
      1 ****        -3.8326   6.0381   2.8760 C.3            1 S1                 0.0000
      2 ****        -3.8130   4.9458   1.8622 C.2            1 S1                 0.0000
      3 ****        -2.8374   4.4643   1.0361 C.2            1 S1                 0.0000
      4 ****        -3.4925   3.4130   0.3385 C.2            1 S1                 0.0000
      5 ****        -2.9456   2.6332  -0.6067 N.pl3          1 S1                -1.0000
      6 ****        -2.2408   1.5327  -0.2587 C.2            1 S1                 0.0000
      7 ****        -2.0237   1.1324   0.8874 O.2            1 S1                 0.0000
      8 ****        -1.7495   0.8556  -1.3060 N.am           1 S1                 0.0000
      9 ****        -0.9350  -0.3534  -1.2311 C.3            1 S1                 0.0000
     10 ****         0.5305  -0.0734  -0.8051 C.3            1 S1                 0.0000
     11 ****         1.1875   0.9316  -1.7827 C.3            1 S1                 0.0000
     12 ****         1.2805  -1.3647  -0.6748 N.4            1 S1                 1.0000
     13 ****         2.7594  -1.2774  -0.8213 C.3            1 S1                 0.0000
     14 ****         3.4229  -2.6670  -0.7304 C.3            1 S1                 0.0000
     15 ****         3.2177  -3.5280  -1.9900 C.3            1 S1                 0.0000
     16 ****         3.0127  -3.3437   0.4557 O.3            1 S1                 0.0000
     17 ****         1.6035  -3.4809   0.6001 C.3            1 S1                 0.0000
     18 ****         1.3358  -4.2245   1.9134 C.3            1 S1                 0.0000
     19 ****         0.9552  -2.0861   0.5837 C.3            1 S1                 0.0000
     20 ****        -4.7586   3.2801   0.6966 N.2            1 S1                 0.0000
     21 ****        -4.9703   4.2551   1.6787 O.3            1 S1                 0.0000
     22 ****        -3.3737   6.9428   2.4773 H              1 S1                 0.0000
     23 ****        -3.2815   5.7439   3.7690 H              1 S1                 0.0000
     24 ****        -4.8531   6.2805   3.1731 H              1 S1                 0.0000
     25 ****        -1.8172   4.8060   0.9469 H              1 S1                 0.0000
     26 ****        -1.9553   1.2148  -2.2268 H              1 S1                 0.0000
     27 ****        -1.4319  -1.0536  -0.5607 H              1 S1                 0.0000
     28 ****        -0.9474  -0.8223  -2.2154 H              1 S1                 0.0000
     29 ****         0.5304   0.4034   0.1764 H              1 S1                 0.0000
     30 ****         0.6033   1.8473  -1.8718 H              1 S1                 0.0000
     31 ****         1.2849   0.5095  -2.7834 H              1 S1                 0.0000
     32 ****         2.1746   1.2462  -1.4442 H              1 S1                 0.0000
     33 ****         3.0393  -0.8386  -1.7785 H              1 S1                 0.0000
     34 ****         3.1556  -0.6270  -0.0399 H              1 S1                 0.0000
     35 ****         4.4978  -2.5134  -0.6294 H              1 S1                 0.0000
     36 ****         3.6775  -3.0572  -2.8594 H              1 S1                 0.0000
     37 ****         2.1637  -3.6762  -2.2234 H              1 S1                 0.0000
     38 ****         3.6756  -4.5099  -1.8685 H              1 S1                 0.0000
     39 ****         1.2019  -4.0826  -0.2154 H              1 S1                 0.0000
     40 ****         0.2666  -4.3629   2.0758 H              1 S1                 0.0000
     41 ****         1.7359  -3.6763   2.7669 H              1 S1                 0.0000
     42 ****         1.8000  -5.2110   1.9046 H              1 S1                 0.0000
     43 ****         1.3030  -1.5008   1.4369 H              1 S1                 0.0000
     44 ****        -0.1206  -2.2003   0.7037 H              1 S1                 0.0000
     45 ****         0.9636  -1.9458  -1.4376 H              1 S1                 0.0000
     46 ****        -3.0596   2.8668  -1.5723 LP             1 S1                 0.0000
     47 ****        -2.3844   1.6388   1.6707 LP             1 S1                 0.0000
     48 ****        -1.4870   0.3014   1.0336 LP             1 S1                 0.0000
     49 ****         3.3589  -2.8326   1.2425 LP             1 S1                 0.0000
     50 ****         3.4164  -4.2585   0.4488 LP             1 S1                 0.0000
     51 ****        -5.4234   2.6229   0.3415 LP             1 S1                 0.0000
     52 ****        -5.6923   4.8804   1.3824 LP             1 S1                 0.0000
     53 ****        -5.2403   3.8166   2.5360 LP             1 S1                 0.0000
@<TRIPOS>BOND
    1    1    2 1     
    2    1   22 1     
    3    1   23 1     
    4    1   24 1     
    5    2   21 1     
    6    2    3 2     
    7    3    4 1     
    8    3   25 1     
    9    4    5 1     
   10    4   20 2     
   11    5    6 1     
   12    6    7 2     
   13    6    8 am    
   14    8    9 1     
   15    8   26 1     
   16    9   10 1     
   17    9   27 1     
   18    9   28 1     
   19   10   11 1     
   20   10   12 1     
   21   10   29 1     
   22   11   30 1     
   23   11   31 1     
   24   11   32 1     
   25   12   19 1     
   26   12   13 1     
   27   12   45 1     
   28   13   14 1     
   29   13   33 1     
   30   13   34 1     
   31   14   15 1     
   32   14   16 1     
   33   14   35 1     
   34   15   36 1     
   35   15   37 1     
   36   15   38 1     
   37   16   17 1     
   38   17   18 1     
   39   17   19 1     
   40   17   39 1     
   41   18   40 1     
   42   18   41 1     
   43   18   42 1     
   44   19   43 1     
   45   19   44 1     
   46   20   21 1     
   47    5   46 1     
   48    7   47 1     
   49    7   48 1     
   50   16   49 1     
   51   16   50 1     
   52   20   51 1     
   53   21   52 1     
   54   21   53 1     
@<TRIPOS>SUBSTRUCTURE
      1 S1             1
@<TRIPOS>SET
LONE_PAIRS      STATIC     ATOMS    <user>   **** ""
8 46 47 48 49 50 51 52 53
DONOR_HYDROGENS      STATIC     ATOMS    <user>   **** ""
2 26 45
ATOM$BLUE        STATIC     ATOMS    COLORGROUP SYSTEM
8 46 47 48 49 50 51 52 53
ATOM$RED        STATIC     ATOMS    COLORGROUP SYSTEM
2 26 45
