AV-unprocessed.smi:244|AV-procd|sdf|1870|dock5
  -GOLD-   2262020513D 1   1.00000     0.00000
 Structure written by MMmdl.
 57 61  0  0  0  0  0  0  0  0  2 V2000
  146.7969  132.7169  151.6983 C   0  0  0  0  0  0  0  0  0  0  0  0
  146.0987  133.7827  150.9429 N   0  3  1  0  0  0  0  0  0  0  0  0
  144.9829  133.2805  150.0992 C   0  0  0  0  0  0  0  0  0  0  0  0
  143.7241  132.9625  150.9280 C   0  0  0  0  0  0  0  0  0  0  0  0
  143.3018  134.1834  151.7550 C   0  0  1  0  0  0  0  0  0  0  0  0
  142.1731  133.8545  152.5570 O   0  0  0  0  0  0  0  0  0  0  0  0
  141.7054  134.9798  153.2941 C   0  0  0  0  0  0  0  0  0  0  0  0
  142.8160  135.4713  154.2368 C   0  0  0  0  0  0  0  0  0  0  0  0
  144.0324  135.7635  153.4835 N   0  0  0  0  0  0  0  0  0  0  0  0
  144.9973  136.2998  154.2638 C   0  0  0  0  0  0  0  0  0  0  0  0
  145.2691  135.7601  155.4815 N   0  0  0  0  0  0  0  0  0  0  0  0
  146.2458  136.2756  156.2345 C   0  0  0  0  0  0  0  0  0  0  0  0
  147.0611  137.2967  155.9599 N   0  0  0  0  0  0  0  0  0  0  0  0
  146.7911  137.8332  154.7349 C   0  0  0  0  0  0  0  0  0  0  0  0
  145.7793  137.4019  153.8333 C   0  0  0  0  0  0  0  0  0  0  0  0
  145.7958  138.1810  152.6844 N   0  0  0  0  0  0  0  0  0  0  0  0
  146.7641  139.0306  152.8962 C   0  0  0  0  0  0  0  0  0  0  0  0
  147.4297  138.8795  154.0928 N   0  0  0  0  0  0  0  0  0  0  0  0
  148.5508  139.6728  154.5726 C   0  0  0  0  0  0  0  0  0  0  0  0
  149.8934  138.9016  154.6508 C   0  0  0  0  0  0  0  0  0  0  0  0
  150.2219  138.5851  153.3102 O   0  0  0  0  0  0  0  0  0  0  0  0
  151.0394  139.7483  155.2457 C   0  0  0  0  0  0  0  0  0  0  0  0
  152.3357  138.9327  155.3997 C   0  0  0  0  0  0  0  0  0  0  0  0
  152.0902  137.7743  156.1887 O   0  0  0  0  0  0  0  0  0  0  0  0
  151.1526  136.8866  155.5907 C   0  0  0  0  0  0  0  0  0  0  0  0
  149.7872  137.5830  155.4481 C   0  0  0  0  0  0  0  0  0  0  0  0
  144.4673  134.6310  152.6625 C   0  0  2  0  0  0  0  0  0  0  0  0
  145.7048  134.9444  151.7824 C   0  0  0  0  0  0  0  0  0  0  0  0
  146.1474  132.2484  152.4377 H   0  0  0  0  0  0  0  0  0  0  0  0
  147.6640  133.1233  152.2194 H   0  0  0  0  0  0  0  0  0  0  0  0
  147.1541  131.9405  151.0213 H   0  0  0  0  0  0  0  0  0  0  0  0
  144.7443  134.0462  149.3597 H   0  0  0  0  0  0  0  0  0  0  0  0
  145.3035  132.4025  149.5370 H   0  0  0  0  0  0  0  0  0  0  0  0
  142.9113  132.6635  150.2657 H   0  0  0  0  0  0  0  0  0  0  0  0
  143.9109  132.1135  151.5861 H   0  0  0  0  0  0  0  0  0  0  0  0
  143.0285  134.9908  151.0721 H   0  0  0  0  0  0  0  0  0  0  0  0
  141.3935  135.7732  152.6132 H   0  0  0  0  0  0  0  0  0  0  0  0
  140.8257  134.6889  153.8683 H   0  0  0  0  0  0  0  0  0  0  0  0
  142.4840  136.3650  154.7675 H   0  0  0  0  0  0  0  0  0  0  0  0
  143.0193  134.7070  154.9884 H   0  0  0  0  0  0  0  0  0  0  0  0
  146.3991  135.7995  157.1919 H   0  0  0  0  0  0  0  0  0  0  0  0
  147.0320  139.7881  152.1737 H   0  0  0  0  0  0  0  0  0  0  0  0
  148.6533  140.5378  153.9157 H   0  0  0  0  0  0  0  0  0  0  0  0
  148.2885  140.0696  155.5547 H   0  0  0  0  0  0  0  0  0  0  0  0
  149.5853  137.9681  152.9827 H   0  0  0  0  0  0  0  0  0  0  0  0
  151.2209  140.6327  154.6335 H   0  0  0  0  0  0  0  0  0  0  0  0
  150.7571  140.1114  156.2336 H   0  0  0  0  0  0  0  0  0  0  0  0
  152.7409  138.6464  154.4280 H   0  0  0  0  0  0  0  0  0  0  0  0
  153.0983  139.5359  155.8925 H   0  0  0  0  0  0  0  0  0  0  0  0
  151.5243  136.5417  154.6247 H   0  0  0  0  0  0  0  0  0  0  0  0
  151.0554  136.0040  156.2230 H   0  0  0  0  0  0  0  0  0  0  0  0
  149.4149  137.7849  156.4520 H   0  0  0  0  0  0  0  0  0  0  0  0
  149.0669  136.9092  154.9825 H   0  0  0  0  0  0  0  0  0  0  0  0
  144.7120  133.8109  153.3394 H   0  0  0  0  0  0  0  0  0  0  0  0
  146.5617  135.2452  152.3863 H   0  0  0  0  0  0  0  0  0  0  0  0
  145.4836  135.7866  151.1250 H   0  0  0  0  0  0  0  0  0  0  0  0
  146.7912  134.1356  150.2977 H   0  0  0  0  0  0  0  0  0  0  0  0
  1  2  1  0  0  0  0
  1 29  1  0  0  0  0
  1 30  1  0  0  0  0
  1 31  1  0  0  0  0
  2 28  1  0  0  0  0
  2  3  1  0  0  0  0
  2 57  1  0  0  0  0
  3  4  1  0  0  0  0
  3 32  1  0  0  0  0
  3 33  1  0  0  0  0
  4  5  1  0  0  0  0
  4 34  1  0  0  0  0
  4 35  1  0  0  0  0
  5 27  1  0  0  0  0
  5  6  1  0  0  0  0
  5 36  1  0  0  0  0
  6  7  1  0  0  0  0
  7  8  1  0  0  0  0
  7 37  1  0  0  0  0
  7 38  1  0  0  0  0
  8  9  1  0  0  0  0
  8 39  1  0  0  0  0
  8 40  1  0  0  0  0
  9 10  1  0  0  0  0
  9 27  1  0  0  0  0
 10 15  1  0  0  0  0
 10 11  2  0  0  0  0
 11 12  1  0  0  0  0
 12 13  2  0  0  0  0
 12 41  1  0  0  0  0
 13 14  1  0  0  0  0
 14 18  1  0  0  0  0
 14 15  2  0  0  0  0
 15 16  1  0  0  0  0
 16 17  2  0  0  0  0
 17 18  1  0  0  0  0
 17 42  1  0  0  0  0
 18 19  1  0  0  0  0
 19 20  1  0  0  0  0
 19 43  1  0  0  0  0
 19 44  1  0  0  0  0
 20 26  1  0  0  0  0
 20 21  1  0  0  0  0
 20 22  1  0  0  0  0
 21 45  1  0  0  0  0
 22 23  1  0  0  0  0
 22 46  1  0  0  0  0
 22 47  1  0  0  0  0
 23 24  1  0  0  0  0
 23 48  1  0  0  0  0
 23 49  1  0  0  0  0
 24 25  1  0  0  0  0
 25 26  1  0  0  0  0
 25 50  1  0  0  0  0
 25 51  1  0  0  0  0
 26 52  1  0  0  0  0
 26 53  1  0  0  0  0
 27 28  1  0  0  0  0
 27 54  1  0  0  0  0
 28 55  1  0  0  0  0
 28 56  1  0  0  0  0
M  CHG  1   2   1
M  END
> <s_m_source_file>
AV-unprocessed.smi

> <i_m_source_file_index>
244

> <i_lp_mmshare_version>
43012

> <i_f3d_flags>
0

> <s_epik_input>
W0NIMl0xW0NIMl1OKFtDSDNdKVtDSDJdW0NAQEhdKFtDQEhdMTIpTihbQ0gyXVtDSDJdTzIpYyhuW2NIXW4zKWMoYzM0KW5bY0hdbjRbQ0gyXUM1KFtPSF0pW0NIMl1bQ0gyXU9bQ0gyXVtDSDJdNQ==

> <s_epik_cmdline>
J2VwaWtfcHl0aG9uJywgJy1waCcsICc3LjAnLCAnLXRuJywgJzgnLCAnLW1hJywgJzIwMCcsICctbWV0YWxfYmluZGluZycsICctaW1hZScsICc8aW5maWxlLm1hZT4nLCAnLW9tYWUnLCAnPG91dGZpbGUubWFlPic=

> <r_lp_tautomer_probability>
1

> <r_epik_Ionization_Penalty>
0.0136215

> <r_epik_Ionization_Penalty_Charging>
0.0131385

> <r_epik_Ionization_Penalty_Neutral>
0.000483022

> <r_epik_State_Penalty>
0.0104001

> <r_epik_Charging_Adjusted_Penalty>
0.0235387

> <i_epik_Tot_Q>
1

> <i_epik_Tot_abs_Q>
1

> <r_epik_Metal_State_Penalty>
0.0104469

> <b_epik_Metal_Only>
0

> <s_lp_Force_Field>
OPLS_2005

> <r_lp_Energy>
43.6006

> <b_lp_Chiralities_Consistent>
1

> <s_lp_Variant>
AV-unprocessed.smi:244-7

> <Gold.Version>
5.8.1

> <Gold.Id.Protein>
6NUR|6NUR_protein|mol2

> <Gold.PLP.Fitness>
40.2516

> <Gold.PLP.PLP>
-35.6434

> <Gold.PLP.part.hbond>
-2.8768

> <Gold.PLP.part.metal>
0.0000

> <Gold.PLP.part.buried>
-2.6761

> <Gold.PLP.part.nonpolar>
-30.9202

> <Gold.PLP.part.repulsive>
0.9798

> <Gold.PLP.ligand.clash>
0.0000

> <Gold.PLP.ligand.torsion>
0.6535

> <Gold.PLP.Chemscore.Hbond>
1.0000

> <Gold.PLP.Chemscore.CHOScore>
0.9348

> <Gold.PLP.Chemscore.Metal>
0.0000

> <Gold.Chemscore.Hbonds>
donor molecule, donor type, donor heavy atom, donor atom, acceptor molecule, acceptor atom, score
      L1  H    21    45       P1  7948  0.78
      L1  C    17    42       P1  7957  0.39

> <Gold.PLP.Chemscore.Internal.Correction>
0.1106

> <Gold.Rescore>
     Score         DG    S(hbond)    S(metal)    S(lipo)     H(rot)  DE(clash)    DE(int)     intcor
      9.72     -12.07       0.68        0.00      82.78       2.09       0.27       2.08       ----

> <Gold.Chemscore.Fitness>
9.7229

> <Gold.Chemscore.DG>
-12.0732

> <Gold.Chemscore.ZeroCoef>
-5.4800

> <Gold.Chemscore.Hbond>
0.6770

> <Gold.Chemscore.Metal>
0.0000

> <Gold.Chemscore.Lipo>
82.7794

> <Gold.Chemscore.Internal_Hbond>
0.0000

> <Gold.Chemscore.DEClash>
0.2705

> <Gold.Chemscore.DEInternal>
2.0798

> <Gold.Chemscore.Rot>
2.0911

> <Gold.Chemscore.Internal.Correction>
   9.000000E+99

> <Gold.Chemscore.Hbonds>
donor molecule, donor type, donor heavy atom, donor atom, acceptor molecule, acceptor atom, score
      L1  H    21    45       P1  7948  0.58

> <Gold.Chemscore.Hbond.Weighted>
-2.2611

> <Gold.Chemscore.Metal.Weighted>
-0.0000

> <Gold.Chemscore.Lipo.Weighted>
-9.6852

> <Gold.Chemscore.Internal_Hbond.Weighted>
0.0000

> <Gold.Chemscore.DEClash.Weighted>
0.2705

> <Gold.Chemscore.DEInternal.Weighted>
2.0798

> <Gold.Chemscore.Rot.Weighted>
5.3531

> <Gold.Chemscore.Internal.Correction.Weighted>
   9.000000E+99

> <Gold.Protein.RotatedTorsions>
[ 6907 6896 6895 6894 ] final  121.96 input  -60.11 | X-H torsion
[ 7974 7965 7964 7962 ] final  -81.47 input  175.53 | X-H torsion
[ 8008 7997 7996 7995 ] final   83.97 input   59.86 | X-H torsion
[ 10167 10162 10161 10158 ] final  103.17 input  -65.29 | X-H torsion
[ 10718 10713 10712 10709 ] final   60.59 input   66.30 | X-H torsion
[ 10763 10752 10751 10750 ] final  -57.61 input  -60.55 | X-H torsion
[ 11005 11000 10999 10996 ] final -169.61 input  -57.11 | X-H torsion

> <Gold.Protein.ActiveResidues>
 VAL166  LYS551  ARG553  GLY616  TRP617  ASP618  TYR619  PRO620  LYS621  CYS622 
 ASP623  PHE694  ASN695  SER759  ASP760  ASP761  ALA762  ILE779  LEU786  VAL792 
 PHE793  MET794  SER795  GLU796  ALA797  LYS798  CYS799  TRP800  GLU811  SER814 

> <Gold.Protein.RotatedAtoms>
  152.4280  133.7229  159.6543 H   0  0  0  0  0  0  0  0  0  0  0  0  # atno 6907 bound_to 6896
  150.8158  133.8329  159.3167 H   0  0  0  0  0  0  0  0  0  0  0  0  # atno 6908 bound_to 6896
  151.6026  135.1048  160.0115 H   0  0  0  0  0  0  0  0  0  0  0  0  # atno 6909 bound_to 6896
  145.5463  140.9503  143.1524 H   0  0  0  0  0  0  0  0  0  0  0  0  # atno 7974 bound_to 7965
  155.9309  140.3415  155.6248 H   0  0  0  0  0  0  0  0  0  0  0  0  # atno 8008 bound_to 7997
  155.7158  140.0777  157.2370 H   0  0  0  0  0  0  0  0  0  0  0  0  # atno 8009 bound_to 7997
  154.4085  140.1614  156.2335 H   0  0  0  0  0  0  0  0  0  0  0  0  # atno 8010 bound_to 7997
  139.7286  144.7041  151.0758 H   0  0  0  0  0  0  0  0  0  0  0  0  # atno 10167 bound_to 10162
  157.5764  130.8947  149.9355 H   0  0  0  0  0  0  0  0  0  0  0  0  # atno 10718 bound_to 10713
  154.2251  135.6371  153.5157 H   0  0  0  0  0  0  0  0  0  0  0  0  # atno 10763 bound_to 10752
  152.9960  135.5506  154.6073 H   0  0  0  0  0  0  0  0  0  0  0  0  # atno 10764 bound_to 10752
  154.5542  135.2904  155.0954 H   0  0  0  0  0  0  0  0  0  0  0  0  # atno 10765 bound_to 10752
  140.5288  134.5637  157.5069 H   0  0  0  0  0  0  0  0  0  0  0  0  # atno 11005 bound_to 11000
  144.7552  139.7093  143.7257 LP  0  0  0  0  0  0  0  0  0  0  0  0  # atno 17320 bound_to 7965
  146.1947  139.5207  142.9782 LP  0  0  0  0  0  0  0  0  0  0  0  0  # atno 17321 bound_to 7965
  140.7767  143.5072  150.9697 LP  0  0  0  0  0  0  0  0  0  0  0  0  # atno 17342 bound_to 10162
  139.8760  143.7132  152.3162 LP  0  0  0  0  0  0  0  0  0  0  0  0  # atno 17343 bound_to 10162
  156.0809  130.3673  150.0582 LP  0  0  0  0  0  0  0  0  0  0  0  0  # atno 17370 bound_to 10713
  156.8728  130.9530  151.3607 LP  0  0  0  0  0  0  0  0  0  0  0  0  # atno 17371 bound_to 10713
  139.9566  134.7525  156.0329 LP  0  0  0  0  0  0  0  0  0  0  0  0  # atno 17394 bound_to 11000
  141.1293  133.6590  156.3422 LP  0  0  0  0  0  0  0  0  0  0  0  0  # atno 17395 bound_to 11000

$$$$
