AV-unprocessed.smi:2885|AV-procd|sdf|11086|dock5
  -GOLD-   2272015563D 1   1.00000     0.00000
 Structure written by MMmdl.
 40 42  0  0  0  0  0  0  0  0  1 V2000
  146.4021  139.7875  152.8451 N   0  0  0  0  0  0  0  0  0  0  0  0
  146.9278  140.5267  153.8260 C   0  0  0  0  0  0  0  0  0  0  0  0
  146.2944  141.4164  154.3898 O   0  0  0  0  0  0  0  0  0  0  0  0
  148.3503  140.2271  154.1446 C   0  0  0  0  0  0  0  0  0  0  0  0
  149.0788  139.1310  153.7394 C   0  0  0  0  0  0  0  0  0  0  0  0
  150.3415  139.2551  154.3064 N   0  0  0  0  0  0  0  0  0  0  0  0
  151.4361  138.3053  154.1522 C   0  0  0  0  0  0  0  0  0  0  0  0
  151.1904  137.0139  154.9372 C   0  0  0  0  0  0  0  0  0  0  0  0
  151.9232  136.7231  155.8821 O   0  0  0  0  0  0  0  0  0  0  0  0
  150.1478  136.2615  154.5514 N   0  0  0  0  0  0  0  0  0  0  0  0
  149.6666  135.0770  155.2496 C   0  0  0  0  0  0  0  0  0  0  0  0
  149.9129  133.8196  154.4190 C   0  0  0  0  0  0  0  0  0  0  0  0
  148.8280  133.3159  153.4566 C   0  0  0  0  0  0  0  0  0  0  0  0
  149.2618  131.8856  153.7902 C   0  0  0  0  0  0  0  0  0  0  0  0
  149.8557  132.4379  155.0886 C   0  0  0  0  0  0  0  0  0  0  0  0
  150.3206  140.4076  155.0074 C   0  0  0  0  0  0  0  0  0  0  0  0
  151.4840  140.9036  155.8066 C   0  0  0  0  0  0  0  0  0  0  0  0
  151.4735  140.8476  157.3181 C   0  0  0  0  0  0  0  0  0  0  0  0
  151.3917  142.1780  156.6161 C   0  0  0  0  0  0  0  0  0  0  0  0
  149.1425  141.0213  154.9680 N   0  0  0  0  0  0  0  0  0  0  0  0
  145.4435  139.9361  152.5655 H   0  0  0  0  0  0  0  0  0  0  0  0
  146.9667  139.0898  152.3838 H   0  0  0  0  0  0  0  0  0  0  0  0
  148.8099  138.2889  153.1186 H   0  0  0  0  0  0  0  0  0  0  0  0
  151.5557  138.0645  153.0951 H   0  0  0  0  0  0  0  0  0  0  0  0
  152.3637  138.7768  154.4777 H   0  0  0  0  0  0  0  0  0  0  0  0
  149.6044  136.5762  153.7608 H   0  0  0  0  0  0  0  0  0  0  0  0
  150.1899  135.0120  156.2038 H   0  0  0  0  0  0  0  0  0  0  0  0
  148.6071  135.1838  155.4873 H   0  0  0  0  0  0  0  0  0  0  0  0
  150.8522  133.8976  153.8667 H   0  0  0  0  0  0  0  0  0  0  0  0
  147.8167  133.5400  153.8003 H   0  0  0  0  0  0  0  0  0  0  0  0
  148.9721  133.6060  152.4154 H   0  0  0  0  0  0  0  0  0  0  0  0
  148.4425  131.1790  153.9255 H   0  0  0  0  0  0  0  0  0  0  0  0
  150.0213  131.5026  153.1065 H   0  0  0  0  0  0  0  0  0  0  0  0
  150.8270  132.0245  155.3625 H   0  0  0  0  0  0  0  0  0  0  0  0
  149.1536  132.4000  155.9232 H   0  0  0  0  0  0  0  0  0  0  0  0
  152.4215  140.6852  155.2986 H   0  0  0  0  0  0  0  0  0  0  0  0
  150.5718  140.4844  157.8077 H   0  0  0  0  0  0  0  0  0  0  0  0
  152.4076  140.5991  157.8175 H   0  0  0  0  0  0  0  0  0  0  0  0
  152.2708  142.8185  156.6415 H   0  0  0  0  0  0  0  0  0  0  0  0
  150.4353  142.6965  156.6409 H   0  0  0  0  0  0  0  0  0  0  0  0
  1  2  1  0  0  0  0
  1 21  1  0  0  0  0
  1 22  1  0  0  0  0
  2  3  2  0  0  0  0
  2  4  1  0  0  0  0
  4 20  1  0  0  0  0
  4  5  2  0  0  0  0
  5  6  1  0  0  0  0
  5 23  1  0  0  0  0
  6  7  1  0  0  0  0
  6 16  1  0  0  0  0
  7  8  1  0  0  0  0
  7 24  1  0  0  0  0
  7 25  1  0  0  0  0
  8  9  2  0  0  0  0
  8 10  1  0  0  0  0
 10 11  1  0  0  0  0
 10 26  1  0  0  0  0
 11 12  1  0  0  0  0
 11 27  1  0  0  0  0
 11 28  1  0  0  0  0
 12 15  1  0  0  0  0
 12 13  1  0  0  0  0
 12 29  1  0  0  0  0
 13 14  1  0  0  0  0
 13 30  1  0  0  0  0
 13 31  1  0  0  0  0
 14 15  1  0  0  0  0
 14 32  1  0  0  0  0
 14 33  1  0  0  0  0
 15 34  1  0  0  0  0
 15 35  1  0  0  0  0
 16 17  1  0  0  0  0
 16 20  2  0  0  0  0
 17 19  1  0  0  0  0
 17 18  1  0  0  0  0
 17 36  1  0  0  0  0
 18 19  1  0  0  0  0
 18 37  1  0  0  0  0
 18 38  1  0  0  0  0
 19 39  1  0  0  0  0
 19 40  1  0  0  0  0
M  END
> <s_m_source_file>
AV-unprocessed.smi

> <i_m_source_file_index>
2885

> <i_lp_mmshare_version>
43012

> <i_f3d_flags>
0

> <s_epik_input>
W05IMl1DKD1PKWMxW2NIXW4oYyhuMSlbQ0hdMltDSDJdW0NIMl0yKVtDSDJdQyg9TylbTkhdW0NIMl1bQ0hdM1tDSDJdW0NIMl1bQ0gyXTM=

> <s_epik_cmdline>
J2VwaWtfcHl0aG9uJywgJy1waCcsICc3LjAnLCAnLXRuJywgJzgnLCAnLW1hJywgJzIwMCcsICctbWV0YWxfYmluZGluZycsICctaW1hZScsICc8aW5maWxlLm1hZT4nLCAnLW9tYWUnLCAnPG91dGZpbGUubWFlPic=

> <r_lp_tautomer_probability>
1

> <r_epik_Ionization_Penalty>
0.00135877

> <r_epik_Ionization_Penalty_Charging>
0.00135847

> <r_epik_Ionization_Penalty_Neutral>
3.0068e-07

> <r_epik_State_Penalty>
0.000904027

> <r_epik_Charging_Adjusted_Penalty>
0.00226249

> <i_epik_Tot_Q>
0

> <i_epik_Tot_abs_Q>
0

> <r_epik_Metal_State_Penalty>
-0

> <b_epik_Metal_Only>
0

> <s_lp_Force_Field>
OPLS_2005

> <r_lp_Energy>
17.7141

> <b_lp_Chiralities_Consistent>
1

> <s_lp_Variant>
AV-unprocessed.smi:2885-1

> <Gold.Version>
5.8.1

> <Gold.Id.Protein>
6NUR|6NUR_protein|mol2

> <Gold.PLP.Fitness>
48.6069

> <Gold.PLP.PLP>
-37.5764

> <Gold.PLP.part.hbond>
-3.2312

> <Gold.PLP.part.metal>
0.0000

> <Gold.PLP.part.buried>
-2.3818

> <Gold.PLP.part.nonpolar>
-32.6344

> <Gold.PLP.part.repulsive>
0.3561

> <Gold.PLP.ligand.clash>
0.0000

> <Gold.PLP.ligand.torsion>
0.6473

> <Gold.PLP.Chemscore.Hbond>
2.9920

> <Gold.PLP.Chemscore.CHOScore>
1.0228

> <Gold.PLP.Chemscore.Metal>
0.0000

> <Gold.Chemscore.Hbonds>
donor molecule, donor type, donor heavy atom, donor atom, acceptor molecule, acceptor atom, score
      L1  H     1    21       P1 10175  1.00
      L1  H    10    26       P1  7948  0.94
      P1  H 10752 10763       L1     9  0.94
      L1  C     5    23       P1  7948  1.00
      L1  C     5    23       P1  7957  0.02

> <Gold.PLP.Chemscore.Internal.Correction>
0.2809

> <Gold.Rescore>
     Score         DG    S(hbond)    S(metal)    S(lipo)     H(rot)  DE(clash)    DE(int)     intcor
     15.99     -17.11       2.65        0.00      67.08       1.98       0.26       0.86       ----

> <Gold.Chemscore.Fitness>
15.9903

> <Gold.Chemscore.DG>
-17.1101

> <Gold.Chemscore.ZeroCoef>
-5.4800

> <Gold.Chemscore.Hbond>
2.6490

> <Gold.Chemscore.Metal>
0.0000

> <Gold.Chemscore.Lipo>
67.0849

> <Gold.Chemscore.Internal_Hbond>
0.0000

> <Gold.Chemscore.DEClash>
0.2638

> <Gold.Chemscore.DEInternal>
0.8560

> <Gold.Chemscore.Rot>
1.9791

> <Gold.Chemscore.Internal.Correction>
   9.000000E+99

> <Gold.Chemscore.Hbonds>
donor molecule, donor type, donor heavy atom, donor atom, acceptor molecule, acceptor atom, score
      L1  H     1    21       P1 10175  0.98
      L1  H    10    26       P1  7948  0.61
      P1  H 10752 10763       L1     9  0.44

> <Gold.Chemscore.Hbond.Weighted>
-8.8477

> <Gold.Chemscore.Metal.Weighted>
-0.0000

> <Gold.Chemscore.Lipo.Weighted>
-7.8489

> <Gold.Chemscore.Internal_Hbond.Weighted>
0.0000

> <Gold.Chemscore.DEClash.Weighted>
0.2638

> <Gold.Chemscore.DEInternal.Weighted>
0.8560

> <Gold.Chemscore.Rot.Weighted>
5.0665

> <Gold.Chemscore.Internal.Correction.Weighted>
   9.000000E+99

> <Gold.Protein.RotatedTorsions>
[ 6907 6896 6895 6894 ] final   80.77 input  -60.11 | X-H torsion
[ 7974 7965 7964 7962 ] final  144.36 input  175.53 | X-H torsion
[ 8008 7997 7996 7995 ] final   29.29 input   59.86 | X-H torsion
[ 10167 10162 10161 10158 ] final  -54.43 input  -65.29 | X-H torsion
[ 10718 10713 10712 10709 ] final   92.96 input   66.30 | X-H torsion
[ 10763 10752 10751 10750 ] final   99.06 input  -60.55 | X-H torsion
[ 11005 11000 10999 10996 ] final  -21.52 input  -57.11 | X-H torsion

> <Gold.Protein.ActiveResidues>
 VAL166  LYS551  ARG553  GLY616  TRP617  ASP618  TYR619  PRO620  LYS621  CYS622 
 ASP623  PHE694  ASN695  SER759  ASP760  ASP761  ALA762  ILE779  LEU786  VAL792 
 PHE793  MET794  SER795  GLU796  ALA797  LYS798  CYS799  TRP800  GLU811  SER814 

> <Gold.Protein.RotatedAtoms>
  152.5246  134.3306  159.9181 H   0  0  0  0  0  0  0  0  0  0  0  0  # atno 6907 bound_to 6896
  151.3255  133.4015  159.2666 H   0  0  0  0  0  0  0  0  0  0  0  0  # atno 6908 bound_to 6896
  150.9923  134.9272  159.7964 H   0  0  0  0  0  0  0  0  0  0  0  0  # atno 6909 bound_to 6896
  144.8842  139.5654  143.5828 H   0  0  0  0  0  0  0  0  0  0  0  0  # atno 7974 bound_to 7965
  155.0722  140.3201  155.4627 H   0  0  0  0  0  0  0  0  0  0  0  0  # atno 8008 bound_to 7997
  156.2788  140.2110  156.5795 H   0  0  0  0  0  0  0  0  0  0  0  0  # atno 8009 bound_to 7997
  154.7045  140.0504  157.0478 H   0  0  0  0  0  0  0  0  0  0  0  0  # atno 8010 bound_to 7997
  140.6431  143.2519  151.4935 H   0  0  0  0  0  0  0  0  0  0  0  0  # atno 10167 bound_to 10162
  157.6957  131.0461  150.3960 H   0  0  0  0  0  0  0  0  0  0  0  0  # atno 10718 bound_to 10713
  153.2967  135.4126  155.1216 H   0  0  0  0  0  0  0  0  0  0  0  0  # atno 10763 bound_to 10752
  154.8537  135.3531  154.5907 H   0  0  0  0  0  0  0  0  0  0  0  0  # atno 10764 bound_to 10752
  153.6331  135.7060  153.5326 H   0  0  0  0  0  0  0  0  0  0  0  0  # atno 10765 bound_to 10752
  140.8569  133.7816  156.0029 H   0  0  0  0  0  0  0  0  0  0  0  0  # atno 11005 bound_to 11000
  146.3014  139.7438  142.9088 LP  0  0  0  0  0  0  0  0  0  0  0  0  # atno 17320 bound_to 7965
  145.3899  141.0371  143.3130 LP  0  0  0  0  0  0  0  0  0  0  0  0  # atno 17321 bound_to 7965
  139.5640  144.2086  152.1737 LP  0  0  0  0  0  0  0  0  0  0  0  0  # atno 17342 bound_to 10162
  140.1362  144.5243  150.6772 LP  0  0  0  0  0  0  0  0  0  0  0  0  # atno 17343 bound_to 10162
  156.4359  130.3981  149.6729 LP  0  0  0  0  0  0  0  0  0  0  0  0  # atno 17370 bound_to 10713
  156.3930  130.7637  151.2639 LP  0  0  0  0  0  0  0  0  0  0  0  0  # atno 17371 bound_to 10713
  140.8727  134.2707  157.5183 LP  0  0  0  0  0  0  0  0  0  0  0  0  # atno 17394 bound_to 11000
  139.8705  134.9575  156.4272 LP  0  0  0  0  0  0  0  0  0  0  0  0  # atno 17395 bound_to 11000

$$$$
