AV-unprocessed.smi:1381|AV-procd|sdf|5616|dock6
  -GOLD-   22720 5223D 1   1.00000     0.00000
 Structure written by MMmdl.
 42 43  0  0  0  0  0  0  0  0  3 V2000
  144.1251  132.8977  149.3810 C   0  0  0  0  0  0  0  0  0  0  0  0
  144.9696  132.7052  150.5937 C   0  0  0  0  0  0  0  0  0  0  0  0
  145.5423  133.5782  151.4751 C   0  0  0  0  0  0  0  0  0  0  0  0
  146.2128  132.7205  152.3873 C   0  0  0  0  0  0  0  0  0  0  0  0
  146.9488  133.2561  153.4773 N   0  0  0  0  0  0  0  0  0  0  0  0
  148.0534  132.7669  154.0699 C   0  0  0  0  0  0  0  0  0  0  0  0
  148.5530  131.7044  153.6812 O   0  0  0  0  0  0  0  0  0  0  0  0
  148.4888  133.5622  155.0863 N   0  5  0  0  0  0  0  0  0  0  0  0
  149.4835  134.6250  154.9471 C   0  0  0  0  0  0  0  0  0  0  0  0
  148.8940  135.9716  155.4058 C   0  0  0  0  0  0  0  0  0  0  0  0
  149.5854  137.1073  154.7436 N   0  3  1  0  0  0  0  0  0  0  0  0
  148.8791  138.4021  154.8936 C   0  0  0  0  0  0  0  0  0  0  0  0
  149.6050  139.5012  154.0958 C   0  0  1  0  0  0  0  0  0  0  0  0
  148.9535  140.8761  154.2804 C   0  0  0  0  0  0  0  0  0  0  0  0
  150.9550  139.5843  154.5412 O   0  0  0  0  0  0  0  0  0  0  0  0
  151.6785  138.3758  154.3307 C   0  0  1  0  0  0  0  0  0  0  0  0
  153.1315  138.6076  154.7594 C   0  0  0  0  0  0  0  0  0  0  0  0
  151.0102  137.2433  155.1321 C   0  0  0  0  0  0  0  0  0  0  0  0
  146.0612  131.4387  152.0887 N   0  0  0  0  0  0  0  0  0  0  0  0
  145.2647  131.4225  150.9376 O   0  0  0  0  0  0  0  0  0  0  0  0
  143.5883  133.8451  149.4281 H   0  0  0  0  0  0  0  0  0  0  0  0
  143.3898  132.0983  149.2868 H   0  0  0  0  0  0  0  0  0  0  0  0
  144.7398  132.9010  148.4809 H   0  0  0  0  0  0  0  0  0  0  0  0
  145.4899  134.6567  151.4665 H   0  0  0  0  0  0  0  0  0  0  0  0
  146.5975  134.1234  153.8550 H   0  0  0  0  0  0  0  0  0  0  0  0
  150.3919  134.4187  155.5151 H   0  0  0  0  0  0  0  0  0  0  0  0
  149.8082  134.7218  153.9107 H   0  0  0  0  0  0  0  0  0  0  0  0
  147.8260  135.9953  155.1822 H   0  0  0  0  0  0  0  0  0  0  0  0
  148.9715  136.0645  156.4905 H   0  0  0  0  0  0  0  0  0  0  0  0
  147.8532  138.3016  154.5365 H   0  0  0  0  0  0  0  0  0  0  0  0
  148.8282  138.6697  155.9504 H   0  0  0  0  0  0  0  0  0  0  0  0
  149.5929  139.2527  153.0331 H   0  0  0  0  0  0  0  0  0  0  0  0
  147.9181  140.8691  153.9386 H   0  0  0  0  0  0  0  0  0  0  0  0
  149.4854  141.6383  153.7107 H   0  0  0  0  0  0  0  0  0  0  0  0
  148.9583  141.1788  155.3279 H   0  0  0  0  0  0  0  0  0  0  0  0
  151.6660  138.1308  153.2671 H   0  0  0  0  0  0  0  0  0  0  0  0
  153.7335  137.7116  154.6059 H   0  0  0  0  0  0  0  0  0  0  0  0
  153.1941  138.8768  155.8143 H   0  0  0  0  0  0  0  0  0  0  0  0
  153.5843  139.4145  154.1825 H   0  0  0  0  0  0  0  0  0  0  0  0
  151.0777  137.4461  156.2023 H   0  0  0  0  0  0  0  0  0  0  0  0
  151.5302  136.3017  154.9491 H   0  0  0  0  0  0  0  0  0  0  0  0
  149.5761  136.8919  153.7567 H   0  0  0  0  0  0  0  0  0  0  0  0
  1  2  1  0  0  0  0
  1 21  1  0  0  0  0
  1 22  1  0  0  0  0
  1 23  1  0  0  0  0
  2 20  1  0  0  0  0
  2  3  2  0  0  0  0
  3  4  1  0  0  0  0
  3 24  1  0  0  0  0
  4  5  1  0  0  0  0
  4 19  2  0  0  0  0
  5  6  1  0  0  0  0
  5 25  1  0  0  0  0
  6  7  2  0  0  0  0
  6  8  1  0  0  0  0
  8  9  1  0  0  0  0
  9 10  1  0  0  0  0
  9 26  1  0  0  0  0
  9 27  1  0  0  0  0
 10 11  1  0  0  0  0
 10 28  1  0  0  0  0
 10 29  1  0  0  0  0
 11 18  1  0  0  0  0
 11 12  1  0  0  0  0
 11 42  1  0  0  0  0
 12 13  1  0  0  0  0
 12 30  1  0  0  0  0
 12 31  1  0  0  0  0
 13 14  1  0  0  0  0
 13 15  1  0  0  0  0
 13 32  1  0  0  0  0
 14 33  1  0  0  0  0
 14 34  1  0  0  0  0
 14 35  1  0  0  0  0
 15 16  1  0  0  0  0
 16 17  1  0  0  0  0
 16 18  1  0  0  0  0
 16 36  1  0  0  0  0
 17 37  1  0  0  0  0
 17 38  1  0  0  0  0
 17 39  1  0  0  0  0
 18 40  1  0  0  0  0
 18 41  1  0  0  0  0
 19 20  1  0  0  0  0
M  CHG  1   8  -1
M  CHG  1  11   1
M  END
> <s_m_source_file>
AV-unprocessed.smi

> <i_m_source_file_index>
1381

> <i_lp_mmshare_version>
43012

> <i_f3d_flags>
0

> <s_epik_input>
W0NIM11jMVtjSF1jKG5vMSlbTkhdQyg9TylbTkhdW0NIMl1bQ0gyXU4yW0NIMl1bQ0BASF0oW0NIM10pT1tDQEBIXShbQ0gzXSlbQ0gyXTI=

> <s_epik_cmdline>
J2VwaWtfcHl0aG9uJywgJy1waCcsICc3LjAnLCAnLXRuJywgJzgnLCAnLW1hJywgJzIwMCcsICctbWV0YWxfYmluZGluZycsICctaW1hZScsICc8aW5maWxlLm1hZT4nLCAnLW9tYWUnLCAnPG91dGZpbGUubWFlPic=

> <r_epik_Ionization_Penalty>
6.8073

> <r_epik_Ionization_Penalty_Charging>
6.80729

> <r_epik_Ionization_Penalty_Neutral>
5.65391e-06

> <r_epik_State_Penalty>
7.47323

> <r_epik_Charging_Adjusted_Penalty>
14.2805

> <i_epik_Tot_Q>
0

> <i_epik_Tot_abs_Q>
2

> <r_epik_Metal_State_Penalty>
3.40035

> <b_epik_Metal_Only>
1

> <s_lp_Force_Field>
OPLS_2005

> <r_lp_Energy>
11.4992

> <b_lp_Chiralities_Consistent>
1

> <s_lp_Variant>
AV-unprocessed.smi:1381-15

> <Gold.Version>
5.8.1

> <Gold.Id.Protein>
6NUR|6NUR_protein|mol2

> <Gold.PLP.Fitness>
41.1081

> <Gold.PLP.PLP>
-34.3204

> <Gold.PLP.part.hbond>
-2.0000

> <Gold.PLP.part.metal>
0.0000

> <Gold.PLP.part.buried>
-6.1995

> <Gold.PLP.part.nonpolar>
-26.8919

> <Gold.PLP.part.repulsive>
0.7475

> <Gold.PLP.ligand.clash>
0.0000

> <Gold.PLP.ligand.torsion>
1.1538

> <Gold.PLP.Chemscore.Hbond>
3.0000

> <Gold.PLP.Chemscore.CHOScore>
0.0000

> <Gold.PLP.Chemscore.Metal>
0.0000

> <Gold.Chemscore.Hbonds>
donor molecule, donor type, donor heavy atom, donor atom, acceptor molecule, acceptor atom, score
      L1  H    11    42       P1  7948  1.79
      P1  H  7989  7998       L1    15  1.00

> <Gold.PLP.Chemscore.Internal.Correction>
0.0952

> <Gold.Rescore>
     Score         DG    S(hbond)    S(metal)    S(lipo)     H(rot)  DE(clash)    DE(int)     intcor
     12.51     -14.97       1.38        0.00      76.21       1.58       0.20       2.26       ----

> <Gold.Chemscore.Fitness>
12.5079

> <Gold.Chemscore.DG>
-14.9682

> <Gold.Chemscore.ZeroCoef>
-5.4800

> <Gold.Chemscore.Hbond>
1.3816

> <Gold.Chemscore.Metal>
0.0000

> <Gold.Chemscore.Lipo>
76.2087

> <Gold.Chemscore.Internal_Hbond>
0.0000

> <Gold.Chemscore.DEClash>
0.1990

> <Gold.Chemscore.DEInternal>
2.2613

> <Gold.Chemscore.Rot>
1.5792

> <Gold.Chemscore.Internal.Correction>
   9.000000E+99

> <Gold.Chemscore.Hbonds>
donor molecule, donor type, donor heavy atom, donor atom, acceptor molecule, acceptor atom, score
      L1  H    11    42       P1  7948  0.71
      P1  H  7989  7998       L1    15  0.28

> <Gold.Chemscore.Hbond.Weighted>
-4.6146

> <Gold.Chemscore.Metal.Weighted>
-0.0000

> <Gold.Chemscore.Lipo.Weighted>
-8.9164

> <Gold.Chemscore.Internal_Hbond.Weighted>
0.0000

> <Gold.Chemscore.DEClash.Weighted>
0.1990

> <Gold.Chemscore.DEInternal.Weighted>
2.2613

> <Gold.Chemscore.Rot.Weighted>
4.0428

> <Gold.Chemscore.Internal.Correction.Weighted>
   9.000000E+99

> <Gold.Protein.RotatedTorsions>
[ 6907 6896 6895 6894 ] final -141.85 input  -60.11 | X-H torsion
[ 7974 7965 7964 7962 ] final   80.47 input  175.53 | X-H torsion
[ 8008 7997 7996 7995 ] final   37.20 input   59.86 | X-H torsion
[ 10167 10162 10161 10158 ] final  142.04 input  -65.29 | X-H torsion
[ 10718 10713 10712 10709 ] final  -75.77 input   66.30 | X-H torsion
[ 10763 10752 10751 10750 ] final  102.93 input  -60.55 | X-H torsion
[ 11005 11000 10999 10996 ] final  151.55 input  -57.11 | X-H torsion

> <Gold.Protein.ActiveResidues>
 VAL166  LYS551  ARG553  GLY616  TRP617  ASP618  TYR619  PRO620  LYS621  CYS622 
 ASP623  PHE694  ASN695  SER759  ASP760  ASP761  ALA762  ILE779  LEU786  VAL792 
 PHE793  MET794  SER795  GLU796  ALA797  LYS798  CYS799  TRP800  GLU811  SER814 

> <Gold.Protein.RotatedAtoms>
  151.0792  133.5404  159.2621 H   0  0  0  0  0  0  0  0  0  0  0  0  # atno 6907 bound_to 6896
  151.2314  135.0555  159.8999 H   0  0  0  0  0  0  0  0  0  0  0  0  # atno 6908 bound_to 6896
  152.5421  134.0580  159.8193 H   0  0  0  0  0  0  0  0  0  0  0  0  # atno 6909 bound_to 6896
  145.6508  139.2447  143.1978 H   0  0  0  0  0  0  0  0  0  0  0  0  # atno 7974 bound_to 7965
  155.1999  140.3315  155.4345 H   0  0  0  0  0  0  0  0  0  0  0  0  # atno 8008 bound_to 7997
  156.2411  140.1895  156.7036 H   0  0  0  0  0  0  0  0  0  0  0  0  # atno 8009 bound_to 7997
  154.6149  140.0603  156.9526 H   0  0  0  0  0  0  0  0  0  0  0  0  # atno 8010 bound_to 7997
  139.5004  144.6133  151.6222 H   0  0  0  0  0  0  0  0  0  0  0  0  # atno 10167 bound_to 10162
  156.0196  130.4449  150.3093 H   0  0  0  0  0  0  0  0  0  0  0  0  # atno 10718 bound_to 10713
  153.3460  135.3994  155.1609 H   0  0  0  0  0  0  0  0  0  0  0  0  # atno 10763 bound_to 10752
  154.8653  135.3645  154.5284 H   0  0  0  0  0  0  0  0  0  0  0  0  # atno 10764 bound_to 10752
  153.5732  135.7078  153.5555 H   0  0  0  0  0  0  0  0  0  0  0  0  # atno 10765 bound_to 10752
  140.1229  134.8852  157.2097 H   0  0  0  0  0  0  0  0  0  0  0  0  # atno 11005 bound_to 11000
  146.1205  140.7315  142.9460 LP  0  0  0  0  0  0  0  0  0  0  0  0  # atno 17320 bound_to 7965
  144.7123  140.4085  143.7071 LP  0  0  0  0  0  0  0  0  0  0  0  0  # atno 17321 bound_to 7965
  140.5813  143.9940  150.6270 LP  0  0  0  0  0  0  0  0  0  0  0  0  # atno 17342 bound_to 10162
  140.3090  143.3210  152.0897 LP  0  0  0  0  0  0  0  0  0  0  0  0  # atno 17343 bound_to 10162
  157.1195  131.0243  151.3015 LP  0  0  0  0  0  0  0  0  0  0  0  0  # atno 17370 bound_to 10713
  157.4640  130.7670  149.7262 LP  0  0  0  0  0  0  0  0  0  0  0  0  # atno 17371 bound_to 10713
  140.2941  134.3206  155.7307 LP  0  0  0  0  0  0  0  0  0  0  0  0  # atno 17394 bound_to 11000
  141.2155  133.7552  156.9546 LP  0  0  0  0  0  0  0  0  0  0  0  0  # atno 17395 bound_to 11000

$$$$
