AV-unprocessed.smi:1460|AV-procd|sdf|5929|dock2
  -GOLD-   22720 6 13D 1   1.00000     0.00000
 Structure written by MMmdl.
 41 42  0  0  0  0  0  0  0  0  1 V2000
  151.9077  139.4963  159.0311 C   0  0  0  0  0  0  0  0  0  0  0  0
  151.3926  140.8966  158.6730 C   0  0  1  0  0  0  0  0  0  0  0  0
  152.5455  141.9226  158.6200 C   0  0  0  0  0  0  0  0  0  0  0  0
  152.1260  143.2607  158.9982 N   0  0  0  0  0  0  0  0  0  0  0  0
  152.5778  144.0378  160.0445 C   0  0  0  0  0  0  0  0  0  0  0  0
  151.9067  145.2254  159.9873 C   0  0  0  0  0  0  0  0  0  0  0  0
  151.0510  145.0757  158.8602 C   0  0  0  0  0  0  0  0  0  0  0  0
  151.1814  143.8973  158.2729 N   0  0  0  0  0  0  0  0  0  0  0  0
  150.6950  140.8310  157.3891 N   0  0  0  0  0  0  0  0  0  0  0  0
  151.2360  140.4487  156.2209 C   0  0  0  0  0  0  0  0  0  0  0  0
  152.4183  140.1283  156.0944 O   0  0  0  0  0  0  0  0  0  0  0  0
  150.2910  140.4018  155.0142 C   0  0  0  0  0  0  0  0  0  0  0  0
  149.4242  141.6811  154.9468 C   0  0  0  0  0  0  0  0  0  0  0  0
  148.3803  141.5862  153.8191 C   0  0  0  0  0  0  0  0  0  0  0  0
  147.5571  140.3840  154.0331 N   0  0  0  0  0  0  0  0  0  0  0  0
  146.2775  140.3598  154.4842 C   0  0  0  0  0  0  0  0  0  0  0  0
  145.6705  141.5493  154.5443 N   0  0  0  0  0  0  0  0  0  0  0  0
  145.6770  139.3291  154.7841 O   0  0  0  0  0  0  0  0  0  0  0  0
  148.3606  139.1609  153.9164 C   0  0  0  0  0  0  0  0  0  0  0  0
  149.4031  139.1362  155.0484 C   0  0  0  0  0  0  0  0  0  0  0  0
  152.4096  139.4998  159.9991 H   0  0  0  0  0  0  0  0  0  0  0  0
  152.6188  139.1312  158.2894 H   0  0  0  0  0  0  0  0  0  0  0  0
  151.0882  138.7791  159.0896 H   0  0  0  0  0  0  0  0  0  0  0  0
  150.6947  141.1916  159.4591 H   0  0  0  0  0  0  0  0  0  0  0  0
  153.3486  141.6193  159.2933 H   0  0  0  0  0  0  0  0  0  0  0  0
  152.9786  141.9614  157.6196 H   0  0  0  0  0  0  0  0  0  0  0  0
  153.3370  143.6883  160.7283 H   0  0  0  0  0  0  0  0  0  0  0  0
  152.0121  146.0731  160.6478 H   0  0  0  0  0  0  0  0  0  0  0  0
  150.3435  145.7833  158.4542 H   0  0  0  0  0  0  0  0  0  0  0  0
  149.7159  141.0782  157.3939 H   0  0  0  0  0  0  0  0  0  0  0  0
  150.8925  140.3600  154.1042 H   0  0  0  0  0  0  0  0  0  0  0  0
  148.9106  141.8433  155.8960 H   0  0  0  0  0  0  0  0  0  0  0  0
  150.0586  142.5540  154.7873 H   0  0  0  0  0  0  0  0  0  0  0  0
  147.8072  142.5119  153.7719 H   0  0  0  0  0  0  0  0  0  0  0  0
  148.8821  141.5079  152.8535 H   0  0  0  0  0  0  0  0  0  0  0  0
  144.7177  141.6128  154.8712 H   0  0  0  0  0  0  0  0  0  0  0  0
  146.1710  142.3797  154.2627 H   0  0  0  0  0  0  0  0  0  0  0  0
  147.7536  138.2549  153.9487 H   0  0  0  0  0  0  0  0  0  0  0  0
  148.8591  139.1466  152.9460 H   0  0  0  0  0  0  0  0  0  0  0  0
  150.0218  138.2425  154.9582 H   0  0  0  0  0  0  0  0  0  0  0  0
  148.8862  139.0584  156.0063 H   0  0  0  0  0  0  0  0  0  0  0  0
  1  2  1  0  0  0  0
  1 21  1  0  0  0  0
  1 22  1  0  0  0  0
  1 23  1  0  0  0  0
  2  3  1  0  0  0  0
  2  9  1  0  0  0  0
  2 24  1  0  0  0  0
  3  4  1  0  0  0  0
  3 25  1  0  0  0  0
  3 26  1  0  0  0  0
  4  8  1  0  0  0  0
  4  5  1  0  0  0  0
  5  6  2  0  0  0  0
  5 27  1  0  0  0  0
  6  7  1  0  0  0  0
  6 28  1  0  0  0  0
  7  8  2  0  0  0  0
  7 29  1  0  0  0  0
  9 10  1  0  0  0  0
  9 30  1  0  0  0  0
 10 11  2  0  0  0  0
 10 12  1  0  0  0  0
 12 20  1  0  0  0  0
 12 13  1  0  0  0  0
 12 31  1  0  0  0  0
 13 14  1  0  0  0  0
 13 32  1  0  0  0  0
 13 33  1  0  0  0  0
 14 15  1  0  0  0  0
 14 34  1  0  0  0  0
 14 35  1  0  0  0  0
 15 16  1  0  0  0  0
 15 19  1  0  0  0  0
 16 17  1  0  0  0  0
 16 18  2  0  0  0  0
 17 36  1  0  0  0  0
 17 37  1  0  0  0  0
 19 20  1  0  0  0  0
 19 38  1  0  0  0  0
 19 39  1  0  0  0  0
 20 40  1  0  0  0  0
 20 41  1  0  0  0  0
M  END
> <s_m_source_file>
AV-unprocessed.smi

> <i_m_source_file_index>
1460

> <i_lp_mmshare_version>
43012

> <i_f3d_flags>
0

> <s_epik_input>
bjFbY0hdW2NIXVtjSF1uMVtDSDJdW0NAQEhdKFtDSDNdKVtOSF1DKD1PKVtDSF0yW0NIMl1bQ0gyXU4oQyg9TylbTkgyXSlbQ0gyXVtDSDJdMg==

> <s_epik_cmdline>
J2VwaWtfcHl0aG9uJywgJy1waCcsICc3LjAnLCAnLXRuJywgJzgnLCAnLW1hJywgJzIwMCcsICctbWV0YWxfYmluZGluZycsICctaW1hZScsICc8aW5maWxlLm1hZT4nLCAnLW9tYWUnLCAnPG91dGZpbGUubWFlPic=

> <r_lp_tautomer_probability>
1

> <r_epik_Ionization_Penalty>
0.000387527

> <r_epik_Ionization_Penalty_Charging>
0

> <r_epik_Ionization_Penalty_Neutral>
0.000387527

> <r_epik_State_Penalty>
-0

> <r_epik_Charging_Adjusted_Penalty>
0

> <i_epik_Tot_Q>
0

> <i_epik_Tot_abs_Q>
0

> <r_epik_Metal_State_Penalty>
-0

> <b_epik_Metal_Only>
0

> <s_lp_Force_Field>
OPLS_2005

> <r_lp_Energy>
25.9922

> <b_lp_Chiralities_Consistent>
1

> <s_lp_Variant>
AV-unprocessed.smi:1460-2

> <Gold.Version>
5.8.1

> <Gold.Id.Protein>
6NUR|6NUR_protein|mol2

> <Gold.PLP.Fitness>
41.6754

> <Gold.PLP.PLP>
-37.2408

> <Gold.PLP.part.hbond>
-2.0000

> <Gold.PLP.part.metal>
0.0000

> <Gold.PLP.part.buried>
-1.5489

> <Gold.PLP.part.nonpolar>
-33.5996

> <Gold.PLP.part.repulsive>
0.2652

> <Gold.PLP.ligand.clash>
0.0000

> <Gold.PLP.ligand.torsion>
0.8303

> <Gold.PLP.Chemscore.Hbond>
1.0000

> <Gold.PLP.Chemscore.CHOScore>
1.0000

> <Gold.PLP.Chemscore.Metal>
0.0000

> <Gold.Chemscore.Hbonds>
donor molecule, donor type, donor heavy atom, donor atom, acceptor molecule, acceptor atom, score
      P1  H  7997  8008       L1    11  1.00
      L1  C     7    29       P1  8029  0.58

> <Gold.PLP.Chemscore.Internal.Correction>
0.0953

> <Gold.Rescore>
     Score         DG    S(hbond)    S(metal)    S(lipo)     H(rot)  DE(clash)    DE(int)     intcor
     12.92     -14.97       0.99        0.00      92.59       1.82       0.47       1.58       ----

> <Gold.Chemscore.Fitness>
12.9236

> <Gold.Chemscore.DG>
-14.9735

> <Gold.Chemscore.ZeroCoef>
-5.4800

> <Gold.Chemscore.Hbond>
0.9944

> <Gold.Chemscore.Metal>
0.0000

> <Gold.Chemscore.Lipo>
92.5888

> <Gold.Chemscore.Internal_Hbond>
0.0000

> <Gold.Chemscore.DEClash>
0.4732

> <Gold.Chemscore.DEInternal>
1.5768

> <Gold.Chemscore.Rot>
1.8206

> <Gold.Chemscore.Internal.Correction>
   9.000000E+99

> <Gold.Chemscore.Hbonds>
donor molecule, donor type, donor heavy atom, donor atom, acceptor molecule, acceptor atom, score
      P1  H  7997  8008       L1    11  0.99

> <Gold.Chemscore.Hbond.Weighted>
-3.3213

> <Gold.Chemscore.Metal.Weighted>
-0.0000

> <Gold.Chemscore.Lipo.Weighted>
-10.8329

> <Gold.Chemscore.Internal_Hbond.Weighted>
0.0000

> <Gold.Chemscore.DEClash.Weighted>
0.4732

> <Gold.Chemscore.DEInternal.Weighted>
1.5768

> <Gold.Chemscore.Rot.Weighted>
4.6607

> <Gold.Chemscore.Internal.Correction.Weighted>
   9.000000E+99

> <Gold.Protein.RotatedTorsions>
[ 6907 6896 6895 6894 ] final   33.96 input  -60.11 | X-H torsion
[ 7974 7965 7964 7962 ] final   31.07 input  175.53 | X-H torsion
[ 8008 7997 7996 7995 ] final  -33.98 input   59.86 | X-H torsion
[ 10167 10162 10161 10158 ] final  -48.38 input  -65.29 | X-H torsion
[ 10718 10713 10712 10709 ] final  145.88 input   66.30 | X-H torsion
[ 10763 10752 10751 10750 ] final -137.41 input  -60.55 | X-H torsion
[ 11005 11000 10999 10996 ] final  105.37 input  -57.11 | X-H torsion

> <Gold.Protein.ActiveResidues>
 VAL166  LYS551  ARG553  GLY616  TRP617  ASP618  TYR619  PRO620  LYS621  CYS622 
 ASP623  PHE694  ASN695  SER759  ASP760  ASP761  ALA762  ILE779  LEU786  VAL792 
 PHE793  MET794  SER795  GLU796  ALA797  LYS798  CYS799  TRP800  GLU811  SER814 

> <Gold.Protein.RotatedAtoms>
  152.0958  134.9376  160.0570 H   0  0  0  0  0  0  0  0  0  0  0  0  # atno 6907 bound_to 6896
  152.0610  133.4057  159.4426 H   0  0  0  0  0  0  0  0  0  0  0  0  # atno 6908 bound_to 6896
  150.6838  134.3121  159.4794 H   0  0  0  0  0  0  0  0  0  0  0  0  # atno 6909 bound_to 6896
  146.1573  139.6705  142.9058 H   0  0  0  0  0  0  0  0  0  0  0  0  # atno 7974 bound_to 7965
  154.4133  140.1696  156.1976 H   0  0  0  0  0  0  0  0  0  0  0  0  # atno 8008 bound_to 7997
  155.9551  140.3398  155.6418 H   0  0  0  0  0  0  0  0  0  0  0  0  # atno 8009 bound_to 7997
  155.6820  140.0723  157.2472 H   0  0  0  0  0  0  0  0  0  0  0  0  # atno 8010 bound_to 7997
  140.6733  143.2743  151.4062 H   0  0  0  0  0  0  0  0  0  0  0  0  # atno 10167 bound_to 10162
  157.3400  131.0934  151.1091 H   0  0  0  0  0  0  0  0  0  0  0  0  # atno 10718 bound_to 10713
  154.8662  135.3643  154.5219 H   0  0  0  0  0  0  0  0  0  0  0  0  # atno 10763 bound_to 10752
  153.5848  135.7017  153.5452 H   0  0  0  0  0  0  0  0  0  0  0  0  # atno 10764 bound_to 10752
  153.3425  135.4094  155.1545 H   0  0  0  0  0  0  0  0  0  0  0  0  # atno 10765 bound_to 10752
  139.8801  134.9333  156.5503 H   0  0  0  0  0  0  0  0  0  0  0  0  # atno 11005 bound_to 11000
  145.4677  141.0435  143.2716 LP  0  0  0  0  0  0  0  0  0  0  0  0  # atno 17320 bound_to 7965
  144.7980  139.6196  143.7084 LP  0  0  0  0  0  0  0  0  0  0  0  0  # atno 17321 bound_to 7965
  139.6013  144.1290  152.2201 LP  0  0  0  0  0  0  0  0  0  0  0  0  # atno 17342 bound_to 10162
  140.0675  144.5806  150.7216 LP  0  0  0  0  0  0  0  0  0  0  0  0  # atno 17343 bound_to 10162
  157.2306  130.6523  149.5848 LP  0  0  0  0  0  0  0  0  0  0  0  0  # atno 17370 bound_to 10713
  155.9706  130.4600  150.6056 LP  0  0  0  0  0  0  0  0  0  0  0  0  # atno 17371 bound_to 10713
  140.8245  133.8327  155.8926 LP  0  0  0  0  0  0  0  0  0  0  0  0  # atno 17394 bound_to 11000
  140.9387  134.1928  157.4813 LP  0  0  0  0  0  0  0  0  0  0  0  0  # atno 17395 bound_to 11000

$$$$
