AV-unprocessed.smi:3280|AV-procd|sdf|12552|dock7
  -GOLD-   2272018473D 1   1.00000     0.00000
 Structure written by MMmdl.
 39 40  0  0  0  0  0  0  0  0  2 V2000
  149.6366  140.7344  154.4811 C   0  0  0  0  0  0  0  0  0  0  0  0
  148.2216  140.9244  153.9139 C   0  0  0  0  0  0  0  0  0  0  0  0
  147.4753  142.1063  154.5502 C   0  0  0  0  0  0  0  0  0  0  0  0
  147.4188  139.6614  153.9844 C   0  0  0  0  0  0  0  0  0  0  0  0
  147.1061  139.1087  155.1512 N   0  0  0  0  0  0  0  0  0  0  0  0
  146.3908  137.9596  154.7868 O   0  0  0  0  0  0  0  0  0  0  0  0
  146.3450  137.9675  153.4337 C   0  0  0  0  0  0  0  0  0  0  0  0
  145.6846  136.8306  152.7288 C   0  0  0  0  0  0  0  0  0  0  0  0
  145.8945  136.8860  151.2104 C   0  0  0  0  0  0  0  0  0  0  0  0
  146.5822  135.6700  150.7261 N   0  3  0  0  0  0  0  0  0  0  0  0
  146.0522  134.3876  151.2424 C   0  0  2  0  0  0  0  0  0  0  0  0
  147.0480  133.2590  150.9083 C   0  0  0  0  0  0  0  0  0  0  0  0
  146.6294  131.8966  151.4848 C   0  0  0  0  0  0  0  0  0  0  0  0
  145.2790  131.4184  150.9358 C   0  0  0  0  0  0  0  0  0  0  0  0
  143.9521  132.5697  151.3798 S   0  0  0  0  0  0  0  0  0  0  0  0
  144.6519  134.0841  150.6683 C   0  0  0  0  0  0  0  0  0  0  0  0
  146.9876  138.9909  152.8786 N   0  0  0  0  0  0  0  0  0  0  0  0
  150.1638  139.9334  153.9616 H   0  0  0  0  0  0  0  0  0  0  0  0
  149.6093  140.4827  155.5418 H   0  0  0  0  0  0  0  0  0  0  0  0
  150.2275  141.6440  154.3716 H   0  0  0  0  0  0  0  0  0  0  0  0
  148.3462  141.1711  152.8580 H   0  0  0  0  0  0  0  0  0  0  0  0
  146.5062  142.2596  154.0743 H   0  0  0  0  0  0  0  0  0  0  0  0
  148.0438  143.0308  154.4461 H   0  0  0  0  0  0  0  0  0  0  0  0
  147.3029  141.9411  155.6140 H   0  0  0  0  0  0  0  0  0  0  0  0
  146.0804  135.8968  153.1305 H   0  0  0  0  0  0  0  0  0  0  0  0
  144.6194  136.8477  152.9638 H   0  0  0  0  0  0  0  0  0  0  0  0
  144.9294  136.9806  150.7103 H   0  0  0  0  0  0  0  0  0  0  0  0
  146.4800  137.7691  150.9549 H   0  0  0  0  0  0  0  0  0  0  0  0
  146.5581  135.6527  149.7164 H   0  0  0  0  0  0  0  0  0  0  0  0
  145.9832  134.4678  152.3285 H   0  0  0  0  0  0  0  0  0  0  0  0
  147.1648  133.1746  149.8268 H   0  0  0  0  0  0  0  0  0  0  0  0
  148.0328  133.5157  151.3007 H   0  0  0  0  0  0  0  0  0  0  0  0
  147.3942  131.1566  151.2474 H   0  0  0  0  0  0  0  0  0  0  0  0
  146.5864  131.9515  152.5733 H   0  0  0  0  0  0  0  0  0  0  0  0
  145.3199  131.3221  149.8502 H   0  0  0  0  0  0  0  0  0  0  0  0
  145.0355  130.4336  151.3353 H   0  0  0  0  0  0  0  0  0  0  0  0
  143.9529  134.8919  150.8814 H   0  0  0  0  0  0  0  0  0  0  0  0
  144.6956  133.9781  149.5837 H   0  0  0  0  0  0  0  0  0  0  0  0
  147.5461  135.7363  151.0209 H   0  0  0  0  0  0  0  0  0  0  0  0
  1  2  1  0  0  0  0
  1 18  1  0  0  0  0
  1 19  1  0  0  0  0
  1 20  1  0  0  0  0
  2  3  1  0  0  0  0
  2  4  1  0  0  0  0
  2 21  1  0  0  0  0
  3 22  1  0  0  0  0
  3 23  1  0  0  0  0
  3 24  1  0  0  0  0
  4 17  1  0  0  0  0
  4  5  2  0  0  0  0
  5  6  1  0  0  0  0
  6  7  1  0  0  0  0
  7  8  1  0  0  0  0
  7 17  2  0  0  0  0
  8  9  1  0  0  0  0
  8 25  1  0  0  0  0
  8 26  1  0  0  0  0
  9 10  1  0  0  0  0
  9 27  1  0  0  0  0
  9 28  1  0  0  0  0
 10 11  1  0  0  0  0
 10 29  1  0  0  0  0
 10 39  1  0  0  0  0
 11 16  1  0  0  0  0
 11 12  1  0  0  0  0
 11 30  1  0  0  0  0
 12 13  1  0  0  0  0
 12 31  1  0  0  0  0
 12 32  1  0  0  0  0
 13 14  1  0  0  0  0
 13 33  1  0  0  0  0
 13 34  1  0  0  0  0
 14 15  1  0  0  0  0
 14 35  1  0  0  0  0
 14 36  1  0  0  0  0
 15 16  1  0  0  0  0
 16 37  1  0  0  0  0
 16 38  1  0  0  0  0
M  CHG  1  10   1
M  END
> <s_m_source_file>
AV-unprocessed.smi

> <i_m_source_file_index>
3280

> <i_lp_mmshare_version>
43012

> <i_f3d_flags>
0

> <s_epik_input>
W0NIM11bQ0hdKFtDSDNdKWMxbm9jKG4xKVtDSDJdW0NIMl1bTkhdW0NAQEhdMltDSDJdW0NIMl1bQ0gyXVNbQ0gyXTI=

> <s_epik_cmdline>
J2VwaWtfcHl0aG9uJywgJy1waCcsICc3LjAnLCAnLXRuJywgJzgnLCAnLW1hJywgJzIwMCcsICctbWV0YWxfYmluZGluZycsICctaW1hZScsICc8aW5maWxlLm1hZT4nLCAnLW9tYWUnLCAnPG91dGZpbGUubWFlPic=

> <r_lp_tautomer_probability>
1

> <r_epik_Ionization_Penalty>
0.0103043

> <r_epik_Ionization_Penalty_Charging>
0.0103043

> <r_epik_Ionization_Penalty_Neutral>
2.61801e-13

> <r_epik_State_Penalty>
0.0078728

> <r_epik_Charging_Adjusted_Penalty>
0.0181771

> <i_epik_Tot_Q>
1

> <i_epik_Tot_abs_Q>
1

> <r_epik_Metal_State_Penalty>
0.0078728

> <b_epik_Metal_Only>
0

> <s_lp_Force_Field>
OPLS_2005

> <r_lp_Energy>
0.790669

> <b_lp_Chiralities_Consistent>
1

> <s_lp_Variant>
AV-unprocessed.smi:3280-1

> <Gold.Version>
5.8.1

> <Gold.Id.Protein>
6NUR|6NUR_protein|mol2

> <Gold.PLP.Fitness>
37.5719

> <Gold.PLP.PLP>
-29.6118

> <Gold.PLP.part.hbond>
-2.0000

> <Gold.PLP.part.metal>
0.0000

> <Gold.PLP.part.buried>
3.0449

> <Gold.PLP.part.nonpolar>
-31.6667

> <Gold.PLP.part.repulsive>
0.6250

> <Gold.PLP.ligand.clash>
0.0000

> <Gold.PLP.ligand.torsion>
0.5540

> <Gold.PLP.Chemscore.Hbond>
2.9913

> <Gold.PLP.Chemscore.CHOScore>
0.0000

> <Gold.PLP.Chemscore.Metal>
0.0000

> <Gold.Chemscore.Hbonds>
donor molecule, donor type, donor heavy atom, donor atom, acceptor molecule, acceptor atom, score
      L1  H    10    29       P1  7921  0.42
      L1  H    10    39       P1  7948  2.00

> <Gold.PLP.Chemscore.Internal.Correction>
0.0943

> <Gold.Rescore>
     Score         DG    S(hbond)    S(metal)    S(lipo)     H(rot)  DE(clash)    DE(int)     intcor
     11.77     -15.38       1.47        0.00      80.98       1.76       2.88       0.72       ----

> <Gold.Chemscore.Fitness>
11.7718

> <Gold.Chemscore.DG>
-15.3760

> <Gold.Chemscore.ZeroCoef>
-5.4800

> <Gold.Chemscore.Hbond>
1.4730

> <Gold.Chemscore.Metal>
0.0000

> <Gold.Chemscore.Lipo>
80.9786

> <Gold.Chemscore.Internal_Hbond>
0.0000

> <Gold.Chemscore.DEClash>
2.8809

> <Gold.Chemscore.DEInternal>
0.7233

> <Gold.Chemscore.Rot>
1.7572

> <Gold.Chemscore.Internal.Correction>
   9.000000E+99

> <Gold.Chemscore.Hbonds>
donor molecule, donor type, donor heavy atom, donor atom, acceptor molecule, acceptor atom, score
      L1  H    10    29       P1  7921  0.19
      L1  H    10    39       P1  7948  0.65

> <Gold.Chemscore.Hbond.Weighted>
-4.9198

> <Gold.Chemscore.Metal.Weighted>
-0.0000

> <Gold.Chemscore.Lipo.Weighted>
-9.4745

> <Gold.Chemscore.Internal_Hbond.Weighted>
0.0000

> <Gold.Chemscore.DEClash.Weighted>
2.8809

> <Gold.Chemscore.DEInternal.Weighted>
0.7233

> <Gold.Chemscore.Rot.Weighted>
4.4984

> <Gold.Chemscore.Internal.Correction.Weighted>
   9.000000E+99

> <Gold.Protein.RotatedTorsions>
[ 6907 6896 6895 6894 ] final -132.61 input  -60.11 | X-H torsion
[ 7974 7965 7964 7962 ] final -114.51 input  175.53 | X-H torsion
[ 8008 7997 7996 7995 ] final  123.02 input   59.86 | X-H torsion
[ 10167 10162 10161 10158 ] final  -33.16 input  -65.29 | X-H torsion
[ 10718 10713 10712 10709 ] final  -95.80 input   66.30 | X-H torsion
[ 10763 10752 10751 10750 ] final  -75.24 input  -60.55 | X-H torsion
[ 11005 11000 10999 10996 ] final -100.08 input  -57.11 | X-H torsion

> <Gold.Protein.ActiveResidues>
 VAL166  LYS551  ARG553  GLY616  TRP617  ASP618  TYR619  PRO620  LYS621  CYS622 
 ASP623  PHE694  ASN695  SER759  ASP760  ASP761  ALA762  ILE779  LEU786  VAL792 
 PHE793  MET794  SER795  GLU796  ALA797  LYS798  CYS799  TRP800  GLU811  SER814 

> <Gold.Protein.RotatedAtoms>
  150.9644  133.6411  159.2748 H   0  0  0  0  0  0  0  0  0  0  0  0  # atno 6907 bound_to 6896
  151.3722  135.0923  159.9479 H   0  0  0  0  0  0  0  0  0  0  0  0  # atno 6908 bound_to 6896
  152.5160  133.9196  159.7582 H   0  0  0  0  0  0  0  0  0  0  0  0  # atno 6909 bound_to 6896
  145.1193  140.8659  143.3823 H   0  0  0  0  0  0  0  0  0  0  0  0  # atno 7974 bound_to 7965
  156.2750  140.2772  156.1561 H   0  0  0  0  0  0  0  0  0  0  0  0  # atno 8008 bound_to 7997
  155.0803  140.0387  157.2654 H   0  0  0  0  0  0  0  0  0  0  0  0  # atno 8009 bound_to 7997
  154.6970  140.2641  155.6762 H   0  0  0  0  0  0  0  0  0  0  0  0  # atno 8010 bound_to 7997
  140.7209  143.3641  151.1906 H   0  0  0  0  0  0  0  0  0  0  0  0  # atno 10167 bound_to 10162
  156.0050  130.5124  150.6130 H   0  0  0  0  0  0  0  0  0  0  0  0  # atno 10718 bound_to 10713
  154.4839  135.5837  153.6410 H   0  0  0  0  0  0  0  0  0  0  0  0  # atno 10763 bound_to 10752
  152.9852  135.6096  154.3211 H   0  0  0  0  0  0  0  0  0  0  0  0  # atno 10764 bound_to 10752
  154.3104  135.2845  155.2548 H   0  0  0  0  0  0  0  0  0  0  0  0  # atno 10765 bound_to 10752
  141.1284  133.8371  157.1056 H   0  0  0  0  0  0  0  0  0  0  0  0  # atno 11005 bound_to 11000
  145.0758  139.2997  143.5808 LP  0  0  0  0  0  0  0  0  0  0  0  0  # atno 17320 bound_to 7965
  146.3522  140.0248  142.8655 LP  0  0  0  0  0  0  0  0  0  0  0  0  # atno 17321 bound_to 7965
  139.7199  143.9240  152.2981 LP  0  0  0  0  0  0  0  0  0  0  0  0  # atno 17342 bound_to 10162
  139.8994  144.6920  150.8682 LP  0  0  0  0  0  0  0  0  0  0  0  0  # atno 17343 bound_to 10162
  157.3959  131.0802  151.1352 LP  0  0  0  0  0  0  0  0  0  0  0  0  # atno 17370 bound_to 10713
  157.2029  130.6403  149.5745 LP  0  0  0  0  0  0  0  0  0  0  0  0  # atno 17371 bound_to 10713
  140.0306  134.9903  157.0773 LP  0  0  0  0  0  0  0  0  0  0  0  0  # atno 17394 bound_to 11000
  140.4291  134.1799  155.7167 LP  0  0  0  0  0  0  0  0  0  0  0  0  # atno 17395 bound_to 11000

$$$$
