AV-unprocessed.smi:82|AV-procd|sdf|796|dock3
  -GOLD-   2262017173D 1   1.00000     0.00000
 Structure written by MMmdl.
 59 62  0  0  0  0  0  0  0  0  2 V2000
  151.8808  144.7563  158.9252 C   0  0  0  0  0  0  0  0  0  0  0  0
  151.7440  143.9646  157.7553 O   0  0  0  0  0  0  0  0  0  0  0  0
  150.7750  142.9293  157.8580 C   0  0  0  0  0  0  0  0  0  0  0  0
  150.7186  142.0614  156.5856 C   0  0  0  0  0  0  0  0  0  0  0  0
  149.3347  141.8433  156.0832 N   0  3  2  0  0  0  0  0  0  0  0  0
  148.5052  141.0716  157.0456 C   0  0  0  0  0  0  0  0  0  0  0  0
  147.0382  141.0018  156.5870 C   0  0  0  0  0  0  0  0  0  0  0  0
  146.9371  140.5008  155.2186 N   0  0  0  0  0  0  0  0  0  0  0  0
  146.7792  139.1669  155.0036 C   0  0  0  0  0  0  0  0  0  0  0  0
  146.8327  138.3056  156.0548 N   0  0  0  0  0  0  0  0  0  0  0  0
  146.6991  136.9904  155.8631 C   0  0  0  0  0  0  0  0  0  0  0  0
  146.4986  136.3312  154.7214 N   0  0  0  0  0  0  0  0  0  0  0  0
  146.4250  137.1872  153.6625 C   0  0  0  0  0  0  0  0  0  0  0  0
  146.5562  138.6042  153.7132 C   0  0  0  0  0  0  0  0  0  0  0  0
  146.4185  139.1321  152.4351 N   0  0  0  0  0  0  0  0  0  0  0  0
  146.2296  138.0891  151.6735 C   0  0  0  0  0  0  0  0  0  0  0  0
  146.2060  136.8786  152.3311 N   0  0  0  0  0  0  0  0  0  0  0  0
  146.0347  135.5702  151.7646 C   0  0  0  0  0  0  0  0  0  0  0  0
  144.9038  135.2939  150.7746 C   0  0  0  0  0  0  0  0  0  0  0  0
  144.8390  133.8311  151.2729 C   0  0  0  0  0  0  0  0  0  0  0  0
  143.4252  133.2514  151.4481 C   0  0  0  0  0  0  0  0  0  0  0  0
  142.9130  132.7725  150.2212 O   0  0  0  0  0  0  0  0  0  0  0  0
  145.7012  132.8265  150.4810 C   0  0  0  0  0  0  0  0  0  0  0  0
  146.5432  132.0809  151.3370 O   0  0  0  0  0  0  0  0  0  0  0  0
  145.4880  134.3824  152.5630 C   0  0  0  0  0  0  0  0  0  0  0  0
  147.7365  141.2462  154.2485 C   0  0  0  0  0  0  0  0  0  0  0  0
  149.2193  141.3489  154.6747 C   0  0  2  0  0  0  0  0  0  0  0  0
  149.9887  140.0365  154.4157 C   0  0  0  0  0  0  0  0  0  0  0  0
  152.6829  145.4797  158.7795 H   0  0  0  0  0  0  0  0  0  0  0  0
  152.1378  144.1437  159.7902 H   0  0  0  0  0  0  0  0  0  0  0  0
  150.9717  145.3146  159.1474 H   0  0  0  0  0  0  0  0  0  0  0  0
  151.0237  142.3146  158.7224 H   0  0  0  0  0  0  0  0  0  0  0  0
  149.7922  143.3514  158.0735 H   0  0  0  0  0  0  0  0  0  0  0  0
  151.3390  142.4996  155.8037 H   0  0  0  0  0  0  0  0  0  0  0  0
  151.1720  141.0936  156.7999 H   0  0  0  0  0  0  0  0  0  0  0  0
  148.9174  140.0693  157.1646 H   0  0  0  0  0  0  0  0  0  0  0  0
  148.5467  141.5428  158.0279 H   0  0  0  0  0  0  0  0  0  0  0  0
  146.4448  140.3989  157.2753 H   0  0  0  0  0  0  0  0  0  0  0  0
  146.6017  142.0010  156.6123 H   0  0  0  0  0  0  0  0  0  0  0  0
  146.7613  136.3794  156.7516 H   0  0  0  0  0  0  0  0  0  0  0  0
  146.1001  138.1859  150.6061 H   0  0  0  0  0  0  0  0  0  0  0  0
  146.9984  135.3044  151.3261 H   0  0  0  0  0  0  0  0  0  0  0  0
  144.0028  135.8654  151.0051 H   0  0  0  0  0  0  0  0  0  0  0  0
  145.1852  135.4173  149.7285 H   0  0  0  0  0  0  0  0  0  0  0  0
  143.4326  132.4190  152.1524 H   0  0  0  0  0  0  0  0  0  0  0  0
  142.7349  133.9896  151.8567 H   0  0  0  0  0  0  0  0  0  0  0  0
  142.2485  133.3726  149.9186 H   0  0  0  0  0  0  0  0  0  0  0  0
  145.0805  132.1207  149.9292 H   0  0  0  0  0  0  0  0  0  0  0  0
  146.3179  133.3300  149.7361 H   0  0  0  0  0  0  0  0  0  0  0  0
  147.1582  131.5980  150.8064 H   0  0  0  0  0  0  0  0  0  0  0  0
  146.2540  133.7391  152.9974 H   0  0  0  0  0  0  0  0  0  0  0  0
  144.7456  134.6621  153.3116 H   0  0  0  0  0  0  0  0  0  0  0  0
  147.6691  140.8271  153.2458 H   0  0  0  0  0  0  0  0  0  0  0  0
  147.3120  142.2485  154.1791 H   0  0  0  0  0  0  0  0  0  0  0  0
  149.6589  142.1033  154.0231 H   0  0  0  0  0  0  0  0  0  0  0  0
  149.8237  139.6889  153.3954 H   0  0  0  0  0  0  0  0  0  0  0  0
  149.6781  139.2357  155.0856 H   0  0  0  0  0  0  0  0  0  0  0  0
  151.0640  140.1686  154.5311 H   0  0  0  0  0  0  0  0  0  0  0  0
  148.9166  142.7628  156.0681 H   0  0  0  0  0  0  0  0  0  0  0  0
  1  2  1  0  0  0  0
  1 29  1  0  0  0  0
  1 30  1  0  0  0  0
  1 31  1  0  0  0  0
  2  3  1  0  0  0  0
  3  4  1  0  0  0  0
  3 32  1  0  0  0  0
  3 33  1  0  0  0  0
  4  5  1  0  0  0  0
  4 34  1  0  0  0  0
  4 35  1  0  0  0  0
  5 27  1  0  0  0  0
  5  6  1  0  0  0  0
  5 59  1  0  0  0  0
  6  7  1  0  0  0  0
  6 36  1  0  0  0  0
  6 37  1  0  0  0  0
  7  8  1  0  0  0  0
  7 38  1  0  0  0  0
  7 39  1  0  0  0  0
  8  9  1  0  0  0  0
  8 26  1  0  0  0  0
  9 14  1  0  0  0  0
  9 10  2  0  0  0  0
 10 11  1  0  0  0  0
 11 12  2  0  0  0  0
 11 40  1  0  0  0  0
 12 13  1  0  0  0  0
 13 17  1  0  0  0  0
 13 14  2  0  0  0  0
 14 15  1  0  0  0  0
 15 16  2  0  0  0  0
 16 17  1  0  0  0  0
 16 41  1  0  0  0  0
 17 18  1  0  0  0  0
 18 25  1  0  0  0  0
 18 19  1  0  0  0  0
 18 42  1  0  0  0  0
 19 20  1  0  0  0  0
 19 43  1  0  0  0  0
 19 44  1  0  0  0  0
 20 21  1  0  0  0  0
 20 23  1  0  0  0  0
 20 25  1  0  0  0  0
 21 22  1  0  0  0  0
 21 45  1  0  0  0  0
 21 46  1  0  0  0  0
 22 47  1  0  0  0  0
 23 24  1  0  0  0  0
 23 48  1  0  0  0  0
 23 49  1  0  0  0  0
 24 50  1  0  0  0  0
 25 51  1  0  0  0  0
 25 52  1  0  0  0  0
 26 27  1  0  0  0  0
 26 53  1  0  0  0  0
 26 54  1  0  0  0  0
 27 28  1  0  0  0  0
 27 55  1  0  0  0  0
 28 56  1  0  0  0  0
 28 57  1  0  0  0  0
 28 58  1  0  0  0  0
M  CHG  1   5   1
M  END
> <s_m_source_file>
AV-unprocessed.smi

> <i_m_source_file_index>
82

> <i_lp_mmshare_version>
43012

> <i_f3d_flags>
0

> <s_epik_input>
W0NIM11PW0NIMl1bQ0gyXU4xW0NIMl1bQ0gyXU4oW0NIMl1bQ0BIXTFbQ0gzXSljKG5bY0hdbjIpYyhjMjMpbltjSF1uM1tDSF0oW0NIMl00KVtDSDJdQzQoW0NIMl1bT0hdKVtDSDJdW09IXQ==

> <s_epik_cmdline>
J2VwaWtfcHl0aG9uJywgJy1waCcsICc3LjAnLCAnLXRuJywgJzgnLCAnLW1hJywgJzIwMCcsICctbWV0YWxfYmluZGluZycsICctaW1hZScsICc8aW5maWxlLm1hZT4nLCAnLW9tYWUnLCAnPG91dGZpbGUubWFlPic=

> <r_lp_tautomer_probability>
1

> <r_epik_Ionization_Penalty>
0.304275

> <r_epik_Ionization_Penalty_Charging>
0.304214

> <r_epik_Ionization_Penalty_Neutral>
6.13137e-05

> <r_epik_State_Penalty>
0.300354

> <r_epik_Charging_Adjusted_Penalty>
0.604567

> <i_epik_Tot_Q>
1

> <i_epik_Tot_abs_Q>
1

> <r_epik_Metal_State_Penalty>
0.301147

> <b_epik_Metal_Only>
0

> <s_lp_Force_Field>
OPLS_2005

> <r_lp_Energy>
59.6891

> <b_lp_Chiralities_Consistent>
1

> <s_lp_Variant>
AV-unprocessed.smi:82-3

> <Gold.Version>
5.8.1

> <Gold.Id.Protein>
6NUR|6NUR_protein|mol2

> <Gold.PLP.Fitness>
51.3863

> <Gold.PLP.PLP>
-40.4158

> <Gold.PLP.part.hbond>
-3.2882

> <Gold.PLP.part.metal>
0.0000

> <Gold.PLP.part.buried>
-1.3283

> <Gold.PLP.part.nonpolar>
-38.1116

> <Gold.PLP.part.repulsive>
1.2210

> <Gold.PLP.ligand.clash>
0.0000

> <Gold.PLP.ligand.torsion>
2.2060

> <Gold.PLP.Chemscore.Hbond>
4.0000

> <Gold.PLP.Chemscore.CHOScore>
0.7991

> <Gold.PLP.Chemscore.Metal>
0.0000

> <Gold.Chemscore.Hbonds>
donor molecule, donor type, donor heavy atom, donor atom, acceptor molecule, acceptor atom, score
      L1  H     5    59       P1  8028  2.00
      L1  H    22    47       P1 10186  1.00
      L1  H    24    50       P1 10747  0.99
      L1  C    16    41       P1 10171  0.76

> <Gold.PLP.Chemscore.Internal.Correction>
0.9854

> <Gold.Rescore>
     Score         DG    S(hbond)    S(metal)    S(lipo)     H(rot)  DE(clash)    DE(int)     intcor
     12.49     -16.89       2.93        0.00      92.53       3.60       2.23       2.18       ----

> <Gold.Chemscore.Fitness>
12.4921

> <Gold.Chemscore.DG>
-16.8944

> <Gold.Chemscore.ZeroCoef>
-5.4800

> <Gold.Chemscore.Hbond>
2.9320

> <Gold.Chemscore.Metal>
0.0000

> <Gold.Chemscore.Lipo>
92.5311

> <Gold.Chemscore.Internal_Hbond>
0.0000

> <Gold.Chemscore.DEClash>
2.2252

> <Gold.Chemscore.DEInternal>
2.1771

> <Gold.Chemscore.Rot>
3.5956

> <Gold.Chemscore.Internal.Correction>
   9.000000E+99

> <Gold.Chemscore.Hbonds>
donor molecule, donor type, donor heavy atom, donor atom, acceptor molecule, acceptor atom, score
      L1  H     5    59       P1  8028  0.95
      L1  H    22    47       P1 10186  1.00
      L1  H    24    50       P1 10747  0.91

> <Gold.Chemscore.Hbond.Weighted>
-9.7930

> <Gold.Chemscore.Metal.Weighted>
-0.0000

> <Gold.Chemscore.Lipo.Weighted>
-10.8261

> <Gold.Chemscore.Internal_Hbond.Weighted>
0.0000

> <Gold.Chemscore.DEClash.Weighted>
2.2252

> <Gold.Chemscore.DEInternal.Weighted>
2.1771

> <Gold.Chemscore.Rot.Weighted>
9.2047

> <Gold.Chemscore.Internal.Correction.Weighted>
   9.000000E+99

> <Gold.Protein.RotatedTorsions>
[ 6907 6896 6895 6894 ] final    1.54 input  -60.11 | X-H torsion
[ 7974 7965 7964 7962 ] final -171.30 input  175.53 | X-H torsion
[ 8008 7997 7996 7995 ] final   79.97 input   59.86 | X-H torsion
[ 10167 10162 10161 10158 ] final  161.33 input  -65.29 | X-H torsion
[ 10718 10713 10712 10709 ] final -141.59 input   66.30 | X-H torsion
[ 10763 10752 10751 10750 ] final -125.41 input  -60.55 | X-H torsion
[ 11005 11000 10999 10996 ] final    9.50 input  -57.11 | X-H torsion

> <Gold.Protein.ActiveResidues>
 VAL166  LYS551  ARG553  GLY616  TRP617  ASP618  TYR619  PRO620  LYS621  CYS622 
 ASP623  PHE694  ASN695  SER759  ASP760  ASP761  ALA762  ILE779  LEU786  VAL792 
 PHE793  MET794  SER795  GLU796  ALA797  LYS798  CYS799  TRP800  GLU811  SER814 

> <Gold.Protein.RotatedAtoms>
  151.5943  135.1051  160.0045 H   0  0  0  0  0  0  0  0  0  0  0  0  # atno 6907 bound_to 6896
  152.4290  133.7241  159.6561 H   0  0  0  0  0  0  0  0  0  0  0  0  # atno 6908 bound_to 6896
  150.8181  133.8230  159.3174 H   0  0  0  0  0  0  0  0  0  0  0  0  # atno 6909 bound_to 6896
  144.7159  140.1943  143.6345 H   0  0  0  0  0  0  0  0  0  0  0  0  # atno 7974 bound_to 7965
  155.8770  140.3446  155.5861 H   0  0  0  0  0  0  0  0  0  0  0  0  # atno 8008 bound_to 7997
  155.7762  140.0852  157.2102 H   0  0  0  0  0  0  0  0  0  0  0  0  # atno 8009 bound_to 7997
  154.4021  140.1509  156.2987 H   0  0  0  0  0  0  0  0  0  0  0  0  # atno 8010 bound_to 7997
  139.4848  144.4547  151.8784 H   0  0  0  0  0  0  0  0  0  0  0  0  # atno 10167 bound_to 10162
  156.3358  130.7611  151.1738 H   0  0  0  0  0  0  0  0  0  0  0  0  # atno 10718 bound_to 10713
  154.8735  135.4030  154.3264 H   0  0  0  0  0  0  0  0  0  0  0  0  # atno 10763 bound_to 10752
  153.4084  135.7020  153.6381 H   0  0  0  0  0  0  0  0  0  0  0  0  # atno 10764 bound_to 10752
  153.5094  135.3710  155.2550 H   0  0  0  0  0  0  0  0  0  0  0  0  # atno 10765 bound_to 10752
  140.5250  134.0521  155.7856 H   0  0  0  0  0  0  0  0  0  0  0  0  # atno 11005 bound_to 11000
  145.8739  139.2286  143.1645 LP  0  0  0  0  0  0  0  0  0  0  0  0  # atno 17320 bound_to 7965
  146.0059  140.8479  142.9995 LP  0  0  0  0  0  0  0  0  0  0  0  0  # atno 17321 bound_to 7965
  140.4006  144.2498  150.5893 LP  0  0  0  0  0  0  0  0  0  0  0  0  # atno 17342 bound_to 10162
  140.5061  143.2304  151.8606 LP  0  0  0  0  0  0  0  0  0  0  0  0  # atno 17343 bound_to 10162
  157.7438  131.0468  150.4913 LP  0  0  0  0  0  0  0  0  0  0  0  0  # atno 17370 bound_to 10713
  156.5086  130.4134  149.6313 LP  0  0  0  0  0  0  0  0  0  0  0  0  # atno 17371 bound_to 10713
  141.1313  133.9297  157.2530 LP  0  0  0  0  0  0  0  0  0  0  0  0  # atno 17394 bound_to 11000
  139.9585  135.0160  156.9194 LP  0  0  0  0  0  0  0  0  0  0  0  0  # atno 17395 bound_to 11000

$$$$
