AV-unprocessed.smi:2924|AV-procd|sdf|11221|dock2
  -GOLD-   2272016113D 1   1.00000     0.00000
 Structure written by MMmdl.
 29 31  0  0  0  0  0  0  0  0  1 V2000
  147.2663  142.2203  154.6021 N   0  0  0  0  0  0  0  0  0  0  0  0
  148.2072  141.5717  154.7829 C   0  0  0  0  0  0  0  0  0  0  0  0
  149.3926  140.7542  155.0105 C   0  0  0  0  0  0  0  0  0  0  0  0
  149.4975  139.5076  154.3583 C   0  0  0  0  0  0  0  0  0  0  0  0
  150.6400  138.7154  154.5722 C   0  0  0  0  0  0  0  0  0  0  0  0
  151.6370  139.2043  155.4355 C   0  0  0  0  0  0  0  0  0  0  0  0
  151.5494  140.3940  156.0655 N   0  0  0  0  0  0  0  0  0  0  0  0
  150.4526  141.1648  155.8631 C   0  0  0  0  0  0  0  0  0  0  0  0
  150.3898  142.3994  156.5353 N   0  0  0  0  0  0  0  0  0  0  0  0
  151.4632  142.8436  157.4187 C   0  0  1  0  0  0  0  0  0  0  0  0
  151.4072  144.3459  157.7259 C   0  0  0  0  0  0  0  0  0  0  0  0
  151.3557  144.3547  159.2586 C   0  0  2  0  0  0  0  0  0  0  0  0
  152.6765  143.8914  159.8880 C   0  0  0  0  0  0  0  0  0  0  0  0
  152.6428  142.3883  159.6131 C   0  0  0  0  0  0  0  0  0  0  0  0
  151.3330  142.2397  158.8272 C   0  0  1  0  0  0  0  0  0  0  0  0
  150.5425  143.2172  159.4845 O   0  0  0  0  0  0  0  0  0  0  0  0
  148.7147  139.1581  153.7004 H   0  0  0  0  0  0  0  0  0  0  0  0
  150.7493  137.7570  154.0866 H   0  0  0  0  0  0  0  0  0  0  0  0
  152.5285  138.6253  155.6259 H   0  0  0  0  0  0  0  0  0  0  0  0
  149.6991  143.0791  156.2502 H   0  0  0  0  0  0  0  0  0  0  0  0
  152.4236  142.5595  156.9865 H   0  0  0  0  0  0  0  0  0  0  0  0
  152.2694  144.8864  157.3345 H   0  0  0  0  0  0  0  0  0  0  0  0
  150.5068  144.8076  157.3179 H   0  0  0  0  0  0  0  0  0  0  0  0
  150.9629  145.2793  159.6818 H   0  0  0  0  0  0  0  0  0  0  0  0
  153.5411  144.3849  159.4431 H   0  0  0  0  0  0  0  0  0  0  0  0
  152.6866  144.0835  160.9615 H   0  0  0  0  0  0  0  0  0  0  0  0
  153.5100  142.0398  159.0516 H   0  0  0  0  0  0  0  0  0  0  0  0
  152.5959  141.8306  160.5491 H   0  0  0  0  0  0  0  0  0  0  0  0
  150.9228  141.2293  158.8522 H   0  0  0  0  0  0  0  0  0  0  0  0
  1  2  3  0  0  0  0
  2  3  1  0  0  0  0
  3  8  1  0  0  0  0
  3  4  2  0  0  0  0
  4  5  1  0  0  0  0
  4 17  1  0  0  0  0
  5  6  2  0  0  0  0
  5 18  1  0  0  0  0
  6  7  1  0  0  0  0
  6 19  1  0  0  0  0
  7  8  2  0  0  0  0
  8  9  1  0  0  0  0
  9 10  1  0  0  0  0
  9 20  1  0  0  0  0
 10 15  1  0  0  0  0
 10 11  1  0  0  0  0
 10 21  1  0  0  0  0
 11 12  1  0  0  0  0
 11 22  1  0  0  0  0
 11 23  1  0  0  0  0
 12 16  1  0  0  0  0
 12 13  1  0  0  0  0
 12 24  1  0  0  0  0
 13 14  1  0  0  0  0
 13 25  1  0  0  0  0
 13 26  1  0  0  0  0
 14 15  1  0  0  0  0
 14 27  1  0  0  0  0
 14 28  1  0  0  0  0
 15 16  1  0  0  0  0
 15 29  1  0  0  0  0
M  END
> <s_m_source_file>
AV-unprocessed.smi

> <i_m_source_file_index>
2924

> <i_lp_mmshare_version>
43012

> <i_f3d_flags>
0

> <s_epik_input>
TiNDYzFbY0hdW2NIXVtjSF1uYzFbTkhdW0NASF0oW0NIMl1bQ0BASF0yMylbQ0BASF0oTzMpW0NIMl1bQ0gyXTI=

> <s_epik_cmdline>
J2VwaWtfcHl0aG9uJywgJy1waCcsICc3LjAnLCAnLXRuJywgJzgnLCAnLW1hJywgJzIwMCcsICctbWV0YWxfYmluZGluZycsICctaW1hZScsICc8aW5maWxlLm1hZT4nLCAnLW9tYWUnLCAnPG91dGZpbGUubWFlPic=

> <r_lp_tautomer_probability>
1

> <r_epik_Ionization_Penalty>
2.11559e-05

> <r_epik_Ionization_Penalty_Charging>
0

> <r_epik_Ionization_Penalty_Neutral>
2.11559e-05

> <r_epik_State_Penalty>
-0

> <r_epik_Charging_Adjusted_Penalty>
0

> <i_epik_Tot_Q>
0

> <i_epik_Tot_abs_Q>
0

> <r_epik_Metal_State_Penalty>
-0

> <b_epik_Metal_Only>
0

> <s_lp_Force_Field>
OPLS_2005

> <r_lp_Energy>
42.1946

> <b_lp_Chiralities_Consistent>
1

> <s_lp_Variant>
AV-unprocessed.smi:2924-4

> <Gold.Version>
5.8.1

> <Gold.Id.Protein>
6NUR|6NUR_protein|mol2

> <Gold.PLP.Fitness>
41.0377

> <Gold.PLP.PLP>
-38.5610

> <Gold.PLP.part.hbond>
-1.6886

> <Gold.PLP.part.metal>
0.0000

> <Gold.PLP.part.buried>
-4.1949

> <Gold.PLP.part.nonpolar>
-33.5067

> <Gold.PLP.part.repulsive>
0.6992

> <Gold.PLP.ligand.clash>
0.0000

> <Gold.PLP.ligand.torsion>
0.2715

> <Gold.PLP.Chemscore.Hbond>
1.0000

> <Gold.PLP.Chemscore.CHOScore>
0.0000

> <Gold.PLP.Chemscore.Metal>
0.0000

> <Gold.Chemscore.Hbonds>
donor molecule, donor type, donor heavy atom, donor atom, acceptor molecule, acceptor atom, score
      L1  H     9    20       P1  8028  1.00

> <Gold.PLP.Chemscore.Internal.Correction>
0.0197

> <Gold.Rescore>
     Score         DG    S(hbond)    S(metal)    S(lipo)     H(rot)  DE(clash)    DE(int)     intcor
     17.07     -17.62       0.99        0.00      97.46       1.00       0.33       0.22       ----

> <Gold.Chemscore.Fitness>
17.0662

> <Gold.Chemscore.DG>
-17.6239

> <Gold.Chemscore.ZeroCoef>
-5.4800

> <Gold.Chemscore.Hbond>
0.9885

> <Gold.Chemscore.Metal>
0.0000

> <Gold.Chemscore.Lipo>
97.4551

> <Gold.Chemscore.Internal_Hbond>
0.0000

> <Gold.Chemscore.DEClash>
0.3332

> <Gold.Chemscore.DEInternal>
0.2245

> <Gold.Chemscore.Rot>
1.0000

> <Gold.Chemscore.Internal.Correction>
   9.000000E+99

> <Gold.Chemscore.Hbonds>
donor molecule, donor type, donor heavy atom, donor atom, acceptor molecule, acceptor atom, score
      L1  H     9    20       P1  8028  0.99

> <Gold.Chemscore.Hbond.Weighted>
-3.3017

> <Gold.Chemscore.Metal.Weighted>
-0.0000

> <Gold.Chemscore.Lipo.Weighted>
-11.4023

> <Gold.Chemscore.Internal_Hbond.Weighted>
0.0000

> <Gold.Chemscore.DEClash.Weighted>
0.3332

> <Gold.Chemscore.DEInternal.Weighted>
0.2245

> <Gold.Chemscore.Rot.Weighted>
2.5600

> <Gold.Chemscore.Internal.Correction.Weighted>
   9.000000E+99

> <Gold.Protein.RotatedTorsions>
[ 6907 6896 6895 6894 ] final   72.06 input  -60.11 | X-H torsion
[ 7974 7965 7964 7962 ] final   40.75 input  175.53 | X-H torsion
[ 8008 7997 7996 7995 ] final  144.30 input   59.86 | X-H torsion
[ 10167 10162 10161 10158 ] final   23.18 input  -65.29 | X-H torsion
[ 10718 10713 10712 10709 ] final   77.47 input   66.30 | X-H torsion
[ 10763 10752 10751 10750 ] final  146.60 input  -60.55 | X-H torsion
[ 11005 11000 10999 10996 ] final  102.26 input  -57.11 | X-H torsion

> <Gold.Protein.ActiveResidues>
 VAL166  LYS551  ARG553  GLY616  TRP617  ASP618  TYR619  PRO620  LYS621  CYS622 
 ASP623  PHE694  ASN695  SER759  ASP760  ASP761  ALA762  ILE779  LEU786  VAL792 
 PHE793  MET794  SER795  GLU796  ALA797  LYS798  CYS799  TRP800  GLU811  SER814 

> <Gold.Protein.RotatedAtoms>
  152.4846  134.4627  159.9610 H   0  0  0  0  0  0  0  0  0  0  0  0  # atno 6907 bound_to 6896
  151.4626  133.3583  159.2819 H   0  0  0  0  0  0  0  0  0  0  0  0  # atno 6908 bound_to 6896
  150.8946  134.8378  159.7378 H   0  0  0  0  0  0  0  0  0  0  0  0  # atno 6909 bound_to 6896
  146.0879  139.5496  142.9495 H   0  0  0  0  0  0  0  0  0  0  0  0  # atno 7974 bound_to 7965
  156.2911  140.2239  156.5031 H   0  0  0  0  0  0  0  0  0  0  0  0  # atno 8008 bound_to 7997
  154.7672  140.0469  157.1043 H   0  0  0  0  0  0  0  0  0  0  0  0  # atno 8009 bound_to 7997
  154.9918  140.3091  155.4906 H   0  0  0  0  0  0  0  0  0  0  0  0  # atno 8010 bound_to 7997
  140.5290  143.9874  150.6455 H   0  0  0  0  0  0  0  0  0  0  0  0  # atno 10167 bound_to 10162
  157.6711  130.9823  150.1646 H   0  0  0  0  0  0  0  0  0  0  0  0  # atno 10718 bound_to 10713
  154.0245  135.2903  155.3376 H   0  0  0  0  0  0  0  0  0  0  0  0  # atno 10763 bound_to 10752
  154.7026  135.5182  153.8551 H   0  0  0  0  0  0  0  0  0  0  0  0  # atno 10764 bound_to 10752
  153.0666  135.6633  154.0464 H   0  0  0  0  0  0  0  0  0  0  0  0  # atno 10765 bound_to 10752
  139.8777  134.9217  156.5032 H   0  0  0  0  0  0  0  0  0  0  0  0  # atno 11005 bound_to 11000
  145.6094  141.0342  143.1974 LP  0  0  0  0  0  0  0  0  0  0  0  0  # atno 17320 bound_to 7965
  144.7339  139.7643  143.7337 LP  0  0  0  0  0  0  0  0  0  0  0  0  # atno 17321 bound_to 7965
  140.3244  143.3117  152.0751 LP  0  0  0  0  0  0  0  0  0  0  0  0  # atno 17342 bound_to 10162
  139.4948  144.6552  151.6589 LP  0  0  0  0  0  0  0  0  0  0  0  0  # atno 17343 bound_to 10162
  156.2414  130.3691  149.8332 LP  0  0  0  0  0  0  0  0  0  0  0  0  # atno 17370 bound_to 10713
  156.6131  130.8595  151.3459 LP  0  0  0  0  0  0  0  0  0  0  0  0  # atno 17371 bound_to 10713
  140.8574  133.8085  155.9230 LP  0  0  0  0  0  0  0  0  0  0  0  0  # atno 17394 bound_to 11000
  140.9083  134.2292  157.5001 LP  0  0  0  0  0  0  0  0  0  0  0  0  # atno 17395 bound_to 11000

$$$$
