AV-unprocessed.smi:2822|AV-procd|sdf|10867|dock1
  -GOLD-   2272015313D 1   1.00000     0.00000
 Structure written by MMmdl.
 41 43  0  0  0  0  0  0  0  0  3 V2000
  153.8437  127.8457  154.3758 Cl  0  0  0  0  0  0  0  0  0  0  0  0
  153.1299  129.1843  155.2052 C   0  0  0  0  0  0  0  0  0  0  0  0
  153.9364  129.9891  156.0362 C   0  0  0  0  0  0  0  0  0  0  0  0
  153.3957  131.0382  156.6911 N   0  3  0  0  0  0  0  0  0  0  0  0
  152.0906  131.3668  156.5898 C   0  0  0  0  0  0  0  0  0  0  0  0
  151.2335  130.6004  155.7740 C   0  0  0  0  0  0  0  0  0  0  0  0
  151.7528  129.4874  155.0660 C   0  0  0  0  0  0  0  0  0  0  0  0
  150.9529  128.6807  154.2415 N   0  0  0  0  0  0  0  0  0  0  0  0
  149.5002  128.7413  154.3038 C   0  0  0  0  0  0  0  0  0  0  0  0
  148.9449  129.8717  153.4252 C   0  0  1  0  0  0  0  0  0  0  0  0
  147.5269  129.5540  152.9156 C   0  0  0  0  0  0  0  0  0  0  0  0
  146.9877  130.6891  152.1307 N   0  3  1  0  0  0  0  0  0  0  0  0
  145.6348  130.4098  151.5857 C   0  0  0  0  0  0  0  0  0  0  0  0
  145.1449  131.5670  150.7002 C   0  0  0  0  0  0  0  0  0  0  0  0
  145.1666  132.8926  151.4718 C   0  0  0  0  0  0  0  0  0  0  0  0
  146.5668  133.1430  152.0478 C   0  0  0  0  0  0  0  0  0  0  0  0
  147.0374  131.9555  152.9111 C   0  0  2  0  0  0  0  0  0  0  0  0
  148.4623  132.1850  153.4520 C   0  0  0  0  0  0  0  0  0  0  0  0
  148.8805  131.0573  154.2107 O   0  0  0  0  0  0  0  0  0  0  0  0
  154.9922  129.8255  156.1955 H   0  0  0  0  0  0  0  0  0  0  0  0
  151.7724  132.2269  157.1609 H   0  0  0  0  0  0  0  0  0  0  0  0
  150.1923  130.8786  155.7079 H   0  0  0  0  0  0  0  0  0  0  0  0
  151.3816  128.2017  153.4615 H   0  0  0  0  0  0  0  0  0  0  0  0
  149.0996  127.7872  153.9590 H   0  0  0  0  0  0  0  0  0  0  0  0
  149.1794  128.8756  155.3376 H   0  0  0  0  0  0  0  0  0  0  0  0
  149.6116  130.0257  152.5740 H   0  0  0  0  0  0  0  0  0  0  0  0
  147.5481  128.6595  152.2917 H   0  0  0  0  0  0  0  0  0  0  0  0
  146.8629  129.3432  153.7556 H   0  0  0  0  0  0  0  0  0  0  0  0
  145.6588  129.4889  151.0018 H   0  0  0  0  0  0  0  0  0  0  0  0
  144.9360  130.2464  152.4076 H   0  0  0  0  0  0  0  0  0  0  0  0
  145.7781  131.6464  149.8154 H   0  0  0  0  0  0  0  0  0  0  0  0
  144.1358  131.3612  150.3416 H   0  0  0  0  0  0  0  0  0  0  0  0
  144.8752  133.7151  150.8178 H   0  0  0  0  0  0  0  0  0  0  0  0
  144.4345  132.8615  152.2800 H   0  0  0  0  0  0  0  0  0  0  0  0
  147.2706  133.3090  151.2309 H   0  0  0  0  0  0  0  0  0  0  0  0
  146.5613  134.0584  152.6408 H   0  0  0  0  0  0  0  0  0  0  0  0
  146.3614  131.8538  153.7622 H   0  0  0  0  0  0  0  0  0  0  0  0
  149.1676  132.3708  152.6400 H   0  0  0  0  0  0  0  0  0  0  0  0
  148.4826  133.0644  154.0963 H   0  0  0  0  0  0  0  0  0  0  0  0
  147.6010  130.8125  151.3377 H   0  0  0  0  0  0  0  0  0  0  0  0
  153.9987  131.6059  157.2873 H   0  0  0  0  0  0  0  0  0  0  0  0
  1  2  1  0  0  0  0
  2  7  1  0  0  0  0
  2  3  2  0  0  0  0
  3  4  1  0  0  0  0
  3 20  1  0  0  0  0
  4  5  2  0  0  0  0
  4 41  1  0  0  0  0
  5  6  1  0  0  0  0
  5 21  1  0  0  0  0
  6  7  2  0  0  0  0
  6 22  1  0  0  0  0
  7  8  1  0  0  0  0
  8  9  1  0  0  0  0
  8 23  1  0  0  0  0
  9 10  1  0  0  0  0
  9 24  1  0  0  0  0
  9 25  1  0  0  0  0
 10 19  1  0  0  0  0
 10 11  1  0  0  0  0
 10 26  1  0  0  0  0
 11 12  1  0  0  0  0
 11 27  1  0  0  0  0
 11 28  1  0  0  0  0
 12 17  1  0  0  0  0
 12 13  1  0  0  0  0
 12 40  1  0  0  0  0
 13 14  1  0  0  0  0
 13 29  1  0  0  0  0
 13 30  1  0  0  0  0
 14 15  1  0  0  0  0
 14 31  1  0  0  0  0
 14 32  1  0  0  0  0
 15 16  1  0  0  0  0
 15 33  1  0  0  0  0
 15 34  1  0  0  0  0
 16 17  1  0  0  0  0
 16 35  1  0  0  0  0
 16 36  1  0  0  0  0
 17 18  1  0  0  0  0
 17 37  1  0  0  0  0
 18 19  1  0  0  0  0
 18 38  1  0  0  0  0
 18 39  1  0  0  0  0
M  CHG  1   4   1
M  CHG  1  12   1
M  END
> <s_m_source_file>
AV-unprocessed.smi

> <i_m_source_file_index>
2822

> <i_lp_mmshare_version>
43012

> <i_f3d_flags>
0

> <s_epik_input>
Q2xjMVtjSF1uW2NIXVtjSF1jMVtOSF1bQ0gyXVtDQEhdKFtDSDJdMilPW0NIMl1bQ0BASF0oTjIzKVtDSDJdW0NIMl1bQ0gyXVtDSDJdMw==

> <s_epik_cmdline>
J2VwaWtfcHl0aG9uJywgJy1waCcsICc3LjAnLCAnLXRuJywgJzgnLCAnLW1hJywgJzIwMCcsICctbWV0YWxfYmluZGluZycsICctaW1hZScsICc8aW5maWxlLm1hZT4nLCAnLW9tYWUnLCAnPG91dGZpbGUubWFlPic=

> <r_lp_tautomer_probability>
1

> <r_epik_Ionization_Penalty>
0.254999

> <r_epik_Ionization_Penalty_Charging>
0.254956

> <r_epik_Ionization_Penalty_Neutral>
4.33524e-05

> <r_epik_State_Penalty>
0.230978

> <r_epik_Charging_Adjusted_Penalty>
0.485934

> <i_epik_Tot_Q>
2

> <i_epik_Tot_abs_Q>
2

> <r_epik_Metal_State_Penalty>
3.47007

> <b_epik_Metal_Only>
0

> <s_lp_Force_Field>
OPLS_2005

> <r_lp_Energy>
36.8988

> <b_lp_Chiralities_Consistent>
1

> <s_lp_Variant>
AV-unprocessed.smi:2822-8

> <Gold.Version>
5.8.1

> <Gold.Id.Protein>
6NUR|6NUR_protein|mol2

> <Gold.PLP.Fitness>
38.5093

> <Gold.PLP.PLP>
-33.6514

> <Gold.PLP.part.hbond>
-2.0000

> <Gold.PLP.part.metal>
0.0000

> <Gold.PLP.part.buried>
-4.8658

> <Gold.PLP.part.nonpolar>
-26.4412

> <Gold.PLP.part.repulsive>
0.1704

> <Gold.PLP.ligand.clash>
0.0000

> <Gold.PLP.ligand.torsion>
0.5718

> <Gold.PLP.Chemscore.Hbond>
2.0000

> <Gold.PLP.Chemscore.CHOScore>
0.0000

> <Gold.PLP.Chemscore.Metal>
0.0000

> <Gold.Chemscore.Hbonds>
donor molecule, donor type, donor heavy atom, donor atom, acceptor molecule, acceptor atom, score
      L1  H     8    23       P1 10737  1.00
      L1  H    12    40       P1 10747  1.00

> <Gold.PLP.Chemscore.Internal.Correction>
0.0016

> <Gold.Rescore>
     Score         DG    S(hbond)    S(metal)    S(lipo)     H(rot)  DE(clash)    DE(int)     intcor
     19.19     -20.01       1.99        0.00      93.55       1.20       0.08       0.74       ----

> <Gold.Chemscore.Fitness>
19.1918

> <Gold.Chemscore.DG>
-20.0138

> <Gold.Chemscore.ZeroCoef>
-5.4800

> <Gold.Chemscore.Hbond>
1.9913

> <Gold.Chemscore.Metal>
0.0000

> <Gold.Chemscore.Lipo>
93.5475

> <Gold.Chemscore.Internal_Hbond>
0.0000

> <Gold.Chemscore.DEClash>
0.0788

> <Gold.Chemscore.DEInternal>
0.7432

> <Gold.Chemscore.Rot>
1.1962

> <Gold.Chemscore.Internal.Correction>
   9.000000E+99

> <Gold.Chemscore.Hbonds>
donor molecule, donor type, donor heavy atom, donor atom, acceptor molecule, acceptor atom, score
      L1  H     8    23       P1 10737  0.99
      L1  H    12    40       P1 10747  1.00

> <Gold.Chemscore.Hbond.Weighted>
-6.6510

> <Gold.Chemscore.Metal.Weighted>
-0.0000

> <Gold.Chemscore.Lipo.Weighted>
-10.9451

> <Gold.Chemscore.Internal_Hbond.Weighted>
0.0000

> <Gold.Chemscore.DEClash.Weighted>
0.0788

> <Gold.Chemscore.DEInternal.Weighted>
0.7432

> <Gold.Chemscore.Rot.Weighted>
3.0623

> <Gold.Chemscore.Internal.Correction.Weighted>
   9.000000E+99

> <Gold.Protein.RotatedTorsions>
[ 6907 6896 6895 6894 ] final  -84.96 input  -60.11 | X-H torsion
[ 7974 7965 7964 7962 ] final -162.81 input  175.53 | X-H torsion
[ 8008 7997 7996 7995 ] final -170.49 input   59.86 | X-H torsion
[ 10167 10162 10161 10158 ] final  -84.74 input  -65.29 | X-H torsion
[ 10718 10713 10712 10709 ] final  125.78 input   66.30 | X-H torsion
[ 10763 10752 10751 10750 ] final  -11.56 input  -60.55 | X-H torsion
[ 11005 11000 10999 10996 ] final  -46.03 input  -57.11 | X-H torsion

> <Gold.Protein.ActiveResidues>
 VAL166  LYS551  ARG553  GLY616  TRP617  ASP618  TYR619  PRO620  LYS621  CYS622 
 ASP623  PHE694  ASN695  SER759  ASP760  ASP761  ALA762  ILE779  LEU786  VAL792 
 PHE793  MET794  SER795  GLU796  ALA797  LYS798  CYS799  TRP800  GLU811  SER814 

> <Gold.Protein.RotatedAtoms>
  150.6873  134.3279  159.4814 H   0  0  0  0  0  0  0  0  0  0  0  0  # atno 6907 bound_to 6896
  152.1147  134.9247  160.0574 H   0  0  0  0  0  0  0  0  0  0  0  0  # atno 6908 bound_to 6896
  152.0476  133.3970  159.4400 H   0  0  0  0  0  0  0  0  0  0  0  0  # atno 6909 bound_to 6896
  144.7345  140.3198  143.6173 H   0  0  0  0  0  0  0  0  0  0  0  0  # atno 7974 bound_to 7965
  155.9190  140.1071  157.1221 H   0  0  0  0  0  0  0  0  0  0  0  0  # atno 8008 bound_to 7997
  154.4051  140.1259  156.4720 H   0  0  0  0  0  0  0  0  0  0  0  0  # atno 8009 bound_to 7997
  155.7219  140.3469  155.5022 H   0  0  0  0  0  0  0  0  0  0  0  0  # atno 8010 bound_to 7997
  140.4103  143.2625  151.9026 H   0  0  0  0  0  0  0  0  0  0  0  0  # atno 10167 bound_to 10162
  157.5474  131.1095  150.8758 H   0  0  0  0  0  0  0  0  0  0  0  0  # atno 10718 bound_to 10713
  153.4855  135.7017  153.5913 H   0  0  0  0  0  0  0  0  0  0  0  0  # atno 10763 bound_to 10752
  153.4108  135.3849  155.2049 H   0  0  0  0  0  0  0  0  0  0  0  0  # atno 10764 bound_to 10752
  154.8719  135.3904  154.4310 H   0  0  0  0  0  0  0  0  0  0  0  0  # atno 10765 bound_to 10752
  141.0553  133.6728  156.3097 H   0  0  0  0  0  0  0  0  0  0  0  0  # atno 11005 bound_to 11000
  145.7580  139.1815  143.2283 LP  0  0  0  0  0  0  0  0  0  0  0  0  # atno 17320 bound_to 7965
  146.1009  140.7545  142.9550 LP  0  0  0  0  0  0  0  0  0  0  0  0  # atno 17321 bound_to 7965
  139.4782  144.5543  151.8338 LP  0  0  0  0  0  0  0  0  0  0  0  0  # atno 17342 bound_to 10162
  140.4644  144.1676  150.5910 LP  0  0  0  0  0  0  0  0  0  0  0  0  # atno 17343 bound_to 10162
  156.9293  130.5344  149.5279 LP  0  0  0  0  0  0  0  0  0  0  0  0  # atno 17370 bound_to 10713
  156.0547  130.5611  150.9067 LP  0  0  0  0  0  0  0  0  0  0  0  0  # atno 17371 bound_to 10713
  140.5975  134.5588  157.5511 LP  0  0  0  0  0  0  0  0  0  0  0  0  # atno 17394 bound_to 11000
  139.9385  134.7831  156.0740 LP  0  0  0  0  0  0  0  0  0  0  0  0  # atno 17395 bound_to 11000

$$$$
