AV-unprocessed.smi:2143|AV-procd|sdf|8728|dock5
  -GOLD-   2272011493D 1   1.00000     0.00000
 Structure written by MMmdl.
 44 45  0  0  0  0  0  0  0  0  1 V2000
  151.6295  145.3146  159.8391 C   0  0  0  0  0  0  0  0  0  0  0  0
  152.1496  143.9393  159.3881 C   0  0  2  0  0  0  0  0  0  0  0  0
  150.9974  142.9929  158.9938 C   0  0  0  0  0  0  0  0  0  0  0  0
  151.5269  141.6569  158.4494 C   0  0  0  0  0  0  0  0  0  0  0  0
  152.4944  140.9872  159.4370 C   0  0  0  0  0  0  0  0  0  0  0  0
  153.6452  141.9371  159.8214 C   0  0  2  0  0  0  0  0  0  0  0  0
  154.5664  141.2580  160.7302 N   0  0  0  0  0  0  0  0  0  0  0  0
  155.3354  140.2055  160.4132 C   0  0  0  0  0  0  0  0  0  0  0  0
  155.3550  139.6964  159.2916 O   0  0  0  0  0  0  0  0  0  0  0  0
  156.2328  139.6690  161.5367 C   0  0  0  0  0  0  0  0  0  0  0  0
  155.6265  138.5565  162.2795 N   0  0  0  0  0  0  0  0  0  0  0  0
  155.3102  138.7171  163.6163 C   0  0  0  0  0  0  0  0  0  0  0  0
  154.7692  137.7402  164.3763 C   0  0  0  0  0  0  0  0  0  0  0  0
  154.4785  136.4276  163.8126 C   0  0  0  0  0  0  0  0  0  0  0  0
  154.0064  135.5027  164.4747 O   0  0  0  0  0  0  0  0  0  0  0  0
  154.7964  136.2950  162.4396 N   0  0  0  0  0  0  0  0  0  0  0  0
  154.5617  135.0175  161.7984 C   0  0  0  0  0  0  0  0  0  0  0  0
  155.3785  137.3156  161.6546 C   0  0  0  0  0  0  0  0  0  0  0  0
  155.6716  137.1405  160.4691 O   0  0  0  0  0  0  0  0  0  0  0  0
  153.1130  143.2745  160.4074 C   0  0  2  0  0  0  0  0  0  0  0  0
  152.5073  143.1212  161.8221 C   0  0  0  0  0  0  0  0  0  0  0  0
  150.9465  145.2332  160.6845 H   0  0  0  0  0  0  0  0  0  0  0  0
  151.0875  145.8077  159.0317 H   0  0  0  0  0  0  0  0  0  0  0  0
  152.4504  145.9701  160.1309 H   0  0  0  0  0  0  0  0  0  0  0  0
  152.7318  144.1224  158.4837 H   0  0  0  0  0  0  0  0  0  0  0  0
  150.3496  142.8100  159.8516 H   0  0  0  0  0  0  0  0  0  0  0  0
  150.3713  143.4668  158.2369 H   0  0  0  0  0  0  0  0  0  0  0  0
  150.6942  140.9874  158.2324 H   0  0  0  0  0  0  0  0  0  0  0  0
  152.0386  141.8289  157.5015 H   0  0  0  0  0  0  0  0  0  0  0  0
  151.9496  140.6712  160.3274 H   0  0  0  0  0  0  0  0  0  0  0  0
  152.8967  140.0784  158.9877 H   0  0  0  0  0  0  0  0  0  0  0  0
  154.1919  142.1625  158.9034 H   0  0  0  0  0  0  0  0  0  0  0  0
  154.6204  141.6158  161.6728 H   0  0  0  0  0  0  0  0  0  0  0  0
  157.1766  139.3485  161.0932 H   0  0  0  0  0  0  0  0  0  0  0  0
  156.4900  140.4794  162.2213 H   0  0  0  0  0  0  0  0  0  0  0  0
  155.5117  139.6711  164.0819 H   0  0  0  0  0  0  0  0  0  0  0  0
  154.5520  137.9314  165.4170 H   0  0  0  0  0  0  0  0  0  0  0  0
  154.2029  135.1942  160.7831 H   0  0  0  0  0  0  0  0  0  0  0  0
  153.7940  134.4596  162.3352 H   0  0  0  0  0  0  0  0  0  0  0  0
  155.5132  134.4837  161.7998 H   0  0  0  0  0  0  0  0  0  0  0  0
  153.9691  143.9421  160.5142 H   0  0  0  0  0  0  0  0  0  0  0  0
  151.6206  142.4884  161.8228 H   0  0  0  0  0  0  0  0  0  0  0  0
  152.2239  144.0858  162.2416 H   0  0  0  0  0  0  0  0  0  0  0  0
  153.2220  142.6839  162.5190 H   0  0  0  0  0  0  0  0  0  0  0  0
  1  2  1  0  0  0  0
  1 22  1  0  0  0  0
  1 23  1  0  0  0  0
  1 24  1  0  0  0  0
  2 20  1  0  0  0  0
  2  3  1  0  0  0  0
  2 25  1  0  0  0  0
  3  4  1  0  0  0  0
  3 26  1  0  0  0  0
  3 27  1  0  0  0  0
  4  5  1  0  0  0  0
  4 28  1  0  0  0  0
  4 29  1  0  0  0  0
  5  6  1  0  0  0  0
  5 30  1  0  0  0  0
  5 31  1  0  0  0  0
  6  7  1  0  0  0  0
  6 20  1  0  0  0  0
  6 32  1  0  0  0  0
  7  8  1  0  0  0  0
  7 33  1  0  0  0  0
  8  9  2  0  0  0  0
  8 10  1  0  0  0  0
 10 11  1  0  0  0  0
 10 34  1  0  0  0  0
 10 35  1  0  0  0  0
 11 18  1  0  0  0  0
 11 12  1  0  0  0  0
 12 13  2  0  0  0  0
 12 36  1  0  0  0  0
 13 14  1  0  0  0  0
 13 37  1  0  0  0  0
 14 15  2  0  0  0  0
 14 16  1  0  0  0  0
 16 17  1  0  0  0  0
 16 18  1  0  0  0  0
 17 38  1  0  0  0  0
 17 39  1  0  0  0  0
 17 40  1  0  0  0  0
 18 19  2  0  0  0  0
 20 21  1  0  0  0  0
 20 41  1  0  0  0  0
 21 42  1  0  0  0  0
 21 43  1  0  0  0  0
 21 44  1  0  0  0  0
M  END
> <s_m_source_file>
AV-unprocessed.smi

> <i_m_source_file_index>
2143

> <i_lp_mmshare_version>
43012

> <i_f3d_flags>
0

> <s_epik_input>
W0NIM11bQ0BASF0xW0NIMl1bQ0gyXVtDSDJdW0NASF0oW0NASF0xW0NIM10pW05IXUMoPU8pW0NIMl1uMltjSF1bY0hdYyg9TyluKFtDSDNdKWMyPU8=

> <s_epik_cmdline>
J2VwaWtfcHl0aG9uJywgJy1waCcsICc3LjAnLCAnLXRuJywgJzgnLCAnLW1hJywgJzIwMCcsICctbWV0YWxfYmluZGluZycsICctaW1hZScsICc8aW5maWxlLm1hZT4nLCAnLW9tYWUnLCAnPG91dGZpbGUubWFlPic=

> <r_lp_tautomer_probability>
1

> <r_epik_Ionization_Penalty>
3.18445e-08

> <r_epik_Ionization_Penalty_Charging>
1.27977e-08

> <r_epik_Ionization_Penalty_Neutral>
1.90469e-08

> <r_epik_State_Penalty>
-0

> <r_epik_Charging_Adjusted_Penalty>
1.27977e-08

> <i_epik_Tot_Q>
0

> <i_epik_Tot_abs_Q>
0

> <r_epik_Metal_State_Penalty>
-0

> <b_epik_Metal_Only>
0

> <s_lp_Force_Field>
OPLS_2005

> <r_lp_Energy>
21.2837

> <b_lp_Chiralities_Consistent>
1

> <s_lp_Variant>
AV-unprocessed.smi:2143-7

> <Gold.Version>
5.8.1

> <Gold.Id.Protein>
6NUR|6NUR_protein|mol2

> <Gold.PLP.Fitness>
45.3747

> <Gold.PLP.PLP>
-43.2843

> <Gold.PLP.part.hbond>
-1.5125

> <Gold.PLP.part.metal>
0.0000

> <Gold.PLP.part.buried>
-6.3559

> <Gold.PLP.part.nonpolar>
-35.5957

> <Gold.PLP.part.repulsive>
0.1223

> <Gold.PLP.ligand.clash>
0.0000

> <Gold.PLP.ligand.torsion>
0.4623

> <Gold.PLP.Chemscore.Hbond>
1.0000

> <Gold.PLP.Chemscore.CHOScore>
0.0000

> <Gold.PLP.Chemscore.Metal>
0.0000

> <Gold.Chemscore.Hbonds>
donor molecule, donor type, donor heavy atom, donor atom, acceptor molecule, acceptor atom, score
      P1  H  7997  8008       L1     9  1.00

> <Gold.PLP.Chemscore.Internal.Correction>
0.0150

> <Gold.Rescore>
     Score         DG    S(hbond)    S(metal)    S(lipo)     H(rot)  DE(clash)    DE(int)     intcor
     17.05     -17.83       1.00        0.00     110.29       1.51       0.06       0.72       ----

> <Gold.Chemscore.Fitness>
17.0510

> <Gold.Chemscore.DG>
-17.8341

> <Gold.Chemscore.ZeroCoef>
-5.4800

> <Gold.Chemscore.Hbond>
0.9952

> <Gold.Chemscore.Metal>
0.0000

> <Gold.Chemscore.Lipo>
110.2870

> <Gold.Chemscore.Internal_Hbond>
0.0000

> <Gold.Chemscore.DEClash>
0.0613

> <Gold.Chemscore.DEInternal>
0.7218

> <Gold.Chemscore.Rot>
1.5131

> <Gold.Chemscore.Internal.Correction>
   9.000000E+99

> <Gold.Chemscore.Hbonds>
donor molecule, donor type, donor heavy atom, donor atom, acceptor molecule, acceptor atom, score
      P1  H  7997  8008       L1     9  0.98

> <Gold.Chemscore.Hbond.Weighted>
-3.3240

> <Gold.Chemscore.Metal.Weighted>
-0.0000

> <Gold.Chemscore.Lipo.Weighted>
-12.9036

> <Gold.Chemscore.Internal_Hbond.Weighted>
0.0000

> <Gold.Chemscore.DEClash.Weighted>
0.0613

> <Gold.Chemscore.DEInternal.Weighted>
0.7218

> <Gold.Chemscore.Rot.Weighted>
3.8734

> <Gold.Chemscore.Internal.Correction.Weighted>
   9.000000E+99

> <Gold.Protein.RotatedTorsions>
[ 6907 6896 6895 6894 ] final -116.61 input  -60.11 | X-H torsion
[ 7974 7965 7964 7962 ] final  133.98 input  175.53 | X-H torsion
[ 8008 7997 7996 7995 ] final -142.05 input   59.86 | X-H torsion
[ 10167 10162 10161 10158 ] final   53.16 input  -65.29 | X-H torsion
[ 10718 10713 10712 10709 ] final  -19.56 input   66.30 | X-H torsion
[ 10763 10752 10751 10750 ] final -106.70 input  -60.55 | X-H torsion
[ 11005 11000 10999 10996 ] final   -9.72 input  -57.11 | X-H torsion

> <Gold.Protein.ActiveResidues>
 VAL166  LYS551  ARG553  GLY616  TRP617  ASP618  TYR619  PRO620  LYS621  CYS622 
 ASP623  PHE694  ASN695  SER759  ASP760  ASP761  ALA762  ILE779  LEU786  VAL792 
 PHE793  MET794  SER795  GLU796  ALA797  LYS798  CYS799  TRP800  GLU811  SER814 

> <Gold.Protein.RotatedAtoms>
  150.8070  133.8492  159.3200 H   0  0  0  0  0  0  0  0  0  0  0  0  # atno 6907 bound_to 6896
  151.6288  135.1023  160.0127 H   0  0  0  0  0  0  0  0  0  0  0  0  # atno 6908 bound_to 6896
  152.4161  133.7000  159.6475 H   0  0  0  0  0  0  0  0  0  0  0  0  # atno 6909 bound_to 6896
  144.9810  139.4504  143.5386 H   0  0  0  0  0  0  0  0  0  0  0  0  # atno 7974 bound_to 7965
  155.4879  140.0565  157.2958 H   0  0  0  0  0  0  0  0  0  0  0  0  # atno 8008 bound_to 7997
  154.4635  140.2007  156.0133 H   0  0  0  0  0  0  0  0  0  0  0  0  # atno 8009 bound_to 7997
  156.0932  140.3230  155.7847 H   0  0  0  0  0  0  0  0  0  0  0  0  # atno 8010 bound_to 7997
  140.2437  144.3555  150.6371 H   0  0  0  0  0  0  0  0  0  0  0  0  # atno 10167 bound_to 10162
  156.5440  130.4685  149.6485 H   0  0  0  0  0  0  0  0  0  0  0  0  # atno 10718 bound_to 10713
  154.8029  135.4702  154.0320 H   0  0  0  0  0  0  0  0  0  0  0  0  # atno 10763 bound_to 10752
  153.1811  135.6840  153.8483 H   0  0  0  0  0  0  0  0  0  0  0  0  # atno 10764 bound_to 10752
  153.8033  135.3227  155.3370 H   0  0  0  0  0  0  0  0  0  0  0  0  # atno 10765 bound_to 10752
  140.7372  133.8700  155.8939 H   0  0  0  0  0  0  0  0  0  0  0  0  # atno 11005 bound_to 11000
  146.3408  139.9083  142.8784 LP  0  0  0  0  0  0  0  0  0  0  0  0  # atno 17320 bound_to 7965
  145.2421  141.0013  143.3930 LP  0  0  0  0  0  0  0  0  0  0  0  0  # atno 17321 bound_to 7965
  140.6094  143.2169  151.6917 LP  0  0  0  0  0  0  0  0  0  0  0  0  # atno 17342 bound_to 10162
  139.5069  144.3666  152.0510 LP  0  0  0  0  0  0  0  0  0  0  0  0  # atno 17343 bound_to 10162
  156.2945  130.7143  151.2000 LP  0  0  0  0  0  0  0  0  0  0  0  0  # atno 17370 bound_to 10713
  157.7400  131.0522  150.5195 LP  0  0  0  0  0  0  0  0  0  0  0  0  # atno 17371 bound_to 10713
  140.9869  134.1330  157.4444 LP  0  0  0  0  0  0  0  0  0  0  0  0  # atno 17394 bound_to 11000
  139.8814  135.0028  156.6150 LP  0  0  0  0  0  0  0  0  0  0  0  0  # atno 17395 bound_to 11000

$$$$
