AV-unprocessed.smi:437|AV-procd|sdf|2561|dock3
  -GOLD-   2262022533D 1   1.00000     0.00000
 Structure written by MMmdl.
 48 49  0  0  0  0  0  0  0  0  1 V2000
  151.2372  141.5543  158.2383 C   0  0  0  0  0  0  0  0  0  0  0  0
  151.4699  140.3431  157.3755 C   0  0  0  0  0  0  0  0  0  0  0  0
  150.7246  140.2253  156.3260 N   0  0  0  0  0  0  0  0  0  0  0  0
  150.8523  139.1487  155.4699 N   0  0  0  0  0  0  0  0  0  0  0  0
  149.9139  139.1698  154.3376 C   0  0  0  0  0  0  0  0  0  0  0  0
  148.4998  138.7007  154.7145 C   0  0  0  0  0  0  0  0  0  0  0  0
  147.8433  139.3221  155.5543 O   0  0  0  0  0  0  0  0  0  0  0  0
  148.0712  137.6035  154.0581 N   0  0  0  0  0  0  0  0  0  0  0  0
  146.8854  136.9786  154.1905 C   0  0  0  0  0  0  0  0  0  0  0  0
  146.0362  137.2204  155.0511 O   0  0  0  0  0  0  0  0  0  0  0  0
  146.7338  136.0358  153.2492 N   0  0  0  0  0  0  0  0  0  0  0  0
  145.7353  134.9658  153.2663 C   0  0  2  0  0  0  0  0  0  0  0  0
  146.4159  133.5826  153.1864 C   0  0  0  0  0  0  0  0  0  0  0  0
  147.0411  133.3219  151.8052 C   0  0  0  0  0  0  0  0  0  0  0  0
  146.0054  133.4951  150.6843 C   0  0  0  0  0  0  0  0  0  0  0  0
  145.3406  134.8796  150.7448 C   0  0  0  0  0  0  0  0  0  0  0  0
  144.7037  135.1450  152.1248 C   0  0  2  0  0  0  0  0  0  0  0  0
  143.9972  136.5108  152.1678 C   0  0  0  0  0  0  0  0  0  0  0  0
  151.7524  138.1351  155.6253 C   0  0  0  0  0  0  0  0  0  0  0  0
  151.8360  137.1963  154.8318 O   0  0  0  0  0  0  0  0  0  0  0  0
  152.5933  138.2752  156.8161 C   0  0  0  0  0  0  0  0  0  0  0  0
  153.5447  137.2311  157.0209 C   0  0  0  0  0  0  0  0  0  0  0  0
  154.3065  136.3729  157.1734 N   0  0  0  0  0  0  0  0  0  0  0  0
  152.4745  139.3255  157.6665 C   0  0  0  0  0  0  0  0  0  0  0  0
  153.3230  139.5184  158.9158 C   0  0  0  0  0  0  0  0  0  0  0  0
  152.1268  142.1837  158.2688 H   0  0  0  0  0  0  0  0  0  0  0  0
  150.9942  141.2617  159.2599 H   0  0  0  0  0  0  0  0  0  0  0  0
  150.4133  142.1661  157.8676 H   0  0  0  0  0  0  0  0  0  0  0  0
  149.8377  140.1802  153.9319 H   0  0  0  0  0  0  0  0  0  0  0  0
  150.2968  138.5556  153.5202 H   0  0  0  0  0  0  0  0  0  0  0  0
  148.7137  137.2058  153.3891 H   0  0  0  0  0  0  0  0  0  0  0  0
  147.3551  136.0553  152.4539 H   0  0  0  0  0  0  0  0  0  0  0  0
  145.1909  135.0195  154.2112 H   0  0  0  0  0  0  0  0  0  0  0  0
  147.1749  133.4856  153.9638 H   0  0  0  0  0  0  0  0  0  0  0  0
  145.6752  132.8088  153.3920 H   0  0  0  0  0  0  0  0  0  0  0  0
  147.8758  134.0047  151.6421 H   0  0  0  0  0  0  0  0  0  0  0  0
  147.4576  132.3147  151.7718 H   0  0  0  0  0  0  0  0  0  0  0  0
  146.4815  133.3543  149.7135 H   0  0  0  0  0  0  0  0  0  0  0  0
  145.2424  132.7199  150.7692 H   0  0  0  0  0  0  0  0  0  0  0  0
  146.0809  135.6487  150.5215 H   0  0  0  0  0  0  0  0  0  0  0  0
  144.5811  134.9508  149.9655 H   0  0  0  0  0  0  0  0  0  0  0  0
  143.9308  134.3893  152.2732 H   0  0  0  0  0  0  0  0  0  0  0  0
  144.6878  137.3301  151.9664 H   0  0  0  0  0  0  0  0  0  0  0  0
  143.5449  136.6877  153.1439 H   0  0  0  0  0  0  0  0  0  0  0  0
  143.2021  136.5618  151.4235 H   0  0  0  0  0  0  0  0  0  0  0  0
  154.0754  138.7384  159.0287 H   0  0  0  0  0  0  0  0  0  0  0  0
  152.6963  139.5033  159.8083 H   0  0  0  0  0  0  0  0  0  0  0  0
  153.8471  140.4742  158.8799 H   0  0  0  0  0  0  0  0  0  0  0  0
  1  2  1  0  0  0  0
  1 26  1  0  0  0  0
  1 27  1  0  0  0  0
  1 28  1  0  0  0  0
  2 24  1  0  0  0  0
  2  3  2  0  0  0  0
  3  4  1  0  0  0  0
  4  5  1  0  0  0  0
  4 19  1  0  0  0  0
  5  6  1  0  0  0  0
  5 29  1  0  0  0  0
  5 30  1  0  0  0  0
  6  7  2  0  0  0  0
  6  8  1  0  0  0  0
  8  9  1  0  0  0  0
  8 31  1  0  0  0  0
  9 10  2  0  0  0  0
  9 11  1  0  0  0  0
 11 12  1  0  0  0  0
 11 32  1  0  0  0  0
 12 17  1  0  0  0  0
 12 13  1  0  0  0  0
 12 33  1  0  0  0  0
 13 14  1  0  0  0  0
 13 34  1  0  0  0  0
 13 35  1  0  0  0  0
 14 15  1  0  0  0  0
 14 36  1  0  0  0  0
 14 37  1  0  0  0  0
 15 16  1  0  0  0  0
 15 38  1  0  0  0  0
 15 39  1  0  0  0  0
 16 17  1  0  0  0  0
 16 40  1  0  0  0  0
 16 41  1  0  0  0  0
 17 18  1  0  0  0  0
 17 42  1  0  0  0  0
 18 43  1  0  0  0  0
 18 44  1  0  0  0  0
 18 45  1  0  0  0  0
 19 20  2  0  0  0  0
 19 21  1  0  0  0  0
 21 22  1  0  0  0  0
 21 24  2  0  0  0  0
 22 23  3  0  0  0  0
 24 25  1  0  0  0  0
 25 46  1  0  0  0  0
 25 47  1  0  0  0  0
 25 48  1  0  0  0  0
M  END
> <s_m_source_file>
AV-unprocessed.smi

> <i_m_source_file_index>
437

> <i_lp_mmshare_version>
43012

> <i_f3d_flags>
0

> <s_epik_input>
TiNDYyhjMVtDSDNdKWMoPU8pbihuYzFbQ0gzXSlbQ0gyXUMoPU8pW05IXUMoPU8pW05IXVtDQEBIXTJbQ0gyXVtDSDJdW0NIMl1bQ0gyXVtDQEhdMltDSDNd

> <s_epik_cmdline>
J2VwaWtfcHl0aG9uJywgJy1waCcsICc3LjAnLCAnLXRuJywgJzgnLCAnLW1hJywgJzIwMCcsICctbWV0YWxfYmluZGluZycsICctaW1hZScsICc8aW5maWxlLm1hZT4nLCAnLW9tYWUnLCAnPG91dGZpbGUubWFlPic=

> <r_lp_tautomer_probability>
1

> <r_epik_Ionization_Penalty>
3.27035e-05

> <r_epik_Ionization_Penalty_Charging>
1.6965e-11

> <r_epik_Ionization_Penalty_Neutral>
3.27035e-05

> <r_epik_State_Penalty>
-0

> <r_epik_Charging_Adjusted_Penalty>
1.6965e-11

> <i_epik_Tot_Q>
0

> <i_epik_Tot_abs_Q>
0

> <r_epik_Metal_State_Penalty>
-0

> <b_epik_Metal_Only>
0

> <s_lp_Force_Field>
OPLS_2005

> <r_lp_Energy>
26.4777

> <b_lp_Chiralities_Consistent>
1

> <s_lp_Variant>
AV-unprocessed.smi:437-3

> <Gold.Version>
5.8.1

> <Gold.Id.Protein>
6NUR|6NUR_protein|mol2

> <Gold.PLP.Fitness>
42.9214

> <Gold.PLP.PLP>
-31.8719

> <Gold.PLP.part.hbond>
-4.0000

> <Gold.PLP.part.metal>
0.0000

> <Gold.PLP.part.buried>
-4.5214

> <Gold.PLP.part.nonpolar>
-24.2743

> <Gold.PLP.part.repulsive>
0.1429

> <Gold.PLP.ligand.clash>
0.0000

> <Gold.PLP.ligand.torsion>
0.3606

> <Gold.PLP.Chemscore.Hbond>
3.9120

> <Gold.PLP.Chemscore.CHOScore>
0.0000

> <Gold.PLP.Chemscore.Metal>
0.0000

> <Gold.Chemscore.Hbonds>
donor molecule, donor type, donor heavy atom, donor atom, acceptor molecule, acceptor atom, score
      L1  H     8    31       P1  7948  0.98
      L1  H    11    32       P1  7948  0.99
      P1  H 10752 10763       L1    20  0.93
      P1  H 10752 10764       L1    23  0.78

> <Gold.PLP.Chemscore.Internal.Correction>
0.0348

> <Gold.Rescore>
     Score         DG    S(hbond)    S(metal)    S(lipo)     H(rot)  DE(clash)    DE(int)     intcor
     19.00     -20.76       3.43        0.00      66.92       1.57       0.01       1.75       ----

> <Gold.Chemscore.Fitness>
19.0021

> <Gold.Chemscore.DG>
-20.7643

> <Gold.Chemscore.ZeroCoef>
-5.4800

> <Gold.Chemscore.Hbond>
3.4320

> <Gold.Chemscore.Metal>
0.0000

> <Gold.Chemscore.Lipo>
66.9172

> <Gold.Chemscore.Internal_Hbond>
0.0000

> <Gold.Chemscore.DEClash>
0.0120

> <Gold.Chemscore.DEInternal>
1.7502

> <Gold.Chemscore.Rot>
1.5656

> <Gold.Chemscore.Internal.Correction>
   9.000000E+99

> <Gold.Chemscore.Hbonds>
donor molecule, donor type, donor heavy atom, donor atom, acceptor molecule, acceptor atom, score
      L1  H     8    31       P1  7948  0.93
      L1  H    11    32       P1  7948  0.93
      P1  H 10752 10763       L1    20  0.89
      P1  H 10752 10764       L1    23  0.33

> <Gold.Chemscore.Hbond.Weighted>
-11.4628

> <Gold.Chemscore.Metal.Weighted>
-0.0000

> <Gold.Chemscore.Lipo.Weighted>
-7.8293

> <Gold.Chemscore.Internal_Hbond.Weighted>
0.0000

> <Gold.Chemscore.DEClash.Weighted>
0.0120

> <Gold.Chemscore.DEInternal.Weighted>
1.7502

> <Gold.Chemscore.Rot.Weighted>
4.0079

> <Gold.Chemscore.Internal.Correction.Weighted>
   9.000000E+99

> <Gold.Protein.RotatedTorsions>
[ 6907 6896 6895 6894 ] final   19.69 input  -60.11 | X-H torsion
[ 7974 7965 7964 7962 ] final  118.16 input  175.53 | X-H torsion
[ 8008 7997 7996 7995 ] final  -60.01 input   59.86 | X-H torsion
[ 10167 10162 10161 10158 ] final  148.02 input  -65.29 | X-H torsion
[ 10718 10713 10712 10709 ] final   98.56 input   66.30 | X-H torsion
[ 10763 10752 10751 10750 ] final   41.21 input  -60.55 | X-H torsion
[ 11005 11000 10999 10996 ] final -133.08 input  -57.11 | X-H torsion

> <Gold.Protein.ActiveResidues>
 VAL166  LYS551  ARG553  GLY616  TRP617  ASP618  TYR619  PRO620  LYS621  CYS622 
 ASP623  PHE694  ASN695  SER759  ASP760  ASP761  ALA762  ILE779  LEU786  VAL792 
 PHE793  MET794  SER795  GLU796  ALA797  LYS798  CYS799  TRP800  GLU811  SER814 

> <Gold.Protein.RotatedAtoms>
  151.8848  135.0439  160.0491 H   0  0  0  0  0  0  0  0  0  0  0  0  # atno 6907 bound_to 6896
  152.2484  133.5189  159.5319 H   0  0  0  0  0  0  0  0  0  0  0  0  # atno 6908 bound_to 6896
  150.7075  134.0910  159.3974 H   0  0  0  0  0  0  0  0  0  0  0  0  # atno 6909 bound_to 6896
  145.1586  139.3168  143.4529 H   0  0  0  0  0  0  0  0  0  0  0  0  # atno 7974 bound_to 7965
  154.4378  140.1049  156.6206 H   0  0  0  0  0  0  0  0  0  0  0  0  # atno 8008 bound_to 7997
  155.5712  140.3489  155.4497 H   0  0  0  0  0  0  0  0  0  0  0  0  # atno 8009 bound_to 7997
  156.0388  140.1277  157.0167 H   0  0  0  0  0  0  0  0  0  0  0  0  # atno 8010 bound_to 7997
  139.4881  144.5711  151.7052 H   0  0  0  0  0  0  0  0  0  0  0  0  # atno 10167 bound_to 10162
  157.6893  131.0644  150.4815 H   0  0  0  0  0  0  0  0  0  0  0  0  # atno 10718 bound_to 10713
  152.9914  135.6168  154.2751 H   0  0  0  0  0  0  0  0  0  0  0  0  # atno 10763 bound_to 10752
  154.2482  135.2786  155.2828 H   0  0  0  0  0  0  0  0  0  0  0  0  # atno 10764 bound_to 10752
  154.5310  135.5788  153.6817 H   0  0  0  0  0  0  0  0  0  0  0  0  # atno 10765 bound_to 10752
  140.9113  134.1565  157.4387 H   0  0  0  0  0  0  0  0  0  0  0  0  # atno 11005 bound_to 11000
  146.3485  140.1687  142.8590 LP  0  0  0  0  0  0  0  0  0  0  0  0  # atno 17320 bound_to 7965
  145.0355  140.8904  143.5084 LP  0  0  0  0  0  0  0  0  0  0  0  0  # atno 17321 bound_to 7965
  140.5299  144.0747  150.6050 LP  0  0  0  0  0  0  0  0  0  0  0  0  # atno 17342 bound_to 10162
  140.3734  143.2842  152.0253 LP  0  0  0  0  0  0  0  0  0  0  0  0  # atno 17343 bound_to 10162
  156.5147  130.4147  149.6282 LP  0  0  0  0  0  0  0  0  0  0  0  0  # atno 17370 bound_to 10713
  156.3209  130.7280  151.2191 LP  0  0  0  0  0  0  0  0  0  0  0  0  # atno 17371 bound_to 10713
  139.8758  134.9936  156.5655 LP  0  0  0  0  0  0  0  0  0  0  0  0  # atno 17394 bound_to 11000
  140.8107  133.8431  155.8807 LP  0  0  0  0  0  0  0  0  0  0  0  0  # atno 17395 bound_to 11000

$$$$
