AV-unprocessed.smi:3286|AV-procd|sdf|12589|dock1
  -GOLD-   2272018513D 1   1.00000     0.00000
 Structure written by MMmdl.
 43 44  0  0  0  0  0  0  0  0  2 V2000
  145.0918  131.4626  151.6078 C   0  0  0  0  0  0  0  0  0  0  0  0
  145.2931  132.9597  151.5021 C   0  0  0  0  0  0  0  0  0  0  0  0
  144.4389  133.7524  150.7066 C   0  0  0  0  0  0  0  0  0  0  0  0
  144.6749  135.1391  150.6450 C   0  0  0  0  0  0  0  0  0  0  0  0
  145.7523  135.6787  151.3779 C   0  0  0  0  0  0  0  0  0  0  0  0
  146.0466  137.1653  151.3506 C   0  0  0  0  0  0  0  0  0  0  0  0
  145.9209  137.8025  152.7404 C   0  0  0  0  0  0  0  0  0  0  0  0
  147.2392  137.9045  153.3981 N   0  3  0  0  0  0  0  0  0  0  0  0
  147.8543  139.2509  153.3523 C   0  0  1  0  0  0  0  0  0  0  0  0
  146.7582  140.2930  153.6333 C   0  0  0  0  0  0  0  0  0  0  0  0
  149.0442  139.3330  154.3448 C   0  0  0  0  0  0  0  0  0  0  0  0
  149.3810  140.7806  154.7597 C   0  0  0  0  0  0  0  0  0  0  0  0
  150.6214  140.8305  155.6672 C   0  0  0  0  0  0  0  0  0  0  0  0
  151.7292  140.2241  155.0140 O   0  0  0  0  0  0  0  0  0  0  0  0
  151.5125  138.8479  154.7319 C   0  0  0  0  0  0  0  0  0  0  0  0
  150.3260  138.6950  153.7672 C   0  0  0  0  0  0  0  0  0  0  0  0
  146.5470  134.7983  152.1422 C   0  0  0  0  0  0  0  0  0  0  0  0
  146.3268  133.4681  152.2084 N   0  0  0  0  0  0  0  0  0  0  0  0
  144.2442  131.1329  151.0063 H   0  0  0  0  0  0  0  0  0  0  0  0
  144.9056  131.1774  152.6434 H   0  0  0  0  0  0  0  0  0  0  0  0
  145.9807  130.9353  151.2605 H   0  0  0  0  0  0  0  0  0  0  0  0
  143.6218  133.3104  150.1553 H   0  0  0  0  0  0  0  0  0  0  0  0
  144.0385  135.7744  150.0466 H   0  0  0  0  0  0  0  0  0  0  0  0
  147.0520  137.3197  150.9563 H   0  0  0  0  0  0  0  0  0  0  0  0
  145.3631  137.6492  150.6515 H   0  0  0  0  0  0  0  0  0  0  0  0
  145.4828  138.7978  152.6544 H   0  0  0  0  0  0  0  0  0  0  0  0
  145.2542  137.2075  153.3664 H   0  0  0  0  0  0  0  0  0  0  0  0
  147.1328  137.6363  154.3659 H   0  0  0  0  0  0  0  0  0  0  0  0
  148.2325  139.4387  152.3456 H   0  0  0  0  0  0  0  0  0  0  0  0
  147.1154  141.3105  153.4762 H   0  0  0  0  0  0  0  0  0  0  0  0
  146.3915  140.2191  154.6579 H   0  0  0  0  0  0  0  0  0  0  0  0
  145.9069  140.1535  152.9659 H   0  0  0  0  0  0  0  0  0  0  0  0
  148.7726  138.7840  155.2482 H   0  0  0  0  0  0  0  0  0  0  0  0
  149.5571  141.3901  153.8725 H   0  0  0  0  0  0  0  0  0  0  0  0
  148.5458  141.2354  155.2919 H   0  0  0  0  0  0  0  0  0  0  0  0
  150.8746  141.8655  155.8981 H   0  0  0  0  0  0  0  0  0  0  0  0
  150.4280  140.3316  156.6182 H   0  0  0  0  0  0  0  0  0  0  0  0
  152.4159  138.4351  154.2821 H   0  0  0  0  0  0  0  0  0  0  0  0
  151.3377  138.2965  155.6573 H   0  0  0  0  0  0  0  0  0  0  0  0
  150.1728  137.6355  153.5615 H   0  0  0  0  0  0  0  0  0  0  0  0
  150.5763  139.1637  152.8145 H   0  0  0  0  0  0  0  0  0  0  0  0
  147.3801  135.1712  152.7198 H   0  0  0  0  0  0  0  0  0  0  0  0
  147.8709  137.2532  152.9543 H   0  0  0  0  0  0  0  0  0  0  0  0
  1  2  1  0  0  0  0
  1 19  1  0  0  0  0
  1 20  1  0  0  0  0
  1 21  1  0  0  0  0
  2 18  1  0  0  0  0
  2  3  2  0  0  0  0
  3  4  1  0  0  0  0
  3 22  1  0  0  0  0
  4  5  2  0  0  0  0
  4 23  1  0  0  0  0
  5  6  1  0  0  0  0
  5 17  1  0  0  0  0
  6  7  1  0  0  0  0
  6 24  1  0  0  0  0
  6 25  1  0  0  0  0
  7  8  1  0  0  0  0
  7 26  1  0  0  0  0
  7 27  1  0  0  0  0
  8  9  1  0  0  0  0
  8 28  1  0  0  0  0
  8 43  1  0  0  0  0
  9 10  1  0  0  0  0
  9 11  1  0  0  0  0
  9 29  1  0  0  0  0
 10 30  1  0  0  0  0
 10 31  1  0  0  0  0
 10 32  1  0  0  0  0
 11 16  1  0  0  0  0
 11 12  1  0  0  0  0
 11 33  1  0  0  0  0
 12 13  1  0  0  0  0
 12 34  1  0  0  0  0
 12 35  1  0  0  0  0
 13 14  1  0  0  0  0
 13 36  1  0  0  0  0
 13 37  1  0  0  0  0
 14 15  1  0  0  0  0
 15 16  1  0  0  0  0
 15 38  1  0  0  0  0
 15 39  1  0  0  0  0
 16 40  1  0  0  0  0
 16 41  1  0  0  0  0
 17 18  2  0  0  0  0
 17 42  1  0  0  0  0
M  CHG  1   8   1
M  END
> <s_m_source_file>
AV-unprocessed.smi

> <i_m_source_file_index>
3286

> <i_lp_mmshare_version>
43012

> <i_f3d_flags>
0

> <s_epik_input>
W0NIM11jMVtjSF1bY0hdYyhbY0hdbjEpW0NIMl1bQ0gyXVtOSF1bQ0BIXShbQ0gzXSlbQ0hdMltDSDJdW0NIMl1PW0NIMl1bQ0gyXTI=

> <s_epik_cmdline>
J2VwaWtfcHl0aG9uJywgJy1waCcsICc3LjAnLCAnLXRuJywgJzgnLCAnLW1hJywgJzIwMCcsICctbWV0YWxfYmluZGluZycsICctaW1hZScsICc8aW5maWxlLm1hZT4nLCAnLW9tYWUnLCAnPG91dGZpbGUubWFlPic=

> <r_lp_tautomer_probability>
1

> <r_epik_Ionization_Penalty>
0.00336271

> <r_epik_Ionization_Penalty_Charging>
0.000752246

> <r_epik_Ionization_Penalty_Neutral>
0.00261046

> <r_epik_State_Penalty>
-0

> <r_epik_Charging_Adjusted_Penalty>
0.000752246

> <i_epik_Tot_Q>
1

> <i_epik_Tot_abs_Q>
1

> <r_epik_Metal_State_Penalty>
-0

> <b_epik_Metal_Only>
0

> <s_lp_Force_Field>
OPLS_2005

> <r_lp_Energy>
16.504

> <b_lp_Chiralities_Consistent>
1

> <s_lp_Variant>
AV-unprocessed.smi:3286-2

> <Gold.Version>
5.8.1

> <Gold.Id.Protein>
6NUR|6NUR_protein|mol2

> <Gold.PLP.Fitness>
42.2291

> <Gold.PLP.PLP>
-32.8975

> <Gold.PLP.part.hbond>
-2.0000

> <Gold.PLP.part.metal>
0.0000

> <Gold.PLP.part.buried>
2.2664

> <Gold.PLP.part.nonpolar>
-34.6303

> <Gold.PLP.part.repulsive>
0.1707

> <Gold.PLP.ligand.clash>
0.0000

> <Gold.PLP.ligand.torsion>
1.1067

> <Gold.PLP.Chemscore.Hbond>
2.9424

> <Gold.PLP.Chemscore.CHOScore>
0.8789

> <Gold.PLP.Chemscore.Metal>
0.0000

> <Gold.Chemscore.Hbonds>
donor molecule, donor type, donor heavy atom, donor atom, acceptor molecule, acceptor atom, score
      L1  H     8    43       P1  7948  2.00
      P1  H  7989  7998       L1    14  0.91
      L1  C    17    42       P1  7948  0.83

> <Gold.PLP.Chemscore.Internal.Correction>
0.0811

> <Gold.Rescore>
     Score         DG    S(hbond)    S(metal)    S(lipo)     H(rot)  DE(clash)    DE(int)     intcor
     14.69     -16.81       1.05        0.00      98.24       1.43       0.92       1.20       ----

> <Gold.Chemscore.Fitness>
14.6912

> <Gold.Chemscore.DG>
-16.8084

> <Gold.Chemscore.ZeroCoef>
-5.4800

> <Gold.Chemscore.Hbond>
1.0478

> <Gold.Chemscore.Metal>
0.0000

> <Gold.Chemscore.Lipo>
98.2379

> <Gold.Chemscore.Internal_Hbond>
0.0000

> <Gold.Chemscore.DEClash>
0.9213

> <Gold.Chemscore.DEInternal>
1.1959

> <Gold.Chemscore.Rot>
1.4317

> <Gold.Chemscore.Internal.Correction>
   9.000000E+99

> <Gold.Chemscore.Hbonds>
donor molecule, donor type, donor heavy atom, donor atom, acceptor molecule, acceptor atom, score
      L1  H     8    43       P1  7948  1.00
      P1  H  7989  7998       L1    14  0.11

> <Gold.Chemscore.Hbond.Weighted>
-3.4996

> <Gold.Chemscore.Metal.Weighted>
-0.0000

> <Gold.Chemscore.Lipo.Weighted>
-11.4938

> <Gold.Chemscore.Internal_Hbond.Weighted>
0.0000

> <Gold.Chemscore.DEClash.Weighted>
0.9213

> <Gold.Chemscore.DEInternal.Weighted>
1.1959

> <Gold.Chemscore.Rot.Weighted>
3.6651

> <Gold.Chemscore.Internal.Correction.Weighted>
   9.000000E+99

> <Gold.Protein.RotatedTorsions>
[ 6907 6896 6895 6894 ] final  117.99 input  -60.11 | X-H torsion
[ 7974 7965 7964 7962 ] final  108.58 input  175.53 | X-H torsion
[ 8008 7997 7996 7995 ] final   59.75 input   59.86 | X-H torsion
[ 10167 10162 10161 10158 ] final   44.05 input  -65.29 | X-H torsion
[ 10718 10713 10712 10709 ] final   16.31 input   66.30 | X-H torsion
[ 10763 10752 10751 10750 ] final  -98.38 input  -60.55 | X-H torsion
[ 11005 11000 10999 10996 ] final   19.94 input  -57.11 | X-H torsion

> <Gold.Protein.ActiveResidues>
 VAL166  LYS551  ARG553  GLY616  TRP617  ASP618  TYR619  PRO620  LYS621  CYS622 
 ASP623  PHE694  ASN695  SER759  ASP760  ASP761  ALA762  ILE779  LEU786  VAL792 
 PHE793  MET794  SER795  GLU796  ALA797  LYS798  CYS799  TRP800  GLU811  SER814 

> <Gold.Protein.RotatedAtoms>
  152.4574  133.7751  159.6819 H   0  0  0  0  0  0  0  0  0  0  0  0  # atno 6907 bound_to 6896
  150.8505  133.7784  159.3033 H   0  0  0  0  0  0  0  0  0  0  0  0  # atno 6908 bound_to 6896
  151.5381  135.1071  159.9971 H   0  0  0  0  0  0  0  0  0  0  0  0  # atno 6909 bound_to 6896
  145.2788  139.2640  143.3927 H   0  0  0  0  0  0  0  0  0  0  0  0  # atno 7974 bound_to 7965
  155.5712  140.3490  155.4516 H   0  0  0  0  0  0  0  0  0  0  0  0  # atno 8008 bound_to 7997
  156.0443  140.1303  157.0147 H   0  0  0  0  0  0  0  0  0  0  0  0  # atno 8009 bound_to 7997
  154.4405  140.1018  156.6268 H   0  0  0  0  0  0  0  0  0  0  0  0  # atno 8010 bound_to 7997
  140.3382  144.2503  150.6159 H   0  0  0  0  0  0  0  0  0  0  0  0  # atno 10167 bound_to 10162
  157.0660  130.6328  149.5796 H   0  0  0  0  0  0  0  0  0  0  0  0  # atno 10718 bound_to 10713
  154.7409  135.5011  153.9121 H   0  0  0  0  0  0  0  0  0  0  0  0  # atno 10763 bound_to 10752
  153.1042  135.6693  153.9625 H   0  0  0  0  0  0  0  0  0  0  0  0  # atno 10764 bound_to 10752
  153.9402  135.3068  155.3422 H   0  0  0  0  0  0  0  0  0  0  0  0  # atno 10765 bound_to 10752
  140.4081  134.1647  155.7666 H   0  0  0  0  0  0  0  0  0  0  0  0  # atno 11005 bound_to 11000
  146.3223  140.3250  142.8636 LP  0  0  0  0  0  0  0  0  0  0  0  0  # atno 17320 bound_to 7965
  144.9271  140.7934  143.5712 LP  0  0  0  0  0  0  0  0  0  0  0  0  # atno 17321 bound_to 7965
  140.5333  143.2238  151.8203 LP  0  0  0  0  0  0  0  0  0  0  0  0  # atno 17342 bound_to 10162
  139.4845  144.4692  151.9446 LP  0  0  0  0  0  0  0  0  0  0  0  0  # atno 17343 bound_to 10162
  155.9964  130.5033  150.7496 LP  0  0  0  0  0  0  0  0  0  0  0  0  # atno 17370 bound_to 10713
  157.4916  131.0911  151.0420 LP  0  0  0  0  0  0  0  0  0  0  0  0  # atno 17371 bound_to 10713
  141.1831  133.8370  157.1185 LP  0  0  0  0  0  0  0  0  0  0  0  0  # atno 17394 bound_to 11000
  140.0287  134.9911  157.0738 LP  0  0  0  0  0  0  0  0  0  0  0  0  # atno 17395 bound_to 11000

$$$$
