AV-unprocessed.smi:1196|AV-procd|sdf|4998|dock3
  -GOLD-   22720 4 03D 1   1.00000     0.00000
 Structure written by MMmdl.
 37 38  0  0  0  0  0  0  0  0  1 V2000
  152.2742  139.9514  158.8313 C   0  0  0  0  0  0  0  0  0  0  0  0
  151.7288  140.4480  157.4833 C   0  0  2  0  0  0  0  0  0  0  0  0
  150.8114  141.6737  157.6622 C   0  0  0  0  0  0  0  0  0  0  0  0
  151.4990  142.7986  158.2717 N   0  0  0  0  0  0  0  0  0  0  0  0
  151.9630  142.9213  159.5648 C   0  0  0  0  0  0  0  0  0  0  0  0
  152.5356  144.1558  159.6753 C   0  0  0  0  0  0  0  0  0  0  0  0
  152.3732  144.7209  158.3796 C   0  0  0  0  0  0  0  0  0  0  0  0
  151.7540  143.9055  157.5413 N   0  0  0  0  0  0  0  0  0  0  0  0
  151.0012  139.3730  156.8111 N   0  0  0  0  0  0  0  0  0  0  0  0
  151.2655  138.9039  155.5825 C   0  0  0  0  0  0  0  0  0  0  0  0
  152.1955  139.3161  154.8884 O   0  0  0  0  0  0  0  0  0  0  0  0
  150.3239  137.8080  155.0734 C   0  0  0  0  0  0  0  0  0  0  0  0
  150.5102  136.4520  155.7827 C   0  0  0  0  0  0  0  0  0  0  0  0
  149.2898  135.5223  155.6401 C   0  0  1  0  0  0  0  0  0  0  0  0
  149.2903  134.7823  154.3895 N   0  0  0  0  0  0  0  0  0  0  0  0
  149.3110  133.4558  154.5784 C   0  0  0  0  0  0  0  0  0  0  0  0
  149.3144  132.6010  153.6959 O   0  0  0  0  0  0  0  0  0  0  0  0
  149.3279  133.2270  155.8960 N   0  0  0  0  0  0  0  0  0  0  0  0
  149.3268  134.3527  156.6077 C   0  0  0  0  0  0  0  0  0  0  0  0
  149.3524  134.4537  157.8328 O   0  0  0  0  0  0  0  0  0  0  0  0
  152.8314  140.7377  159.3411 H   0  0  0  0  0  0  0  0  0  0  0  0
  152.9504  139.1064  158.6975 H   0  0  0  0  0  0  0  0  0  0  0  0
  151.4683  139.6322  159.4926 H   0  0  0  0  0  0  0  0  0  0  0  0
  152.5777  140.7487  156.8660 H   0  0  0  0  0  0  0  0  0  0  0  0
  150.4035  141.9917  156.7017 H   0  0  0  0  0  0  0  0  0  0  0  0
  149.9586  141.4165  158.2920 H   0  0  0  0  0  0  0  0  0  0  0  0
  151.8456  142.1303  160.2907 H   0  0  0  0  0  0  0  0  0  0  0  0
  152.9998  144.5896  160.5484 H   0  0  0  0  0  0  0  0  0  0  0  0
  152.6844  145.6926  158.0257 H   0  0  0  0  0  0  0  0  0  0  0  0
  150.2195  138.9736  157.3098 H   0  0  0  0  0  0  0  0  0  0  0  0
  149.2952  138.1486  155.1995 H   0  0  0  0  0  0  0  0  0  0  0  0
  150.4884  137.6945  154.0013 H   0  0  0  0  0  0  0  0  0  0  0  0
  151.3995  135.9525  155.3932 H   0  0  0  0  0  0  0  0  0  0  0  0
  150.6987  136.6264  156.8433 H   0  0  0  0  0  0  0  0  0  0  0  0
  148.3536  136.0709  155.7523 H   0  0  0  0  0  0  0  0  0  0  0  0
  149.2766  135.2305  153.4849 H   0  0  0  0  0  0  0  0  0  0  0  0
  149.3495  132.3042  156.3049 H   0  0  0  0  0  0  0  0  0  0  0  0
  1  2  1  0  0  0  0
  1 21  1  0  0  0  0
  1 22  1  0  0  0  0
  1 23  1  0  0  0  0
  2  3  1  0  0  0  0
  2  9  1  0  0  0  0
  2 24  1  0  0  0  0
  3  4  1  0  0  0  0
  3 25  1  0  0  0  0
  3 26  1  0  0  0  0
  4  8  1  0  0  0  0
  4  5  1  0  0  0  0
  5  6  2  0  0  0  0
  5 27  1  0  0  0  0
  6  7  1  0  0  0  0
  6 28  1  0  0  0  0
  7  8  2  0  0  0  0
  7 29  1  0  0  0  0
  9 10  1  0  0  0  0
  9 30  1  0  0  0  0
 10 11  2  0  0  0  0
 10 12  1  0  0  0  0
 12 13  1  0  0  0  0
 12 31  1  0  0  0  0
 12 32  1  0  0  0  0
 13 14  1  0  0  0  0
 13 33  1  0  0  0  0
 13 34  1  0  0  0  0
 14 19  1  0  0  0  0
 14 15  1  0  0  0  0
 14 35  1  0  0  0  0
 15 16  1  0  0  0  0
 15 36  1  0  0  0  0
 16 17  2  0  0  0  0
 16 18  1  0  0  0  0
 18 19  1  0  0  0  0
 18 37  1  0  0  0  0
 19 20  2  0  0  0  0
M  END
> <s_m_source_file>
AV-unprocessed.smi

> <i_m_source_file_index>
1196

> <i_lp_mmshare_version>
43012

> <i_f3d_flags>
0

> <s_epik_input>
bjFbY0hdW2NIXVtjSF1uMVtDSDJdW0NAQEhdKFtDSDNdKVtOSF1DKD1PKVtDSDJdW0NIMl1bQ0BASF0yW05IXUMoPU8pW05IXUMyPU8=

> <s_epik_cmdline>
J2VwaWtfcHl0aG9uJywgJy1waCcsICc3LjAnLCAnLXRuJywgJzgnLCAnLW1hJywgJzIwMCcsICctbWV0YWxfYmluZGluZycsICctaW1hZScsICc8aW5maWxlLm1hZT4nLCAnLW9tYWUnLCAnPG91dGZpbGUubWFlPic=

> <r_lp_tautomer_probability>
1

> <r_epik_Ionization_Penalty>
0.00815973

> <r_epik_Ionization_Penalty_Charging>
0

> <r_epik_Ionization_Penalty_Neutral>
0.00815973

> <r_epik_State_Penalty>
0.00583796

> <r_epik_Charging_Adjusted_Penalty>
0.00583796

> <i_epik_Tot_Q>
0

> <i_epik_Tot_abs_Q>
0

> <r_epik_Metal_State_Penalty>
0.409204

> <b_epik_Metal_Only>
0

> <s_lp_Force_Field>
OPLS_2005

> <r_lp_Energy>
16.3903

> <b_lp_Chiralities_Consistent>
1

> <s_lp_Variant>
AV-unprocessed.smi:1196-3

> <Gold.Version>
5.8.1

> <Gold.Id.Protein>
6NUR|6NUR_protein|mol2

> <Gold.PLP.Fitness>
42.2191

> <Gold.PLP.PLP>
-34.5448

> <Gold.PLP.part.hbond>
-3.0000

> <Gold.PLP.part.metal>
0.0000

> <Gold.PLP.part.buried>
-6.5876

> <Gold.PLP.part.nonpolar>
-26.0780

> <Gold.PLP.part.repulsive>
0.4266

> <Gold.PLP.ligand.clash>
0.0000

> <Gold.PLP.ligand.torsion>
0.4918

> <Gold.PLP.Chemscore.Hbond>
2.8400

> <Gold.PLP.Chemscore.CHOScore>
0.0000

> <Gold.PLP.Chemscore.Metal>
0.0000

> <Gold.Chemscore.Hbonds>
donor molecule, donor type, donor heavy atom, donor atom, acceptor molecule, acceptor atom, score
      L1  H    15    36       P1  7948  0.95
      P1  H  6896  6908       L1    20  0.61
      P1  H  7989  7998       L1    11  0.61

> <Gold.PLP.Chemscore.Internal.Correction>
0.1378

> <Gold.Rescore>
     Score         DG    S(hbond)    S(metal)    S(lipo)     H(rot)  DE(clash)    DE(int)     intcor
     14.45     -15.02       2.77        0.00      67.10       2.96       0.02       0.55       ----

> <Gold.Chemscore.Fitness>
14.4537

> <Gold.Chemscore.DG>
-15.0219

> <Gold.Chemscore.ZeroCoef>
-5.4800

> <Gold.Chemscore.Hbond>
2.7733

> <Gold.Chemscore.Metal>
0.0000

> <Gold.Chemscore.Lipo>
67.0963

> <Gold.Chemscore.Internal_Hbond>
0.0000

> <Gold.Chemscore.DEClash>
0.0213

> <Gold.Chemscore.DEInternal>
0.5469

> <Gold.Chemscore.Rot>
2.9575

> <Gold.Chemscore.Internal.Correction>
   9.000000E+99

> <Gold.Chemscore.Hbonds>
donor molecule, donor type, donor heavy atom, donor atom, acceptor molecule, acceptor atom, score
      L1  H    15    36       P1  7948  0.22
      P1  H  6896  6908       L1    20  0.60
      P1  H  7989  7998       L1    11  0.55

> <Gold.Chemscore.Hbond.Weighted>
-9.2629

> <Gold.Chemscore.Metal.Weighted>
-0.0000

> <Gold.Chemscore.Lipo.Weighted>
-7.8503

> <Gold.Chemscore.Internal_Hbond.Weighted>
0.0000

> <Gold.Chemscore.DEClash.Weighted>
0.0213

> <Gold.Chemscore.DEInternal.Weighted>
0.5469

> <Gold.Chemscore.Rot.Weighted>
7.5713

> <Gold.Chemscore.Internal.Correction.Weighted>
   9.000000E+99

> <Gold.Protein.RotatedTorsions>
[ 6907 6896 6895 6894 ] final  116.98 input  -60.11 | X-H torsion
[ 7974 7965 7964 7962 ] final  130.91 input  175.53 | X-H torsion
[ 8008 7997 7996 7995 ] final  -26.34 input   59.86 | X-H torsion
[ 10167 10162 10161 10158 ] final   83.08 input  -65.29 | X-H torsion
[ 10718 10713 10712 10709 ] final  -11.53 input   66.30 | X-H torsion
[ 10763 10752 10751 10750 ] final   48.09 input  -60.55 | X-H torsion
[ 11005 11000 10999 10996 ] final  -82.13 input  -57.11 | X-H torsion

> <Gold.Protein.ActiveResidues>
 VAL166  LYS551  ARG553  GLY616  TRP617  ASP618  TYR619  PRO620  LYS621  CYS622 
 ASP623  PHE694  ASN695  SER759  ASP760  ASP761  ALA762  ILE779  LEU786  VAL792 
 PHE793  MET794  SER795  GLU796  ALA797  LYS798  CYS799  TRP800  GLU811  SER814 

> <Gold.Protein.RotatedAtoms>
  152.4642  133.7888  159.6890 H   0  0  0  0  0  0  0  0  0  0  0  0  # atno 6907 bound_to 6896
  150.8600  133.7648  159.3002 H   0  0  0  0  0  0  0  0  0  0  0  0  # atno 6908 bound_to 6896
  151.5217  135.1070  159.9932 H   0  0  0  0  0  0  0  0  0  0  0  0  # atno 6909 bound_to 6896
  145.0129  139.4204  143.5236 H   0  0  0  0  0  0  0  0  0  0  0  0  # atno 7974 bound_to 7965
  154.4430  140.1902  156.0760 H   0  0  0  0  0  0  0  0  0  0  0  0  # atno 8008 bound_to 7997
  156.0475  140.3312  155.7286 H   0  0  0  0  0  0  0  0  0  0  0  0  # atno 8009 bound_to 7997
  155.5608  140.0603  157.2820 H   0  0  0  0  0  0  0  0  0  0  0  0  # atno 8010 bound_to 7997
  139.9221  144.6206  150.8430 H   0  0  0  0  0  0  0  0  0  0  0  0  # atno 10167 bound_to 10162
  156.6577  130.4973  149.6041 H   0  0  0  0  0  0  0  0  0  0  0  0  # atno 10718 bound_to 10713
  152.9794  135.5955  154.3870 H   0  0  0  0  0  0  0  0  0  0  0  0  # atno 10763 bound_to 10752
  154.3529  135.2767  155.2364 H   0  0  0  0  0  0  0  0  0  0  0  0  # atno 10764 bound_to 10752
  154.4395  135.6016  153.6175 H   0  0  0  0  0  0  0  0  0  0  0  0  # atno 10765 bound_to 10752
  141.1664  133.7229  156.8526 H   0  0  0  0  0  0  0  0  0  0  0  0  # atno 11005 bound_to 11000
  146.3473  139.9583  142.8720 LP  0  0  0  0  0  0  0  0  0  0  0  0  # atno 17320 bound_to 7965
  145.1999  140.9850  143.4162 LP  0  0  0  0  0  0  0  0  0  0  0  0  # atno 17321 bound_to 7965
  140.7659  143.3290  151.2452 LP  0  0  0  0  0  0  0  0  0  0  0  0  # atno 17342 bound_to 10162
  139.6853  143.9784  152.2831 LP  0  0  0  0  0  0  0  0  0  0  0  0  # atno 17343 bound_to 10162
  156.2035  130.6635  151.1193 LP  0  0  0  0  0  0  0  0  0  0  0  0  # atno 17370 bound_to 10713
  157.7120  131.0729  150.6466 LP  0  0  0  0  0  0  0  0  0  0  0  0  # atno 17371 bound_to 10713
  140.1905  134.8969  157.3055 LP  0  0  0  0  0  0  0  0  0  0  0  0  # atno 17394 bound_to 11000
  140.2295  134.3926  155.7528 LP  0  0  0  0  0  0  0  0  0  0  0  0  # atno 17395 bound_to 11000

$$$$
