AV-unprocessed.smi:1047|AV-procd|sdf|4602|dock8
  -GOLD-   22720 3 93D 1   1.00000     0.00000
 Structure written by MMmdl.
 57 59  0  0  0  0  0  0  0  0  3 V2000
  147.9628  132.2450  160.3711 C   0  0  0  0  0  0  0  0  0  0  0  0
  147.9410  133.2154  161.5603 C   0  0  0  0  0  0  0  0  0  0  0  0
  146.8957  134.2632  161.4159 N   0  3  1  0  0  0  0  0  0  0  0  0
  146.7067  135.1204  162.6140 C   0  0  0  0  0  0  0  0  0  0  0  0
  147.8076  136.1928  162.7197 C   0  0  0  0  0  0  0  0  0  0  0  0
  147.8577  136.9479  161.5156 O   0  0  0  0  0  0  0  0  0  0  0  0
  148.1771  136.1468  160.3820 C   0  0  2  0  0  0  0  0  0  0  0  0
  148.2900  137.0733  159.1628 C   0  0  0  0  0  0  0  0  0  0  0  0
  149.5000  137.8856  159.2321 N   0  0  0  0  0  0  0  0  0  0  0  0
  149.7009  138.7298  158.0585 C   0  0  0  0  0  0  0  0  0  0  0  0
  150.9665  138.3224  157.2849 C   0  0  1  0  0  0  0  0  0  0  0  0
  150.6445  138.2259  155.9113 O   0  0  0  0  0  0  0  0  0  0  0  0
  152.0990  139.3507  157.4707 C   0  0  0  0  0  0  0  0  0  0  0  0
  151.6445  140.7381  157.2977 N   0  0  0  0  0  0  0  0  0  0  0  0
  150.9946  141.3103  156.2481 C   0  0  0  0  0  0  0  0  0  0  0  0
  150.7957  142.6222  156.5529 N   0  3  0  0  0  0  0  0  0  0  0  0
  151.3244  142.8920  157.8167 C   0  0  0  0  0  0  0  0  0  0  0  0
  151.3659  144.0709  158.5513 C   0  0  0  0  0  0  0  0  0  0  0  0
  151.9783  144.0169  159.8235 C   0  0  0  0  0  0  0  0  0  0  0  0
  152.0422  145.2890  160.6517 C   0  0  0  0  0  0  0  0  0  0  0  0
  152.5219  142.8042  160.3209 C   0  0  0  0  0  0  0  0  0  0  0  0
  153.1714  142.7557  161.6934 C   0  0  0  0  0  0  0  0  0  0  0  0
  152.4719  141.6161  159.5568 C   0  0  0  0  0  0  0  0  0  0  0  0
  151.8680  141.6869  158.3033 C   0  0  0  0  0  0  0  0  0  0  0  0
  147.0575  135.0999  160.2011 C   0  0  0  0  0  0  0  0  0  0  0  0
  148.7970  131.5486  160.4610 H   0  0  0  0  0  0  0  0  0  0  0  0
  148.0811  132.7802  159.4285 H   0  0  0  0  0  0  0  0  0  0  0  0
  147.0519  131.6505  160.3093 H   0  0  0  0  0  0  0  0  0  0  0  0
  147.8193  132.6688  162.4953 H   0  0  0  0  0  0  0  0  0  0  0  0
  148.9198  133.6939  161.6114 H   0  0  0  0  0  0  0  0  0  0  0  0
  145.7378  135.6135  162.5264 H   0  0  0  0  0  0  0  0  0  0  0  0
  146.6612  134.5249  163.5249 H   0  0  0  0  0  0  0  0  0  0  0  0
  147.5899  136.8688  163.5466 H   0  0  0  0  0  0  0  0  0  0  0  0
  148.7816  135.7484  162.9273 H   0  0  0  0  0  0  0  0  0  0  0  0
  149.1329  135.6427  160.5376 H   0  0  0  0  0  0  0  0  0  0  0  0
  148.3123  136.4735  158.2522 H   0  0  0  0  0  0  0  0  0  0  0  0
  147.4052  137.7081  159.0970 H   0  0  0  0  0  0  0  0  0  0  0  0
  149.4790  138.4611  160.0681 H   0  0  0  0  0  0  0  0  0  0  0  0
  148.8260  138.7069  157.4071 H   0  0  0  0  0  0  0  0  0  0  0  0
  149.8098  139.7638  158.3883 H   0  0  0  0  0  0  0  0  0  0  0  0
  151.3189  137.3492  157.6302 H   0  0  0  0  0  0  0  0  0  0  0  0
  151.4248  137.9861  155.4356 H   0  0  0  0  0  0  0  0  0  0  0  0
  152.5809  139.2422  158.4424 H   0  0  0  0  0  0  0  0  0  0  0  0
  152.8771  139.1790  156.7258 H   0  0  0  0  0  0  0  0  0  0  0  0
  150.6928  140.8136  155.3372 H   0  0  0  0  0  0  0  0  0  0  0  0
  150.9477  144.9898  158.1671 H   0  0  0  0  0  0  0  0  0  0  0  0
  153.0767  145.5462  160.8810 H   0  0  0  0  0  0  0  0  0  0  0  0
  151.5000  145.1632  161.5894 H   0  0  0  0  0  0  0  0  0  0  0  0
  151.5994  146.1328  160.1213 H   0  0  0  0  0  0  0  0  0  0  0  0
  153.5308  141.7535  161.9298 H   0  0  0  0  0  0  0  0  0  0  0  0
  152.4567  143.0431  162.4648 H   0  0  0  0  0  0  0  0  0  0  0  0
  154.0231  143.4347  161.7389 H   0  0  0  0  0  0  0  0  0  0  0  0
  152.8837  140.6943  159.9391 H   0  0  0  0  0  0  0  0  0  0  0  0
  147.2472  134.4722  159.3295 H   0  0  0  0  0  0  0  0  0  0  0  0
  146.1116  135.6088  160.0091 H   0  0  0  0  0  0  0  0  0  0  0  0
  146.0324  133.7551  161.2860 H   0  0  0  0  0  0  0  0  0  0  0  0
  150.3321  143.2823  155.9417 H   0  0  0  0  0  0  0  0  0  0  0  0
  1  2  1  0  0  0  0
  1 26  1  0  0  0  0
  1 27  1  0  0  0  0
  1 28  1  0  0  0  0
  2  3  1  0  0  0  0
  2 29  1  0  0  0  0
  2 30  1  0  0  0  0
  3 25  1  0  0  0  0
  3  4  1  0  0  0  0
  3 56  1  0  0  0  0
  4  5  1  0  0  0  0
  4 31  1  0  0  0  0
  4 32  1  0  0  0  0
  5  6  1  0  0  0  0
  5 33  1  0  0  0  0
  5 34  1  0  0  0  0
  6  7  1  0  0  0  0
  7  8  1  0  0  0  0
  7 25  1  0  0  0  0
  7 35  1  0  0  0  0
  8  9  1  0  0  0  0
  8 36  1  0  0  0  0
  8 37  1  0  0  0  0
  9 10  1  0  0  0  0
  9 38  1  0  0  0  0
 10 11  1  0  0  0  0
 10 39  1  0  0  0  0
 10 40  1  0  0  0  0
 11 12  1  0  0  0  0
 11 13  1  0  0  0  0
 11 41  1  0  0  0  0
 12 42  1  0  0  0  0
 13 14  1  0  0  0  0
 13 43  1  0  0  0  0
 13 44  1  0  0  0  0
 14 24  1  0  0  0  0
 14 15  1  0  0  0  0
 15 16  2  0  0  0  0
 15 45  1  0  0  0  0
 16 17  1  0  0  0  0
 16 57  1  0  0  0  0
 17 24  2  0  0  0  0
 17 18  1  0  0  0  0
 18 19  2  0  0  0  0
 18 46  1  0  0  0  0
 19 20  1  0  0  0  0
 19 21  1  0  0  0  0
 20 47  1  0  0  0  0
 20 48  1  0  0  0  0
 20 49  1  0  0  0  0
 21 22  1  0  0  0  0
 21 23  2  0  0  0  0
 22 50  1  0  0  0  0
 22 51  1  0  0  0  0
 22 52  1  0  0  0  0
 23 24  1  0  0  0  0
 23 53  1  0  0  0  0
 25 54  1  0  0  0  0
 25 55  1  0  0  0  0
M  CHG  1   3   1
M  CHG  1  16   1
M  END
> <s_m_source_file>
AV-unprocessed.smi

> <i_m_source_file_index>
1047

> <i_lp_mmshare_version>
43012

> <i_f3d_flags>
0

> <s_epik_input>
W0NIM11bQ0gyXU4xW0NIMl1bQ0gyXU9bQ0BIXShbQ0gyXTEpW0NIMl1bTkhdW0NIMl1bQ0BIXShbT0hdKVtDSDJdbihbY0hdbjIpYyhjMjMpW2NIXWMoW0NIM10pYyhbY0hdMylbQ0gzXQ==

> <s_epik_cmdline>
J2VwaWtfcHl0aG9uJywgJy1waCcsICc3LjAnLCAnLXRuJywgJzgnLCAnLW1hJywgJzIwMCcsICctbWV0YWxfYmluZGluZycsICctaW1hZScsICc8aW5maWxlLm1hZT4nLCAnLW9tYWUnLCAnPG91dGZpbGUubWFlPic=

> <r_epik_Ionization_Penalty>
2.03028

> <r_epik_Ionization_Penalty_Charging>
1.21256

> <r_epik_Ionization_Penalty_Neutral>
0.817715

> <r_epik_State_Penalty>
2.54959

> <r_epik_Charging_Adjusted_Penalty>
3.76215

> <i_epik_Tot_Q>
2

> <i_epik_Tot_abs_Q>
2

> <r_epik_Metal_State_Penalty>
6.52811

> <b_epik_Metal_Only>
0

> <s_lp_Force_Field>
OPLS_2005

> <r_lp_Energy>
36.7228

> <b_lp_Chiralities_Consistent>
1

> <s_lp_Variant>
AV-unprocessed.smi:1047-43

> <Gold.Version>
5.8.1

> <Gold.Id.Protein>
6NUR|6NUR_protein|mol2

> <Gold.PLP.Fitness>
64.2103

> <Gold.PLP.PLP>
-56.1076

> <Gold.PLP.part.hbond>
-4.3817

> <Gold.PLP.part.metal>
0.0000

> <Gold.PLP.part.buried>
-7.4651

> <Gold.PLP.part.nonpolar>
-44.5965

> <Gold.PLP.part.repulsive>
0.1112

> <Gold.PLP.ligand.clash>
0.0000

> <Gold.PLP.ligand.torsion>
1.2381

> <Gold.PLP.Chemscore.Hbond>
3.4960

> <Gold.PLP.Chemscore.CHOScore>
0.0000

> <Gold.PLP.Chemscore.Metal>
0.0000

> <Gold.Chemscore.Hbonds>
donor molecule, donor type, donor heavy atom, donor atom, acceptor molecule, acceptor atom, score
      L1  H    16    57       P1  8028  1.87
      P1  H  6931  6943       L1     6  1.00
      P1  H  6934  6947       L1     6  0.33

> <Gold.PLP.Chemscore.Internal.Correction>
0.0910

> <Gold.Rescore>
     Score         DG    S(hbond)    S(metal)    S(lipo)     H(rot)  DE(clash)    DE(int)     intcor
     19.36     -20.66       1.68        0.00     141.02       2.71       0.06       1.24       ----

> <Gold.Chemscore.Fitness>
19.3612

> <Gold.Chemscore.DG>
-20.6598

> <Gold.Chemscore.ZeroCoef>
-5.4800

> <Gold.Chemscore.Hbond>
1.6812

> <Gold.Chemscore.Metal>
0.0000

> <Gold.Chemscore.Lipo>
141.0186

> <Gold.Chemscore.Internal_Hbond>
0.0000

> <Gold.Chemscore.DEClash>
0.0585

> <Gold.Chemscore.DEInternal>
1.2401

> <Gold.Chemscore.Rot>
2.7088

> <Gold.Chemscore.Internal.Correction>
   9.000000E+99

> <Gold.Chemscore.Hbonds>
donor molecule, donor type, donor heavy atom, donor atom, acceptor molecule, acceptor atom, score
      L1  H    16    57       P1  8028  0.85
      P1  H  6931  6943       L1     6  0.37
      P1  H  6934  6947       L1     6  0.29

> <Gold.Chemscore.Hbond.Weighted>
-5.6153

> <Gold.Chemscore.Metal.Weighted>
-0.0000

> <Gold.Chemscore.Lipo.Weighted>
-16.4992

> <Gold.Chemscore.Internal_Hbond.Weighted>
0.0000

> <Gold.Chemscore.DEClash.Weighted>
0.0585

> <Gold.Chemscore.DEInternal.Weighted>
1.2401

> <Gold.Chemscore.Rot.Weighted>
6.9346

> <Gold.Chemscore.Internal.Correction.Weighted>
   9.000000E+99

> <Gold.Protein.RotatedTorsions>
[ 6907 6896 6895 6894 ] final   55.56 input  -60.11 | X-H torsion
[ 7974 7965 7964 7962 ] final -136.53 input  175.53 | X-H torsion
[ 8008 7997 7996 7995 ] final   32.37 input   59.86 | X-H torsion
[ 10167 10162 10161 10158 ] final  -25.49 input  -65.29 | X-H torsion
[ 10718 10713 10712 10709 ] final  160.42 input   66.30 | X-H torsion
[ 10763 10752 10751 10750 ] final  167.59 input  -60.55 | X-H torsion
[ 11005 11000 10999 10996 ] final  -53.04 input  -57.11 | X-H torsion

> <Gold.Protein.ActiveResidues>
 VAL166  LYS551  ARG553  GLY616  TRP617  ASP618  TYR619  PRO620  LYS621  CYS622 
 ASP623  PHE694  ASN695  SER759  ASP760  ASP761  ALA762  ILE779  LEU786  VAL792 
 PHE793  MET794  SER795  GLU796  ALA797  LYS798  CYS799  TRP800  GLU811  SER814 

> <Gold.Protein.RotatedAtoms>
  152.3550  134.6952  160.0224 H   0  0  0  0  0  0  0  0  0  0  0  0  # atno 6907 bound_to 6896
  151.7293  133.3312  159.3344 H   0  0  0  0  0  0  0  0  0  0  0  0  # atno 6908 bound_to 6896
  150.7566  134.6311  159.6231 H   0  0  0  0  0  0  0  0  0  0  0  0  # atno 6909 bound_to 6896
  144.8919  140.6654  143.5140 H   0  0  0  0  0  0  0  0  0  0  0  0  # atno 7974 bound_to 7965
  155.1214  140.3248  155.4496 H   0  0  0  0  0  0  0  0  0  0  0  0  # atno 8008 bound_to 7997
  156.2662  140.2026  156.6284 H   0  0  0  0  0  0  0  0  0  0  0  0  # atno 8009 bound_to 7997
  154.6681  140.0539  157.0122 H   0  0  0  0  0  0  0  0  0  0  0  0  # atno 8010 bound_to 7997
  140.7286  143.4260  151.0876 H   0  0  0  0  0  0  0  0  0  0  0  0  # atno 10167 bound_to 10162
  157.1506  131.0563  151.2282 H   0  0  0  0  0  0  0  0  0  0  0  0  # atno 10718 bound_to 10713
  154.3561  135.2753  155.2346 H   0  0  0  0  0  0  0  0  0  0  0  0  # atno 10763 bound_to 10752
  154.4554  135.5920  153.6223 H   0  0  0  0  0  0  0  0  0  0  0  0  # atno 10764 bound_to 10752
  152.9846  135.6052  154.3776 H   0  0  0  0  0  0  0  0  0  0  0  0  # atno 10765 bound_to 10752
  141.0955  133.6625  156.4113 H   0  0  0  0  0  0  0  0  0  0  0  0  # atno 11005 bound_to 11000
  145.3768  139.1646  143.4302 LP  0  0  0  0  0  0  0  0  0  0  0  0  # atno 17320 bound_to 7965
  146.3059  140.3845  142.8687 LP  0  0  0  0  0  0  0  0  0  0  0  0  # atno 17321 bound_to 7965
  139.7911  143.8217  152.3152 LP  0  0  0  0  0  0  0  0  0  0  0  0  # atno 17342 bound_to 10162
  139.8201  144.7299  150.9584 LP  0  0  0  0  0  0  0  0  0  0  0  0  # atno 17343 bound_to 10162
  157.4224  130.7445  149.6923 LP  0  0  0  0  0  0  0  0  0  0  0  0  # atno 17370 bound_to 10713
  155.9771  130.4067  150.3734 LP  0  0  0  0  0  0  0  0  0  0  0  0  # atno 17371 bound_to 10713
  140.5149  134.6359  157.5298 LP  0  0  0  0  0  0  0  0  0  0  0  0  # atno 17394 bound_to 11000
  139.9791  134.7166  155.9893 LP  0  0  0  0  0  0  0  0  0  0  0  0  # atno 17395 bound_to 11000

$$$$
