AV-unprocessed.smi:861|AV-procd|sdf|3969|dock4
  -GOLD-   22720 1443D 1   1.00000     0.00000
 Structure written by MMmdl.
 44 45  0  0  0  0  0  0  0  0  2 V2000
  143.8099  132.3513  149.6286 C   0  0  0  0  0  0  0  0  0  0  0  0
  144.4751  132.9170  150.8955 C   0  0  0  0  0  0  0  0  0  0  0  0
  144.6998  134.4299  150.7460 C   0  0  0  0  0  0  0  0  0  0  0  0
  145.7971  132.1990  151.2405 C   0  0  0  0  0  0  0  0  0  0  0  0
  145.6063  130.8374  151.9381 C   0  0  0  0  0  0  0  0  0  0  0  0
  146.8264  129.9922  151.8883 N   0  3  2  0  0  0  0  0  0  0  0  0
  146.5436  128.6292  151.3788 C   0  0  0  0  0  0  0  0  0  0  0  0
  147.8388  127.8065  151.2917 C   0  0  0  0  0  0  0  0  0  0  0  0
  148.4618  127.7682  152.5689 O   0  0  0  0  0  0  0  0  0  0  0  0
  148.8348  129.0644  153.0257 C   0  0  2  0  0  0  0  0  0  0  0  0
  149.5786  128.9102  154.3597 C   0  0  0  0  0  0  0  0  0  0  0  0
  151.0192  128.8233  154.1642 N   0  0  0  0  0  0  0  0  0  0  0  0
  151.8951  129.5881  154.9461 C   0  0  0  0  0  0  0  0  0  0  0  0
  153.2817  129.4813  154.7192 C   0  0  0  0  0  0  0  0  0  0  0  0
  154.1353  130.2650  155.5149 C   0  0  0  0  0  0  0  0  0  0  0  0
  153.5361  131.0967  156.4785 C   0  0  0  0  0  0  0  0  0  0  0  0
  152.1968  131.1594  156.6542 N   0  0  0  0  0  0  0  0  0  0  0  0
  151.3858  130.4129  155.8958 N   0  0  0  0  0  0  0  0  0  0  0  0
  147.5593  129.9169  153.1771 C   0  0  0  0  0  0  0  0  0  0  0  0
  144.4714  132.4295  148.7651 H   0  0  0  0  0  0  0  0  0  0  0  0
  142.8947  132.8949  149.3925 H   0  0  0  0  0  0  0  0  0  0  0  0
  143.5353  131.3036  149.7448 H   0  0  0  0  0  0  0  0  0  0  0  0
  143.7850  132.7764  151.7285 H   0  0  0  0  0  0  0  0  0  0  0  0
  145.3909  134.6495  149.9315 H   0  0  0  0  0  0  0  0  0  0  0  0
  145.1125  134.8605  151.6588 H   0  0  0  0  0  0  0  0  0  0  0  0
  143.7634  134.9480  150.5364 H   0  0  0  0  0  0  0  0  0  0  0  0
  146.3897  132.0712  150.3336 H   0  0  0  0  0  0  0  0  0  0  0  0
  146.3784  132.8524  151.8904 H   0  0  0  0  0  0  0  0  0  0  0  0
  145.2903  130.9738  152.9736 H   0  0  0  0  0  0  0  0  0  0  0  0
  144.8016  130.2985  151.4387 H   0  0  0  0  0  0  0  0  0  0  0  0
  145.8300  128.1332  152.0390 H   0  0  0  0  0  0  0  0  0  0  0  0
  146.0816  128.6877  150.3925 H   0  0  0  0  0  0  0  0  0  0  0  0
  147.6163  126.7869  150.9758 H   0  0  0  0  0  0  0  0  0  0  0  0
  148.5210  128.2278  150.5518 H   0  0  0  0  0  0  0  0  0  0  0  0
  149.4997  129.5355  152.2989 H   0  0  0  0  0  0  0  0  0  0  0  0
  149.3687  129.7728  154.9936 H   0  0  0  0  0  0  0  0  0  0  0  0
  149.2242  128.0257  154.8909 H   0  0  0  0  0  0  0  0  0  0  0  0
  151.3879  128.1448  153.5135 H   0  0  0  0  0  0  0  0  0  0  0  0
  153.6801  128.8232  153.9610 H   0  0  0  0  0  0  0  0  0  0  0  0
  155.2075  130.2307  155.3915 H   0  0  0  0  0  0  0  0  0  0  0  0
  154.1396  131.7226  157.1193 H   0  0  0  0  0  0  0  0  0  0  0  0
  147.8378  130.9147  153.5137 H   0  0  0  0  0  0  0  0  0  0  0  0
  146.9092  129.4909  153.9434 H   0  0  0  0  0  0  0  0  0  0  0  0
  147.4486  130.4217  151.2183 H   0  0  0  0  0  0  0  0  0  0  0  0
  1  2  1  0  0  0  0
  1 20  1  0  0  0  0
  1 21  1  0  0  0  0
  1 22  1  0  0  0  0
  2  3  1  0  0  0  0
  2  4  1  0  0  0  0
  2 23  1  0  0  0  0
  3 24  1  0  0  0  0
  3 25  1  0  0  0  0
  3 26  1  0  0  0  0
  4  5  1  0  0  0  0
  4 27  1  0  0  0  0
  4 28  1  0  0  0  0
  5  6  1  0  0  0  0
  5 29  1  0  0  0  0
  5 30  1  0  0  0  0
  6 19  1  0  0  0  0
  6  7  1  0  0  0  0
  6 44  1  0  0  0  0
  7  8  1  0  0  0  0
  7 31  1  0  0  0  0
  7 32  1  0  0  0  0
  8  9  1  0  0  0  0
  8 33  1  0  0  0  0
  8 34  1  0  0  0  0
  9 10  1  0  0  0  0
 10 11  1  0  0  0  0
 10 19  1  0  0  0  0
 10 35  1  0  0  0  0
 11 12  1  0  0  0  0
 11 36  1  0  0  0  0
 11 37  1  0  0  0  0
 12 13  1  0  0  0  0
 12 38  1  0  0  0  0
 13 18  1  0  0  0  0
 13 14  2  0  0  0  0
 14 15  1  0  0  0  0
 14 39  1  0  0  0  0
 15 16  2  0  0  0  0
 15 40  1  0  0  0  0
 16 17  1  0  0  0  0
 16 41  1  0  0  0  0
 17 18  2  0  0  0  0
 19 42  1  0  0  0  0
 19 43  1  0  0  0  0
M  CHG  1   6   1
M  END
> <s_m_source_file>
AV-unprocessed.smi

> <i_m_source_file_index>
861

> <i_lp_mmshare_version>
43012

> <i_f3d_flags>
0

> <s_epik_input>
W0NIM11bQ0hdKFtDSDNdKVtDSDJdW0NIMl1OMVtDSDJdW0NIMl1PW0NASF0oW0NIMl0xKVtDSDJdW05IXWMyW2NIXVtjSF1bY0hdbm4y

> <s_epik_cmdline>
J2VwaWtfcHl0aG9uJywgJy1waCcsICc3LjAnLCAnLXRuJywgJzgnLCAnLW1hJywgJzIwMCcsICctbWV0YWxfYmluZGluZycsICctaW1hZScsICc8aW5maWxlLm1hZT4nLCAnLW9tYWUnLCAnPG91dGZpbGUubWFlPic=

> <r_lp_tautomer_probability>
0.999978

> <r_epik_Ionization_Penalty>
0.114704

> <r_epik_Ionization_Penalty_Charging>
0.0953451

> <r_epik_Ionization_Penalty_Neutral>
0.0193593

> <r_epik_State_Penalty>
0.104983

> <r_epik_Charging_Adjusted_Penalty>
0.200328

> <i_epik_Tot_Q>
1

> <i_epik_Tot_abs_Q>
1

> <r_epik_Metal_State_Penalty>
0.100113

> <b_epik_Metal_Only>
0

> <s_lp_Force_Field>
OPLS_2005

> <r_lp_Energy>
25.0457

> <b_lp_Chiralities_Consistent>
1

> <s_lp_Variant>
AV-unprocessed.smi:861-4

> <Gold.Version>
5.8.1

> <Gold.Id.Protein>
6NUR|6NUR_protein|mol2

> <Gold.PLP.Fitness>
42.0940

> <Gold.PLP.PLP>
-38.9736

> <Gold.PLP.part.hbond>
-2.0000

> <Gold.PLP.part.metal>
0.0000

> <Gold.PLP.part.buried>
-6.6072

> <Gold.PLP.part.nonpolar>
-30.5803

> <Gold.PLP.part.repulsive>
0.2094

> <Gold.PLP.ligand.clash>
0.0000

> <Gold.PLP.ligand.torsion>
1.4539

> <Gold.PLP.Chemscore.Hbond>
1.9760

> <Gold.PLP.Chemscore.CHOScore>
0.0000

> <Gold.PLP.Chemscore.Metal>
0.0000

> <Gold.Chemscore.Hbonds>
donor molecule, donor type, donor heavy atom, donor atom, acceptor molecule, acceptor atom, score
      L1  H     6    44       P1 10747  1.00
      L1  H    12    38       P1 10737  0.98

> <Gold.PLP.Chemscore.Internal.Correction>
0.1001

> <Gold.Rescore>
     Score         DG    S(hbond)    S(metal)    S(lipo)     H(rot)  DE(clash)    DE(int)     intcor
     17.56     -19.21       1.97        0.00      98.57       1.71       0.18       1.47       ----

> <Gold.Chemscore.Fitness>
17.5568

> <Gold.Chemscore.DG>
-19.2083

> <Gold.Chemscore.ZeroCoef>
-5.4800

> <Gold.Chemscore.Hbond>
1.9699

> <Gold.Chemscore.Metal>
0.0000

> <Gold.Chemscore.Lipo>
98.5746

> <Gold.Chemscore.Internal_Hbond>
0.0000

> <Gold.Chemscore.DEClash>
0.1771

> <Gold.Chemscore.DEInternal>
1.4745

> <Gold.Chemscore.Rot>
1.7127

> <Gold.Chemscore.Internal.Correction>
   9.000000E+99

> <Gold.Chemscore.Hbonds>
donor molecule, donor type, donor heavy atom, donor atom, acceptor molecule, acceptor atom, score
      L1  H     6    44       P1 10747  1.00
      L1  H    12    38       P1 10737  0.92

> <Gold.Chemscore.Hbond.Weighted>
-6.5795

> <Gold.Chemscore.Metal.Weighted>
-0.0000

> <Gold.Chemscore.Lipo.Weighted>
-11.5332

> <Gold.Chemscore.Internal_Hbond.Weighted>
0.0000

> <Gold.Chemscore.DEClash.Weighted>
0.1771

> <Gold.Chemscore.DEInternal.Weighted>
1.4745

> <Gold.Chemscore.Rot.Weighted>
4.3844

> <Gold.Chemscore.Internal.Correction.Weighted>
   9.000000E+99

> <Gold.Protein.RotatedTorsions>
[ 6907 6896 6895 6894 ] final  174.45 input  -60.11 | X-H torsion
[ 7974 7965 7964 7962 ] final   83.68 input  175.53 | X-H torsion
[ 8008 7997 7996 7995 ] final -152.19 input   59.86 | X-H torsion
[ 10167 10162 10161 10158 ] final  -41.33 input  -65.29 | X-H torsion
[ 10718 10713 10712 10709 ] final  -66.50 input   66.30 | X-H torsion
[ 10763 10752 10751 10750 ] final   74.06 input  -60.55 | X-H torsion
[ 11005 11000 10999 10996 ] final  -73.80 input  -57.11 | X-H torsion

> <Gold.Protein.ActiveResidues>
 VAL166  LYS551  ARG553  GLY616  TRP617  ASP618  TYR619  PRO620  LYS621  CYS622 
 ASP623  PHE694  ASN695  SER759  ASP760  ASP761  ALA762  ILE779  LEU786  VAL792 
 PHE793  MET794  SER795  GLU796  ALA797  LYS798  CYS799  TRP800  GLU811  SER814 

> <Gold.Protein.RotatedAtoms>
  151.7521  133.3328  159.3394 H   0  0  0  0  0  0  0  0  0  0  0  0  # atno 6907 bound_to 6896
  150.7531  134.6183  159.6132 H   0  0  0  0  0  0  0  0  0  0  0  0  # atno 6908 bound_to 6896
  152.3461  134.7070  160.0301 H   0  0  0  0  0  0  0  0  0  0  0  0  # atno 6909 bound_to 6896
  145.6088  139.2364  143.2204 H   0  0  0  0  0  0  0  0  0  0  0  0  # atno 7974 bound_to 7965
  155.6512  140.0712  157.2586 H   0  0  0  0  0  0  0  0  0  0  0  0  # atno 8008 bound_to 7997
  154.4162  140.1733  156.1727 H   0  0  0  0  0  0  0  0  0  0  0  0  # atno 8009 bound_to 7997
  155.9775  140.3356  155.6635 H   0  0  0  0  0  0  0  0  0  0  0  0  # atno 8010 bound_to 7997
  140.7006  143.3101  151.3051 H   0  0  0  0  0  0  0  0  0  0  0  0  # atno 10167 bound_to 10162
  156.0609  130.4263  150.1717 H   0  0  0  0  0  0  0  0  0  0  0  0  # atno 10718 bound_to 10713
  153.0562  135.5040  154.7986 H   0  0  0  0  0  0  0  0  0  0  0  0  # atno 10763 bound_to 10752
  154.6810  135.2968  154.9615 H   0  0  0  0  0  0  0  0  0  0  0  0  # atno 10764 bound_to 10752
  154.0401  135.6718  153.4842 H   0  0  0  0  0  0  0  0  0  0  0  0  # atno 10765 bound_to 10752
  141.1627  133.6890  156.7267 H   0  0  0  0  0  0  0  0  0  0  0  0  # atno 11005 bound_to 11000
  146.1520  140.6911  142.9317 LP  0  0  0  0  0  0  0  0  0  0  0  0  # atno 17320 bound_to 7965
  144.7279  140.4581  143.6960 LP  0  0  0  0  0  0  0  0  0  0  0  0  # atno 17321 bound_to 7965
  139.6521  144.0344  152.2633 LP  0  0  0  0  0  0  0  0  0  0  0  0  # atno 17342 bound_to 10162
  139.9883  144.6379  150.7837 LP  0  0  0  0  0  0  0  0  0  0  0  0  # atno 17343 bound_to 10162
  156.9786  130.9857  151.3442 LP  0  0  0  0  0  0  0  0  0  0  0  0  # atno 17370 bound_to 10713
  157.5617  130.8250  149.8274 LP  0  0  0  0  0  0  0  0  0  0  0  0  # atno 17371 bound_to 10713
  140.2776  134.8343  157.3904 LP  0  0  0  0  0  0  0  0  0  0  0  0  # atno 17394 bound_to 11000
  140.1463  134.4906  155.7993 LP  0  0  0  0  0  0  0  0  0  0  0  0  # atno 17395 bound_to 11000

$$$$
