AV-unprocessed.smi:287|AV-procd|sdf|2208|dock7
  -GOLD-   2262022 43D 1   1.00000     0.00000
 Structure written by MMmdl.
 55 58  0  0  0  0  0  0  0  0  1 V2000
  154.6708  140.1075  162.3361 C   0  0  0  0  0  0  0  0  0  0  0  0
  153.8001  140.9986  161.5181 C   0  0  0  0  0  0  0  0  0  0  0  0
  153.3034  140.9293  160.2491 C   0  0  0  0  0  0  0  0  0  0  0  0
  152.5270  142.1064  160.0299 C   0  0  0  0  0  0  0  0  0  0  0  0
  151.7692  142.4661  158.7579 C   0  0  2  0  0  0  0  0  0  0  0  0
  152.1273  143.8898  158.2933 C   0  0  0  0  0  0  0  0  0  0  0  0
  150.3682  142.4967  158.9517 O   0  0  0  0  0  0  0  0  0  0  0  0
  152.0328  141.4582  157.6168 C   0  0  0  0  0  0  0  0  0  0  0  0
  151.5753  140.1103  157.9279 N   0  0  0  0  0  0  0  0  0  0  0  0
  151.5578  139.1462  156.9837 C   0  0  0  0  0  0  0  0  0  0  0  0
  152.3220  139.3880  155.8921 N   0  0  0  0  0  0  0  0  0  0  0  0
  152.3790  138.4948  154.9010 C   0  0  0  0  0  0  0  0  0  0  0  0
  151.7616  137.3167  154.8045 N   0  0  0  0  0  0  0  0  0  0  0  0
  150.9849  137.0642  155.8977 C   0  0  0  0  0  0  0  0  0  0  0  0
  150.8259  137.9216  157.0253 C   0  0  0  0  0  0  0  0  0  0  0  0
  149.9539  137.3271  157.9317 N   0  0  0  0  0  0  0  0  0  0  0  0
  149.6259  136.1943  157.3734 C   0  0  0  0  0  0  0  0  0  0  0  0
  150.2052  135.9528  156.1491 N   0  0  0  0  0  0  0  0  0  0  0  0
  150.0256  134.7489  155.2815 C   0  0  1  0  0  0  0  0  0  0  0  0
  150.6386  133.6643  155.9085 O   0  0  0  0  0  0  0  0  0  0  0  0
  149.8106  132.5128  155.7928 C   0  0  1  0  0  0  0  0  0  0  0  0
  150.1359  131.5262  156.9252 C   0  0  0  0  0  0  0  0  0  0  0  0
  149.9765  132.1552  158.1788 O   0  0  0  0  0  0  0  0  0  0  0  0
  148.4044  133.1084  155.8845 C   0  0  2  0  0  0  0  0  0  0  0  0
  147.4008  132.2499  155.3730 O   0  0  0  0  0  0  0  0  0  0  0  0
  148.5348  134.4161  155.1073 C   0  0  2  0  0  0  0  0  0  0  0  0
  148.2137  134.2581  153.7372 O   0  0  0  0  0  0  0  0  0  0  0  0
  152.6063  142.8017  161.2128 C   0  0  0  0  0  0  0  0  0  0  0  0
  152.0273  144.0898  161.6975 C   0  0  0  0  0  0  0  0  0  0  0  0
  153.3797  142.1400  162.1177 O   0  0  0  0  0  0  0  0  0  0  0  0
  150.5335  134.9977  154.3482 H   0  0  0  0  0  0  0  0  0  0  0  0
  149.9553  132.0583  154.8104 H   0  0  0  0  0  0  0  0  0  0  0  0
  148.1683  133.3316  156.9250 H   0  0  0  0  0  0  0  0  0  0  0  0
  147.9007  135.1984  155.5275 H   0  0  0  0  0  0  0  0  0  0  0  0
  154.9159  139.1955  161.7914 H   0  0  0  0  0  0  0  0  0  0  0  0
  154.1721  139.8240  163.2632 H   0  0  0  0  0  0  0  0  0  0  0  0
  155.6039  140.6090  162.5927 H   0  0  0  0  0  0  0  0  0  0  0  0
  153.4795  140.1217  159.5541 H   0  0  0  0  0  0  0  0  0  0  0  0
  153.1872  143.9796  158.0539 H   0  0  0  0  0  0  0  0  0  0  0  0
  151.9006  144.6280  159.0638 H   0  0  0  0  0  0  0  0  0  0  0  0
  151.5717  144.1683  157.3968 H   0  0  0  0  0  0  0  0  0  0  0  0
  150.0235  143.2669  158.5268 H   0  0  0  0  0  0  0  0  0  0  0  0
  151.5898  141.8101  156.6841 H   0  0  0  0  0  0  0  0  0  0  0  0
  153.1095  141.3934  157.4539 H   0  0  0  0  0  0  0  0  0  0  0  0
  151.2274  139.9736  158.8661 H   0  0  0  0  0  0  0  0  0  0  0  0
  153.0109  138.7616  154.0669 H   0  0  0  0  0  0  0  0  0  0  0  0
  148.9504  135.4958  157.8459 H   0  0  0  0  0  0  0  0  0  0  0  0
  149.5121  130.6337  156.8640 H   0  0  0  0  0  0  0  0  0  0  0  0
  151.1741  131.2005  156.8542 H   0  0  0  0  0  0  0  0  0  0  0  0
  149.0556  132.3135  158.3209 H   0  0  0  0  0  0  0  0  0  0  0  0
  147.6512  131.9807  154.5024 H   0  0  0  0  0  0  0  0  0  0  0  0
  148.5758  134.9912  153.2627 H   0  0  0  0  0  0  0  0  0  0  0  0
  152.4550  144.9330  161.1553 H   0  0  0  0  0  0  0  0  0  0  0  0
  152.2267  144.2378  162.7594 H   0  0  0  0  0  0  0  0  0  0  0  0
  150.9467  144.1062  161.5540 H   0  0  0  0  0  0  0  0  0  0  0  0
  1  2  1  0  0  0  0
  1 35  1  0  0  0  0
  1 36  1  0  0  0  0
  1 37  1  0  0  0  0
  2 30  1  0  0  0  0
  2  3  2  0  0  0  0
  3  4  1  0  0  0  0
  3 38  1  0  0  0  0
  4  5  1  0  0  0  0
  4 28  2  0  0  0  0
  5  6  1  0  0  0  0
  5  7  1  0  0  0  0
  5  8  1  0  0  0  0
  6 39  1  0  0  0  0
  6 40  1  0  0  0  0
  6 41  1  0  0  0  0
  7 42  1  0  0  0  0
  8  9  1  0  0  0  0
  8 43  1  0  0  0  0
  8 44  1  0  0  0  0
  9 10  1  0  0  0  0
  9 45  1  0  0  0  0
 10 15  1  0  0  0  0
 10 11  2  0  0  0  0
 11 12  1  0  0  0  0
 12 13  2  0  0  0  0
 12 46  1  0  0  0  0
 13 14  1  0  0  0  0
 14 18  1  0  0  0  0
 14 15  2  0  0  0  0
 15 16  1  0  0  0  0
 16 17  2  0  0  0  0
 17 18  1  0  0  0  0
 17 47  1  0  0  0  0
 18 19  1  0  0  0  0
 19 31  1  0  0  0  0
 19 26  1  0  0  0  0
 19 20  1  0  0  0  0
 20 21  1  0  0  0  0
 21 32  1  0  0  0  0
 21 22  1  0  0  0  0
 21 24  1  0  0  0  0
 22 23  1  0  0  0  0
 22 48  1  0  0  0  0
 22 49  1  0  0  0  0
 23 50  1  0  0  0  0
 24 33  1  0  0  0  0
 24 25  1  0  0  0  0
 24 26  1  0  0  0  0
 25 51  1  0  0  0  0
 26 34  1  0  0  0  0
 26 27  1  0  0  0  0
 27 52  1  0  0  0  0
 28 29  1  0  0  0  0
 28 30  1  0  0  0  0
 29 53  1  0  0  0  0
 29 54  1  0  0  0  0
 29 55  1  0  0  0  0
M  END
> <s_m_source_file>
AV-unprocessed.smi

> <i_m_source_file_index>
287

> <i_lp_mmshare_version>
43012

> <i_f3d_flags>
0

> <s_epik_input>
W0NIM11jMVtjSF1jKGMobzEpW0NIM10pW0NAQF0oW0NIM10pKFtPSF0pW0NIMl1bTkhdYyhuW2NIXW4yKWMoYzIzKW5bY0hdbjNbQ0BASF00T1tDQEhdKFtDSDJdW09IXSlbQ0BASF0oW09IXSlbQ0BIXTRbT0hd

> <s_epik_cmdline>
J2VwaWtfcHl0aG9uJywgJy1waCcsICc3LjAnLCAnLXRuJywgJzgnLCAnLW1hJywgJzIwMCcsICctbWV0YWxfYmluZGluZycsICctaW1hZScsICc8aW5maWxlLm1hZT4nLCAnLW9tYWUnLCAnPG91dGZpbGUubWFlPic=

> <r_lp_tautomer_probability>
1

> <r_epik_Ionization_Penalty>
0.000992612

> <r_epik_Ionization_Penalty_Charging>
0

> <r_epik_Ionization_Penalty_Neutral>
0.000992612

> <r_epik_State_Penalty>
-0

> <r_epik_Charging_Adjusted_Penalty>
0

> <i_epik_Tot_Q>
0

> <i_epik_Tot_abs_Q>
0

> <r_epik_Metal_State_Penalty>
-0

> <b_epik_Metal_Only>
0

> <s_epik_Chemistry_Notes>
This compound contains an acetal/aminal-like group ( X-CH(R)-Y where X, Y are N, S, or O) that may be acid/base labile, releasing an aldehyde.

> <s_lp_Force_Field>
OPLS_2005

> <r_lp_Energy>
44.724

> <b_lp_Chiralities_Consistent>
1

> <s_lp_Variant>
AV-unprocessed.smi:287-32

> <Gold.Version>
5.8.1

> <Gold.Id.Protein>
6NUR|6NUR_protein|mol2

> <Gold.PLP.Fitness>
58.7329

> <Gold.PLP.PLP>
-48.2387

> <Gold.PLP.part.hbond>
-4.8172

> <Gold.PLP.part.metal>
0.0000

> <Gold.PLP.part.buried>
-6.4475

> <Gold.PLP.part.nonpolar>
-36.5350

> <Gold.PLP.part.repulsive>
0.2208

> <Gold.PLP.ligand.clash>
0.0000

> <Gold.PLP.ligand.torsion>
0.4317

> <Gold.PLP.Chemscore.Hbond>
3.7600

> <Gold.PLP.Chemscore.CHOScore>
0.0000

> <Gold.PLP.Chemscore.Metal>
0.0000

> <Gold.Chemscore.Hbonds>
donor molecule, donor type, donor heavy atom, donor atom, acceptor molecule, acceptor atom, score
      L1  H    27    52       P1  7948  1.00
      P1  H  6896  6909       L1    23  0.22
      P1  H  7997  8009       L1    11  0.62
      P1  H 10752 10765       L1    13  0.87

> <Gold.PLP.Chemscore.Internal.Correction>
0.0776

> <Gold.Rescore>
     Score         DG    S(hbond)    S(metal)    S(lipo)     H(rot)  DE(clash)    DE(int)     intcor
     11.42     -14.04       2.62        0.00     113.67       5.27       1.29       1.33       ----

> <Gold.Chemscore.Fitness>
11.4218

> <Gold.Chemscore.DG>
-14.0407

> <Gold.Chemscore.ZeroCoef>
-5.4800

> <Gold.Chemscore.Hbond>
2.6184

> <Gold.Chemscore.Metal>
0.0000

> <Gold.Chemscore.Lipo>
113.6696

> <Gold.Chemscore.Internal_Hbond>
0.0000

> <Gold.Chemscore.DEClash>
1.2904

> <Gold.Chemscore.DEInternal>
1.3285

> <Gold.Chemscore.Rot>
5.2672

> <Gold.Chemscore.Internal.Correction>
   9.000000E+99

> <Gold.Chemscore.Hbonds>
donor molecule, donor type, donor heavy atom, donor atom, acceptor molecule, acceptor atom, score
      L1  H    27    52       P1  7948  0.70
      P1  H  6896  6909       L1    23  0.22
      P1  H  7997  8009       L1    11  0.36
      P1  H 10752 10765       L1    13  0.57

> <Gold.Chemscore.Hbond.Weighted>
-8.7453

> <Gold.Chemscore.Metal.Weighted>
-0.0000

> <Gold.Chemscore.Lipo.Weighted>
-13.2993

> <Gold.Chemscore.Internal_Hbond.Weighted>
0.0000

> <Gold.Chemscore.DEClash.Weighted>
1.2904

> <Gold.Chemscore.DEInternal.Weighted>
1.3285

> <Gold.Chemscore.Rot.Weighted>
13.4839

> <Gold.Chemscore.Internal.Correction.Weighted>
   9.000000E+99

> <Gold.Protein.RotatedTorsions>
[ 6907 6896 6895 6894 ] final  -59.84 input  -60.11 | X-H torsion
[ 7974 7965 7964 7962 ] final  152.13 input  175.53 | X-H torsion
[ 8008 7997 7996 7995 ] final -155.02 input   59.86 | X-H torsion
[ 10167 10162 10161 10158 ] final   75.92 input  -65.29 | X-H torsion
[ 10718 10713 10712 10709 ] final  -99.58 input   66.30 | X-H torsion
[ 10763 10752 10751 10750 ] final  165.47 input  -60.55 | X-H torsion
[ 11005 11000 10999 10996 ] final  -43.37 input  -57.11 | X-H torsion

> <Gold.Protein.ActiveResidues>
 VAL166  LYS551  ARG553  GLY616  TRP617  ASP618  TYR619  PRO620  LYS621  CYS622 
 ASP623  PHE694  ASN695  SER759  ASP760  ASP761  ALA762  ILE779  LEU786  VAL792 
 PHE793  MET794  SER795  GLU796  ALA797  LYS798  CYS799  TRP800  GLU811  SER814 

> <Gold.Protein.RotatedAtoms>
  150.7900  134.6915  159.6499 H   0  0  0  0  0  0  0  0  0  0  0  0  # atno 6907 bound_to 6896
  152.4003  134.6293  160.0081 H   0  0  0  0  0  0  0  0  0  0  0  0  # atno 6908 bound_to 6896
  151.6566  133.3282  159.3200 H   0  0  0  0  0  0  0  0  0  0  0  0  # atno 6909 bound_to 6896
  144.8244  139.6628  143.6086 H   0  0  0  0  0  0  0  0  0  0  0  0  # atno 7974 bound_to 7965
  155.6954  140.0760  157.2431 H   0  0  0  0  0  0  0  0  0  0  0  0  # atno 8008 bound_to 7997
  154.4082  140.1657  156.2185 H   0  0  0  0  0  0  0  0  0  0  0  0  # atno 8009 bound_to 7997
  155.9415  140.3384  155.6334 H   0  0  0  0  0  0  0  0  0  0  0  0  # atno 8010 bound_to 7997
  139.9978  144.5709  150.7763 H   0  0  0  0  0  0  0  0  0  0  0  0  # atno 10167 bound_to 10162
  156.0138  130.5289  150.6690 H   0  0  0  0  0  0  0  0  0  0  0  0  # atno 10718 bound_to 10713
  154.3245  135.2755  155.2503 H   0  0  0  0  0  0  0  0  0  0  0  0  # atno 10763 bound_to 10752
  154.4842  135.5850  153.6415 H   0  0  0  0  0  0  0  0  0  0  0  0  # atno 10764 bound_to 10752
  152.9873  135.6118  154.3432 H   0  0  0  0  0  0  0  0  0  0  0  0  # atno 10765 bound_to 10752
  141.0379  133.6792  156.2724 H   0  0  0  0  0  0  0  0  0  0  0  0  # atno 11005 bound_to 11000
  146.2549  139.6281  142.9401 LP  0  0  0  0  0  0  0  0  0  0  0  0  # atno 17320 bound_to 7965
  145.5033  141.0437  143.2528 LP  0  0  0  0  0  0  0  0  0  0  0  0  # atno 17321 bound_to 7965
  140.7430  143.2840  151.3516 LP  0  0  0  0  0  0  0  0  0  0  0  0  # atno 17342 bound_to 10162
  139.6293  144.0752  152.2462 LP  0  0  0  0  0  0  0  0  0  0  0  0  # atno 17343 bound_to 10162
  157.4417  131.0862  151.0937 LP  0  0  0  0  0  0  0  0  0  0  0  0  # atno 17370 bound_to 10713
  157.1479  130.6171  149.5574 LP  0  0  0  0  0  0  0  0  0  0  0  0  # atno 17371 bound_to 10713
  140.6288  134.5285  157.5557 LP  0  0  0  0  0  0  0  0  0  0  0  0  # atno 17394 bound_to 11000
  139.9254  134.8066  156.1084 LP  0  0  0  0  0  0  0  0  0  0  0  0  # atno 17395 bound_to 11000

$$$$
