AV-unprocessed.smi:3348|AV-procd|sdf|12921|dock9
  -GOLD-   2272019343D 1   1.00000     0.00000
 Structure written by MMmdl.
 47 48  0  0  0  0  0  0  0  0  2 V2000
  151.7777  137.4984  157.9861 C   0  0  0  0  0  0  0  0  0  0  0  0
  152.7234  138.6671  157.6647 C   0  0  2  0  0  0  0  0  0  0  0  0
  153.1696  138.6216  156.1903 C   0  0  0  0  0  0  0  0  0  0  0  0
  152.1367  139.0954  155.2858 N   0  0  0  0  0  0  0  0  0  0  0  0
  151.3754  140.2413  155.3826 C   0  0  0  0  0  0  0  0  0  0  0  0
  150.5424  140.2679  154.3012 C   0  0  0  0  0  0  0  0  0  0  0  0
  150.8713  139.0795  153.5910 C   0  0  0  0  0  0  0  0  0  0  0  0
  151.8283  138.3810  154.1813 N   0  0  0  0  0  0  0  0  0  0  0  0
  153.9034  138.6454  158.5585 N   0  3  0  0  0  0  0  0  0  0  0  0
  153.7121  139.2978  159.8703 C   0  0  0  0  0  0  0  0  0  0  0  0
  154.1088  140.7759  159.8075 C   0  0  0  0  0  0  0  0  0  0  0  0
  153.0912  141.5404  160.4368 O   0  0  0  0  0  0  0  0  0  0  0  0
  153.0908  142.9212  160.0945 C   0  0  1  0  0  0  0  0  0  0  0  0
  152.6865  143.0912  158.6143 C   0  0  0  0  0  0  0  0  0  0  0  0
  152.5405  144.5720  158.2348 C   0  0  0  0  0  0  0  0  0  0  0  0
  151.5405  145.2811  159.1581 C   0  0  0  0  0  0  0  0  0  0  0  0
  151.9426  145.1225  160.6320 C   0  0  0  0  0  0  0  0  0  0  0  0
  152.0901  143.6396  161.0285 C   0  0  2  0  0  0  0  0  0  0  0  0
  152.4972  143.5127  162.5057 C   0  0  0  0  0  0  0  0  0  0  0  0
  150.9081  137.5076  157.3284 H   0  0  0  0  0  0  0  0  0  0  0  0
  151.4058  137.5479  159.0094 H   0  0  0  0  0  0  0  0  0  0  0  0
  152.2776  136.5375  157.8591 H   0  0  0  0  0  0  0  0  0  0  0  0
  152.1834  139.6023  157.8222 H   0  0  0  0  0  0  0  0  0  0  0  0
  154.0758  139.2107  156.0385 H   0  0  0  0  0  0  0  0  0  0  0  0
  153.4152  137.5977  155.9050 H   0  0  0  0  0  0  0  0  0  0  0  0
  151.4885  140.9349  156.2031 H   0  0  0  0  0  0  0  0  0  0  0  0
  149.8080  141.0207  154.0556 H   0  0  0  0  0  0  0  0  0  0  0  0
  150.4466  138.7075  152.6703 H   0  0  0  0  0  0  0  0  0  0  0  0
  154.1881  137.6866  158.7014 H   0  0  0  0  0  0  0  0  0  0  0  0
  152.6618  139.2152  160.1513 H   0  0  0  0  0  0  0  0  0  0  0  0
  154.2923  138.7907  160.6410 H   0  0  0  0  0  0  0  0  0  0  0  0
  155.0717  140.9329  160.2965 H   0  0  0  0  0  0  0  0  0  0  0  0
  154.2172  141.0770  158.7657 H   0  0  0  0  0  0  0  0  0  0  0  0
  154.0818  143.3503  160.2557 H   0  0  0  0  0  0  0  0  0  0  0  0
  153.4214  142.6266  157.9575 H   0  0  0  0  0  0  0  0  0  0  0  0
  151.7421  142.5763  158.4322 H   0  0  0  0  0  0  0  0  0  0  0  0
  153.5118  145.0642  158.2983 H   0  0  0  0  0  0  0  0  0  0  0  0
  152.2152  144.6602  157.1979 H   0  0  0  0  0  0  0  0  0  0  0  0
  151.4808  146.3388  158.9004 H   0  0  0  0  0  0  0  0  0  0  0  0
  150.5429  144.8682  159.0040 H   0  0  0  0  0  0  0  0  0  0  0  0
  152.8826  145.6471  160.8091 H   0  0  0  0  0  0  0  0  0  0  0  0
  151.1969  145.6053  161.2647 H   0  0  0  0  0  0  0  0  0  0  0  0
  151.1146  143.1647  160.9113 H   0  0  0  0  0  0  0  0  0  0  0  0
  153.4782  143.9532  162.6855 H   0  0  0  0  0  0  0  0  0  0  0  0
  152.5379  142.4695  162.8198 H   0  0  0  0  0  0  0  0  0  0  0  0
  151.7815  144.0195  163.1535 H   0  0  0  0  0  0  0  0  0  0  0  0
  154.6527  139.1322  158.0859 H   0  0  0  0  0  0  0  0  0  0  0  0
  1  2  1  0  0  0  0
  1 20  1  0  0  0  0
  1 21  1  0  0  0  0
  1 22  1  0  0  0  0
  2  3  1  0  0  0  0
  2  9  1  0  0  0  0
  2 23  1  0  0  0  0
  3  4  1  0  0  0  0
  3 24  1  0  0  0  0
  3 25  1  0  0  0  0
  4  8  1  0  0  0  0
  4  5  1  0  0  0  0
  5  6  2  0  0  0  0
  5 26  1  0  0  0  0
  6  7  1  0  0  0  0
  6 27  1  0  0  0  0
  7  8  2  0  0  0  0
  7 28  1  0  0  0  0
  9 10  1  0  0  0  0
  9 29  1  0  0  0  0
  9 47  1  0  0  0  0
 10 11  1  0  0  0  0
 10 30  1  0  0  0  0
 10 31  1  0  0  0  0
 11 12  1  0  0  0  0
 11 32  1  0  0  0  0
 11 33  1  0  0  0  0
 12 13  1  0  0  0  0
 13 18  1  0  0  0  0
 13 14  1  0  0  0  0
 13 34  1  0  0  0  0
 14 15  1  0  0  0  0
 14 35  1  0  0  0  0
 14 36  1  0  0  0  0
 15 16  1  0  0  0  0
 15 37  1  0  0  0  0
 15 38  1  0  0  0  0
 16 17  1  0  0  0  0
 16 39  1  0  0  0  0
 16 40  1  0  0  0  0
 17 18  1  0  0  0  0
 17 41  1  0  0  0  0
 17 42  1  0  0  0  0
 18 19  1  0  0  0  0
 18 43  1  0  0  0  0
 19 44  1  0  0  0  0
 19 45  1  0  0  0  0
 19 46  1  0  0  0  0
M  CHG  1   9   1
M  END
> <s_m_source_file>
AV-unprocessed.smi

> <i_m_source_file_index>
3348

> <i_lp_mmshare_version>
43012

> <i_f3d_flags>
0

> <s_epik_input>
bjFbY0hdW2NIXVtjSF1uMVtDSDJdW0NAQEhdKFtDSDNdKVtOSF1bQ0gyXVtDSDJdT1tDQEBIXTJbQ0gyXVtDSDJdW0NIMl1bQ0gyXVtDQEhdMltDSDNd

> <s_epik_cmdline>
J2VwaWtfcHl0aG9uJywgJy1waCcsICc3LjAnLCAnLXRuJywgJzgnLCAnLW1hJywgJzIwMCcsICctbWV0YWxfYmluZGluZycsICctaW1hZScsICc8aW5maWxlLm1hZT4nLCAnLW9tYWUnLCAnPG91dGZpbGUubWFlPic=

> <r_lp_tautomer_probability>
1

> <r_epik_Ionization_Penalty>
0.00925088

> <r_epik_Ionization_Penalty_Charging>
0.00924645

> <r_epik_Ionization_Penalty_Neutral>
4.42413e-06

> <r_epik_State_Penalty>
0.0070118

> <r_epik_Charging_Adjusted_Penalty>
0.0162583

> <i_epik_Tot_Q>
1

> <i_epik_Tot_abs_Q>
1

> <r_epik_Metal_State_Penalty>
0.00701222

> <b_epik_Metal_Only>
0

> <s_lp_Force_Field>
OPLS_2005

> <r_lp_Energy>
15.6253

> <b_lp_Chiralities_Consistent>
1

> <s_lp_Variant>
AV-unprocessed.smi:3348-7

> <Gold.Version>
5.8.1

> <Gold.Id.Protein>
6NUR|6NUR_protein|mol2

> <Gold.PLP.Fitness>
48.3636

> <Gold.PLP.PLP>
-45.8729

> <Gold.PLP.part.hbond>
0.0000

> <Gold.PLP.part.metal>
0.0000

> <Gold.PLP.part.buried>
-3.0584

> <Gold.PLP.part.nonpolar>
-42.8854

> <Gold.PLP.part.repulsive>
0.2629

> <Gold.PLP.ligand.clash>
0.0000

> <Gold.PLP.ligand.torsion>
1.2463

> <Gold.PLP.Chemscore.Hbond>
0.0000

> <Gold.PLP.Chemscore.CHOScore>
1.6226

> <Gold.PLP.Chemscore.Metal>
0.0000

> <Gold.Chemscore.Hbonds>
donor molecule, donor type, donor heavy atom, donor atom, acceptor molecule, acceptor atom, score
      L1  C     7    28       P1  7957  0.75

> <Gold.PLP.Chemscore.Internal.Correction>
0.1154

> <Gold.Rescore>
     Score         DG    S(hbond)    S(metal)    S(lipo)     H(rot)  DE(clash)    DE(int)     intcor
     15.74     -17.05       0.00        0.00     138.65       1.82       0.12       1.19       ----

> <Gold.Chemscore.Fitness>
15.7420

> <Gold.Chemscore.DG>
-17.0527

> <Gold.Chemscore.ZeroCoef>
-5.4800

> <Gold.Chemscore.Hbond>
0.0000

> <Gold.Chemscore.Metal>
0.0000

> <Gold.Chemscore.Lipo>
138.6532

> <Gold.Chemscore.Internal_Hbond>
0.0000

> <Gold.Chemscore.DEClash>
0.1200

> <Gold.Chemscore.DEInternal>
1.1907

> <Gold.Chemscore.Rot>
1.8163

> <Gold.Chemscore.Internal.Correction>
   9.000000E+99

> <Gold.Chemscore.Hbond.Weighted>
-0.0000

> <Gold.Chemscore.Metal.Weighted>
-0.0000

> <Gold.Chemscore.Lipo.Weighted>
-16.2224

> <Gold.Chemscore.Internal_Hbond.Weighted>
0.0000

> <Gold.Chemscore.DEClash.Weighted>
0.1200

> <Gold.Chemscore.DEInternal.Weighted>
1.1907

> <Gold.Chemscore.Rot.Weighted>
4.6497

> <Gold.Chemscore.Internal.Correction.Weighted>
   9.000000E+99

> <Gold.Protein.RotatedTorsions>
[ 6907 6896 6895 6894 ] final  143.00 input  -60.11 | X-H torsion
[ 7974 7965 7964 7962 ] final   61.52 input  175.53 | X-H torsion
[ 8008 7997 7996 7995 ] final  -50.22 input   59.86 | X-H torsion
[ 10167 10162 10161 10158 ] final   44.34 input  -65.29 | X-H torsion
[ 10718 10713 10712 10709 ] final  -27.07 input   66.30 | X-H torsion
[ 10763 10752 10751 10750 ] final  -50.90 input  -60.55 | X-H torsion
[ 11005 11000 10999 10996 ] final  120.43 input  -57.11 | X-H torsion

> <Gold.Protein.ActiveResidues>
 VAL166  LYS551  ARG553  GLY616  TRP617  ASP618  TYR619  PRO620  LYS621  CYS622 
 ASP623  PHE694  ASN695  SER759  ASP760  ASP761  ALA762  ILE779  LEU786  VAL792 
 PHE793  MET794  SER795  GLU796  ALA797  LYS798  CYS799  TRP800  GLU811  SER814 

> <Gold.Protein.RotatedAtoms>
  152.2117  133.4916  159.5113 H   0  0  0  0  0  0  0  0  0  0  0  0  # atno 6907 bound_to 6896
  150.6992  134.1458  159.4131 H   0  0  0  0  0  0  0  0  0  0  0  0  # atno 6908 bound_to 6896
  151.9377  135.0227  160.0584 H   0  0  0  0  0  0  0  0  0  0  0  0  # atno 6909 bound_to 6896
  145.8838  139.3462  143.0690 H   0  0  0  0  0  0  0  0  0  0  0  0  # atno 7974 bound_to 7965
  154.4058  140.1277  156.4631 H   0  0  0  0  0  0  0  0  0  0  0  0  # atno 8008 bound_to 7997
  155.7254  140.3492  155.5015 H   0  0  0  0  0  0  0  0  0  0  0  0  # atno 8009 bound_to 7997
  155.9176  140.1047  157.1221 H   0  0  0  0  0  0  0  0  0  0  0  0  # atno 8010 bound_to 7997
  140.3352  144.2538  150.6162 H   0  0  0  0  0  0  0  0  0  0  0  0  # atno 10167 bound_to 10162
  156.4430  130.4468  149.7040 H   0  0  0  0  0  0  0  0  0  0  0  0  # atno 10718 bound_to 10713
  154.1179  135.6539  153.4897 H   0  0  0  0  0  0  0  0  0  0  0  0  # atno 10763 bound_to 10752
  153.0235  135.5263  154.7126 H   0  0  0  0  0  0  0  0  0  0  0  0  # atno 10764 bound_to 10752
  154.6325  135.2978  155.0169 H   0  0  0  0  0  0  0  0  0  0  0  0  # atno 10765 bound_to 10752
  139.9185  134.9634  156.7806 H   0  0  0  0  0  0  0  0  0  0  0  0  # atno 11005 bound_to 11000
  145.8992  140.9254  143.0512 LP  0  0  0  0  0  0  0  0  0  0  0  0  # atno 17320 bound_to 7965
  144.6728  140.1009  143.7460 LP  0  0  0  0  0  0  0  0  0  0  0  0  # atno 17321 bound_to 7965
  140.5360  143.2233  151.8162 LP  0  0  0  0  0  0  0  0  0  0  0  0  # atno 17342 bound_to 10162
  139.4849  144.4661  151.9482 LP  0  0  0  0  0  0  0  0  0  0  0  0  # atno 17343 bound_to 10162
  156.3897  130.7621  151.2621 LP  0  0  0  0  0  0  0  0  0  0  0  0  # atno 17370 bound_to 10713
  157.7505  131.0271  150.3992 LP  0  0  0  0  0  0  0  0  0  0  0  0  # atno 17371 bound_to 10713
  140.6547  133.9699  155.7773 LP  0  0  0  0  0  0  0  0  0  0  0  0  # atno 17394 bound_to 11000
  141.0684  134.0242  157.3561 LP  0  0  0  0  0  0  0  0  0  0  0  0  # atno 17395 bound_to 11000

$$$$
