#       Name:                AV-unprocessed.smi:2510
#       Creating user name   scv26
#       Creation time:       Fri Mar 27 13:51:00 2020


#       File generated by GOLD software.
#

@<TRIPOS>MOLECULE
AV-unprocessed.smi:2510
    53    54     1
SMALL
NO_CHARGES


@<TRIPOS>ATOM
      1 ****         0.5291  -1.9284   2.8369 C.3            1 S1                 0.0000
      2 ****        -0.5196  -2.1303   1.7272 C.3            1 S1                 0.0000
      3 ****        -1.3321  -0.8786   1.2872 C.3            1 S1                 0.0000
      4 ****        -1.9074  -0.1788   2.5380 C.3            1 S1                 0.0000
      5 ****        -2.9179  -1.0176   3.3378 C.3            1 S1                 0.0000
      6 ****        -0.6949   0.0718   0.2341 C.3            1 S1                 0.0000
      7 ****         0.7622   0.0855   0.1932 N.am           1 S1                 0.0000
      8 ****         1.5298   1.0203   0.7731 C.2            1 S1                 0.0000
      9 ****         1.0790   1.9453   1.4482 O.2            1 S1                 0.0000
     10 ****         3.0381   0.8898   0.5608 C.3            1 S1                 0.0000
     11 ****         3.4420   1.5842  -0.7127 C.2            1 S1                 0.0000
     12 ****         3.2722   1.1307  -2.0552 C.2            1 S1                 0.0000
     13 ****         3.8028   2.1306  -2.8206 C.2            1 S1                 0.0000
     14 ****         3.9335   2.2807  -4.2981 C.3            1 S1                 0.0000
     15 ****         4.2500   3.0901  -1.9422 N.pl3          1 S1                 0.0000
     16 ****         4.0383   2.7672  -0.6533 N.2            1 S1                 0.0000
     17 ****        -1.2993  -0.7840  -0.8831 C.3            1 S1                 0.0000
     18 ****        -1.6964  -0.1312  -2.2013 C.3            1 S1                 0.0000
     19 ****        -2.3593  -1.1858   0.1591 C.3            1 S1                 0.0000
     20 ****        -3.4667  -0.2903   0.1821 O.3            1 S1                 0.0000
     21 ****        -4.5907  -0.7756  -0.5317 C.3            1 S1                 0.0000
     22 ****         4.6952   3.9581  -2.2044 H              1 S1                 0.0000
     23 ****         1.1091  -2.8405   2.9775 H              1 S1                 0.0000
     24 ****         0.0676  -1.6984   3.7967 H              1 S1                 0.0000
     25 ****         1.2322  -1.1317   2.6034 H              1 S1                 0.0000
     26 ****        -0.0001  -2.5580   0.8702 H              1 S1                 0.0000
     27 ****        -1.2024  -2.9179   2.0461 H              1 S1                 0.0000
     28 ****        -1.1079   0.1575   3.1973 H              1 S1                 0.0000
     29 ****        -2.4074   0.7445   2.2440 H              1 S1                 0.0000
     30 ****        -3.3330  -0.4351   4.1603 H              1 S1                 0.0000
     31 ****        -2.4576  -1.9050   3.7709 H              1 S1                 0.0000
     32 ****        -3.7502  -1.3417   2.7129 H              1 S1                 0.0000
     33 ****        -1.1427   1.0688   0.2468 H              1 S1                 0.0000
     34 ****         1.2148  -0.6446  -0.3373 H              1 S1                 0.0000
     35 ****         3.5594   1.3130   1.4207 H              1 S1                 0.0000
     36 ****         3.3131  -0.1650   0.5226 H              1 S1                 0.0000
     37 ****         2.8230   0.2118  -2.4016 H              1 S1                 0.0000
     38 ****         3.5495   1.4009  -4.8152 H              1 S1                 0.0000
     39 ****         4.9776   2.4102  -4.5841 H              1 S1                 0.0000
     40 ****         3.3754   3.1487  -4.6498 H              1 S1                 0.0000
     41 ****        -0.6607  -1.6466  -1.0811 H              1 S1                 0.0000
     42 ****        -2.3309   0.7413  -2.0440 H              1 S1                 0.0000
     43 ****        -2.2396  -0.8279  -2.8395 H              1 S1                 0.0000
     44 ****        -0.8168   0.2005  -2.7529 H              1 S1                 0.0000
     45 ****        -2.6514  -2.2370   0.1227 H              1 S1                 0.0000
     46 ****        -5.3861  -0.0309  -0.5105 H              1 S1                 0.0000
     47 ****        -4.9749  -1.6897  -0.0776 H              1 S1                 0.0000
     48 ****        -4.3479  -0.9800  -1.5744 H              1 S1                 0.0000
     49 ****         0.0922   2.0278   1.5877 LP             1 S1                 0.0000
     50 ****         1.6995   2.6143   1.8573 LP             1 S1                 0.0000
     51 ****         4.2757   3.2968   0.1611 LP             1 S1                 0.0000
     52 ****        -3.1822   0.5778  -0.2247 LP             1 S1                 0.0000
     53 ****        -3.7348  -0.1405   1.1338 LP             1 S1                 0.0000
@<TRIPOS>BOND
    1    1    2 1     
    2    1   23 1     
    3    1   24 1     
    4    1   25 1     
    5    2    3 1     
    6    2   26 1     
    7    2   27 1     
    8    3   19 1     
    9    3    4 1     
   10    3    6 1     
   11    4    5 1     
   12    4   28 1     
   13    4   29 1     
   14    5   30 1     
   15    5   31 1     
   16    5   32 1     
   17    6    7 1     
   18    6   17 1     
   19    6   33 1     
   20    7    8 am    
   21    7   34 1     
   22    8    9 2     
   23    8   10 1     
   24   10   11 1     
   25   10   35 1     
   26   10   36 1     
   27   11   16 2     
   28   11   12 1     
   29   12   13 2     
   30   12   37 1     
   31   13   14 1     
   32   13   15 1     
   33   14   38 1     
   34   14   39 1     
   35   14   40 1     
   36   15   22 1     
   37   15   16 1     
   38   17   18 1     
   39   17   19 1     
   40   17   41 1     
   41   18   42 1     
   42   18   43 1     
   43   18   44 1     
   44   19   20 1     
   45   19   45 1     
   46   20   21 1     
   47   21   46 1     
   48   21   47 1     
   49   21   48 1     
   50    9   49 1     
   51    9   50 1     
   52   16   51 1     
   53   20   52 1     
   54   20   53 1     
@<TRIPOS>SUBSTRUCTURE
      1 S1             1
@<TRIPOS>SET
LONE_PAIRS      STATIC     ATOMS    <user>   **** ""
5 49 50 51 52 53
DONOR_HYDROGENS      STATIC     ATOMS    <user>   **** ""
2 34 22
ATOM$BLUE        STATIC     ATOMS    COLORGROUP SYSTEM
5 49 50 51 52 53
ATOM$RED        STATIC     ATOMS    COLORGROUP SYSTEM
2 34 22
