AV-unprocessed.smi:1965|AV-procd|sdf|7935|dock6
  -GOLD-   2272010103D 1   1.00000     0.00000
 Structure written by MMmdl.
 37 39  0  0  0  0  0  0  0  0  2 V2000
  145.3869  137.9954  153.5999 O   0  0  0  0  0  0  0  0  0  0  0  0
  146.3829  137.4594  153.1176 C   0  0  0  0  0  0  0  0  0  0  0  0
  147.5959  138.0469  153.1886 N   0  0  0  0  0  0  0  0  0  0  0  0
  148.0075  139.2850  153.7623 C   0  0  0  0  0  0  0  0  0  0  0  0
  149.2611  139.5867  154.1260 N   0  0  0  0  0  0  0  0  0  0  0  0
  149.3559  140.8651  154.6818 C   0  0  0  0  0  0  0  0  0  0  0  0
  148.1551  141.5264  154.7435 C   0  0  0  0  0  0  0  0  0  0  0  0
  146.8502  140.5638  154.1034 S   0  0  0  0  0  0  0  0  0  0  0  0
  146.3383  136.2688  152.4965 N   0  0  0  0  0  0  0  0  0  0  0  0
  145.1518  135.4319  152.3347 C   0  0  1  0  0  0  0  0  0  0  0  0
  144.5842  135.4714  150.9024 C   0  0  0  0  0  0  0  0  0  0  0  0
  144.2131  134.0181  150.5906 C   0  0  0  0  0  0  0  0  0  0  0  0
  145.2242  133.2555  151.3316 N   0  3  2  0  0  0  0  0  0  0  0  0
  145.0457  131.7960  151.4714 C   0  0  0  0  0  0  0  0  0  0  0  0
  146.3178  131.2088  152.1203 C   0  0  0  0  0  0  0  0  0  0  0  0
  146.6938  131.9348  153.4320 C   0  0  0  0  0  0  0  0  0  0  0  0
  146.7369  133.4671  153.2474 C   0  0  0  0  0  0  0  0  0  0  0  0
  145.4084  133.9346  152.6255 C   0  0  1  0  0  0  0  0  0  0  0  0
  148.3277  137.5556  152.6959 H   0  0  0  0  0  0  0  0  0  0  0  0
  150.3198  141.2252  155.0104 H   0  0  0  0  0  0  0  0  0  0  0  0
  147.9590  142.5167  155.1277 H   0  0  0  0  0  0  0  0  0  0  0  0
  147.2057  135.9065  152.1258 H   0  0  0  0  0  0  0  0  0  0  0  0
  144.3715  135.7838  153.0126 H   0  0  0  0  0  0  0  0  0  0  0  0
  143.7348  136.1482  150.8050 H   0  0  0  0  0  0  0  0  0  0  0  0
  145.3506  135.8039  150.2001 H   0  0  0  0  0  0  0  0  0  0  0  0
  143.2190  133.7841  150.9751 H   0  0  0  0  0  0  0  0  0  0  0  0
  144.2345  133.7968  149.5231 H   0  0  0  0  0  0  0  0  0  0  0  0
  144.1646  131.5811  152.0777 H   0  0  0  0  0  0  0  0  0  0  0  0
  144.8822  131.3484  150.4906 H   0  0  0  0  0  0  0  0  0  0  0  0
  146.1840  130.1429  152.3074 H   0  0  0  0  0  0  0  0  0  0  0  0
  147.1482  131.2939  151.4177 H   0  0  0  0  0  0  0  0  0  0  0  0
  145.9614  131.6862  154.2012 H   0  0  0  0  0  0  0  0  0  0  0  0
  147.6558  131.5744  153.7976 H   0  0  0  0  0  0  0  0  0  0  0  0
  146.9001  133.9502  154.2112 H   0  0  0  0  0  0  0  0  0  0  0  0
  147.5753  133.7425  152.6060 H   0  0  0  0  0  0  0  0  0  0  0  0
  144.5993  133.6093  153.2833 H   0  0  0  0  0  0  0  0  0  0  0  0
  146.0862  133.3904  150.8228 H   0  0  0  0  0  0  0  0  0  0  0  0
  1  2  2  0  0  0  0
  2  3  1  0  0  0  0
  2  9  1  0  0  0  0
  3  4  1  0  0  0  0
  3 19  1  0  0  0  0
  4  8  1  0  0  0  0
  4  5  2  0  0  0  0
  5  6  1  0  0  0  0
  6  7  2  0  0  0  0
  6 20  1  0  0  0  0
  7  8  1  0  0  0  0
  7 21  1  0  0  0  0
  9 10  1  0  0  0  0
  9 22  1  0  0  0  0
 10 18  1  0  0  0  0
 10 11  1  0  0  0  0
 10 23  1  0  0  0  0
 11 12  1  0  0  0  0
 11 24  1  0  0  0  0
 11 25  1  0  0  0  0
 12 13  1  0  0  0  0
 12 26  1  0  0  0  0
 12 27  1  0  0  0  0
 13 18  1  0  0  0  0
 13 14  1  0  0  0  0
 13 37  1  0  0  0  0
 14 15  1  0  0  0  0
 14 28  1  0  0  0  0
 14 29  1  0  0  0  0
 15 16  1  0  0  0  0
 15 30  1  0  0  0  0
 15 31  1  0  0  0  0
 16 17  1  0  0  0  0
 16 32  1  0  0  0  0
 16 33  1  0  0  0  0
 17 18  1  0  0  0  0
 17 34  1  0  0  0  0
 17 35  1  0  0  0  0
 18 36  1  0  0  0  0
M  CHG  1  13   1
M  END
> <s_m_source_file>
AV-unprocessed.smi

> <i_m_source_file_index>
1965

> <i_lp_mmshare_version>
43012

> <i_f3d_flags>
0

> <s_epik_input>
czFbY0hdW2NIXW5jMVtOSF1DKD1PKVtOSF1bQ0BIXShbQ0gyXVtDSDJdMilbQ0BASF0oTjIzKVtDSDJdW0NIMl1bQ0gyXVtDSDJdMw==

> <s_epik_cmdline>
J2VwaWtfcHl0aG9uJywgJy1waCcsICc3LjAnLCAnLXRuJywgJzgnLCAnLW1hJywgJzIwMCcsICctbWV0YWxfYmluZGluZycsICctaW1hZScsICc8aW5maWxlLm1hZT4nLCAnLW9tYWUnLCAnPG91dGZpbGUubWFlPic=

> <r_lp_tautomer_probability>
1

> <r_epik_Ionization_Penalty>
0.00125962

> <r_epik_Ionization_Penalty_Charging>
0.00107044

> <r_epik_Ionization_Penalty_Neutral>
0.000189176

> <r_epik_State_Penalty>
-0

> <r_epik_Charging_Adjusted_Penalty>
0.00107044

> <i_epik_Tot_Q>
1

> <i_epik_Tot_abs_Q>
1

> <r_epik_Metal_State_Penalty>
0.0179285

> <b_epik_Metal_Only>
0

> <s_lp_Force_Field>
OPLS_2005

> <r_lp_Energy>
42.2865

> <b_lp_Chiralities_Consistent>
1

> <s_lp_Variant>
AV-unprocessed.smi:1965-4

> <Gold.Version>
5.8.1

> <Gold.Id.Protein>
6NUR|6NUR_protein|mol2

> <Gold.PLP.Fitness>
34.7912

> <Gold.PLP.PLP>
-26.5710

> <Gold.PLP.part.hbond>
-2.0000

> <Gold.PLP.part.metal>
0.0000

> <Gold.PLP.part.buried>
-2.3804

> <Gold.PLP.part.nonpolar>
-23.2177

> <Gold.PLP.part.repulsive>
1.7305

> <Gold.PLP.ligand.clash>
0.0000

> <Gold.PLP.ligand.torsion>
0.2822

> <Gold.PLP.Chemscore.Hbond>
1.9280

> <Gold.PLP.Chemscore.CHOScore>
1.0000

> <Gold.PLP.Chemscore.Metal>
0.0000

> <Gold.Chemscore.Hbonds>
donor molecule, donor type, donor heavy atom, donor atom, acceptor molecule, acceptor atom, score
      L1  H     3    19       P1  7948  1.00
      L1  H     9    22       P1  7948  0.93
      L1  C     7    21       P1  8028  1.00

> <Gold.PLP.Chemscore.Internal.Correction>
0.0007

> <Gold.Rescore>
     Score         DG    S(hbond)    S(metal)    S(lipo)     H(rot)  DE(clash)    DE(int)     intcor
     15.04     -16.62       1.91        0.00      62.64       1.00       0.21       1.37       ----

> <Gold.Chemscore.Fitness>
15.0427

> <Gold.Chemscore.DG>
-16.6194

> <Gold.Chemscore.ZeroCoef>
-5.4800

> <Gold.Chemscore.Hbond>
1.9073

> <Gold.Chemscore.Metal>
0.0000

> <Gold.Chemscore.Lipo>
62.6411

> <Gold.Chemscore.Internal_Hbond>
0.0000

> <Gold.Chemscore.DEClash>
0.2091

> <Gold.Chemscore.DEInternal>
1.3676

> <Gold.Chemscore.Rot>
1.0000

> <Gold.Chemscore.Internal.Correction>
   9.000000E+99

> <Gold.Chemscore.Hbonds>
donor molecule, donor type, donor heavy atom, donor atom, acceptor molecule, acceptor atom, score
      L1  H     3    19       P1  7948  0.97
      L1  H     9    22       P1  7948  0.91

> <Gold.Chemscore.Hbond.Weighted>
-6.3704

> <Gold.Chemscore.Metal.Weighted>
-0.0000

> <Gold.Chemscore.Lipo.Weighted>
-7.3290

> <Gold.Chemscore.Internal_Hbond.Weighted>
0.0000

> <Gold.Chemscore.DEClash.Weighted>
0.2091

> <Gold.Chemscore.DEInternal.Weighted>
1.3676

> <Gold.Chemscore.Rot.Weighted>
2.5600

> <Gold.Chemscore.Internal.Correction.Weighted>
   9.000000E+99

> <Gold.Protein.RotatedTorsions>
[ 6907 6896 6895 6894 ] final   11.44 input  -60.11 | X-H torsion
[ 7974 7965 7964 7962 ] final  -92.13 input  175.53 | X-H torsion
[ 8008 7997 7996 7995 ] final  -94.05 input   59.86 | X-H torsion
[ 10167 10162 10161 10158 ] final   65.95 input  -65.29 | X-H torsion
[ 10718 10713 10712 10709 ] final   90.05 input   66.30 | X-H torsion
[ 10763 10752 10751 10750 ] final   38.82 input  -60.55 | X-H torsion
[ 11005 11000 10999 10996 ] final   95.60 input  -57.11 | X-H torsion

> <Gold.Protein.ActiveResidues>
 VAL166  LYS551  ARG553  GLY616  TRP617  ASP618  TYR619  PRO620  LYS621  CYS622 
 ASP623  PHE694  ASN695  SER759  ASP760  ASP761  ALA762  ILE779  LEU786  VAL792 
 PHE793  MET794  SER795  GLU796  ALA797  LYS798  CYS799  TRP800  GLU811  SER814 

> <Gold.Protein.RotatedAtoms>
  151.7543  135.0825  160.0335 H   0  0  0  0  0  0  0  0  0  0  0  0  # atno 6907 bound_to 6896
  152.3396  133.6047  159.5875 H   0  0  0  0  0  0  0  0  0  0  0  0  # atno 6908 bound_to 6896
  150.7471  133.9659  159.3572 H   0  0  0  0  0  0  0  0  0  0  0  0  # atno 6909 bound_to 6896
  145.4039  140.9539  143.2272 H   0  0  0  0  0  0  0  0  0  0  0  0  # atno 7974 bound_to 7965
  154.7435  140.0493  157.0832 H   0  0  0  0  0  0  0  0  0  0  0  0  # atno 8008 bound_to 7997
  155.0148  140.3140  155.4796 H   0  0  0  0  0  0  0  0  0  0  0  0  # atno 8009 bound_to 7997
  156.2869  140.2177  156.5264 H   0  0  0  0  0  0  0  0  0  0  0  0  # atno 8010 bound_to 7997
  140.1057  144.4864  150.7009 H   0  0  0  0  0  0  0  0  0  0  0  0  # atno 10167 bound_to 10162
  157.6958  131.0356  150.3518 H   0  0  0  0  0  0  0  0  0  0  0  0  # atno 10718 bound_to 10713
  152.9988  135.6238  154.2366 H   0  0  0  0  0  0  0  0  0  0  0  0  # atno 10763 bound_to 10752
  154.2107  135.2800  155.2961 H   0  0  0  0  0  0  0  0  0  0  0  0  # atno 10764 bound_to 10752
  154.5609  135.5705  153.7065 H   0  0  0  0  0  0  0  0  0  0  0  0  # atno 10765 bound_to 10752
  139.8788  134.8907  156.4035 H   0  0  0  0  0  0  0  0  0  0  0  0  # atno 11005 bound_to 11000
  144.8355  139.5558  143.6924 LP  0  0  0  0  0  0  0  0  0  0  0  0  # atno 17320 bound_to 7965
  146.2738  139.6702  142.9277 LP  0  0  0  0  0  0  0  0  0  0  0  0  # atno 17321 bound_to 7965
  140.6953  143.2400  151.5017 LP  0  0  0  0  0  0  0  0  0  0  0  0  # atno 17342 bound_to 10162
  139.5647  144.2072  152.1746 LP  0  0  0  0  0  0  0  0  0  0  0  0  # atno 17343 bound_to 10162
  156.3965  130.3908  149.6991 LP  0  0  0  0  0  0  0  0  0  0  0  0  # atno 17370 bound_to 10713
  156.4323  130.7821  151.2841 LP  0  0  0  0  0  0  0  0  0  0  0  0  # atno 17371 bound_to 10713
  140.9250  133.7618  155.9954 LP  0  0  0  0  0  0  0  0  0  0  0  0  # atno 17394 bound_to 11000
  140.8396  134.3082  157.5318 LP  0  0  0  0  0  0  0  0  0  0  0  0  # atno 17395 bound_to 11000

$$$$
