AV-unprocessed.smi:203|AV-procd|sdf|1587|dock8
  -GOLD-   2262019483D 1   1.00000     0.00000
 Structure written by MMmdl.
 57 61  0  0  0  0  0  0  0  0  1 V2000
  150.1385  137.0382  160.0638 O   0  0  0  0  0  0  0  0  0  0  0  0
  150.4583  137.8396  159.1890 C   0  0  0  0  0  0  0  0  0  0  0  0
  151.7761  138.5959  159.1852 C   0  0  0  0  0  0  0  0  0  0  0  0
  151.6007  139.6282  158.0538 C   0  0  2  0  0  0  0  0  0  0  0  0
  151.5175  141.1070  158.5498 C   0  0  2  0  0  0  0  0  0  0  0  0
  150.7692  142.0330  157.5542 C   0  0  0  0  0  0  0  0  0  0  0  0
  150.6991  143.4791  158.0621 C   0  0  0  0  0  0  0  0  0  0  0  0
  152.1095  143.9965  158.3630 C   0  0  0  0  0  0  0  0  0  0  0  0
  152.8186  143.0654  159.3549 C   0  0  0  0  0  0  0  0  0  0  0  0
  152.8352  141.6851  158.8709 N   0  0  0  0  0  0  0  0  0  0  0  0
  153.6544  140.9277  159.6340 C   0  0  0  0  0  0  0  0  0  0  0  0
  154.2283  139.8504  159.0445 N   0  0  0  0  0  0  0  0  0  0  0  0
  155.0446  139.0609  159.7495 C   0  0  0  0  0  0  0  0  0  0  0  0
  155.4167  139.1713  161.0268 N   0  0  0  0  0  0  0  0  0  0  0  0
  154.8439  140.2590  161.6185 C   0  0  0  0  0  0  0  0  0  0  0  0
  153.9555  141.1833  161.0013 C   0  0  0  0  0  0  0  0  0  0  0  0
  153.5754  142.1596  161.9146 N   0  0  0  0  0  0  0  0  0  0  0  0
  154.2050  141.8315  163.0098 C   0  0  0  0  0  0  0  0  0  0  0  0
  154.9904  140.7049  162.9200 N   0  0  0  0  0  0  0  0  0  0  0  0
  155.7977  140.1236  163.9777 C   0  0  0  0  0  0  0  0  0  0  0  0
  156.3061  138.7105  163.6213 C   0  0  1  0  0  0  0  0  0  0  0  0
  157.1737  138.2249  164.6264 O   0  0  0  0  0  0  0  0  0  0  0  0
  155.1877  137.6731  163.3900 C   0  0  2  0  0  0  0  0  0  0  0  0
  154.3607  137.3439  164.6394 C   0  0  0  0  0  0  0  0  0  0  0  0
  153.9976  135.8732  164.4776 C   0  0  0  0  0  0  0  0  0  0  0  0
  154.6695  135.4625  163.1686 C   0  0  0  0  0  0  0  0  0  0  0  0
  155.7125  136.4094  163.0084 O   0  0  0  0  0  0  0  0  0  0  0  0
  150.3523  139.1561  157.2743 C   0  0  0  0  0  0  0  0  0  0  0  0
  149.7253  138.1651  158.1267 N   0  0  0  0  0  0  0  0  0  0  0  0
  151.9880  139.0444  160.1557 H   0  0  0  0  0  0  0  0  0  0  0  0
  152.5818  137.8976  158.9566 H   0  0  0  0  0  0  0  0  0  0  0  0
  152.4694  139.5238  157.4031 H   0  0  0  0  0  0  0  0  0  0  0  0
  150.9403  141.1047  159.4749 H   0  0  0  0  0  0  0  0  0  0  0  0
  151.2661  142.0264  156.5839 H   0  0  0  0  0  0  0  0  0  0  0  0
  149.7550  141.6767  157.3782 H   0  0  0  0  0  0  0  0  0  0  0  0
  150.2151  144.1157  157.3210 H   0  0  0  0  0  0  0  0  0  0  0  0
  150.0873  143.5248  158.9639 H   0  0  0  0  0  0  0  0  0  0  0  0
  152.6858  144.0570  157.4389 H   0  0  0  0  0  0  0  0  0  0  0  0
  152.0607  145.0073  158.7683 H   0  0  0  0  0  0  0  0  0  0  0  0
  153.8391  143.4168  159.5156 H   0  0  0  0  0  0  0  0  0  0  0  0
  152.3131  143.1056  160.3209 H   0  0  0  0  0  0  0  0  0  0  0  0
  155.4601  138.2205  159.2132 H   0  0  0  0  0  0  0  0  0  0  0  0
  154.1141  142.4060  163.9201 H   0  0  0  0  0  0  0  0  0  0  0  0
  156.6335  140.7937  164.1824 H   0  0  0  0  0  0  0  0  0  0  0  0
  155.1939  140.0969  164.8848 H   0  0  0  0  0  0  0  0  0  0  0  0
  156.9065  138.7701  162.7125 H   0  0  0  0  0  0  0  0  0  0  0  0
  157.8414  138.8754  164.7828 H   0  0  0  0  0  0  0  0  0  0  0  0
  154.5067  138.0191  162.6095 H   0  0  0  0  0  0  0  0  0  0  0  0
  154.9423  137.4778  165.5519 H   0  0  0  0  0  0  0  0  0  0  0  0
  153.4798  137.9821  164.7156 H   0  0  0  0  0  0  0  0  0  0  0  0
  154.4003  135.2964  165.3111 H   0  0  0  0  0  0  0  0  0  0  0  0
  152.9203  135.7090  164.4458 H   0  0  0  0  0  0  0  0  0  0  0  0
  155.0526  134.4422  163.1927 H   0  0  0  0  0  0  0  0  0  0  0  0
  153.9731  135.5478  162.3329 H   0  0  0  0  0  0  0  0  0  0  0  0
  149.6582  139.9637  157.0414 H   0  0  0  0  0  0  0  0  0  0  0  0
  150.6382  138.6852  156.3330 H   0  0  0  0  0  0  0  0  0  0  0  0
  148.8151  137.7759  157.9273 H   0  0  0  0  0  0  0  0  0  0  0  0
  1  2  2  0  0  0  0
  2 29  1  0  0  0  0
  2  3  1  0  0  0  0
  3  4  1  0  0  0  0
  3 30  1  0  0  0  0
  3 31  1  0  0  0  0
  4  5  1  0  0  0  0
  4 28  1  0  0  0  0
  4 32  1  0  0  0  0
  5 10  1  0  0  0  0
  5  6  1  0  0  0  0
  5 33  1  0  0  0  0
  6  7  1  0  0  0  0
  6 34  1  0  0  0  0
  6 35  1  0  0  0  0
  7  8  1  0  0  0  0
  7 36  1  0  0  0  0
  7 37  1  0  0  0  0
  8  9  1  0  0  0  0
  8 38  1  0  0  0  0
  8 39  1  0  0  0  0
  9 10  1  0  0  0  0
  9 40  1  0  0  0  0
  9 41  1  0  0  0  0
 10 11  1  0  0  0  0
 11 16  1  0  0  0  0
 11 12  2  0  0  0  0
 12 13  1  0  0  0  0
 13 14  2  0  0  0  0
 13 42  1  0  0  0  0
 14 15  1  0  0  0  0
 15 19  1  0  0  0  0
 15 16  2  0  0  0  0
 16 17  1  0  0  0  0
 17 18  2  0  0  0  0
 18 19  1  0  0  0  0
 18 43  1  0  0  0  0
 19 20  1  0  0  0  0
 20 21  1  0  0  0  0
 20 44  1  0  0  0  0
 20 45  1  0  0  0  0
 21 22  1  0  0  0  0
 21 23  1  0  0  0  0
 21 46  1  0  0  0  0
 22 47  1  0  0  0  0
 23 27  1  0  0  0  0
 23 24  1  0  0  0  0
 23 48  1  0  0  0  0
 24 25  1  0  0  0  0
 24 49  1  0  0  0  0
 24 50  1  0  0  0  0
 25 26  1  0  0  0  0
 25 51  1  0  0  0  0
 25 52  1  0  0  0  0
 26 27  1  0  0  0  0
 26 53  1  0  0  0  0
 26 54  1  0  0  0  0
 28 29  1  0  0  0  0
 28 55  1  0  0  0  0
 28 56  1  0  0  0  0
 29 57  1  0  0  0  0
M  END
> <s_m_source_file>
AV-unprocessed.smi

> <i_m_source_file_index>
203

> <i_lp_mmshare_version>
43012

> <i_f3d_flags>
0

> <s_epik_input>
Tz1DMVtDSDJdW0NASF0oW0NIMl1bTkhdMSlbQ0BASF0yW0NIMl1bQ0gyXVtDSDJdW0NIMl1OMmMobltjSF1uMyljKGMzNCluW2NIXW40W0NIMl1bQ0BIXShbT0hdKVtDQEBIXTVbQ0gyXVtDSDJdW0NIMl1PNQ==

> <s_epik_cmdline>
J2VwaWtfcHl0aG9uJywgJy1waCcsICc3LjAnLCAnLXRuJywgJzgnLCAnLW1hJywgJzIwMCcsICctbWV0YWxfYmluZGluZycsICctaW1hZScsICc8aW5maWxlLm1hZT4nLCAnLW9tYWUnLCAnPG91dGZpbGUubWFlPic=

> <r_lp_tautomer_probability>
1

> <r_epik_Ionization_Penalty>
0.00175146

> <r_epik_Ionization_Penalty_Charging>
0

> <r_epik_Ionization_Penalty_Neutral>
0.00175146

> <r_epik_State_Penalty>
0.00109045

> <r_epik_Charging_Adjusted_Penalty>
0.00109045

> <i_epik_Tot_Q>
0

> <i_epik_Tot_abs_Q>
0

> <r_epik_Metal_State_Penalty>
-0

> <b_epik_Metal_Only>
0

> <s_lp_Force_Field>
OPLS_2005

> <r_lp_Energy>
57.3727

> <b_lp_Chiralities_Consistent>
1

> <s_lp_Variant>
AV-unprocessed.smi:203-6

> <Gold.Version>
5.8.1

> <Gold.Id.Protein>
6NUR|6NUR_protein|mol2

> <Gold.PLP.Fitness>
52.1469

> <Gold.PLP.PLP>
-48.2443

> <Gold.PLP.part.hbond>
-2.2983

> <Gold.PLP.part.metal>
0.0000

> <Gold.PLP.part.buried>
-3.9592

> <Gold.PLP.part.nonpolar>
-42.7405

> <Gold.PLP.part.repulsive>
0.1146

> <Gold.PLP.ligand.clash>
0.1087

> <Gold.PLP.ligand.torsion>
1.1187

> <Gold.PLP.Chemscore.Hbond>
1.9913

> <Gold.PLP.Chemscore.CHOScore>
0.0000

> <Gold.PLP.Chemscore.Metal>
0.0000

> <Gold.Chemscore.Hbonds>
donor molecule, donor type, donor heavy atom, donor atom, acceptor molecule, acceptor atom, score
      P1  H  6896  6908       L1     1  0.57
      P1  H  6931  6943       L1     1  0.01
      P1  H  7997  8008       L1    12  1.00

> <Gold.PLP.Chemscore.Internal.Correction>
0.2749

> <Gold.Rescore>
     Score         DG    S(hbond)    S(metal)    S(lipo)     H(rot)  DE(clash)    DE(int)     intcor
      8.93     -18.14       1.85        0.00     114.80       2.72       0.42       8.80       ----

> <Gold.Chemscore.Fitness>
8.9267

> <Gold.Chemscore.DG>
-18.1427

> <Gold.Chemscore.ZeroCoef>
-5.4800

> <Gold.Chemscore.Hbond>
1.8525

> <Gold.Chemscore.Metal>
0.0000

> <Gold.Chemscore.Lipo>
114.7967

> <Gold.Chemscore.Internal_Hbond>
0.0000

> <Gold.Chemscore.DEClash>
0.4163

> <Gold.Chemscore.DEInternal>
8.7997

> <Gold.Chemscore.Rot>
2.7171

> <Gold.Chemscore.Internal.Correction>
   9.000000E+99

> <Gold.Chemscore.Hbonds>
donor molecule, donor type, donor heavy atom, donor atom, acceptor molecule, acceptor atom, score
      P1  H  6896  6908       L1     1  0.50
      P1  H  6931  6943       L1     1  0.01
      P1  H  7997  8008       L1    12  0.70

> <Gold.Chemscore.Hbond.Weighted>
-6.1872

> <Gold.Chemscore.Metal.Weighted>
-0.0000

> <Gold.Chemscore.Lipo.Weighted>
-13.4312

> <Gold.Chemscore.Internal_Hbond.Weighted>
0.0000

> <Gold.Chemscore.DEClash.Weighted>
0.4163

> <Gold.Chemscore.DEInternal.Weighted>
8.7997

> <Gold.Chemscore.Rot.Weighted>
6.9557

> <Gold.Chemscore.Internal.Correction.Weighted>
   9.000000E+99

> <Gold.Protein.RotatedTorsions>
[ 6907 6896 6895 6894 ] final -153.01 input  -60.11 | X-H torsion
[ 7974 7965 7964 7962 ] final  153.67 input  175.53 | X-H torsion
[ 8008 7997 7996 7995 ] final -104.67 input   59.86 | X-H torsion
[ 10167 10162 10161 10158 ] final  156.01 input  -65.29 | X-H torsion
[ 10718 10713 10712 10709 ] final -108.43 input   66.30 | X-H torsion
[ 10763 10752 10751 10750 ] final -169.02 input  -60.55 | X-H torsion
[ 11005 11000 10999 10996 ] final -106.54 input  -57.11 | X-H torsion

> <Gold.Protein.ActiveResidues>
 VAL166  LYS551  ARG553  GLY616  TRP617  ASP618  TYR619  PRO620  LYS621  CYS622 
 ASP623  PHE694  ASN695  SER759  ASP760  ASP761  ALA762  ILE779  LEU786  VAL792 
 PHE793  MET794  SER795  GLU796  ALA797  LYS798  CYS799  TRP800  GLU811  SER814 

> <Gold.Protein.RotatedAtoms>
  151.2363  133.4423  159.2605 H   0  0  0  0  0  0  0  0  0  0  0  0  # atno 6907 bound_to 6896
  151.0747  134.9821  159.8336 H   0  0  0  0  0  0  0  0  0  0  0  0  # atno 6908 bound_to 6896
  152.5417  134.2306  159.8876 H   0  0  0  0  0  0  0  0  0  0  0  0  # atno 6909 bound_to 6896
  144.8139  139.6831  143.6129 H   0  0  0  0  0  0  0  0  0  0  0  0  # atno 7974 bound_to 7965
  154.8887  140.0416  157.1826 H   0  0  0  0  0  0  0  0  0  0  0  0  # atno 8008 bound_to 7997
  154.8563  140.2937  155.5546 H   0  0  0  0  0  0  0  0  0  0  0  0  # atno 8009 bound_to 7997
  156.2997  140.2455  156.3530 H   0  0  0  0  0  0  0  0  0  0  0  0  # atno 8010 bound_to 7997
  139.4821  144.5048  151.8115 H   0  0  0  0  0  0  0  0  0  0  0  0  # atno 10167 bound_to 10162
  156.0485  130.5712  150.7960 H   0  0  0  0  0  0  0  0  0  0  0  0  # atno 10718 bound_to 10713
  154.6568  135.2919  154.9918 H   0  0  0  0  0  0  0  0  0  0  0  0  # atno 10763 bound_to 10752
  154.0992  135.6579  153.4869 H   0  0  0  0  0  0  0  0  0  0  0  0  # atno 10764 bound_to 10752
  153.0407  135.5238  154.7500 H   0  0  0  0  0  0  0  0  0  0  0  0  # atno 10765 bound_to 10752
  141.0999  133.8903  157.1868 H   0  0  0  0  0  0  0  0  0  0  0  0  # atno 11005 bound_to 11000
  146.2441  139.6061  142.9472 LP  0  0  0  0  0  0  0  0  0  0  0  0  # atno 17320 bound_to 7965
  145.5259  141.0429  143.2409 LP  0  0  0  0  0  0  0  0  0  0  0  0  # atno 17321 bound_to 7965
  140.4544  144.1809  150.5900 LP  0  0  0  0  0  0  0  0  0  0  0  0  # atno 17342 bound_to 10162
  140.4550  143.2471  151.9296 LP  0  0  0  0  0  0  0  0  0  0  0  0  # atno 17343 bound_to 10162
  157.5387  131.0940  150.9857 LP  0  0  0  0  0  0  0  0  0  0  0  0  # atno 17370 bound_to 10713
  157.0146  130.5650  149.5324 LP  0  0  0  0  0  0  0  0  0  0  0  0  # atno 17371 bound_to 10713
  139.9847  135.0086  156.9835 LP  0  0  0  0  0  0  0  0  0  0  0  0  # atno 17394 bound_to 11000
  140.5047  134.1062  155.7257 LP  0  0  0  0  0  0  0  0  0  0  0  0  # atno 17395 bound_to 11000

$$$$
