AV-unprocessed.smi:1434|AV-procd|sdf|5850|dock8
  -GOLD-   22720 5523D 1   1.00000     0.00000
 Structure written by MMmdl.
 44 45  0  0  0  0  0  0  0  0  1 V2000
  143.6682  142.2653  158.6229 C   0  0  0  0  0  0  0  0  0  0  0  0
  145.3807  142.1014  157.9778 S   0  0  0  0  0  0  0  0  0  0  0  0
  145.8570  143.4208  157.5368 O   0  0  0  0  0  0  0  0  0  0  0  0
  146.1716  141.3146  158.9364 O   0  0  0  0  0  0  0  0  0  0  0  0
  145.1599  141.1340  156.5680 N   0  0  0  0  0  0  0  0  0  0  0  0
  146.3490  140.7653  155.8014 C   0  0  1  0  0  0  0  0  0  0  0  0
  145.9531  140.0611  154.4865 C   0  0  0  0  0  0  0  0  0  0  0  0
  147.1793  139.8048  153.5862 C   0  0  0  0  0  0  0  0  0  0  0  0
  148.0399  141.0749  153.4407 C   0  0  0  0  0  0  0  0  0  0  0  0
  148.3997  141.5554  154.7848 N   0  0  0  0  0  0  0  0  0  0  0  0
  149.5930  141.3876  155.4067 C   0  0  0  0  0  0  0  0  0  0  0  0
  150.4603  140.6144  154.9980 O   0  0  0  0  0  0  0  0  0  0  0  0
  149.7967  142.2042  156.4560 N   0  0  0  0  0  0  0  0  0  0  0  0
  151.0734  142.3988  157.1411 C   0  0  0  0  0  0  0  0  0  0  0  0
  151.3046  141.3525  158.2523 C   0  0  0  0  0  0  0  0  0  0  0  0
  151.9998  141.9033  159.4882 C   0  0  0  0  0  0  0  0  0  0  0  0
  153.1711  141.2940  159.9885 C   0  0  0  0  0  0  0  0  0  0  0  0
  153.7509  141.8142  161.1615 C   0  0  0  0  0  0  0  0  0  0  0  0
  153.1405  142.9176  161.7871 C   0  0  0  0  0  0  0  0  0  0  0  0
  151.9787  143.4605  161.2033 C   0  0  0  0  0  0  0  0  0  0  0  0
  151.4177  142.9730  160.0754 N   0  0  0  0  0  0  0  0  0  0  0  0
  147.2141  142.0082  155.5200 C   0  0  0  0  0  0  0  0  0  0  0  0
  143.6814  142.8631  159.5340 H   0  0  0  0  0  0  0  0  0  0  0  0
  143.2654  141.2771  158.8437 H   0  0  0  0  0  0  0  0  0  0  0  0
  143.0427  142.7557  157.8775 H   0  0  0  0  0  0  0  0  0  0  0  0
  144.4386  141.5245  155.9622 H   0  0  0  0  0  0  0  0  0  0  0  0
  146.9423  140.0744  156.4013 H   0  0  0  0  0  0  0  0  0  0  0  0
  145.4413  139.1211  154.6974 H   0  0  0  0  0  0  0  0  0  0  0  0
  145.2419  140.6848  153.9430 H   0  0  0  0  0  0  0  0  0  0  0  0
  147.7839  139.0055  154.0155 H   0  0  0  0  0  0  0  0  0  0  0  0
  146.8562  139.4539  152.6059 H   0  0  0  0  0  0  0  0  0  0  0  0
  148.9047  140.8819  152.8053 H   0  0  0  0  0  0  0  0  0  0  0  0
  147.4716  141.8495  152.9238 H   0  0  0  0  0  0  0  0  0  0  0  0
  149.0383  142.8115  156.7302 H   0  0  0  0  0  0  0  0  0  0  0  0
  151.8741  142.3349  156.4046 H   0  0  0  0  0  0  0  0  0  0  0  0
  151.1329  143.4033  157.5631 H   0  0  0  0  0  0  0  0  0  0  0  0
  150.3455  140.9273  158.5505 H   0  0  0  0  0  0  0  0  0  0  0  0
  151.8910  140.5215  157.8583 H   0  0  0  0  0  0  0  0  0  0  0  0
  153.6091  140.4395  159.4943 H   0  0  0  0  0  0  0  0  0  0  0  0
  154.6408  141.3678  161.5802 H   0  0  0  0  0  0  0  0  0  0  0  0
  153.5519  143.3365  162.6936 H   0  0  0  0  0  0  0  0  0  0  0  0
  151.4858  144.3085  161.6548 H   0  0  0  0  0  0  0  0  0  0  0  0
  146.6623  142.7360  154.9230 H   0  0  0  0  0  0  0  0  0  0  0  0
  147.4645  142.5159  156.4530 H   0  0  0  0  0  0  0  0  0  0  0  0
  1  2  1  0  0  0  0
  1 23  1  0  0  0  0
  1 24  1  0  0  0  0
  1 25  1  0  0  0  0
  2  3  2  0  0  0  0
  2  4  2  0  0  0  0
  2  5  1  0  0  0  0
  5  6  1  0  0  0  0
  5 26  1  0  0  0  0
  6 22  1  0  0  0  0
  6  7  1  0  0  0  0
  6 27  1  0  0  0  0
  7  8  1  0  0  0  0
  7 28  1  0  0  0  0
  7 29  1  0  0  0  0
  8  9  1  0  0  0  0
  8 30  1  0  0  0  0
  8 31  1  0  0  0  0
  9 10  1  0  0  0  0
  9 32  1  0  0  0  0
  9 33  1  0  0  0  0
 10 11  1  0  0  0  0
 10 22  1  0  0  0  0
 11 12  2  0  0  0  0
 11 13  1  0  0  0  0
 13 14  1  0  0  0  0
 13 34  1  0  0  0  0
 14 15  1  0  0  0  0
 14 35  1  0  0  0  0
 14 36  1  0  0  0  0
 15 16  1  0  0  0  0
 15 37  1  0  0  0  0
 15 38  1  0  0  0  0
 16 21  1  0  0  0  0
 16 17  2  0  0  0  0
 17 18  1  0  0  0  0
 17 39  1  0  0  0  0
 18 19  2  0  0  0  0
 18 40  1  0  0  0  0
 19 20  1  0  0  0  0
 19 41  1  0  0  0  0
 20 21  2  0  0  0  0
 20 42  1  0  0  0  0
 22 43  1  0  0  0  0
 22 44  1  0  0  0  0
M  END
> <s_m_source_file>
AV-unprocessed.smi

> <i_m_source_file_index>
1434

> <i_lp_mmshare_version>
43012

> <i_f3d_flags>
0

> <s_epik_input>
W0NIM11TKD1PKSg9TylbTkhdW0NAQEhdMVtDSDJdW0NIMl1bQ0gyXU4oW0NIMl0xKUMoPU8pW05IXVtDSDJdW0NIMl1jMltjSF1bY0hdW2NIXVtjSF1uMg==

> <s_epik_cmdline>
J2VwaWtfcHl0aG9uJywgJy1waCcsICc3LjAnLCAnLXRuJywgJzgnLCAnLW1hJywgJzIwMCcsICctbWV0YWxfYmluZGluZycsICctaW1hZScsICc8aW5maWxlLm1hZT4nLCAnLW9tYWUnLCAnPG91dGZpbGUubWFlPic=

> <r_epik_Ionization_Penalty>
0.0449488

> <r_epik_Ionization_Penalty_Charging>
0

> <r_epik_Ionization_Penalty_Neutral>
0.0449488

> <r_epik_State_Penalty>
0.0380669

> <r_epik_Charging_Adjusted_Penalty>
0.0380669

> <i_epik_Tot_Q>
0

> <i_epik_Tot_abs_Q>
0

> <r_epik_Metal_State_Penalty>
0.0441384

> <b_epik_Metal_Only>
0

> <s_lp_Force_Field>
OPLS_2005

> <r_lp_Energy>
20.2695

> <b_lp_Chiralities_Consistent>
1

> <s_lp_Variant>
AV-unprocessed.smi:1434-2

> <Gold.Version>
5.8.1

> <Gold.Id.Protein>
6NUR|6NUR_protein|mol2

> <Gold.PLP.Fitness>
40.4987

> <Gold.PLP.PLP>
-36.0603

> <Gold.PLP.part.hbond>
-3.6367

> <Gold.PLP.part.metal>
0.0000

> <Gold.PLP.part.buried>
-1.6100

> <Gold.PLP.part.nonpolar>
-30.5036

> <Gold.PLP.part.repulsive>
0.3378

> <Gold.PLP.ligand.clash>
0.0000

> <Gold.PLP.ligand.torsion>
0.7532

> <Gold.PLP.Chemscore.Hbond>
1.9252

> <Gold.PLP.Chemscore.CHOScore>
0.0000

> <Gold.PLP.Chemscore.Metal>
0.0000

> <Gold.Chemscore.Hbonds>
donor molecule, donor type, donor heavy atom, donor atom, acceptor molecule, acceptor atom, score
      L1  H    13    34       P1  8028  0.20
      P1  H  6934  6946       L1     4  0.67
      P1  H  7989  7998       L1    12  0.94

> <Gold.PLP.Chemscore.Internal.Correction>
0.1693

> <Gold.Rescore>
     Score         DG    S(hbond)    S(metal)    S(lipo)     H(rot)  DE(clash)    DE(int)     intcor
     14.76     -16.62       1.70        0.00      91.21       2.03       0.16       1.71       ----

> <Gold.Chemscore.Fitness>
14.7568

> <Gold.Chemscore.DG>
-16.6239

> <Gold.Chemscore.ZeroCoef>
-5.4800

> <Gold.Chemscore.Hbond>
1.7005

> <Gold.Chemscore.Metal>
0.0000

> <Gold.Chemscore.Lipo>
91.2067

> <Gold.Chemscore.Internal_Hbond>
0.0000

> <Gold.Chemscore.DEClash>
0.1581

> <Gold.Chemscore.DEInternal>
1.7089

> <Gold.Chemscore.Rot>
2.0340

> <Gold.Chemscore.Internal.Correction>
   9.000000E+99

> <Gold.Chemscore.Hbonds>
donor molecule, donor type, donor heavy atom, donor atom, acceptor molecule, acceptor atom, score
      L1  H    13    34       P1  8028  0.20
      P1  H  6934  6946       L1     4  0.67
      P1  H  7989  7998       L1    12  0.91

> <Gold.Chemscore.Hbond.Weighted>
-5.6797

> <Gold.Chemscore.Metal.Weighted>
-0.0000

> <Gold.Chemscore.Lipo.Weighted>
-10.6712

> <Gold.Chemscore.Internal_Hbond.Weighted>
0.0000

> <Gold.Chemscore.DEClash.Weighted>
0.1581

> <Gold.Chemscore.DEInternal.Weighted>
1.7089

> <Gold.Chemscore.Rot.Weighted>
5.2071

> <Gold.Chemscore.Internal.Correction.Weighted>
   9.000000E+99

> <Gold.Protein.RotatedTorsions>
[ 6907 6896 6895 6894 ] final  120.65 input  -60.11 | X-H torsion
[ 7974 7965 7964 7962 ] final -138.68 input  175.53 | X-H torsion
[ 8008 7997 7996 7995 ] final   99.64 input   59.86 | X-H torsion
[ 10167 10162 10161 10158 ] final  127.49 input  -65.29 | X-H torsion
[ 10718 10713 10712 10709 ] final   13.81 input   66.30 | X-H torsion
[ 10763 10752 10751 10750 ] final   34.67 input  -60.55 | X-H torsion
[ 11005 11000 10999 10996 ] final -140.11 input  -57.11 | X-H torsion

> <Gold.Protein.ActiveResidues>
 VAL166  LYS551  ARG553  GLY616  TRP617  ASP618  TYR619  PRO620  LYS621  CYS622 
 ASP623  PHE694  ASN695  SER759  ASP760  ASP761  ALA762  ILE779  LEU786  VAL792 
 PHE793  MET794  SER795  GLU796  ALA797  LYS798  CYS799  TRP800  GLU811  SER814 

> <Gold.Protein.RotatedAtoms>
  152.4382  133.7399  159.6634 H   0  0  0  0  0  0  0  0  0  0  0  0  # atno 6907 bound_to 6896
  150.8269  133.8147  159.3121 H   0  0  0  0  0  0  0  0  0  0  0  0  # atno 6908 bound_to 6896
  151.5812  135.1060  160.0069 H   0  0  0  0  0  0  0  0  0  0  0  0  # atno 6909 bound_to 6896
  144.8738  140.6407  143.5249 H   0  0  0  0  0  0  0  0  0  0  0  0  # atno 7974 bound_to 7965
  156.1125  140.3225  155.8092 H   0  0  0  0  0  0  0  0  0  0  0  0  # atno 8008 bound_to 7997
  155.4648  140.0542  157.3004 H   0  0  0  0  0  0  0  0  0  0  0  0  # atno 8009 bound_to 7997
  154.4770  140.2036  155.9869 H   0  0  0  0  0  0  0  0  0  0  0  0  # atno 8010 bound_to 7997
  139.5576  144.6859  151.4138 H   0  0  0  0  0  0  0  0  0  0  0  0  # atno 10167 bound_to 10162
  157.0301  130.6189  149.5734 H   0  0  0  0  0  0  0  0  0  0  0  0  # atno 10718 bound_to 10713
  153.0153  135.6354  154.1706 H   0  0  0  0  0  0  0  0  0  0  0  0  # atno 10763 bound_to 10752
  154.1446  135.2832  155.3153 H   0  0  0  0  0  0  0  0  0  0  0  0  # atno 10764 bound_to 10752
  154.6099  135.5560  153.7523 H   0  0  0  0  0  0  0  0  0  0  0  0  # atno 10765 bound_to 10752
  140.8454  134.2351  157.4788 H   0  0  0  0  0  0  0  0  0  0  0  0  # atno 11005 bound_to 11000
  145.4080  139.1585  143.4141 LP  0  0  0  0  0  0  0  0  0  0  0  0  # atno 17320 bound_to 7965
  146.2949  140.4182  142.8725 LP  0  0  0  0  0  0  0  0  0  0  0  0  # atno 17321 bound_to 7965
  140.6851  143.7993  150.7175 LP  0  0  0  0  0  0  0  0  0  0  0  0  # atno 17342 bound_to 10162
  140.1458  143.4401  152.2164 LP  0  0  0  0  0  0  0  0  0  0  0  0  # atno 17343 bound_to 10162
  156.0072  130.5160  150.7871 LP  0  0  0  0  0  0  0  0  0  0  0  0  # atno 17370 bound_to 10713
  157.5184  131.0930  151.0110 LP  0  0  0  0  0  0  0  0  0  0  0  0  # atno 17371 bound_to 10713
  139.8703  134.9656  156.4536 LP  0  0  0  0  0  0  0  0  0  0  0  0  # atno 17394 bound_to 11000
  140.8849  133.7890  155.9507 LP  0  0  0  0  0  0  0  0  0  0  0  0  # atno 17395 bound_to 11000

$$$$
