#       Name:                AV-unprocessed.smi:1966
#       Creating user name   scv26
#       Creation time:       Fri Mar 27 10:12:00 2020


#       File generated by GOLD software.
#

@<TRIPOS>MOLECULE
AV-unprocessed.smi:1966
    61    62     1
SMALL
NO_CHARGES


@<TRIPOS>ATOM
      1 ****        -5.2785  -2.6787   3.6307 C.3            1 S1                 0.0000
      2 ****        -4.7422  -1.7338   2.5611 C.2            1 S1                 0.0000
      3 ****        -4.4864  -0.5630   2.8412 O.2            1 S1                 0.0000
      4 ****        -4.5779  -2.2575   1.3360 N.am           1 S1                 0.0000
      5 ****        -4.0667  -1.5401   0.1653 C.3            1 S1                 0.0000
      6 ****        -2.5256  -1.5252   0.2211 C.2            1 S1                 0.0000
      7 ****        -1.9119  -2.5574   0.4940 O.2            1 S1                 0.0000
      8 ****        -1.9491  -0.3387  -0.0476 N.am           1 S1                 0.0000
      9 ****        -0.5701   0.0047  -0.0889 C.ar           1 S1                 0.0000
     10 ****         0.4928  -0.9255  -0.1671 C.ar           1 S1                 0.0000
     11 ****         1.8165  -0.4470  -0.2158 C.ar           1 S1                 0.0000
     12 ****         2.0516   0.9480  -0.1951 C.ar           1 S1                 0.0000
     13 ****         3.3716   1.4475  -0.2415 N.3            1 S1                 0.0000
     14 ****         3.5814   2.8658   0.0360 C.3            1 S1                 0.0000
     15 ****         5.0726   3.1479   0.2906 C.3            1 S1                 0.0000
     16 ****         5.3506   4.6459   0.4540 C.3            1 S1                 0.0000
     17 ****         5.8451   2.6725  -0.8111 O.3            1 S1                 0.0000
     18 ****         5.6885   1.2805  -1.0960 C.3            1 S1                 0.0000
     19 ****         6.3527   0.3897  -0.0310 C.3            1 S1                 0.0000
     20 ****         4.2022   0.9473  -1.3335 C.3            1 S1                 0.0000
     21 ****         1.0300   1.8361  -0.1264 N.ar           1 S1                 0.0000
     22 ****        -0.2365   1.3735  -0.0797 C.ar           1 S1                 0.0000
     23 ****        -4.5467  -2.2721  -1.1231 C.3            1 S1                 0.0000
     24 ****        -4.0437  -1.6058  -2.4207 C.3            1 S1                 0.0000
     25 ****        -6.0830  -2.3861  -1.1811 C.3            1 S1                 0.0000
     26 ****        -4.6326  -3.5520   3.7271 H              1 S1                 0.0000
     27 ****        -6.2816  -3.0172   3.3705 H              1 S1                 0.0000
     28 ****        -5.3257  -2.1811   4.5999 H              1 S1                 0.0000
     29 ****        -4.8083  -3.2315   1.2040 H              1 S1                 0.0000
     30 ****        -4.4513  -0.5178   0.1657 H              1 S1                 0.0000
     31 ****        -2.5862   0.4300  -0.1986 H              1 S1                 0.0000
     32 ****         0.3283  -1.9906  -0.1995 H              1 S1                 0.0000
     33 ****         2.6317  -1.1538  -0.2562 H              1 S1                 0.0000
     34 ****         3.2250   3.4527  -0.8118 H              1 S1                 0.0000
     35 ****         3.0035   3.1698   0.9098 H              1 S1                 0.0000
     36 ****         5.3889   2.6454   1.2049 H              1 S1                 0.0000
     37 ****         4.7879   5.0606   1.2905 H              1 S1                 0.0000
     38 ****         5.0729   5.1992  -0.4437 H              1 S1                 0.0000
     39 ****         6.4090   4.8271   0.6429 H              1 S1                 0.0000
     40 ****         6.2204   1.1014  -2.0308 H              1 S1                 0.0000
     41 ****         6.3317  -0.6567  -0.3364 H              1 S1                 0.0000
     42 ****         5.8507   0.4531   0.9341 H              1 S1                 0.0000
     43 ****         7.3962   0.6695   0.1142 H              1 S1                 0.0000
     44 ****         4.0915  -0.1267  -1.4761 H              1 S1                 0.0000
     45 ****         3.8663   1.4193  -2.2577 H              1 S1                 0.0000
     46 ****        -1.0101   2.1257  -0.0303 H              1 S1                 0.0000
     47 ****        -4.1524  -3.2899  -1.1098 H              1 S1                 0.0000
     48 ****        -4.3565  -0.5625  -2.4748 H              1 S1                 0.0000
     49 ****        -4.4381  -2.1144  -3.3008 H              1 S1                 0.0000
     50 ****        -2.9573  -1.6338  -2.5042 H              1 S1                 0.0000
     51 ****        -6.5521  -1.4019  -1.1596 H              1 S1                 0.0000
     52 ****        -6.4825  -2.9638  -0.3475 H              1 S1                 0.0000
     53 ****        -6.4054  -2.8862  -2.0948 H              1 S1                 0.0000
     54 ****        -4.6302  -0.2289   3.7726 LP             1 S1                 0.0000
     55 ****        -4.1348   0.0541   2.1373 LP             1 S1                 0.0000
     56 ****        -2.4129  -3.4029   0.6788 LP             1 S1                 0.0000
     57 ****        -0.9126  -2.5501   0.5307 LP             1 S1                 0.0000
     58 ****         3.7229   1.0130   0.5878 LP             1 S1                 0.0000
     59 ****         6.8100   2.8425  -0.6110 LP             1 S1                 0.0000
     60 ****         5.5774   3.1887  -1.6247 LP             1 S1                 0.0000
     61 ****         1.2122   2.8192  -0.1106 LP             1 S1                 0.0000
@<TRIPOS>BOND
    1    1    2 1     
    2    1   26 1     
    3    1   27 1     
    4    1   28 1     
    5    2    3 2     
    6    2    4 am    
    7    4    5 1     
    8    4   29 1     
    9    5    6 1     
   10    5   23 1     
   11    5   30 1     
   12    6    7 2     
   13    6    8 am    
   14    8    9 1     
   15    8   31 1     
   16    9   22 ar    
   17    9   10 ar    
   18   10   11 ar    
   19   10   32 1     
   20   11   12 ar    
   21   11   33 1     
   22   12   13 1     
   23   12   21 ar    
   24   13   20 1     
   25   13   14 1     
   26   14   15 1     
   27   14   34 1     
   28   14   35 1     
   29   15   16 1     
   30   15   17 1     
   31   15   36 1     
   32   16   37 1     
   33   16   38 1     
   34   16   39 1     
   35   17   18 1     
   36   18   19 1     
   37   18   20 1     
   38   18   40 1     
   39   19   41 1     
   40   19   42 1     
   41   19   43 1     
   42   20   44 1     
   43   20   45 1     
   44   21   22 ar    
   45   22   46 1     
   46   23   24 1     
   47   23   25 1     
   48   23   47 1     
   49   24   48 1     
   50   24   49 1     
   51   24   50 1     
   52   25   51 1     
   53   25   52 1     
   54   25   53 1     
   55    3   54 1     
   56    3   55 1     
   57    7   56 1     
   58    7   57 1     
   59   13   58 1     
   60   17   59 1     
   61   17   60 1     
   62   21   61 1     
@<TRIPOS>SUBSTRUCTURE
      1 S1             1
@<TRIPOS>SET
LONE_PAIRS      STATIC     ATOMS    <user>   **** ""
8 54 55 56 57 58 59 60 61
DONOR_HYDROGENS      STATIC     ATOMS    <user>   **** ""
2 29 31
ATOM$BLUE        STATIC     ATOMS    COLORGROUP SYSTEM
8 54 55 56 57 58 59 60 61
ATOM$RED        STATIC     ATOMS    COLORGROUP SYSTEM
2 29 31
