AV-unprocessed.smi:1641|AV-procd|sdf|6556|dock5
  -GOLD-   22720 7243D 1   1.00000     0.00000
 Structure written by MMmdl.
 41 42  0  0  0  0  0  0  0  0  1 V2000
  154.2577  132.2716  164.9289 C   0  0  0  0  0  0  0  0  0  0  0  0
  154.3043  133.4019  163.9583 C   0  0  0  0  0  0  0  0  0  0  0  0
  154.4412  133.2182  162.6394 N   0  0  0  0  0  0  0  0  0  0  0  0
  154.4566  134.4169  161.9399 N   0  0  0  0  0  0  0  0  0  0  0  0
  154.3302  135.4729  162.7552 C   0  0  0  0  0  0  0  0  0  0  0  0
  154.3155  136.8202  162.3062 N   0  0  0  0  0  0  0  0  0  0  0  0
  153.7816  137.3162  161.1761 C   0  0  0  0  0  0  0  0  0  0  0  0
  153.2026  136.6570  160.3120 O   0  0  0  0  0  0  0  0  0  0  0  0
  153.9622  138.6423  161.0951 N   0  0  0  0  0  0  0  0  0  0  0  0
  153.5142  139.4802  159.9894 C   0  0  0  0  0  0  0  0  0  0  0  0
  153.3645  140.9493  160.4272 C   0  0  0  0  0  0  0  0  0  0  0  0
  152.9651  141.8721  159.3663 N   0  0  0  0  0  0  0  0  0  0  0  0
  152.7630  143.2339  159.8553 C   0  0  0  0  0  0  0  0  0  0  0  0
  152.3165  144.1907  158.7326 C   0  0  2  0  0  0  0  0  0  0  0  0
  152.0165  145.5985  159.2577 C   0  0  0  0  0  0  0  0  0  0  0  0
  151.1340  143.6797  158.1231 O   0  0  0  0  0  0  0  0  0  0  0  0
  151.2963  142.3685  157.5895 C   0  0  2  0  0  0  0  0  0  0  0  0
  149.9676  141.9373  156.9597 C   0  0  0  0  0  0  0  0  0  0  0  0
  151.7398  141.4190  158.7182 C   0  0  0  0  0  0  0  0  0  0  0  0
  154.1751  135.0836  164.4598 S   0  0  0  0  0  0  0  0  0  0  0  0
  153.2228  131.9859  165.1178 H   0  0  0  0  0  0  0  0  0  0  0  0
  154.7179  132.5668  165.8719 H   0  0  0  0  0  0  0  0  0  0  0  0
  154.7949  131.4079  164.5355 H   0  0  0  0  0  0  0  0  0  0  0  0
  154.7690  137.4840  162.9164 H   0  0  0  0  0  0  0  0  0  0  0  0
  154.4475  139.1062  161.8490 H   0  0  0  0  0  0  0  0  0  0  0  0
  154.2102  139.3791  159.1560 H   0  0  0  0  0  0  0  0  0  0  0  0
  152.5539  139.0973  159.6429 H   0  0  0  0  0  0  0  0  0  0  0  0
  152.6143  140.9813  161.2187 H   0  0  0  0  0  0  0  0  0  0  0  0
  154.2937  141.2957  160.8825 H   0  0  0  0  0  0  0  0  0  0  0  0
  152.0158  143.2326  160.6507 H   0  0  0  0  0  0  0  0  0  0  0  0
  153.6838  143.6181  160.2929 H   0  0  0  0  0  0  0  0  0  0  0  0
  153.1023  144.2585  157.9780 H   0  0  0  0  0  0  0  0  0  0  0  0
  152.8964  146.0373  159.7289 H   0  0  0  0  0  0  0  0  0  0  0  0
  151.2142  145.5813  159.9960 H   0  0  0  0  0  0  0  0  0  0  0  0
  151.7091  146.2595  158.4469 H   0  0  0  0  0  0  0  0  0  0  0  0
  152.0610  142.3942  156.8113 H   0  0  0  0  0  0  0  0  0  0  0  0
  150.0430  140.9381  156.5304 H   0  0  0  0  0  0  0  0  0  0  0  0
  149.6746  142.6205  156.1623 H   0  0  0  0  0  0  0  0  0  0  0  0
  149.1665  141.9251  157.6992 H   0  0  0  0  0  0  0  0  0  0  0  0
  151.8885  140.4191  158.3088 H   0  0  0  0  0  0  0  0  0  0  0  0
  150.9413  141.3365  159.4577 H   0  0  0  0  0  0  0  0  0  0  0  0
  1  2  1  0  0  0  0
  1 21  1  0  0  0  0
  1 22  1  0  0  0  0
  1 23  1  0  0  0  0
  2 20  1  0  0  0  0
  2  3  2  0  0  0  0
  3  4  1  0  0  0  0
  4  5  2  0  0  0  0
  5  6  1  0  0  0  0
  5 20  1  0  0  0  0
  6  7  1  0  0  0  0
  6 24  1  0  0  0  0
  7  8  2  0  0  0  0
  7  9  1  0  0  0  0
  9 10  1  0  0  0  0
  9 25  1  0  0  0  0
 10 11  1  0  0  0  0
 10 26  1  0  0  0  0
 10 27  1  0  0  0  0
 11 12  1  0  0  0  0
 11 28  1  0  0  0  0
 11 29  1  0  0  0  0
 12 19  1  0  0  0  0
 12 13  1  0  0  0  0
 13 14  1  0  0  0  0
 13 30  1  0  0  0  0
 13 31  1  0  0  0  0
 14 15  1  0  0  0  0
 14 16  1  0  0  0  0
 14 32  1  0  0  0  0
 15 33  1  0  0  0  0
 15 34  1  0  0  0  0
 15 35  1  0  0  0  0
 16 17  1  0  0  0  0
 17 18  1  0  0  0  0
 17 19  1  0  0  0  0
 17 36  1  0  0  0  0
 18 37  1  0  0  0  0
 18 38  1  0  0  0  0
 18 39  1  0  0  0  0
 19 40  1  0  0  0  0
 19 41  1  0  0  0  0
M  END
> <s_m_source_file>
AV-unprocessed.smi

> <i_m_source_file_index>
1641

> <i_lp_mmshare_version>
43012

> <i_f3d_flags>
0

> <s_epik_input>
W0NIM11jMW5uYyhzMSlbTkhdQyg9TylbTkhdW0NIMl1bQ0gyXU4yW0NIMl1bQ0BASF0oW0NIM10pT1tDQEBIXShbQ0gzXSlbQ0gyXTI=

> <s_epik_cmdline>
J2VwaWtfcHl0aG9uJywgJy1waCcsICc3LjAnLCAnLXRuJywgJzgnLCAnLW1hJywgJzIwMCcsICctbWV0YWxfYmluZGluZycsICctaW1hZScsICc8aW5maWxlLm1hZT4nLCAnLW9tYWUnLCAnPG91dGZpbGUubWFlPic=

> <r_lp_tautomer_probability>
1

> <r_epik_Ionization_Penalty>
0.221104

> <r_epik_Ionization_Penalty_Charging>
0

> <r_epik_Ionization_Penalty_Neutral>
0.221104

> <r_epik_State_Penalty>
0.209349

> <r_epik_Charging_Adjusted_Penalty>
0.209349

> <i_epik_Tot_Q>
0

> <i_epik_Tot_abs_Q>
0

> <r_epik_Metal_State_Penalty>
0.560954

> <b_epik_Metal_Only>
0

> <s_lp_Force_Field>
OPLS_2005

> <r_lp_Energy>
18.567

> <b_lp_Chiralities_Consistent>
1

> <s_lp_Variant>
AV-unprocessed.smi:1641-1

> <Gold.Version>
5.8.1

> <Gold.Id.Protein>
6NUR|6NUR_protein|mol2

> <Gold.PLP.Fitness>
39.9660

> <Gold.PLP.PLP>
-37.9007

> <Gold.PLP.part.hbond>
-0.9230

> <Gold.PLP.part.metal>
0.0000

> <Gold.PLP.part.buried>
-6.1637

> <Gold.PLP.part.nonpolar>
-31.8679

> <Gold.PLP.part.repulsive>
0.1647

> <Gold.PLP.ligand.clash>
0.0000

> <Gold.PLP.ligand.torsion>
0.4324

> <Gold.PLP.Chemscore.Hbond>
0.9750

> <Gold.PLP.Chemscore.CHOScore>
0.0000

> <Gold.PLP.Chemscore.Metal>
0.0000

> <Gold.Chemscore.Hbonds>
donor molecule, donor type, donor heavy atom, donor atom, acceptor molecule, acceptor atom, score
      P1  H  6896  6909       L1     8  1.00

> <Gold.PLP.Chemscore.Internal.Correction>
0.0051

> <Gold.Rescore>
     Score         DG    S(hbond)    S(metal)    S(lipo)     H(rot)  DE(clash)    DE(int)     intcor
     16.19     -16.77       1.00        0.00     102.93       1.60       0.05       0.53       ----

> <Gold.Chemscore.Fitness>
16.1945

> <Gold.Chemscore.DG>
-16.7688

> <Gold.Chemscore.ZeroCoef>
-5.4800

> <Gold.Chemscore.Hbond>
0.9988

> <Gold.Chemscore.Metal>
0.0000

> <Gold.Chemscore.Lipo>
102.9256

> <Gold.Chemscore.Internal_Hbond>
0.0000

> <Gold.Chemscore.DEClash>
0.0456

> <Gold.Chemscore.DEInternal>
0.5287

> <Gold.Chemscore.Rot>
1.5975

> <Gold.Chemscore.Internal.Correction>
   9.000000E+99

> <Gold.Chemscore.Hbonds>
donor molecule, donor type, donor heavy atom, donor atom, acceptor molecule, acceptor atom, score
      P1  H  6896  6909       L1     8  0.97

> <Gold.Chemscore.Hbond.Weighted>
-3.3361

> <Gold.Chemscore.Metal.Weighted>
-0.0000

> <Gold.Chemscore.Lipo.Weighted>
-12.0423

> <Gold.Chemscore.Internal_Hbond.Weighted>
0.0000

> <Gold.Chemscore.DEClash.Weighted>
0.0456

> <Gold.Chemscore.DEInternal.Weighted>
0.5287

> <Gold.Chemscore.Rot.Weighted>
4.0896

> <Gold.Chemscore.Internal.Correction.Weighted>
   9.000000E+99

> <Gold.Protein.RotatedTorsions>
[ 6907 6896 6895 6894 ] final  157.83 input  -60.11 | X-H torsion
[ 7974 7965 7964 7962 ] final   63.84 input  175.53 | X-H torsion
[ 8008 7997 7996 7995 ] final  -43.89 input   59.86 | X-H torsion
[ 10167 10162 10161 10158 ] final   -8.53 input  -65.29 | X-H torsion
[ 10718 10713 10712 10709 ] final -141.94 input   66.30 | X-H torsion
[ 10763 10752 10751 10750 ] final  -17.54 input  -60.55 | X-H torsion
[ 11005 11000 10999 10996 ] final   22.45 input  -57.11 | X-H torsion

> <Gold.Protein.ActiveResidues>
 VAL166  LYS551  ARG553  GLY616  TRP617  ASP618  TYR619  PRO620  LYS621  CYS622 
 ASP623  PHE694  ASN695  SER759  ASP760  ASP761  ALA762  ILE779  LEU786  VAL792 
 PHE793  MET794  SER795  GLU796  ALA797  LYS798  CYS799  TRP800  GLU811  SER814 

> <Gold.Protein.RotatedAtoms>
  152.0094  133.3855  159.4213 H   0  0  0  0  0  0  0  0  0  0  0  0  # atno 6907 bound_to 6896
  150.6901  134.3747  159.5017 H   0  0  0  0  0  0  0  0  0  0  0  0  # atno 6908 bound_to 6896
  152.1506  134.8991  160.0599 H   0  0  0  0  0  0  0  0  0  0  0  0  # atno 6909 bound_to 6896
  145.8572  139.3291  143.0840 H   0  0  0  0  0  0  0  0  0  0  0  0  # atno 7974 bound_to 7965
  154.3997  140.1436  156.3594 H   0  0  0  0  0  0  0  0  0  0  0  0  # atno 8008 bound_to 7997
  155.8195  140.3470  155.5485 H   0  0  0  0  0  0  0  0  0  0  0  0  # atno 8009 bound_to 7997
  155.8302  140.0911  157.1787 H   0  0  0  0  0  0  0  0  0  0  0  0  # atno 8010 bound_to 7997
  140.7062  143.5958  150.8847 H   0  0  0  0  0  0  0  0  0  0  0  0  # atno 10167 bound_to 10162
  156.3399  130.7632  151.1766 H   0  0  0  0  0  0  0  0  0  0  0  0  # atno 10718 bound_to 10713
  153.5754  135.7006  153.5486 H   0  0  0  0  0  0  0  0  0  0  0  0  # atno 10763 bound_to 10752
  153.3308  135.4048  155.1493 H   0  0  0  0  0  0  0  0  0  0  0  0  # atno 10764 bound_to 10752
  154.8626  135.3718  154.5278 H   0  0  0  0  0  0  0  0  0  0  0  0  # atno 10765 bound_to 10752
  140.3804  134.1926  155.7664 H   0  0  0  0  0  0  0  0  0  0  0  0  # atno 11005 bound_to 11000
  145.9290  140.9062  143.0366 LP  0  0  0  0  0  0  0  0  0  0  0  0  # atno 17320 bound_to 7965
  144.6727  140.1392  143.7438 LP  0  0  0  0  0  0  0  0  0  0  0  0  # atno 17321 bound_to 7965
  139.9683  143.6085  152.2981 LP  0  0  0  0  0  0  0  0  0  0  0  0  # atno 17342 bound_to 10162
  139.6663  144.7662  151.1867 LP  0  0  0  0  0  0  0  0  0  0  0  0  # atno 17343 bound_to 10162
  157.7445  131.0457  150.4858 LP  0  0  0  0  0  0  0  0  0  0  0  0  # atno 17370 bound_to 10713
  156.5037  130.4123  149.6339 LP  0  0  0  0  0  0  0  0  0  0  0  0  # atno 17371 bound_to 10713
  141.1925  133.8171  157.0836 LP  0  0  0  0  0  0  0  0  0  0  0  0  # atno 17394 bound_to 11000
  140.0482  134.9819  157.1089 LP  0  0  0  0  0  0  0  0  0  0  0  0  # atno 17395 bound_to 11000

$$$$
