AV-unprocessed.smi:1527|AV-procd|sdf|6148|dock6
  -GOLD-   22720 6293D 1   1.00000     0.00000
 Structure written by MMmdl.
 30 30  0  0  0  0  0  0  0  0  2 V2000
  151.8776  145.2534  159.0350 C   0  0  0  0  0  0  0  0  0  0  0  0
  152.4288  143.8372  158.8136 C   0  0  0  0  0  0  0  0  0  0  0  0
  152.9899  143.1839  160.0911 C   0  0  1  0  0  0  0  0  0  0  0  0
  152.0439  143.3667  161.2861 C   0  0  0  0  0  0  0  0  0  0  0  0
  153.2229  141.7573  159.8733 N   0  0  0  0  0  0  0  0  0  0  0  0
  152.2829  140.8298  159.6321 C   0  0  0  0  0  0  0  0  0  0  0  0
  151.0798  141.0871  159.5653 O   0  0  0  0  0  0  0  0  0  0  0  0
  152.8064  139.3968  159.4437 C   0  0  0  0  0  0  0  0  0  0  0  0
  152.1984  138.6736  158.3172 N   0  0  0  0  0  0  0  0  0  0  0  0
  152.4013  139.3209  157.0241 N   0  5  0  0  0  0  0  0  0  0  0  0
  151.9040  138.7331  155.9038 C   0  0  0  0  0  0  0  0  0  0  0  0
  152.0494  139.2100  154.7806 O   0  0  0  0  0  0  0  0  0  0  0  0
  151.1668  137.4892  156.0531 C   0  0  0  0  0  0  0  0  0  0  0  0
  150.9738  136.9267  157.2625 C   0  0  0  0  0  0  0  0  0  0  0  0
  151.4918  137.5197  158.4895 C   0  0  0  0  0  0  0  0  0  0  0  0
  151.3108  137.0170  159.5988 O   0  0  0  0  0  0  0  0  0  0  0  0
  151.4474  145.6494  158.1151 H   0  0  0  0  0  0  0  0  0  0  0  0
  152.6589  145.9429  159.3557 H   0  0  0  0  0  0  0  0  0  0  0  0
  151.0962  145.2561  159.7955 H   0  0  0  0  0  0  0  0  0  0  0  0
  151.6282  143.2125  158.4161 H   0  0  0  0  0  0  0  0  0  0  0  0
  153.2006  143.8673  158.0435 H   0  0  0  0  0  0  0  0  0  0  0  0
  153.9272  143.6866  160.3355 H   0  0  0  0  0  0  0  0  0  0  0  0
  151.8689  144.4235  161.4896 H   0  0  0  0  0  0  0  0  0  0  0  0
  152.4634  142.9233  162.1898 H   0  0  0  0  0  0  0  0  0  0  0  0
  151.0761  142.8983  161.1030 H   0  0  0  0  0  0  0  0  0  0  0  0
  154.1823  141.4458  159.9154 H   0  0  0  0  0  0  0  0  0  0  0  0
  153.8896  139.4331  159.3159 H   0  0  0  0  0  0  0  0  0  0  0  0
  152.6416  138.8495  160.3737 H   0  0  0  0  0  0  0  0  0  0  0  0
  150.7631  137.0070  155.1749 H   0  0  0  0  0  0  0  0  0  0  0  0
  150.4190  136.0026  157.3263 H   0  0  0  0  0  0  0  0  0  0  0  0
  1  2  1  0  0  0  0
  1 17  1  0  0  0  0
  1 18  1  0  0  0  0
  1 19  1  0  0  0  0
  2  3  1  0  0  0  0
  2 20  1  0  0  0  0
  2 21  1  0  0  0  0
  3  4  1  0  0  0  0
  3  5  1  0  0  0  0
  3 22  1  0  0  0  0
  4 23  1  0  0  0  0
  4 24  1  0  0  0  0
  4 25  1  0  0  0  0
  5  6  1  0  0  0  0
  5 26  1  0  0  0  0
  6  7  2  0  0  0  0
  6  8  1  0  0  0  0
  8 27  1  0  0  0  0
  8 28  1  0  0  0  0
  8  9  1  0  0  0  0
  9 10  1  0  0  0  0
  9 15  1  0  0  0  0
 10 11  1  0  0  0  0
 11 12  2  0  0  0  0
 11 13  1  0  0  0  0
 13 29  1  0  0  0  0
 13 14  2  0  0  0  0
 14 30  1  0  0  0  0
 14 15  1  0  0  0  0
 15 16  2  0  0  0  0
M  CHG  1  10  -1
M  END
> <s_m_source_file>
AV-unprocessed.smi

> <i_m_source_file_index>
1527

> <i_lp_mmshare_version>
43012

> <i_f3d_flags>
0

> <s_epik_input>
W0NIM11bQ0gyXVtDQEhdKFtDSDNdKVtOSF1DKD1PKVtDSDJdbjFbbkhdYyg9TylbY0hdW2NIXWMxPU8=

> <s_epik_cmdline>
J2VwaWtfcHl0aG9uJywgJy1waCcsICc3LjAnLCAnLXRuJywgJzgnLCAnLW1hJywgJzIwMCcsICctbWV0YWxfYmluZGluZycsICctaW1hZScsICc8aW5maWxlLm1hZT4nLCAnLW9tYWUnLCAnPG91dGZpbGUubWFlPic=

> <r_lp_tautomer_probability>
1

> <r_epik_Ionization_Penalty>
0.0984334

> <r_epik_Ionization_Penalty_Charging>
0.0984334

> <r_epik_Ionization_Penalty_Neutral>
1.93017e-08

> <r_epik_State_Penalty>
0.0346952

> <r_epik_Charging_Adjusted_Penalty>
0.133129

> <i_epik_Tot_Q>
-1

> <i_epik_Tot_abs_Q>
1

> <r_epik_Metal_State_Penalty>
0.0346952

> <b_epik_Metal_Only>
0

> <s_lp_Force_Field>
OPLS_2005

> <r_lp_Energy>
18.954

> <b_lp_Chiralities_Consistent>
1

> <s_lp_Variant>
AV-unprocessed.smi:1527-2

> <Gold.Version>
5.8.1

> <Gold.Id.Protein>
6NUR|6NUR_protein|mol2

> <Gold.PLP.Fitness>
43.0974

> <Gold.PLP.PLP>
-32.3444

> <Gold.PLP.part.hbond>
-3.6310

> <Gold.PLP.part.metal>
0.0000

> <Gold.PLP.part.buried>
-5.4082

> <Gold.PLP.part.nonpolar>
-23.7669

> <Gold.PLP.part.repulsive>
0.1172

> <Gold.PLP.ligand.clash>
0.0000

> <Gold.PLP.ligand.torsion>
0.3063

> <Gold.PLP.Chemscore.Hbond>
3.7840

> <Gold.PLP.Chemscore.CHOScore>
0.0000

> <Gold.PLP.Chemscore.Metal>
0.0000

> <Gold.Chemscore.Hbonds>
donor molecule, donor type, donor heavy atom, donor atom, acceptor molecule, acceptor atom, score
      P1  H  6896  6907       L1    16  1.00
      P1  H  7989  7998       L1    12  0.71
      P1  H  7997  8010       L1    10  1.40

> <Gold.PLP.Chemscore.Internal.Correction>
0.0136

> <Gold.Rescore>
     Score         DG    S(hbond)    S(metal)    S(lipo)     H(rot)  DE(clash)    DE(int)     intcor
     15.79     -17.14       2.68        0.00      65.57       1.94       0.03       1.32       ----

> <Gold.Chemscore.Fitness>
15.7892

> <Gold.Chemscore.DG>
-17.1354

> <Gold.Chemscore.ZeroCoef>
-5.4800

> <Gold.Chemscore.Hbond>
2.6834

> <Gold.Chemscore.Metal>
0.0000

> <Gold.Chemscore.Lipo>
65.5724

> <Gold.Chemscore.Internal_Hbond>
0.0000

> <Gold.Chemscore.DEClash>
0.0310

> <Gold.Chemscore.DEInternal>
1.3153

> <Gold.Chemscore.Rot>
1.9449

> <Gold.Chemscore.Internal.Correction>
   9.000000E+99

> <Gold.Chemscore.Hbonds>
donor molecule, donor type, donor heavy atom, donor atom, acceptor molecule, acceptor atom, score
      P1  H  6896  6907       L1    16  0.99
      P1  H  7989  7998       L1    12  0.68
      P1  H  7997  8010       L1    10  0.47

> <Gold.Chemscore.Hbond.Weighted>
-8.9625

> <Gold.Chemscore.Metal.Weighted>
-0.0000

> <Gold.Chemscore.Lipo.Weighted>
-7.6720

> <Gold.Chemscore.Internal_Hbond.Weighted>
0.0000

> <Gold.Chemscore.DEClash.Weighted>
0.0310

> <Gold.Chemscore.DEInternal.Weighted>
1.3153

> <Gold.Chemscore.Rot.Weighted>
4.9791

> <Gold.Chemscore.Internal.Correction.Weighted>
   9.000000E+99

> <Gold.Protein.RotatedTorsions>
[ 6907 6896 6895 6894 ] final   -7.60 input  -60.11 | X-H torsion
[ 7974 7965 7964 7962 ] final  138.46 input  175.53 | X-H torsion
[ 8008 7997 7996 7995 ] final   62.67 input   59.86 | X-H torsion
[ 10167 10162 10161 10158 ] final -151.73 input  -65.29 | X-H torsion
[ 10718 10713 10712 10709 ] final  122.07 input   66.30 | X-H torsion
[ 10763 10752 10751 10750 ] final   11.97 input  -60.55 | X-H torsion
[ 11005 11000 10999 10996 ] final -117.90 input  -57.11 | X-H torsion

> <Gold.Protein.ActiveResidues>
 VAL166  LYS551  ARG553  GLY616  TRP617  ASP618  TYR619  PRO620  LYS621  CYS622 
 ASP623  PHE694  ASN695  SER759  ASP760  ASP761  ALA762  ILE779  LEU786  VAL792 
 PHE793  MET794  SER795  GLU796  ALA797  LYS798  CYS799  TRP800  GLU811  SER814 

> <Gold.Protein.RotatedAtoms>
  151.4470  135.1026  159.9686 H   0  0  0  0  0  0  0  0  0  0  0  0  # atno 6907 bound_to 6896
  152.4902  133.8475  159.7195 H   0  0  0  0  0  0  0  0  0  0  0  0  # atno 6908 bound_to 6896
  150.9048  133.7013  159.2897 H   0  0  0  0  0  0  0  0  0  0  0  0  # atno 6909 bound_to 6896
  144.9371  139.4976  143.5590 H   0  0  0  0  0  0  0  0  0  0  0  0  # atno 7974 bound_to 7965
  155.6180  140.3495  155.4643 H   0  0  0  0  0  0  0  0  0  0  0  0  # atno 8008 bound_to 7997
  156.0102  140.1231  157.0485 H   0  0  0  0  0  0  0  0  0  0  0  0  # atno 8009 bound_to 7997
  154.4278  140.1083  156.5805 H   0  0  0  0  0  0  0  0  0  0  0  0  # atno 8010 bound_to 7997
  139.7242  143.8909  152.2514 H   0  0  0  0  0  0  0  0  0  0  0  0  # atno 10167 bound_to 10162
  157.5770  131.1078  150.8260 H   0  0  0  0  0  0  0  0  0  0  0  0  # atno 10718 bound_to 10713
  153.1871  135.6836  153.8401 H   0  0  0  0  0  0  0  0  0  0  0  0  # atno 10763 bound_to 10752
  153.7713  135.3195  155.3353 H   0  0  0  0  0  0  0  0  0  0  0  0  # atno 10764 bound_to 10752
  154.8095  135.4727  154.0576 H   0  0  0  0  0  0  0  0  0  0  0  0  # atno 10765 bound_to 10752
  141.0323  133.9962  157.3124 H   0  0  0  0  0  0  0  0  0  0  0  0  # atno 11005 bound_to 11000
  146.3271  139.8363  142.8899 LP  0  0  0  0  0  0  0  0  0  0  0  0  # atno 17320 bound_to 7965
  145.3050  141.0204  143.3587 LP  0  0  0  0  0  0  0  0  0  0  0  0  # atno 17321 bound_to 7965
  139.8813  144.7016  150.8874 LP  0  0  0  0  0  0  0  0  0  0  0  0  # atno 17342 bound_to 10162
  140.7759  143.3658  151.1741 LP  0  0  0  0  0  0  0  0  0  0  0  0  # atno 17343 bound_to 10162
  156.8716  130.5148  149.5296 LP  0  0  0  0  0  0  0  0  0  0  0  0  # atno 17370 bound_to 10713
  156.0815  130.5824  150.9571 LP  0  0  0  0  0  0  0  0  0  0  0  0  # atno 17371 bound_to 10713
  139.9216  135.0200  156.8085 LP  0  0  0  0  0  0  0  0  0  0  0  0  # atno 17394 bound_to 11000
  140.6385  133.9840  155.7696 LP  0  0  0  0  0  0  0  0  0  0  0  0  # atno 17395 bound_to 11000

$$$$
