#       Name:                AV-unprocessed.smi:1208
#       Creating user name   scv26
#       Creation time:       Fri Mar 27 04:11:04 2020


#       File generated by GOLD software.
#

@<TRIPOS>MOLECULE
AV-unprocessed.smi:1208
    45    46     1
SMALL
NO_CHARGES


@<TRIPOS>ATOM
      1 ****        -2.1370  -1.0568   2.6829 C.3            1 S1                 0.0000
      2 ****        -1.6431  -0.4918   1.3420 C.3            1 S1                 0.0000
      3 ****        -0.1845  -0.5723   1.3161 N.am           1 S1                 0.0000
      4 ****         0.6387   0.3217   0.7465 C.2            1 S1                 0.0000
      5 ****         0.2398   1.3373   0.1743 O.2            1 S1                 0.0000
      6 ****         2.1377  -0.0015   0.8388 C.3            1 S1                 0.0000
      7 ****         2.9964   0.9849   0.1669 N.am           1 S1                 0.0000
      8 ****         3.3311   0.6467  -1.1357 N.2            1 S1                 0.0000
      9 ****         4.0647   1.4406  -1.8397 C.2            1 S1                 0.0000
     10 ****         4.3683   1.0681  -3.1261 O.3            1 S1                 0.0000
     11 ****         4.5555   2.6870  -1.2946 C.2            1 S1                 0.0000
     12 ****         4.2266   3.0066  -0.0238 C.2            1 S1                 0.0000
     13 ****         3.3939   2.1302   0.8021 C.2            1 S1                 0.0000
     14 ****         3.0759   2.3982   1.9606 O.2            1 S1                 0.0000
     15 ****        -2.2361  -1.2484   0.1341 C.3            1 S1                 0.0000
     16 ****        -3.7599  -1.1906   0.0275 C.3            1 S1                 0.0000
     17 ****        -4.0205  -1.4572  -1.4456 C.3            1 S1                 0.0000
     18 ****        -2.6801  -1.1535  -2.1202 C.3            1 S1                 0.0000
     19 ****        -1.8452  -0.6437  -1.0897 O.3            1 S1                 0.0000
     20 ****         3.9344   0.2388  -3.2554 H              1 S1                 0.0000
     21 ****        -3.2189  -0.9659   2.7794 H              1 S1                 0.0000
     22 ****        -1.6923  -0.5204   3.5216 H              1 S1                 0.0000
     23 ****        -1.8808  -2.1116   2.7887 H              1 S1                 0.0000
     24 ****        -1.9516   0.5541   1.2912 H              1 S1                 0.0000
     25 ****         0.2316  -1.3779   1.7600 H              1 S1                 0.0000
     26 ****         2.4156  -0.0962   1.8900 H              1 S1                 0.0000
     27 ****         2.3026  -0.9896   0.4054 H              1 S1                 0.0000
     28 ****         5.1693   3.3402  -1.8973 H              1 S1                 0.0000
     29 ****         4.5859   3.9346   0.3959 H              1 S1                 0.0000
     30 ****        -1.9044  -2.2887   0.1346 H              1 S1                 0.0000
     31 ****        -4.2585  -1.9076   0.6802 H              1 S1                 0.0000
     32 ****        -4.1168  -0.1928   0.2864 H              1 S1                 0.0000
     33 ****        -4.3014  -2.4977  -1.6124 H              1 S1                 0.0000
     34 ****        -4.8242  -0.8264  -1.8266 H              1 S1                 0.0000
     35 ****        -2.2383  -2.0652  -2.5245 H              1 S1                 0.0000
     36 ****        -2.7754  -0.4322  -2.9321 H              1 S1                 0.0000
     37 ****        -0.7404   1.5272   0.1181 LP             1 S1                 0.0000
     38 ****         0.8963   1.9717  -0.2340 LP             1 S1                 0.0000
     39 ****         3.0039  -0.2124  -1.5292 LP             1 S1                 0.0000
     40 ****         5.3570   0.9670  -3.2372 LP             1 S1                 0.0000
     41 ****         4.0275   1.7467  -3.7768 LP             1 S1                 0.0000
     42 ****         2.5020   1.7656   2.4806 LP             1 S1                 0.0000
     43 ****         3.3916   3.2485   2.3817 LP             1 S1                 0.0000
     44 ****        -0.8900  -0.8644  -1.2870 LP             1 S1                 0.0000
     45 ****        -1.9518   0.3486  -1.0268 LP             1 S1                 0.0000
@<TRIPOS>BOND
    1    1    2 1     
    2    1   21 1     
    3    1   22 1     
    4    1   23 1     
    5    2    3 1     
    6    2   15 1     
    7    2   24 1     
    8    3    4 am    
    9    3   25 1     
   10    4    5 2     
   11    4    6 1     
   12    6   26 1     
   13    6   27 1     
   14    6    7 1     
   15    7    8 1     
   16    7   13 am    
   17    8    9 2     
   18    9   10 1     
   19    9   11 1     
   20   10   20 1     
   21   11   28 1     
   22   11   12 2     
   23   12   29 1     
   24   12   13 1     
   25   13   14 2     
   26   15   19 1     
   27   15   16 1     
   28   15   30 1     
   29   16   17 1     
   30   16   31 1     
   31   16   32 1     
   32   17   18 1     
   33   17   33 1     
   34   17   34 1     
   35   18   19 1     
   36   18   35 1     
   37   18   36 1     
   38    5   37 1     
   39    5   38 1     
   40    8   39 1     
   41   10   40 1     
   42   10   41 1     
   43   14   42 1     
   44   14   43 1     
   45   19   44 1     
   46   19   45 1     
@<TRIPOS>SUBSTRUCTURE
      1 S1             1
@<TRIPOS>SET
LONE_PAIRS      STATIC     ATOMS    <user>   **** ""
9 37 38 39 40 41 42 43 44 45
DONOR_HYDROGENS      STATIC     ATOMS    <user>   **** ""
2 25 20
ATOM$BLUE        STATIC     ATOMS    COLORGROUP SYSTEM
9 37 38 39 40 41 42 43 44 45
ATOM$RED        STATIC     ATOMS    COLORGROUP SYSTEM
2 25 20
