AV-unprocessed.smi:109|AV-procd|sdf|1050|dock9
  -GOLD-   2262018103D 1   1.00000     0.00000
 Structure written by MMmdl.
 58 61  0  0  0  0  0  0  0  0  1 V2000
  149.8116  140.7338  154.2044 O   0  0  0  0  0  0  0  0  0  0  0  0
  149.8352  141.6110  155.3096 C   0  0  0  0  0  0  0  0  0  0  0  0
  149.5833  140.8249  156.6079 C   0  0  0  0  0  0  0  0  0  0  0  0
  150.7655  140.8548  157.6084 C   0  0  1  0  0  0  0  0  0  0  0  0
  152.0146  140.5676  156.8987 N   0  0  0  0  0  0  0  0  0  0  0  0
  152.1617  139.4823  156.1056 C   0  0  0  0  0  0  0  0  0  0  0  0
  153.1383  139.4186  155.1651 N   0  0  0  0  0  0  0  0  0  0  0  0
  153.2614  138.3300  154.4030 C   0  0  0  0  0  0  0  0  0  0  0  0
  152.5281  137.2162  154.4195 N   0  0  0  0  0  0  0  0  0  0  0  0
  151.5396  137.2671  155.3599 C   0  0  0  0  0  0  0  0  0  0  0  0
  151.2965  138.3649  156.2345 C   0  0  0  0  0  0  0  0  0  0  0  0
  150.2148  138.0844  157.0554 N   0  0  0  0  0  0  0  0  0  0  0  0
  149.8390  136.8923  156.6816 C   0  0  0  0  0  0  0  0  0  0  0  0
  150.5863  136.3122  155.6791 N   0  0  0  0  0  0  0  0  0  0  0  0
  150.3335  134.9589  155.0681 C   0  0  1  0  0  0  0  0  0  0  0  0
  151.0162  134.0025  155.8132 O   0  0  0  0  0  0  0  0  0  0  0  0
  150.1508  133.4468  156.7924 C   0  0  2  0  0  0  0  0  0  0  0  0
  150.6548  132.0543  157.2010 C   0  0  0  0  0  0  0  0  0  0  0  0
  151.8662  132.1651  157.9174 O   0  0  0  0  0  0  0  0  0  0  0  0
  148.7884  133.4141  156.0797 C   0  0  1  0  0  0  0  0  0  0  0  0
  147.7487  133.6356  157.0111 O   0  0  0  0  0  0  0  0  0  0  0  0
  148.8509  134.5510  155.0533 C   0  0  2  0  0  0  0  0  0  0  0  0
  148.4673  134.0785  153.7774 O   0  0  0  0  0  0  0  0  0  0  0  0
  150.9020  142.2043  158.3710 C   0  0  0  0  0  0  0  0  0  0  0  0
  151.2734  143.3583  157.4034 C   0  0  0  0  0  0  0  0  0  0  0  0
  151.4247  144.7073  158.1234 C   0  0  0  0  0  0  0  0  0  0  0  0
  152.4676  144.6217  159.2436 C   0  0  0  0  0  0  0  0  0  0  0  0
  152.1067  143.5046  160.2298 C   0  0  0  0  0  0  0  0  0  0  0  0
  151.9445  142.1520  159.5165 C   0  0  0  0  0  0  0  0  0  0  0  0
  150.7680  135.0410  154.0708 H   0  0  0  0  0  0  0  0  0  0  0  0
  150.1175  134.1076  157.6589 H   0  0  0  0  0  0  0  0  0  0  0  0
  148.6419  132.4515  155.5867 H   0  0  0  0  0  0  0  0  0  0  0  0
  148.2137  135.3996  155.3006 H   0  0  0  0  0  0  0  0  0  0  0  0
  150.4864  140.9964  153.5973 H   0  0  0  0  0  0  0  0  0  0  0  0
  150.8044  142.1094  155.3439 H   0  0  0  0  0  0  0  0  0  0  0  0
  149.0764  142.3786  155.1574 H   0  0  0  0  0  0  0  0  0  0  0  0
  148.6804  141.1966  157.0944 H   0  0  0  0  0  0  0  0  0  0  0  0
  149.3729  139.7981  156.3141 H   0  0  0  0  0  0  0  0  0  0  0  0
  150.5735  140.0953  158.3661 H   0  0  0  0  0  0  0  0  0  0  0  0
  152.7720  141.2103  157.0803 H   0  0  0  0  0  0  0  0  0  0  0  0
  154.0620  138.3539  153.6787 H   0  0  0  0  0  0  0  0  0  0  0  0
  148.9942  136.3950  157.1358 H   0  0  0  0  0  0  0  0  0  0  0  0
  149.9300  131.5736  157.8592 H   0  0  0  0  0  0  0  0  0  0  0  0
  150.7835  131.4069  156.3332 H   0  0  0  0  0  0  0  0  0  0  0  0
  152.5682  131.8430  157.3728 H   0  0  0  0  0  0  0  0  0  0  0  0
  147.4867  132.8001  157.3684 H   0  0  0  0  0  0  0  0  0  0  0  0
  148.4560  134.8088  153.1780 H   0  0  0  0  0  0  0  0  0  0  0  0
  149.9337  142.4396  158.8160 H   0  0  0  0  0  0  0  0  0  0  0  0
  152.2042  143.1174  156.8880 H   0  0  0  0  0  0  0  0  0  0  0  0
  150.5171  143.4713  156.6264 H   0  0  0  0  0  0  0  0  0  0  0  0
  151.7107  145.4795  157.4087 H   0  0  0  0  0  0  0  0  0  0  0  0
  150.4631  145.0108  158.5390 H   0  0  0  0  0  0  0  0  0  0  0  0
  153.4531  144.4327  158.8162 H   0  0  0  0  0  0  0  0  0  0  0  0
  152.5328  145.5758  159.7673 H   0  0  0  0  0  0  0  0  0  0  0  0
  152.8748  143.4275  160.9998 H   0  0  0  0  0  0  0  0  0  0  0  0
  151.1791  143.7580  160.7445 H   0  0  0  0  0  0  0  0  0  0  0  0
  151.6573  141.4207  160.2701 H   0  0  0  0  0  0  0  0  0  0  0  0
  152.9089  141.8297  159.1216 H   0  0  0  0  0  0  0  0  0  0  0  0
  1  2  1  0  0  0  0
  1 34  1  0  0  0  0
  2  3  1  0  0  0  0
  2 35  1  0  0  0  0
  2 36  1  0  0  0  0
  3  4  1  0  0  0  0
  3 37  1  0  0  0  0
  3 38  1  0  0  0  0
  4  5  1  0  0  0  0
  4 24  1  0  0  0  0
  4 39  1  0  0  0  0
  5  6  1  0  0  0  0
  5 40  1  0  0  0  0
  6 11  1  0  0  0  0
  6  7  2  0  0  0  0
  7  8  1  0  0  0  0
  8  9  2  0  0  0  0
  8 41  1  0  0  0  0
  9 10  1  0  0  0  0
 10 14  1  0  0  0  0
 10 11  2  0  0  0  0
 11 12  1  0  0  0  0
 12 13  2  0  0  0  0
 13 14  1  0  0  0  0
 13 42  1  0  0  0  0
 14 15  1  0  0  0  0
 15 30  1  0  0  0  0
 15 22  1  0  0  0  0
 15 16  1  0  0  0  0
 16 17  1  0  0  0  0
 17 31  1  0  0  0  0
 17 18  1  0  0  0  0
 17 20  1  0  0  0  0
 18 19  1  0  0  0  0
 18 43  1  0  0  0  0
 18 44  1  0  0  0  0
 19 45  1  0  0  0  0
 20 32  1  0  0  0  0
 20 21  1  0  0  0  0
 20 22  1  0  0  0  0
 21 46  1  0  0  0  0
 22 33  1  0  0  0  0
 22 23  1  0  0  0  0
 23 47  1  0  0  0  0
 24 29  1  0  0  0  0
 24 25  1  0  0  0  0
 24 48  1  0  0  0  0
 25 26  1  0  0  0  0
 25 49  1  0  0  0  0
 25 50  1  0  0  0  0
 26 27  1  0  0  0  0
 26 51  1  0  0  0  0
 26 52  1  0  0  0  0
 27 28  1  0  0  0  0
 27 53  1  0  0  0  0
 27 54  1  0  0  0  0
 28 29  1  0  0  0  0
 28 55  1  0  0  0  0
 28 56  1  0  0  0  0
 29 57  1  0  0  0  0
 29 58  1  0  0  0  0
M  END
> <s_m_source_file>
AV-unprocessed.smi

> <i_m_source_file_index>
109

> <i_lp_mmshare_version>
43012

> <i_f3d_flags>
0

> <s_epik_input>
W0NIMl0xW0NIMl1bQ0gyXVtDSDJdW0NIMl1bQ0hdMVtDQEhdKFtDSDJdW0NIMl1bT0hdKVtOSF1jKG5bY0hdbjIpYyhjMjMpbltjSF1uM1tDQEBIXTRPW0NASF0oW0NIMl1bT0hdKVtDQEBIXShbT0hdKVtDQEhdNFtPSF0=

> <s_epik_cmdline>
J2VwaWtfcHl0aG9uJywgJy1waCcsICc3LjAnLCAnLXRuJywgJzgnLCAnLW1hJywgJzIwMCcsICctbWV0YWxfYmluZGluZycsICctaW1hZScsICc8aW5maWxlLm1hZT4nLCAnLW9tYWUnLCAnPG91dGZpbGUubWFlPic=

> <r_lp_tautomer_probability>
1

> <r_epik_Ionization_Penalty>
0.000793976

> <r_epik_Ionization_Penalty_Charging>
0

> <r_epik_Ionization_Penalty_Neutral>
0.000793976

> <r_epik_State_Penalty>
-0

> <r_epik_Charging_Adjusted_Penalty>
0

> <i_epik_Tot_Q>
0

> <i_epik_Tot_abs_Q>
0

> <r_epik_Metal_State_Penalty>
-0

> <b_epik_Metal_Only>
0

> <s_epik_Chemistry_Notes>
This compound contains an acetal/aminal-like group ( X-CH(R)-Y where X, Y are N, S, or O) that may be acid/base labile, releasing an aldehyde.

> <s_lp_Force_Field>
OPLS_2005

> <r_lp_Energy>
47.2869

> <b_lp_Chiralities_Consistent>
1

> <s_lp_Variant>
AV-unprocessed.smi:109-20

> <Gold.Version>
5.8.1

> <Gold.Id.Protein>
6NUR|6NUR_protein|mol2

> <Gold.PLP.Fitness>
54.1963

> <Gold.PLP.PLP>
-45.6548

> <Gold.PLP.part.hbond>
-6.0833

> <Gold.PLP.part.metal>
0.0000

> <Gold.PLP.part.buried>
-3.6753

> <Gold.PLP.part.nonpolar>
-35.1394

> <Gold.PLP.part.repulsive>
0.2927

> <Gold.PLP.ligand.clash>
0.0000

> <Gold.PLP.ligand.torsion>
1.3897

> <Gold.PLP.Chemscore.Hbond>
3.7040

> <Gold.PLP.Chemscore.CHOScore>
0.0000

> <Gold.PLP.Chemscore.Metal>
0.0000

> <Gold.Chemscore.Hbonds>
donor molecule, donor type, donor heavy atom, donor atom, acceptor molecule, acceptor atom, score
      L1  H    23    47       P1  7948  1.00
      P1  H  6896  6908       L1    19  1.00
      P1  H  7997  8010       L1     7  1.00
      P1  H 10752 10765       L1     9  0.64

> <Gold.PLP.Chemscore.Internal.Correction>
0.2088

> <Gold.Rescore>
     Score         DG    S(hbond)    S(metal)    S(lipo)     H(rot)  DE(clash)    DE(int)     intcor
      9.75     -14.30       3.36        0.00      99.09       5.47       0.22       4.34       ----

> <Gold.Chemscore.Fitness>
9.7454

> <Gold.Chemscore.DG>
-14.2991

> <Gold.Chemscore.ZeroCoef>
-5.4800

> <Gold.Chemscore.Hbond>
3.3589

> <Gold.Chemscore.Metal>
0.0000

> <Gold.Chemscore.Lipo>
99.0931

> <Gold.Chemscore.Internal_Hbond>
0.0000

> <Gold.Chemscore.DEClash>
0.2175

> <Gold.Chemscore.DEInternal>
4.3363

> <Gold.Chemscore.Rot>
5.4662

> <Gold.Chemscore.Internal.Correction>
   9.000000E+99

> <Gold.Chemscore.Hbonds>
donor molecule, donor type, donor heavy atom, donor atom, acceptor molecule, acceptor atom, score
      L1  H    23    47       P1  7948  0.64
      P1  H  6896  6908       L1    19  0.40
      P1  H  7997  8010       L1     7  0.35
      P1  H 10752 10765       L1     9  0.52

> <Gold.Chemscore.Hbond.Weighted>
-11.2188

> <Gold.Chemscore.Metal.Weighted>
-0.0000

> <Gold.Chemscore.Lipo.Weighted>
-11.5939

> <Gold.Chemscore.Internal_Hbond.Weighted>
0.0000

> <Gold.Chemscore.DEClash.Weighted>
0.2175

> <Gold.Chemscore.DEInternal.Weighted>
4.3363

> <Gold.Chemscore.Rot.Weighted>
13.9935

> <Gold.Chemscore.Internal.Correction.Weighted>
   9.000000E+99

> <Gold.Protein.RotatedTorsions>
[ 6907 6896 6895 6894 ] final   72.94 input  -60.11 | X-H torsion
[ 7974 7965 7964 7962 ] final -147.46 input  175.53 | X-H torsion
[ 8008 7997 7996 7995 ] final   99.71 input   59.86 | X-H torsion
[ 10167 10162 10161 10158 ] final  -32.95 input  -65.29 | X-H torsion
[ 10718 10713 10712 10709 ] final  -13.34 input   66.30 | X-H torsion
[ 10763 10752 10751 10750 ] final  152.02 input  -60.55 | X-H torsion
[ 11005 11000 10999 10996 ] final  113.51 input  -57.11 | X-H torsion

> <Gold.Protein.ActiveResidues>
 VAL166  LYS551  ARG553  GLY616  TRP617  ASP618  TYR619  PRO620  LYS621  CYS622 
 ASP623  PHE694  ASN695  SER759  ASP760  ASP761  ALA762  ILE779  LEU786  VAL792 
 PHE793  MET794  SER795  GLU796  ALA797  LYS798  CYS799  TRP800  GLU811  SER814 

> <Gold.Protein.RotatedAtoms>
  152.4896  134.4495  159.9569 H   0  0  0  0  0  0  0  0  0  0  0  0  # atno 6907 bound_to 6896
  151.4485  133.3618  159.2799 H   0  0  0  0  0  0  0  0  0  0  0  0  # atno 6908 bound_to 6896
  150.9038  134.8476  159.7438 H   0  0  0  0  0  0  0  0  0  0  0  0  # atno 6909 bound_to 6896
  144.8092  140.5324  143.5654 H   0  0  0  0  0  0  0  0  0  0  0  0  # atno 7974 bound_to 7965
  156.1132  140.3224  155.8102 H   0  0  0  0  0  0  0  0  0  0  0  0  # atno 8008 bound_to 7997
  155.4636  140.0541  157.3005 H   0  0  0  0  0  0  0  0  0  0  0  0  # atno 8009 bound_to 7997
  154.4774  140.2038  155.9858 H   0  0  0  0  0  0  0  0  0  0  0  0  # atno 8010 bound_to 7997
  140.7213  143.3656  151.1876 H   0  0  0  0  0  0  0  0  0  0  0  0  # atno 10167 bound_to 10162
  156.6316  130.4903  149.6127 H   0  0  0  0  0  0  0  0  0  0  0  0  # atno 10718 bound_to 10713
  154.1133  135.2837  155.3225 H   0  0  0  0  0  0  0  0  0  0  0  0  # atno 10763 bound_to 10752
  154.6474  135.5381  153.7865 H   0  0  0  0  0  0  0  0  0  0  0  0  # atno 10764 bound_to 10752
  153.0338  135.6501  154.1290 H   0  0  0  0  0  0  0  0  0  0  0  0  # atno 10765 bound_to 10752
  139.8955  134.9551  156.6750 H   0  0  0  0  0  0  0  0  0  0  0  0  # atno 11005 bound_to 11000
  145.5365  139.1475  143.3471 LP  0  0  0  0  0  0  0  0  0  0  0  0  # atno 17320 bound_to 7965
  146.2388  140.5505  142.8943 LP  0  0  0  0  0  0  0  0  0  0  0  0  # atno 17321 bound_to 7965
  139.7217  143.9212  152.2988 LP  0  0  0  0  0  0  0  0  0  0  0  0  # atno 17342 bound_to 10162
  139.8971  144.6933  150.8706 LP  0  0  0  0  0  0  0  0  0  0  0  0  # atno 17343 bound_to 10162
  156.2230  130.6748  151.1387 LP  0  0  0  0  0  0  0  0  0  0  0  0  # atno 17370 bound_to 10713
  157.7198  131.0688  150.6181 LP  0  0  0  0  0  0  0  0  0  0  0  0  # atno 17371 bound_to 10713
  140.7344  133.9031  155.8234 LP  0  0  0  0  0  0  0  0  0  0  0  0  # atno 17394 bound_to 11000
  141.0128  134.0997  157.4204 LP  0  0  0  0  0  0  0  0  0  0  0  0  # atno 17395 bound_to 11000

$$$$
