AV-unprocessed.smi:671|AV-procd|sdf|3285|dock10
  -GOLD-   22720 0243D 1   1.00000     0.00000
 Structure written by MMmdl.
 50 51  0  0  0  0  0  0  0  0  2 V2000
  145.9900  142.4894  155.0462 C   0  0  0  0  0  0  0  0  0  0  0  0
  146.6600  141.2402  154.5794 C   0  0  0  0  0  0  0  0  0  0  0  0
  146.1790  140.4330  153.5968 N   0  3  0  0  0  0  0  0  0  0  0  0
  147.0005  139.3906  153.4094 N   0  0  0  0  0  0  0  0  0  0  0  0
  146.6559  138.3995  152.3901 C   0  0  0  0  0  0  0  0  0  0  0  0
  148.0589  139.4635  154.2664 C   0  0  0  0  0  0  0  0  0  0  0  0
  149.1652  138.4600  154.3261 C   0  0  0  0  0  0  0  0  0  0  0  0
  147.8483  140.6358  155.0062 C   0  0  0  0  0  0  0  0  0  0  0  0
  148.7383  141.1749  156.0913 C   0  0  0  0  0  0  0  0  0  0  0  0
  148.9038  140.2022  157.2817 C   0  0  2  0  0  0  0  0  0  0  0  0
  147.5573  139.7719  157.8841 C   0  0  0  0  0  0  0  0  0  0  0  0
  149.7184  140.8154  158.3341 N   0  0  0  0  0  0  0  0  0  0  0  0
  151.0095  141.1920  158.2738 C   0  0  0  0  0  0  0  0  0  0  0  0
  151.6823  141.0429  157.2561 O   0  0  0  0  0  0  0  0  0  0  0  0
  151.4855  141.7297  159.4097 N   0  0  0  0  0  0  0  0  0  0  0  0
  152.8568  142.1769  159.6505 C   0  0  2  0  0  0  0  0  0  0  0  0
  153.7484  140.9616  159.9719 C   0  0  0  0  0  0  0  0  0  0  0  0
  154.1100  141.0521  161.4617 C   0  0  0  0  0  0  0  0  0  0  0  0
  153.2064  142.1365  162.0482 C   0  0  0  0  0  0  0  0  0  0  0  0
  152.9653  143.0972  160.8834 C   0  0  2  0  0  0  0  0  0  0  0  0
  151.8038  144.0791  161.1140 C   0  0  0  0  0  0  0  0  0  0  0  0
  146.7129  143.3002  155.1321 H   0  0  0  0  0  0  0  0  0  0  0  0
  145.5334  142.3263  156.0224 H   0  0  0  0  0  0  0  0  0  0  0  0
  145.2125  142.7946  154.3456 H   0  0  0  0  0  0  0  0  0  0  0  0
  147.5452  137.8339  152.1115 H   0  0  0  0  0  0  0  0  0  0  0  0
  146.2614  138.9036  151.5068 H   0  0  0  0  0  0  0  0  0  0  0  0
  145.9040  137.7204  152.7930 H   0  0  0  0  0  0  0  0  0  0  0  0
  149.8052  138.6285  155.1910 H   0  0  0  0  0  0  0  0  0  0  0  0
  149.7782  138.5261  153.4273 H   0  0  0  0  0  0  0  0  0  0  0  0
  148.7566  137.4515  154.3959 H   0  0  0  0  0  0  0  0  0  0  0  0
  149.7144  141.3979  155.6595 H   0  0  0  0  0  0  0  0  0  0  0  0
  148.3704  142.1349  156.4525 H   0  0  0  0  0  0  0  0  0  0  0  0
  149.4060  139.2961  156.9390 H   0  0  0  0  0  0  0  0  0  0  0  0
  146.9489  139.2333  157.1575 H   0  0  0  0  0  0  0  0  0  0  0  0
  146.9824  140.6322  158.2286 H   0  0  0  0  0  0  0  0  0  0  0  0
  147.7042  139.1075  158.7363 H   0  0  0  0  0  0  0  0  0  0  0  0
  149.2492  140.9707  159.2150 H   0  0  0  0  0  0  0  0  0  0  0  0
  150.8453  141.8199  160.1843 H   0  0  0  0  0  0  0  0  0  0  0  0
  153.2406  142.6920  158.7680 H   0  0  0  0  0  0  0  0  0  0  0  0
  153.2446  140.0195  159.7504 H   0  0  0  0  0  0  0  0  0  0  0  0
  154.6558  140.9794  159.3673 H   0  0  0  0  0  0  0  0  0  0  0  0
  153.9915  140.0981  161.9764 H   0  0  0  0  0  0  0  0  0  0  0  0
  155.1537  141.3517  161.5649 H   0  0  0  0  0  0  0  0  0  0  0  0
  152.2623  141.6951  162.3700 H   0  0  0  0  0  0  0  0  0  0  0  0
  153.6542  142.6282  162.9123 H   0  0  0  0  0  0  0  0  0  0  0  0
  153.8740  143.6891  160.7603 H   0  0  0  0  0  0  0  0  0  0  0  0
  150.8662  143.5613  161.3175 H   0  0  0  0  0  0  0  0  0  0  0  0
  151.6535  144.7165  160.2423 H   0  0  0  0  0  0  0  0  0  0  0  0
  152.0101  144.7280  161.9653 H   0  0  0  0  0  0  0  0  0  0  0  0
  145.3357  140.5400  153.0472 H   0  0  0  0  0  0  0  0  0  0  0  0
  1  2  1  0  0  0  0
  1 22  1  0  0  0  0
  1 23  1  0  0  0  0
  1 24  1  0  0  0  0
  2  8  1  0  0  0  0
  2  3  2  0  0  0  0
  3  4  1  0  0  0  0
  3 50  1  0  0  0  0
  4  5  1  0  0  0  0
  4  6  1  0  0  0  0
  5 25  1  0  0  0  0
  5 26  1  0  0  0  0
  5 27  1  0  0  0  0
  6  7  1  0  0  0  0
  6  8  2  0  0  0  0
  7 28  1  0  0  0  0
  7 29  1  0  0  0  0
  7 30  1  0  0  0  0
  8  9  1  0  0  0  0
  9 10  1  0  0  0  0
  9 31  1  0  0  0  0
  9 32  1  0  0  0  0
 10 11  1  0  0  0  0
 10 12  1  0  0  0  0
 10 33  1  0  0  0  0
 11 34  1  0  0  0  0
 11 35  1  0  0  0  0
 11 36  1  0  0  0  0
 12 13  1  0  0  0  0
 12 37  1  0  0  0  0
 13 14  2  0  0  0  0
 13 15  1  0  0  0  0
 15 16  1  0  0  0  0
 15 38  1  0  0  0  0
 16 20  1  0  0  0  0
 16 17  1  0  0  0  0
 16 39  1  0  0  0  0
 17 18  1  0  0  0  0
 17 40  1  0  0  0  0
 17 41  1  0  0  0  0
 18 19  1  0  0  0  0
 18 42  1  0  0  0  0
 18 43  1  0  0  0  0
 19 20  1  0  0  0  0
 19 44  1  0  0  0  0
 19 45  1  0  0  0  0
 20 21  1  0  0  0  0
 20 46  1  0  0  0  0
 21 47  1  0  0  0  0
 21 48  1  0  0  0  0
 21 49  1  0  0  0  0
M  CHG  1   3   1
M  END
> <s_m_source_file>
AV-unprocessed.smi

> <i_m_source_file_index>
671

> <i_lp_mmshare_version>
43012

> <i_f3d_flags>
0

> <s_epik_input>
W0NIM11jMW5uKFtDSDNdKWMoW0NIM10pYzFbQ0gyXVtDQEhdKFtDSDNdKVtOSF1DKD1PKVtOSF1bQ0BASF0yW0NIMl1bQ0gyXVtDSDJdW0NASF0yW0NIM10=

> <s_epik_cmdline>
J2VwaWtfcHl0aG9uJywgJy1waCcsICc3LjAnLCAnLXRuJywgJzgnLCAnLW1hJywgJzIwMCcsICctbWV0YWxfYmluZGluZycsICctaW1hZScsICc8aW5maWxlLm1hZT4nLCAnLW9tYWUnLCAnPG91dGZpbGUubWFlPic=

> <r_lp_tautomer_probability>
1

> <r_epik_Ionization_Penalty>
2.28705

> <r_epik_Ionization_Penalty_Charging>
2.28698

> <r_epik_Ionization_Penalty_Neutral>
6.23157e-05

> <r_epik_State_Penalty>
2.43671

> <r_epik_Charging_Adjusted_Penalty>
4.72369

> <i_epik_Tot_Q>
1

> <i_epik_Tot_abs_Q>
1

> <r_epik_Metal_State_Penalty>
2.44911

> <b_epik_Metal_Only>
0

> <s_lp_Force_Field>
OPLS_2005

> <r_lp_Energy>
35.629

> <b_lp_Chiralities_Consistent>
1

> <s_lp_Variant>
AV-unprocessed.smi:671-13

> <Gold.Version>
5.8.1

> <Gold.Id.Protein>
6NUR|6NUR_protein|mol2

> <Gold.PLP.Fitness>
47.9536

> <Gold.PLP.PLP>
-42.6668

> <Gold.PLP.part.hbond>
-1.0000

> <Gold.PLP.part.metal>
0.0000

> <Gold.PLP.part.buried>
-3.0772

> <Gold.PLP.part.nonpolar>
-39.6005

> <Gold.PLP.part.repulsive>
0.3426

> <Gold.PLP.ligand.clash>
0.0000

> <Gold.PLP.ligand.torsion>
0.2982

> <Gold.PLP.Chemscore.Hbond>
1.9520

> <Gold.PLP.Chemscore.CHOScore>
0.0000

> <Gold.PLP.Chemscore.Metal>
0.0000

> <Gold.Chemscore.Hbonds>
donor molecule, donor type, donor heavy atom, donor atom, acceptor molecule, acceptor atom, score
      L1  H     3    50       P1 10175  2.00

> <Gold.PLP.Chemscore.Internal.Correction>
0.0272

> <Gold.Rescore>
     Score         DG    S(hbond)    S(metal)    S(lipo)     H(rot)  DE(clash)    DE(int)     intcor
     17.40     -17.82       0.97        0.00     110.76       1.51       0.22       0.20       ----

> <Gold.Chemscore.Fitness>
17.3988

> <Gold.Chemscore.DG>
-17.8156

> <Gold.Chemscore.ZeroCoef>
-5.4800

> <Gold.Chemscore.Hbond>
0.9675

> <Gold.Chemscore.Metal>
0.0000

> <Gold.Chemscore.Lipo>
110.7586

> <Gold.Chemscore.Internal_Hbond>
0.0000

> <Gold.Chemscore.DEClash>
0.2180

> <Gold.Chemscore.DEInternal>
0.1989

> <Gold.Chemscore.Rot>
1.5057

> <Gold.Chemscore.Internal.Correction>
   9.000000E+99

> <Gold.Chemscore.Hbonds>
donor molecule, donor type, donor heavy atom, donor atom, acceptor molecule, acceptor atom, score
      L1  H     3    50       P1 10175  0.88

> <Gold.Chemscore.Hbond.Weighted>
-3.2316

> <Gold.Chemscore.Metal.Weighted>
-0.0000

> <Gold.Chemscore.Lipo.Weighted>
-12.9588

> <Gold.Chemscore.Internal_Hbond.Weighted>
0.0000

> <Gold.Chemscore.DEClash.Weighted>
0.2180

> <Gold.Chemscore.DEInternal.Weighted>
0.1989

> <Gold.Chemscore.Rot.Weighted>
3.8547

> <Gold.Chemscore.Internal.Correction.Weighted>
   9.000000E+99

> <Gold.Protein.RotatedTorsions>
[ 6907 6896 6895 6894 ] final -154.25 input  -60.11 | X-H torsion
[ 7974 7965 7964 7962 ] final -141.34 input  175.53 | X-H torsion
[ 8008 7997 7996 7995 ] final -176.67 input   59.86 | X-H torsion
[ 10167 10162 10161 10158 ] final   78.07 input  -65.29 | X-H torsion
[ 10718 10713 10712 10709 ] final -168.08 input   66.30 | X-H torsion
[ 10763 10752 10751 10750 ] final   32.83 input  -60.55 | X-H torsion
[ 11005 11000 10999 10996 ] final   96.60 input  -57.11 | X-H torsion

> <Gold.Protein.ActiveResidues>
 VAL166  LYS551  ARG553  GLY616  TRP617  ASP618  TYR619  PRO620  LYS621  CYS622 
 ASP623  PHE694  ASN695  SER759  ASP760  ASP761  ALA762  ILE779  LEU786  VAL792 
 PHE793  MET794  SER795  GLU796  ALA797  LYS798  CYS799  TRP800  GLU811  SER814 

> <Gold.Protein.RotatedAtoms>
  151.2546  133.4332  159.2612 H   0  0  0  0  0  0  0  0  0  0  0  0  # atno 6907 bound_to 6896
  151.0586  134.9721  159.8259 H   0  0  0  0  0  0  0  0  0  0  0  0  # atno 6908 bound_to 6896
  152.5394  134.2498  159.8947 H   0  0  0  0  0  0  0  0  0  0  0  0  # atno 6909 bound_to 6896
  144.8527  140.6091  143.5380 H   0  0  0  0  0  0  0  0  0  0  0  0  # atno 7974 bound_to 7965
  155.9977  140.1214  157.0577 H   0  0  0  0  0  0  0  0  0  0  0  0  # atno 8008 bound_to 7997
  154.4232  140.1113  156.5722 H   0  0  0  0  0  0  0  0  0  0  0  0  # atno 8009 bound_to 7997
  155.6256  140.3472  155.4668 H   0  0  0  0  0  0  0  0  0  0  0  0  # atno 8010 bound_to 7997
  139.9748  144.5869  150.7953 H   0  0  0  0  0  0  0  0  0  0  0  0  # atno 10167 bound_to 10162
  156.6917  130.9162  151.3070 H   0  0  0  0  0  0  0  0  0  0  0  0  # atno 10718 bound_to 10713
  153.0242  135.6403  154.1417 H   0  0  0  0  0  0  0  0  0  0  0  0  # atno 10763 bound_to 10752
  154.1148  135.2850  155.3224 H   0  0  0  0  0  0  0  0  0  0  0  0  # atno 10764 bound_to 10752
  154.6306  135.5494  153.7739 H   0  0  0  0  0  0  0  0  0  0  0  0  # atno 10765 bound_to 10752
  139.8780  134.8959  156.4183 H   0  0  0  0  0  0  0  0  0  0  0  0  # atno 11005 bound_to 11000
  145.4468  139.1528  143.3940 LP  0  0  0  0  0  0  0  0  0  0  0  0  # atno 17320 bound_to 7965
  146.2798  140.4592  142.8781 LP  0  0  0  0  0  0  0  0  0  0  0  0  # atno 17321 bound_to 7965
  140.7509  143.2964  151.3193 LP  0  0  0  0  0  0  0  0  0  0  0  0  # atno 17342 bound_to 10162
  139.6454  144.0461  152.2586 LP  0  0  0  0  0  0  0  0  0  0  0  0  # atno 17343 bound_to 10162
  157.7006  130.9329  150.0774 LP  0  0  0  0  0  0  0  0  0  0  0  0  # atno 17370 bound_to 10713
  156.1792  130.3649  149.9058 LP  0  0  0  0  0  0  0  0  0  0  0  0  # atno 17371 bound_to 10713
  140.9152  133.7684  155.9839 LP  0  0  0  0  0  0  0  0  0  0  0  0  # atno 17394 bound_to 11000
  140.8502  134.2963  157.5278 LP  0  0  0  0  0  0  0  0  0  0  0  0  # atno 17395 bound_to 11000

$$$$
