AV-unprocessed.smi:3117|AV-procd|sdf|11885|dock3
  -GOLD-   2272017273D 1   1.00000     0.00000
 Structure written by MMmdl.
 36 36  0  0  0  0  0  0  0  0  1 V2000
  154.3947  140.4802  160.9706 C   0  0  0  0  0  0  0  0  0  0  0  0
  153.5440  141.3852  160.0641 C   0  0  1  0  0  0  0  0  0  0  0  0
  152.7804  140.5234  159.1507 N   0  0  0  0  0  0  0  0  0  0  0  0
  152.0803  141.1887  158.0519 C   0  0  0  0  0  0  0  0  0  0  0  0
  151.5856  140.1835  156.9919 C   0  0  0  0  0  0  0  0  0  0  0  0
  150.6986  139.0817  157.5987 C   0  0  0  0  0  0  0  0  0  0  0  0
  150.8995  140.8829  155.8047 C   0  0  0  0  0  0  0  0  0  0  0  0
  152.7369  139.5439  156.4800 O   0  0  0  0  0  0  0  0  0  0  0  0
  152.6819  142.3756  160.9069 C   0  0  1  0  0  0  0  0  0  0  0  0
  153.2382  142.6650  162.3167 C   0  0  0  0  0  0  0  0  0  0  0  0
  152.2927  143.5829  160.1792 N   0  0  0  0  0  0  0  0  0  0  0  0
  152.7550  144.0187  158.9536 C   0  0  0  0  0  0  0  0  0  0  0  0
  152.1419  145.2073  158.6789 C   0  0  0  0  0  0  0  0  0  0  0  0
  151.3146  145.4294  159.8140 C   0  0  0  0  0  0  0  0  0  0  0  0
  151.4079  144.4599  160.7085 N   0  0  0  0  0  0  0  0  0  0  0  0
  155.0338  141.0678  161.6301 H   0  0  0  0  0  0  0  0  0  0  0  0
  155.0465  139.8361  160.3797 H   0  0  0  0  0  0  0  0  0  0  0  0
  153.7739  139.8363  161.5937 H   0  0  0  0  0  0  0  0  0  0  0  0
  154.2512  141.9725  159.4772 H   0  0  0  0  0  0  0  0  0  0  0  0
  153.3935  139.8095  158.7707 H   0  0  0  0  0  0  0  0  0  0  0  0
  151.2211  141.7380  158.4283 H   0  0  0  0  0  0  0  0  0  0  0  0
  152.7405  141.9192  157.5824 H   0  0  0  0  0  0  0  0  0  0  0  0
  149.7664  139.4906  157.9899 H   0  0  0  0  0  0  0  0  0  0  0  0
  151.2044  138.5704  158.4186 H   0  0  0  0  0  0  0  0  0  0  0  0
  150.4353  138.3301  156.8534 H   0  0  0  0  0  0  0  0  0  0  0  0
  149.9809  141.3820  156.1144 H   0  0  0  0  0  0  0  0  0  0  0  0
  150.6349  140.1701  155.0229 H   0  0  0  0  0  0  0  0  0  0  0  0
  151.5482  141.6380  155.3590 H   0  0  0  0  0  0  0  0  0  0  0  0
  152.5626  139.2839  155.5883 H   0  0  0  0  0  0  0  0  0  0  0  0
  151.7449  141.8559  161.1125 H   0  0  0  0  0  0  0  0  0  0  0  0
  153.4218  141.7373  162.8587 H   0  0  0  0  0  0  0  0  0  0  0  0
  152.5215  143.2433  162.9007 H   0  0  0  0  0  0  0  0  0  0  0  0
  154.1696  143.2260  162.3078 H   0  0  0  0  0  0  0  0  0  0  0  0
  153.4766  143.4519  158.3841 H   0  0  0  0  0  0  0  0  0  0  0  0
  152.2688  145.8260  157.8029 H   0  0  0  0  0  0  0  0  0  0  0  0
  150.6551  146.2608  160.0141 H   0  0  0  0  0  0  0  0  0  0  0  0
  1  2  1  0  0  0  0
  1 16  1  0  0  0  0
  1 17  1  0  0  0  0
  1 18  1  0  0  0  0
  2  3  1  0  0  0  0
  2  9  1  0  0  0  0
  2 19  1  0  0  0  0
  3  4  1  0  0  0  0
  3 20  1  0  0  0  0
  4  5  1  0  0  0  0
  4 21  1  0  0  0  0
  4 22  1  0  0  0  0
  5  6  1  0  0  0  0
  5  7  1  0  0  0  0
  5  8  1  0  0  0  0
  6 23  1  0  0  0  0
  6 24  1  0  0  0  0
  6 25  1  0  0  0  0
  7 26  1  0  0  0  0
  7 27  1  0  0  0  0
  7 28  1  0  0  0  0
  8 29  1  0  0  0  0
  9 10  1  0  0  0  0
  9 11  1  0  0  0  0
  9 30  1  0  0  0  0
 10 31  1  0  0  0  0
 10 32  1  0  0  0  0
 10 33  1  0  0  0  0
 11 15  1  0  0  0  0
 11 12  1  0  0  0  0
 12 13  2  0  0  0  0
 12 34  1  0  0  0  0
 13 14  1  0  0  0  0
 13 35  1  0  0  0  0
 14 15  2  0  0  0  0
 14 36  1  0  0  0  0
M  END
> <s_m_source_file>
AV-unprocessed.smi

> <i_m_source_file_index>
3117

> <i_lp_mmshare_version>
43012

> <i_f3d_flags>
0

> <s_epik_input>
W0NIM11DKFtDSDNdKShbT0hdKVtDSDJdW05IXVtDQEBIXShbQ0gzXSlbQ0BIXShbQ0gzXSluMVtjSF1bY0hdW2NIXW4x

> <s_epik_cmdline>
J2VwaWtfcHl0aG9uJywgJy1waCcsICc3LjAnLCAnLXRuJywgJzgnLCAnLW1hJywgJzIwMCcsICctbWV0YWxfYmluZGluZycsICctaW1hZScsICc8aW5maWxlLm1hZT4nLCAnLW9tYWUnLCAnPG91dGZpbGUubWFlPic=

> <r_lp_tautomer_probability>
1

> <r_epik_Ionization_Penalty>
2.13419

> <r_epik_Ionization_Penalty_Charging>
0

> <r_epik_Ionization_Penalty_Neutral>
2.13419

> <r_epik_State_Penalty>
2.27148

> <r_epik_Charging_Adjusted_Penalty>
2.27148

> <i_epik_Tot_Q>
0

> <i_epik_Tot_abs_Q>
0

> <r_epik_Metal_State_Penalty>
2.27029

> <b_epik_Metal_Only>
0

> <s_lp_Force_Field>
OPLS_2005

> <r_lp_Energy>
16.3619

> <b_lp_Chiralities_Consistent>
1

> <s_lp_Variant>
AV-unprocessed.smi:3117-8

> <Gold.Version>
5.8.1

> <Gold.Id.Protein>
6NUR|6NUR_protein|mol2

> <Gold.PLP.Fitness>
43.4926

> <Gold.PLP.PLP>
-41.9513

> <Gold.PLP.part.hbond>
-1.0000

> <Gold.PLP.part.metal>
0.0000

> <Gold.PLP.part.buried>
-5.9303

> <Gold.PLP.part.nonpolar>
-34.9681

> <Gold.PLP.part.repulsive>
0.1703

> <Gold.PLP.ligand.clash>
0.0000

> <Gold.PLP.ligand.torsion>
0.8782

> <Gold.PLP.Chemscore.Hbond>
1.0000

> <Gold.PLP.Chemscore.CHOScore>
0.0000

> <Gold.PLP.Chemscore.Metal>
0.0000

> <Gold.Chemscore.Hbonds>
donor molecule, donor type, donor heavy atom, donor atom, acceptor molecule, acceptor atom, score
      P1  H  7997  8009       L1     8  1.00

> <Gold.PLP.Chemscore.Internal.Correction>
0.2978

> <Gold.Rescore>
     Score         DG    S(hbond)    S(metal)    S(lipo)     H(rot)  DE(clash)    DE(int)     intcor
     14.00     -15.34       0.96        0.00     104.76       2.19       0.04       1.30       ----

> <Gold.Chemscore.Fitness>
13.9999

> <Gold.Chemscore.DG>
-15.3415

> <Gold.Chemscore.ZeroCoef>
-5.4800

> <Gold.Chemscore.Hbond>
0.9601

> <Gold.Chemscore.Metal>
0.0000

> <Gold.Chemscore.Lipo>
104.7570

> <Gold.Chemscore.Internal_Hbond>
0.0000

> <Gold.Chemscore.DEClash>
0.0385

> <Gold.Chemscore.DEInternal>
1.3031

> <Gold.Chemscore.Rot>
2.1882

> <Gold.Chemscore.Internal.Correction>
   9.000000E+99

> <Gold.Chemscore.Hbonds>
donor molecule, donor type, donor heavy atom, donor atom, acceptor molecule, acceptor atom, score
      P1  H  7997  8009       L1     8  0.82

> <Gold.Chemscore.Hbond.Weighted>
-3.2067

> <Gold.Chemscore.Metal.Weighted>
-0.0000

> <Gold.Chemscore.Lipo.Weighted>
-12.2566

> <Gold.Chemscore.Internal_Hbond.Weighted>
0.0000

> <Gold.Chemscore.DEClash.Weighted>
0.0385

> <Gold.Chemscore.DEInternal.Weighted>
1.3031

> <Gold.Chemscore.Rot.Weighted>
5.6018

> <Gold.Chemscore.Internal.Correction.Weighted>
   9.000000E+99

> <Gold.Protein.RotatedTorsions>
[ 6907 6896 6895 6894 ] final -157.70 input  -60.11 | X-H torsion
[ 7974 7965 7964 7962 ] final    5.66 input  175.53 | X-H torsion
[ 8008 7997 7996 7995 ] final  173.05 input   59.86 | X-H torsion
[ 10167 10162 10161 10158 ] final  173.99 input  -65.29 | X-H torsion
[ 10718 10713 10712 10709 ] final  -65.01 input   66.30 | X-H torsion
[ 10763 10752 10751 10750 ] final -179.98 input  -60.55 | X-H torsion
[ 11005 11000 10999 10996 ] final   -2.14 input  -57.11 | X-H torsion

> <Gold.Protein.ActiveResidues>
 VAL166  LYS551  ARG553  GLY616  TRP617  ASP618  TYR619  PRO620  LYS621  CYS622 
 ASP623  PHE694  ASN695  SER759  ASP760  ASP761  ALA762  ILE779  LEU786  VAL792 
 PHE793  MET794  SER795  GLU796  ALA797  LYS798  CYS799  TRP800  GLU811  SER814 

> <Gold.Protein.RotatedAtoms>
  151.3069  133.4097  159.2643 H   0  0  0  0  0  0  0  0  0  0  0  0  # atno 6907 bound_to 6896
  151.0147  134.9424  159.8037 H   0  0  0  0  0  0  0  0  0  0  0  0  # atno 6908 bound_to 6896
  152.5309  134.3033  159.9139 H   0  0  0  0  0  0  0  0  0  0  0  0  # atno 6909 bound_to 6896
  146.2439  140.0350  142.8386 H   0  0  0  0  0  0  0  0  0  0  0  0  # atno 7974 bound_to 7965
  156.1114  140.1470  156.9333 H   0  0  0  0  0  0  0  0  0  0  0  0  # atno 8008 bound_to 7997
  154.4770  140.0891  156.7328 H   0  0  0  0  0  0  0  0  0  0  0  0  # atno 8009 bound_to 7997
  155.4589  140.3437  155.4312 H   0  0  0  0  0  0  0  0  0  0  0  0  # atno 8010 bound_to 7997
  139.5127  144.3198  152.0213 H   0  0  0  0  0  0  0  0  0  0  0  0  # atno 10167 bound_to 10162
  156.0695  130.4241  150.1502 H   0  0  0  0  0  0  0  0  0  0  0  0  # atno 10718 bound_to 10713
  154.5281  135.2798  155.1204 H   0  0  0  0  0  0  0  0  0  0  0  0  # atno 10763 bound_to 10752
  154.2734  135.6299  153.5323 H   0  0  0  0  0  0  0  0  0  0  0  0  # atno 10764 bound_to 10752
  152.9951  135.5634  154.5788 H   0  0  0  0  0  0  0  0  0  0  0  0  # atno 10765 bound_to 10752
  140.6550  133.9370  155.8402 H   0  0  0  0  0  0  0  0  0  0  0  0  # atno 11005 bound_to 11000
  145.1120  140.9411  143.4650 LP  0  0  0  0  0  0  0  0  0  0  0  0  # atno 17320 bound_to 7965
  145.0566  139.3139  143.5901 LP  0  0  0  0  0  0  0  0  0  0  0  0  # atno 17321 bound_to 7965
  140.2640  144.4036  150.6175 LP  0  0  0  0  0  0  0  0  0  0  0  0  # atno 17342 bound_to 10162
  140.6137  143.2171  151.6835 LP  0  0  0  0  0  0  0  0  0  0  0  0  # atno 17343 bound_to 10162
  156.9555  130.9788  151.3489 LP  0  0  0  0  0  0  0  0  0  0  0  0  # atno 17370 bound_to 10713
  157.5757  130.8341  149.8453 LP  0  0  0  0  0  0  0  0  0  0  0  0  # atno 17371 bound_to 10713
  141.0508  134.0488  157.3786 LP  0  0  0  0  0  0  0  0  0  0  0  0  # atno 17394 bound_to 11000
  139.9032  135.0172  156.7368 LP  0  0  0  0  0  0  0  0  0  0  0  0  # atno 17395 bound_to 11000

$$$$
