AV-unprocessed.smi:645|AV-procd|sdf|3161|dock4
  -GOLD-   22720 0 83D 1   1.00000     0.00000
 Structure written by MMmdl.
 22 23  0  0  0  0  0  0  0  0  2 V2000
  147.0875  136.7744  156.2138 C   0  0  0  0  0  0  0  0  0  0  0  0
  148.3539  137.2104  156.9804 C   0  0  1  0  0  0  0  0  0  0  0  0
  149.1743  138.2544  156.2027 C   0  0  0  0  0  0  0  0  0  0  0  0
  149.6232  139.4576  156.8008 C   0  0  0  0  0  0  0  0  0  0  0  0
  150.3651  140.3709  156.0259 C   0  0  0  0  0  0  0  0  0  0  0  0
  150.6757  140.1661  154.7290 N   0  0  0  0  0  0  0  0  0  0  0  0
  150.2492  139.0215  154.1568 C   0  0  0  0  0  0  0  0  0  0  0  0
  149.5005  138.0449  154.8421 C   0  0  0  0  0  0  0  0  0  0  0  0
  147.9751  137.6483  158.3103 N   0  0  0  0  0  0  0  0  0  0  0  0
  148.5360  136.8956  159.2547 C   0  0  0  0  0  0  0  0  0  0  0  0
  148.3554  137.1175  160.4498 O   0  0  0  0  0  0  0  0  0  0  0  0
  149.2768  135.9217  158.6925 N   0  5  0  0  0  0  0  0  0  0  0  0
  149.2296  136.0008  157.3446 C   0  0  0  0  0  0  0  0  0  0  0  0
  149.7445  135.2744  156.4945 O   0  0  0  0  0  0  0  0  0  0  0  0
  147.3275  136.3283  155.2485 H   0  0  0  0  0  0  0  0  0  0  0  0
  146.4311  137.6250  156.0291 H   0  0  0  0  0  0  0  0  0  0  0  0
  146.5145  136.0350  156.7754 H   0  0  0  0  0  0  0  0  0  0  0  0
  149.4158  139.6926  157.8339 H   0  0  0  0  0  0  0  0  0  0  0  0
  150.7189  141.2937  156.4616 H   0  0  0  0  0  0  0  0  0  0  0  0
  150.5127  138.8778  153.1193 H   0  0  0  0  0  0  0  0  0  0  0  0
  149.1929  137.1461  154.3286 H   0  0  0  0  0  0  0  0  0  0  0  0
  147.3794  138.4439  158.4846 H   0  0  0  0  0  0  0  0  0  0  0  0
  1  2  1  0  0  0  0
  1 15  1  0  0  0  0
  1 16  1  0  0  0  0
  1 17  1  0  0  0  0
  2 13  1  0  0  0  0
  2  3  1  0  0  0  0
  2  9  1  0  0  0  0
  3  8  1  0  0  0  0
  3  4  2  0  0  0  0
  4  5  1  0  0  0  0
  4 18  1  0  0  0  0
  5  6  2  0  0  0  0
  5 19  1  0  0  0  0
  6  7  1  0  0  0  0
  7  8  2  0  0  0  0
  7 20  1  0  0  0  0
  8 21  1  0  0  0  0
  9 10  1  0  0  0  0
  9 22  1  0  0  0  0
 10 11  2  0  0  0  0
 10 12  1  0  0  0  0
 12 13  1  0  0  0  0
 13 14  2  0  0  0  0
M  CHG  1  12  -1
M  END
> <s_m_source_file>
AV-unprocessed.smi

> <i_m_source_file_index>
645

> <i_lp_mmshare_version>
43012

> <i_f3d_flags>
0

> <s_epik_input>
Tz1DMVtOSF1DKD1PKVtOSF1bQ0BAXTEoW0NIM10pYzJbY0hdW2NIXW5bY0hdW2NIXTI=

> <s_epik_cmdline>
J2VwaWtfcHl0aG9uJywgJy1waCcsICc3LjAnLCAnLXRuJywgJzgnLCAnLW1hJywgJzIwMCcsICctbWV0YWxfYmluZGluZycsICctaW1hZScsICc8aW5maWxlLm1hZT4nLCAnLW9tYWUnLCAnPG91dGZpbGUubWFlPic=

> <r_epik_Ionization_Penalty>
1.83307

> <r_epik_Ionization_Penalty_Charging>
1.82122

> <r_epik_Ionization_Penalty_Neutral>
0.0118514

> <r_epik_State_Penalty>
1.93645

> <r_epik_Charging_Adjusted_Penalty>
3.75767

> <i_epik_Tot_Q>
-1

> <i_epik_Tot_abs_Q>
1

> <r_epik_Metal_State_Penalty>
0.53507

> <b_epik_Metal_Only>
0

> <s_lp_Force_Field>
OPLS_2005

> <r_lp_Energy>
9.09868

> <b_lp_Chiralities_Consistent>
1

> <s_lp_Variant>
AV-unprocessed.smi:645-3

> <Gold.Version>
5.8.1

> <Gold.Id.Protein>
6NUR|6NUR_protein|mol2

> <Gold.PLP.Fitness>
28.2389

> <Gold.PLP.PLP>
-13.9348

> <Gold.PLP.part.hbond>
-3.9983

> <Gold.PLP.part.metal>
0.0000

> <Gold.PLP.part.buried>
-2.5955

> <Gold.PLP.part.nonpolar>
-7.5477

> <Gold.PLP.part.repulsive>
0.1863

> <Gold.PLP.ligand.clash>
0.0000

> <Gold.PLP.ligand.torsion>
0.3463

> <Gold.PLP.Chemscore.Hbond>
4.0727

> <Gold.PLP.Chemscore.CHOScore>
0.8989

> <Gold.PLP.Chemscore.Metal>
0.0000

> <Gold.Chemscore.Hbonds>
donor molecule, donor type, donor heavy atom, donor atom, acceptor molecule, acceptor atom, score
      P1  H  6896  6908       L1    12  1.62
      P1  H  6931  6943       L1    11  0.75
      P1  H  6934  6947       L1    11  0.24
      P1  H  7989  7998       L1     6  1.00
      L1  C     7    20       P1  7957  0.98

> <Gold.PLP.Chemscore.Internal.Correction>
0.0820

> <Gold.Rescore>
     Score         DG    S(hbond)    S(metal)    S(lipo)     H(rot)  DE(clash)    DE(int)     intcor
     14.92     -15.38       2.93        0.00      22.81       1.00       0.00       0.46       ----

> <Gold.Chemscore.Fitness>
14.9196

> <Gold.Chemscore.DG>
-15.3833

> <Gold.Chemscore.ZeroCoef>
-5.4800

> <Gold.Chemscore.Hbond>
2.9325

> <Gold.Chemscore.Metal>
0.0000

> <Gold.Chemscore.Lipo>
22.8088

> <Gold.Chemscore.Internal_Hbond>
0.0000

> <Gold.Chemscore.DEClash>
0.0033

> <Gold.Chemscore.DEInternal>
0.4604

> <Gold.Chemscore.Rot>
1.0000

> <Gold.Chemscore.Internal.Correction>
   9.000000E+99

> <Gold.Chemscore.Hbonds>
donor molecule, donor type, donor heavy atom, donor atom, acceptor molecule, acceptor atom, score
      P1  H  6896  6908       L1    12  0.78
      P1  H  6931  6943       L1    11  0.75
      P1  H  6934  6947       L1    11  0.22
      P1  H  7989  7998       L1     6  0.40

> <Gold.Chemscore.Hbond.Weighted>
-9.7946

> <Gold.Chemscore.Metal.Weighted>
-0.0000

> <Gold.Chemscore.Lipo.Weighted>
-2.6686

> <Gold.Chemscore.Internal_Hbond.Weighted>
0.0000

> <Gold.Chemscore.DEClash.Weighted>
0.0033

> <Gold.Chemscore.DEInternal.Weighted>
0.4604

> <Gold.Chemscore.Rot.Weighted>
2.5600

> <Gold.Chemscore.Internal.Correction.Weighted>
   9.000000E+99

> <Gold.Protein.RotatedTorsions>
[ 6907 6896 6895 6894 ] final  176.78 input  -60.11 | X-H torsion
[ 7974 7965 7964 7962 ] final -177.92 input  175.53 | X-H torsion
[ 8008 7997 7996 7995 ] final -126.68 input   59.86 | X-H torsion
[ 10167 10162 10161 10158 ] final  126.59 input  -65.29 | X-H torsion
[ 10718 10713 10712 10709 ] final  -53.31 input   66.30 | X-H torsion
[ 10763 10752 10751 10750 ] final   32.04 input  -60.55 | X-H torsion
[ 11005 11000 10999 10996 ] final -138.30 input  -57.11 | X-H torsion

> <Gold.Protein.ActiveResidues>
 VAL166  LYS551  ARG553  GLY616  TRP617  ASP618  TYR619  PRO620  LYS621  CYS622 
 ASP623  PHE694  ASN695  SER759  ASP760  ASP761  ALA762  ILE779  LEU786  VAL792 
 PHE793  MET794  SER795  GLU796  ALA797  LYS798  CYS799  TRP800  GLU811  SER814 

> <Gold.Protein.RotatedAtoms>
  151.7146  133.3313  159.3299 H   0  0  0  0  0  0  0  0  0  0  0  0  # atno 6907 bound_to 6896
  150.7679  134.6502  159.6293 H   0  0  0  0  0  0  0  0  0  0  0  0  # atno 6908 bound_to 6896
  152.3690  134.6764  160.0234 H   0  0  0  0  0  0  0  0  0  0  0  0  # atno 6909 bound_to 6896
  144.7129  140.0947  143.6419 H   0  0  0  0  0  0  0  0  0  0  0  0  # atno 7974 bound_to 7965
  155.2337  140.0426  157.2965 H   0  0  0  0  0  0  0  0  0  0  0  0  # atno 8008 bound_to 7997
  154.5872  140.2417  155.7941 H   0  0  0  0  0  0  0  0  0  0  0  0  # atno 8009 bound_to 7997
  156.2234  140.2962  156.0017 H   0  0  0  0  0  0  0  0  0  0  0  0  # atno 8010 bound_to 7997
  139.5623  144.6889  151.4008 H   0  0  0  0  0  0  0  0  0  0  0  0  # atno 10167 bound_to 10162
  156.1546  130.4150  149.9889 H   0  0  0  0  0  0  0  0  0  0  0  0  # atno 10718 bound_to 10713
  153.0283  135.6423  154.1292 H   0  0  0  0  0  0  0  0  0  0  0  0  # atno 10763 bound_to 10752
  154.1018  135.2859  155.3251 H   0  0  0  0  0  0  0  0  0  0  0  0  # atno 10764 bound_to 10752
  154.6393  135.5465  153.7834 H   0  0  0  0  0  0  0  0  0  0  0  0  # atno 10765 bound_to 10752
  140.8629  134.2146  157.4697 H   0  0  0  0  0  0  0  0  0  0  0  0  # atno 11005 bound_to 11000
  145.9590  139.2787  143.1167 LP  0  0  0  0  0  0  0  0  0  0  0  0  # atno 17320 bound_to 7965
  145.9242  140.9094  143.0390 LP  0  0  0  0  0  0  0  0  0  0  0  0  # atno 17321 bound_to 7965
  140.6904  143.7875  150.7247 LP  0  0  0  0  0  0  0  0  0  0  0  0  # atno 17342 bound_to 10162
  140.1355  143.4487  152.2227 LP  0  0  0  0  0  0  0  0  0  0  0  0  # atno 17343 bound_to 10162
  156.7737  130.9195  151.3645 LP  0  0  0  0  0  0  0  0  0  0  0  0  # atno 17370 bound_to 10713
  157.6685  130.9029  149.9986 LP  0  0  0  0  0  0  0  0  0  0  0  0  # atno 17371 bound_to 10713
  139.8708  134.9738  156.4822 LP  0  0  0  0  0  0  0  0  0  0  0  0  # atno 17394 bound_to 11000
  140.8662  133.8022  155.9316 LP  0  0  0  0  0  0  0  0  0  0  0  0  # atno 17395 bound_to 11000

$$$$
