AV-unprocessed.smi:3338|AV-procd|sdf|12875|dock3
  -GOLD-   2272019273D 1   1.00000     0.00000
 Structure written by MMmdl.
 44 45  0  0  0  0  0  0  0  0  2 V2000
  152.2643  145.5359  159.3861 C   0  0  0  0  0  0  0  0  0  0  0  0
  151.4039  144.5172  160.1540 C   0  0  2  0  0  0  0  0  0  0  0  0
  152.1947  143.7665  161.2410 C   0  0  0  0  0  0  0  0  0  0  0  0
  153.1389  142.7265  160.6223 C   0  0  0  0  0  0  0  0  0  0  0  0
  152.3769  141.7825  159.6788 C   0  0  0  0  0  0  0  0  0  0  0  0
  151.6566  142.5416  158.6238 N   0  3  1  0  0  0  0  0  0  0  0  0
  151.0364  141.6439  157.6166 C   0  0  0  0  0  0  0  0  0  0  0  0
  151.1154  142.2128  156.1907 C   0  0  0  0  0  0  0  0  0  0  0  0
  149.8073  142.1700  155.5530 N   0  0  0  0  0  0  0  0  0  0  0  0
  149.3788  141.1668  154.7717 C   0  0  0  0  0  0  0  0  0  0  0  0
  150.0792  140.1922  154.4952 O   0  0  0  0  0  0  0  0  0  0  0  0
  147.9461  141.2931  154.2241 C   0  0  1  0  0  0  0  0  0  0  0  0
  147.4631  140.0226  153.4967 C   0  0  0  0  0  0  0  0  0  0  0  0
  147.0211  141.6918  155.2796 N   0  0  0  0  0  0  0  0  0  0  0  0
  145.6529  141.8519  155.1948 C   0  0  0  0  0  0  0  0  0  0  0  0
  145.2093  142.2529  156.4223 C   0  0  0  0  0  0  0  0  0  0  0  0
  146.3944  142.3141  157.2066 C   0  0  0  0  0  0  0  0  0  0  0  0
  147.4760  141.9828  156.5209 N   0  0  0  0  0  0  0  0  0  0  0  0
  150.6997  143.5201  159.2103 C   0  0  0  0  0  0  0  0  0  0  0  0
  153.0569  145.0526  158.8147 H   0  0  0  0  0  0  0  0  0  0  0  0
  152.7329  146.2462  160.0680 H   0  0  0  0  0  0  0  0  0  0  0  0
  151.6575  146.1091  158.6847 H   0  0  0  0  0  0  0  0  0  0  0  0
  150.6271  145.0927  160.6593 H   0  0  0  0  0  0  0  0  0  0  0  0
  152.7549  144.4671  161.8611 H   0  0  0  0  0  0  0  0  0  0  0  0
  151.4960  143.2600  161.9084 H   0  0  0  0  0  0  0  0  0  0  0  0
  153.9393  143.2267  160.0763 H   0  0  0  0  0  0  0  0  0  0  0  0
  153.6232  142.1505  161.4116 H   0  0  0  0  0  0  0  0  0  0  0  0
  153.0861  141.0922  159.2202 H   0  0  0  0  0  0  0  0  0  0  0  0
  151.6648  141.1779  160.2431 H   0  0  0  0  0  0  0  0  0  0  0  0
  151.5575  140.6852  157.6231 H   0  0  0  0  0  0  0  0  0  0  0  0
  150.0022  141.4345  157.8952 H   0  0  0  0  0  0  0  0  0  0  0  0
  151.4642  143.2455  156.1961 H   0  0  0  0  0  0  0  0  0  0  0  0
  151.8250  141.6340  155.5970 H   0  0  0  0  0  0  0  0  0  0  0  0
  149.1768  142.9379  155.7331 H   0  0  0  0  0  0  0  0  0  0  0  0
  147.9613  142.0989  153.4883 H   0  0  0  0  0  0  0  0  0  0  0  0
  148.1256  139.7656  152.6695 H   0  0  0  0  0  0  0  0  0  0  0  0
  146.4658  140.1696  153.0810 H   0  0  0  0  0  0  0  0  0  0  0  0
  147.4176  139.1617  154.1651 H   0  0  0  0  0  0  0  0  0  0  0  0
  145.1130  141.6686  154.2773 H   0  0  0  0  0  0  0  0  0  0  0  0
  144.1927  142.4693  156.7161 H   0  0  0  0  0  0  0  0  0  0  0  0
  146.5007  142.5894  158.2456 H   0  0  0  0  0  0  0  0  0  0  0  0
  149.9289  142.9765  159.7591 H   0  0  0  0  0  0  0  0  0  0  0  0
  150.1855  144.0749  158.4263 H   0  0  0  0  0  0  0  0  0  0  0  0
  152.3601  143.0763  158.1343 H   0  0  0  0  0  0  0  0  0  0  0  0
  1  2  1  0  0  0  0
  1 20  1  0  0  0  0
  1 21  1  0  0  0  0
  1 22  1  0  0  0  0
  2 19  1  0  0  0  0
  2  3  1  0  0  0  0
  2 23  1  0  0  0  0
  3  4  1  0  0  0  0
  3 24  1  0  0  0  0
  3 25  1  0  0  0  0
  4  5  1  0  0  0  0
  4 26  1  0  0  0  0
  4 27  1  0  0  0  0
  5  6  1  0  0  0  0
  5 28  1  0  0  0  0
  5 29  1  0  0  0  0
  6  7  1  0  0  0  0
  6 19  1  0  0  0  0
  6 44  1  0  0  0  0
  7  8  1  0  0  0  0
  7 30  1  0  0  0  0
  7 31  1  0  0  0  0
  8  9  1  0  0  0  0
  8 32  1  0  0  0  0
  8 33  1  0  0  0  0
  9 10  1  0  0  0  0
  9 34  1  0  0  0  0
 10 11  2  0  0  0  0
 10 12  1  0  0  0  0
 12 13  1  0  0  0  0
 12 14  1  0  0  0  0
 12 35  1  0  0  0  0
 13 36  1  0  0  0  0
 13 37  1  0  0  0  0
 13 38  1  0  0  0  0
 14 18  1  0  0  0  0
 14 15  1  0  0  0  0
 15 16  2  0  0  0  0
 15 39  1  0  0  0  0
 16 17  1  0  0  0  0
 16 40  1  0  0  0  0
 17 18  2  0  0  0  0
 17 41  1  0  0  0  0
 19 42  1  0  0  0  0
 19 43  1  0  0  0  0
M  CHG  1   6   1
M  END
> <s_m_source_file>
AV-unprocessed.smi

> <i_m_source_file_index>
3338

> <i_lp_mmshare_version>
43012

> <i_f3d_flags>
0

> <s_epik_input>
W0NIM11bQ0BASF0xW0NIMl1bQ0gyXVtDSDJdTihbQ0gyXTEpW0NIMl1bQ0gyXVtOSF1DKD1PKVtDQEhdKFtDSDNdKW4yW2NIXVtjSF1bY0hdbjI=

> <s_epik_cmdline>
J2VwaWtfcHl0aG9uJywgJy1waCcsICc3LjAnLCAnLXRuJywgJzgnLCAnLW1hJywgJzIwMCcsICctbWV0YWxfYmluZGluZycsICctaW1hZScsICc8aW5maWxlLm1hZT4nLCAnLW9tYWUnLCAnPG91dGZpbGUubWFlPic=

> <r_lp_tautomer_probability>
1

> <r_epik_Ionization_Penalty>
0.00225707

> <r_epik_Ionization_Penalty_Charging>
0.00223709

> <r_epik_Ionization_Penalty_Neutral>
1.99775e-05

> <r_epik_State_Penalty>
0.00153978

> <r_epik_Charging_Adjusted_Penalty>
0.00377687

> <i_epik_Tot_Q>
1

> <i_epik_Tot_abs_Q>
1

> <r_epik_Metal_State_Penalty>
-0

> <b_epik_Metal_Only>
0

> <s_lp_Force_Field>
OPLS_2005

> <r_lp_Energy>
23.0994

> <b_lp_Chiralities_Consistent>
1

> <s_lp_Variant>
AV-unprocessed.smi:3338-7

> <Gold.Version>
5.8.1

> <Gold.Id.Protein>
6NUR|6NUR_protein|mol2

> <Gold.PLP.Fitness>
45.8120

> <Gold.PLP.PLP>
-39.5093

> <Gold.PLP.part.hbond>
-2.0000

> <Gold.PLP.part.metal>
0.0000

> <Gold.PLP.part.buried>
-6.3398

> <Gold.PLP.part.nonpolar>
-30.4402

> <Gold.PLP.part.repulsive>
0.4851

> <Gold.PLP.ligand.clash>
0.0000

> <Gold.PLP.ligand.torsion>
1.3189

> <Gold.PLP.Chemscore.Hbond>
1.9760

> <Gold.PLP.Chemscore.CHOScore>
0.9608

> <Gold.PLP.Chemscore.Metal>
0.0000

> <Gold.Chemscore.Hbonds>
donor molecule, donor type, donor heavy atom, donor atom, acceptor molecule, acceptor atom, score
      L1  H     9    34       P1  8028  0.96
      P1  H  7989  7998       L1    11  1.00
      L1  C    15    39       P1 10175  0.91

> <Gold.PLP.Chemscore.Internal.Correction>
0.1302

> <Gold.Rescore>
     Score         DG    S(hbond)    S(metal)    S(lipo)     H(rot)  DE(clash)    DE(int)     intcor
     15.51     -18.72       1.68        0.00     103.68       1.76       0.23       2.97       ----

> <Gold.Chemscore.Fitness>
15.5135

> <Gold.Chemscore.DG>
-18.7164

> <Gold.Chemscore.ZeroCoef>
-5.4800

> <Gold.Chemscore.Hbond>
1.6777

> <Gold.Chemscore.Metal>
0.0000

> <Gold.Chemscore.Lipo>
103.6826

> <Gold.Chemscore.Internal_Hbond>
0.0000

> <Gold.Chemscore.DEClash>
0.2322

> <Gold.Chemscore.DEInternal>
2.9707

> <Gold.Chemscore.Rot>
1.7570

> <Gold.Chemscore.Internal.Correction>
   9.000000E+99

> <Gold.Chemscore.Hbonds>
donor molecule, donor type, donor heavy atom, donor atom, acceptor molecule, acceptor atom, score
      L1  H     9    34       P1  8028  0.92
      P1  H  7989  7998       L1    11  0.52

> <Gold.Chemscore.Hbond.Weighted>
-5.6034

> <Gold.Chemscore.Metal.Weighted>
-0.0000

> <Gold.Chemscore.Lipo.Weighted>
-12.1309

> <Gold.Chemscore.Internal_Hbond.Weighted>
0.0000

> <Gold.Chemscore.DEClash.Weighted>
0.2322

> <Gold.Chemscore.DEInternal.Weighted>
2.9707

> <Gold.Chemscore.Rot.Weighted>
4.4979

> <Gold.Chemscore.Internal.Correction.Weighted>
   9.000000E+99

> <Gold.Protein.RotatedTorsions>
[ 6907 6896 6895 6894 ] final    7.31 input  -60.11 | X-H torsion
[ 7974 7965 7964 7962 ] final  -60.30 input  175.53 | X-H torsion
[ 8008 7997 7996 7995 ] final  133.06 input   59.86 | X-H torsion
[ 10167 10162 10161 10158 ] final -143.53 input  -65.29 | X-H torsion
[ 10718 10713 10712 10709 ] final  -48.06 input   66.30 | X-H torsion
[ 10763 10752 10751 10750 ] final  -16.14 input  -60.55 | X-H torsion
[ 11005 11000 10999 10996 ] final -110.14 input  -57.11 | X-H torsion

> <Gold.Protein.ActiveResidues>
 VAL166  LYS551  ARG553  GLY616  TRP617  ASP618  TYR619  PRO620  LYS621  CYS622 
 ASP623  PHE694  ASN695  SER759  ASP760  ASP761  ALA762  ILE779  LEU786  VAL792 
 PHE793  MET794  SER795  GLU796  ALA797  LYS798  CYS799  TRP800  GLU811  SER814 

> <Gold.Protein.RotatedAtoms>
  151.6878  135.0951  160.0227 H   0  0  0  0  0  0  0  0  0  0  0  0  # atno 6907 bound_to 6896
  152.3797  133.6525  159.6160 H   0  0  0  0  0  0  0  0  0  0  0  0  # atno 6908 bound_to 6896
  150.7737  133.9051  159.3394 H   0  0  0  0  0  0  0  0  0  0  0  0  # atno 6909 bound_to 6896
  145.8172  140.8563  143.0151 H   0  0  0  0  0  0  0  0  0  0  0  0  # atno 7974 bound_to 7965
  156.2989  140.2531  156.3191 H   0  0  0  0  0  0  0  0  0  0  0  0  # atno 8008 bound_to 7997
  154.9253  140.0399  157.2038 H   0  0  0  0  0  0  0  0  0  0  0  0  # atno 8009 bound_to 7997
  154.8271  140.2869  155.5751 H   0  0  0  0  0  0  0  0  0  0  0  0  # atno 8010 bound_to 7997
  139.7985  143.7866  152.2656 H   0  0  0  0  0  0  0  0  0  0  0  0  # atno 10167 bound_to 10162
  156.2024  130.4157  149.9223 H   0  0  0  0  0  0  0  0  0  0  0  0  # atno 10718 bound_to 10713
  153.5540  135.7011  153.5578 H   0  0  0  0  0  0  0  0  0  0  0  0  # atno 10763 bound_to 10752
  153.3490  135.4000  155.1631 H   0  0  0  0  0  0  0  0  0  0  0  0  # atno 10764 bound_to 10752
  154.8657  135.3760  154.5052 H   0  0  0  0  0  0  0  0  0  0  0  0  # atno 10765 bound_to 10752
  141.0809  133.9222  157.2291 H   0  0  0  0  0  0  0  0  0  0  0  0  # atno 11005 bound_to 11000
  144.6751  140.0480  143.7479 LP  0  0  0  0  0  0  0  0  0  0  0  0  # atno 17320 bound_to 7965
  145.9714  139.2873  143.1096 LP  0  0  0  0  0  0  0  0  0  0  0  0  # atno 17321 bound_to 7965
  139.7979  144.7385  150.9864 LP  0  0  0  0  0  0  0  0  0  0  0  0  # atno 17342 bound_to 10162
  140.7820  143.4375  151.0602 LP  0  0  0  0  0  0  0  0  0  0  0  0  # atno 17343 bound_to 10162
  156.6928  130.8902  151.3590 LP  0  0  0  0  0  0  0  0  0  0  0  0  # atno 17370 bound_to 10713
  157.6993  130.9316  150.0738 LP  0  0  0  0  0  0  0  0  0  0  0  0  # atno 17371 bound_to 10713
  139.9622  135.0151  156.9292 LP  0  0  0  0  0  0  0  0  0  0  0  0  # atno 17394 bound_to 11000
  140.5471  134.0663  155.7358 LP  0  0  0  0  0  0  0  0  0  0  0  0  # atno 17395 bound_to 11000

$$$$
