AV-unprocessed.smi:189|AV-procd|sdf|1476|dock5
  -GOLD-   2262019293D 1   1.00000     0.00000
 Structure written by MMmdl.
 53 57  0  0  0  0  0  0  0  0  1 V2000
  152.0038  138.0697  154.8700 C   0  0  0  0  0  0  0  0  0  0  0  0
  151.8019  139.5221  155.3432 C   0  0  1  0  0  0  0  0  0  0  0  0
  150.3581  140.0360  155.3144 C   0  0  0  0  0  0  0  0  0  0  0  0
  150.4223  141.2916  156.1972 C   0  0  1  0  0  0  0  0  0  0  0  0
  149.2343  141.4672  157.1591 C   0  0  0  0  0  0  0  0  0  0  0  0
  149.4156  142.6898  158.0848 C   0  0  0  0  0  0  0  0  0  0  0  0
  150.8772  142.9253  158.5305 C   0  0  0  0  0  0  0  0  0  0  0  0
  151.7307  141.6546  158.4164 C   0  0  0  0  0  0  0  0  0  0  0  0
  151.7750  141.1804  156.9395 C   0  0  1  0  0  0  0  0  0  0  0  0
  152.3086  139.8386  156.6796 N   0  0  0  0  0  0  0  0  0  0  0  0
  152.1577  138.9286  157.6762 C   0  0  0  0  0  0  0  0  0  0  0  0
  150.9242  138.5526  158.1080 N   0  0  0  0  0  0  0  0  0  0  0  0
  150.8024  137.6877  159.1193 C   0  0  0  0  0  0  0  0  0  0  0  0
  151.7637  137.1009  159.8355 N   0  0  0  0  0  0  0  0  0  0  0  0
  153.0019  137.4902  159.4160 C   0  0  0  0  0  0  0  0  0  0  0  0
  153.2842  138.3866  158.3482 C   0  0  0  0  0  0  0  0  0  0  0  0
  154.6566  138.5444  158.2055 N   0  0  0  0  0  0  0  0  0  0  0  0
  155.1593  137.7836  159.1391 C   0  0  0  0  0  0  0  0  0  0  0  0
  154.2373  137.1264  159.9233 N   0  0  0  0  0  0  0  0  0  0  0  0
  154.5212  136.2328  161.0350 C   0  0  0  0  0  0  0  0  0  0  0  0
  154.7328  136.9607  162.3879 C   0  0  1  0  0  0  0  0  0  0  0  0
  155.1551  138.2909  162.1541 O   0  0  0  0  0  0  0  0  0  0  0  0
  153.4705  136.9738  163.2345 C   0  0  0  0  0  0  0  0  0  0  0  0
  153.5377  135.6345  163.9648 C   0  0  0  0  0  0  0  0  0  0  0  0
  154.9221  135.3185  164.0790 O   0  0  0  0  0  0  0  0  0  0  0  0
  155.7041  136.2549  163.3442 C   0  0  0  0  0  0  0  0  0  0  0  0
  151.7072  137.9644  153.8264 H   0  0  0  0  0  0  0  0  0  0  0  0
  151.4136  137.3559  155.4435 H   0  0  0  0  0  0  0  0  0  0  0  0
  153.0514  137.7768  154.9441 H   0  0  0  0  0  0  0  0  0  0  0  0
  152.3827  140.1465  154.6621 H   0  0  0  0  0  0  0  0  0  0  0  0
  150.0166  140.2548  154.3022 H   0  0  0  0  0  0  0  0  0  0  0  0
  149.6770  139.2969  155.7375 H   0  0  0  0  0  0  0  0  0  0  0  0
  150.4667  142.1700  155.5512 H   0  0  0  0  0  0  0  0  0  0  0  0
  148.3007  141.5547  156.6026 H   0  0  0  0  0  0  0  0  0  0  0  0
  149.1374  140.5704  157.7725 H   0  0  0  0  0  0  0  0  0  0  0  0
  149.0527  143.5882  157.5842 H   0  0  0  0  0  0  0  0  0  0  0  0
  148.7798  142.5594  158.9612 H   0  0  0  0  0  0  0  0  0  0  0  0
  151.3232  143.7020  157.9079 H   0  0  0  0  0  0  0  0  0  0  0  0
  150.8980  143.3074  159.5516 H   0  0  0  0  0  0  0  0  0  0  0  0
  152.7419  141.8354  158.7822 H   0  0  0  0  0  0  0  0  0  0  0  0
  151.2923  140.9046  159.0755 H   0  0  0  0  0  0  0  0  0  0  0  0
  152.4645  141.8550  156.4293 H   0  0  0  0  0  0  0  0  0  0  0  0
  149.7902  137.4352  159.3981 H   0  0  0  0  0  0  0  0  0  0  0  0
  156.2250  137.6894  159.2903 H   0  0  0  0  0  0  0  0  0  0  0  0
  153.6995  135.5200  161.1168 H   0  0  0  0  0  0  0  0  0  0  0  0
  155.4041  135.6476  160.7756 H   0  0  0  0  0  0  0  0  0  0  0  0
  155.6659  138.5793  162.8949 H   0  0  0  0  0  0  0  0  0  0  0  0
  153.5118  137.7805  163.9685 H   0  0  0  0  0  0  0  0  0  0  0  0
  152.5555  137.0996  162.6543 H   0  0  0  0  0  0  0  0  0  0  0  0
  153.0582  135.6731  164.9431 H   0  0  0  0  0  0  0  0  0  0  0  0
  153.0497  134.8531  163.3817 H   0  0  0  0  0  0  0  0  0  0  0  0
  156.5494  135.7766  162.8519 H   0  0  0  0  0  0  0  0  0  0  0  0
  156.1135  136.9662  164.0635 H   0  0  0  0  0  0  0  0  0  0  0  0
  1  2  1  0  0  0  0
  1 27  1  0  0  0  0
  1 28  1  0  0  0  0
  1 29  1  0  0  0  0
  2 10  1  0  0  0  0
  2  3  1  0  0  0  0
  2 30  1  0  0  0  0
  3  4  1  0  0  0  0
  3 31  1  0  0  0  0
  3 32  1  0  0  0  0
  4  9  1  0  0  0  0
  4  5  1  0  0  0  0
  4 33  1  0  0  0  0
  5  6  1  0  0  0  0
  5 34  1  0  0  0  0
  5 35  1  0  0  0  0
  6  7  1  0  0  0  0
  6 36  1  0  0  0  0
  6 37  1  0  0  0  0
  7  8  1  0  0  0  0
  7 38  1  0  0  0  0
  7 39  1  0  0  0  0
  8  9  1  0  0  0  0
  8 40  1  0  0  0  0
  8 41  1  0  0  0  0
  9 10  1  0  0  0  0
  9 42  1  0  0  0  0
 10 11  1  0  0  0  0
 11 16  1  0  0  0  0
 11 12  2  0  0  0  0
 12 13  1  0  0  0  0
 13 14  2  0  0  0  0
 13 43  1  0  0  0  0
 14 15  1  0  0  0  0
 15 19  1  0  0  0  0
 15 16  2  0  0  0  0
 16 17  1  0  0  0  0
 17 18  2  0  0  0  0
 18 19  1  0  0  0  0
 18 44  1  0  0  0  0
 19 20  1  0  0  0  0
 20 21  1  0  0  0  0
 20 45  1  0  0  0  0
 20 46  1  0  0  0  0
 21 26  1  0  0  0  0
 21 22  1  0  0  0  0
 21 23  1  0  0  0  0
 22 47  1  0  0  0  0
 23 24  1  0  0  0  0
 23 48  1  0  0  0  0
 23 49  1  0  0  0  0
 24 25  1  0  0  0  0
 24 50  1  0  0  0  0
 24 51  1  0  0  0  0
 25 26  1  0  0  0  0
 26 52  1  0  0  0  0
 26 53  1  0  0  0  0
M  END
> <s_m_source_file>
AV-unprocessed.smi

> <i_m_source_file_index>
189

> <i_lp_mmshare_version>
43012

> <i_f3d_flags>
0

> <s_epik_input>
W0NIMl0xW0NIMl1bQ0gyXVtDSDJdW0NASF0oW0NASF0xMilOKFtDQEhdKFtDSDNdKVtDSDJdMiljKG5bY0hdbjMpYyhjMzQpbltjSF1uNFtDSDJdW0NAQF01KFtPSF0pW0NIMl1bQ0gyXU9bQ0gyXTU=

> <s_epik_cmdline>
J2VwaWtfcHl0aG9uJywgJy1waCcsICc3LjAnLCAnLXRuJywgJzgnLCAnLW1hJywgJzIwMCcsICctbWV0YWxfYmluZGluZycsICctaW1hZScsICc8aW5maWxlLm1hZT4nLCAnLW9tYWUnLCAnPG91dGZpbGUubWFlPic=

> <r_lp_tautomer_probability>
1

> <r_epik_Ionization_Penalty>
0.00594261

> <r_epik_Ionization_Penalty_Charging>
0

> <r_epik_Ionization_Penalty_Neutral>
0.00594261

> <r_epik_State_Penalty>
0.00429776

> <r_epik_Charging_Adjusted_Penalty>
0.00429776

> <i_epik_Tot_Q>
0

> <i_epik_Tot_abs_Q>
0

> <r_epik_Metal_State_Penalty>
-0

> <b_epik_Metal_Only>
0

> <s_lp_Force_Field>
OPLS_2005

> <r_lp_Energy>
67.8884

> <b_lp_Chiralities_Consistent>
1

> <s_lp_Variant>
AV-unprocessed.smi:189-2

> <Gold.Version>
5.8.1

> <Gold.Id.Protein>
6NUR|6NUR_protein|mol2

> <Gold.PLP.Fitness>
43.2225

> <Gold.PLP.PLP>
-37.7003

> <Gold.PLP.part.hbond>
-2.7232

> <Gold.PLP.part.metal>
0.0000

> <Gold.PLP.part.buried>
-4.6789

> <Gold.PLP.part.nonpolar>
-29.0139

> <Gold.PLP.part.repulsive>
0.0618

> <Gold.PLP.ligand.clash>
0.0000

> <Gold.PLP.ligand.torsion>
1.0559

> <Gold.PLP.Chemscore.Hbond>
2.5280

> <Gold.PLP.Chemscore.CHOScore>
0.0000

> <Gold.PLP.Chemscore.Metal>
0.0000

> <Gold.Chemscore.Hbonds>
donor molecule, donor type, donor heavy atom, donor atom, acceptor molecule, acceptor atom, score
      P1  H  6896  6908       L1    14  1.00
      P1  H  7997  8008       L1    10  0.74
      P1  H  7997  8010       L1    17  0.46

> <Gold.PLP.Chemscore.Internal.Correction>
0.0500

> <Gold.Rescore>
     Score         DG    S(hbond)    S(metal)    S(lipo)     H(rot)  DE(clash)    DE(int)     intcor
     15.07     -16.28       1.34        0.00      98.57       2.03       0.28       0.93       ----

> <Gold.Chemscore.Fitness>
15.0693

> <Gold.Chemscore.DG>
-16.2799

> <Gold.Chemscore.ZeroCoef>
-5.4800

> <Gold.Chemscore.Hbond>
1.3363

> <Gold.Chemscore.Metal>
0.0000

> <Gold.Chemscore.Lipo>
98.5698

> <Gold.Chemscore.Internal_Hbond>
0.0000

> <Gold.Chemscore.DEClash>
0.2827

> <Gold.Chemscore.DEInternal>
0.9279

> <Gold.Chemscore.Rot>
2.0297

> <Gold.Chemscore.Internal.Correction>
   9.000000E+99

> <Gold.Chemscore.Hbonds>
donor molecule, donor type, donor heavy atom, donor atom, acceptor molecule, acceptor atom, score
      P1  H  6896  6908       L1    14  0.70
      P1  H  7997  8008       L1    10  0.06
      P1  H  7997  8010       L1    17  0.44

> <Gold.Chemscore.Hbond.Weighted>
-4.4632

> <Gold.Chemscore.Metal.Weighted>
-0.0000

> <Gold.Chemscore.Lipo.Weighted>
-11.5327

> <Gold.Chemscore.Internal_Hbond.Weighted>
0.0000

> <Gold.Chemscore.DEClash.Weighted>
0.2827

> <Gold.Chemscore.DEInternal.Weighted>
0.9279

> <Gold.Chemscore.Rot.Weighted>
5.1960

> <Gold.Chemscore.Internal.Correction.Weighted>
   9.000000E+99

> <Gold.Protein.RotatedTorsions>
[ 6907 6896 6895 6894 ] final -112.23 input  -60.11 | X-H torsion
[ 7974 7965 7964 7962 ] final  144.94 input  175.53 | X-H torsion
[ 8008 7997 7996 7995 ] final  -33.23 input   59.86 | X-H torsion
[ 10167 10162 10161 10158 ] final  -48.71 input  -65.29 | X-H torsion
[ 10718 10713 10712 10709 ] final -108.05 input   66.30 | X-H torsion
[ 10763 10752 10751 10750 ] final  172.29 input  -60.55 | X-H torsion
[ 11005 11000 10999 10996 ] final   -3.58 input  -57.11 | X-H torsion

> <Gold.Protein.ActiveResidues>
 VAL166  LYS551  ARG553  GLY616  TRP617  ASP618  TYR619  PRO620  LYS621  CYS622 
 ASP623  PHE694  ASN695  SER759  ASP760  ASP761  ALA762  ILE779  LEU786  VAL792 
 PHE793  MET794  SER795  GLU796  ALA797  LYS798  CYS799  TRP800  GLU811  SER814 

> <Gold.Protein.RotatedAtoms>
  150.7744  133.9120  159.3372 H   0  0  0  0  0  0  0  0  0  0  0  0  # atno 6907 bound_to 6896
  151.6999  135.0930  160.0258 H   0  0  0  0  0  0  0  0  0  0  0  0  # atno 6908 bound_to 6896
  152.3774  133.6462  159.6170 H   0  0  0  0  0  0  0  0  0  0  0  0  # atno 6909 bound_to 6896
  144.8794  139.5723  143.5850 H   0  0  0  0  0  0  0  0  0  0  0  0  # atno 7974 bound_to 7965
  154.4155  140.1716  156.1855 H   0  0  0  0  0  0  0  0  0  0  0  0  # atno 8008 bound_to 7997
  155.9647  140.3390  155.6498 H   0  0  0  0  0  0  0  0  0  0  0  0  # atno 8009 bound_to 7997
  155.6704  140.0711  157.2513 H   0  0  0  0  0  0  0  0  0  0  0  0  # atno 8010 bound_to 7997
  140.6718  143.2728  151.4110 H   0  0  0  0  0  0  0  0  0  0  0  0  # atno 10167 bound_to 10162
  156.0466  130.5693  150.7906 H   0  0  0  0  0  0  0  0  0  0  0  0  # atno 10718 bound_to 10713
  154.4239  135.2758  155.1957 H   0  0  0  0  0  0  0  0  0  0  0  0  # atno 10763 bound_to 10752
  154.3891  135.6070  153.5837 H   0  0  0  0  0  0  0  0  0  0  0  0  # atno 10764 bound_to 10752
  152.9834  135.5899  154.4540 H   0  0  0  0  0  0  0  0  0  0  0  0  # atno 10765 bound_to 10752
  140.6708  133.9238  155.8494 H   0  0  0  0  0  0  0  0  0  0  0  0  # atno 11005 bound_to 11000
  146.2984  139.7349  142.9109 LP  0  0  0  0  0  0  0  0  0  0  0  0  # atno 17320 bound_to 7965
  145.3983  141.0382  143.3085 LP  0  0  0  0  0  0  0  0  0  0  0  0  # atno 17321 bound_to 7965
  139.5991  144.1335  152.2177 LP  0  0  0  0  0  0  0  0  0  0  0  0  # atno 17342 bound_to 10162
  140.0713  144.5777  150.7190 LP  0  0  0  0  0  0  0  0  0  0  0  0  # atno 17343 bound_to 10162
  157.5348  131.0938  150.9907 LP  0  0  0  0  0  0  0  0  0  0  0  0  # atno 17370 bound_to 10713
  157.0204  130.5672  149.5331 LP  0  0  0  0  0  0  0  0  0  0  0  0  # atno 17371 bound_to 10713
  141.0393  134.0644  157.3921 LP  0  0  0  0  0  0  0  0  0  0  0  0  # atno 17394 bound_to 11000
  139.8982  135.0153  156.7137 LP  0  0  0  0  0  0  0  0  0  0  0  0  # atno 17395 bound_to 11000

$$$$
