AV-unprocessed.smi:1005|AV-procd|sdf|4386|dock8
  -GOLD-   22720 2313D 1   1.00000     0.00000
 Structure written by MMmdl.
 55 57  0  0  0  0  0  0  0  0  1 V2000
  153.8275  142.2487  161.1846 C   0  0  0  0  0  0  0  0  0  0  0  0
  152.9882  142.0492  159.9347 C   0  0  0  0  0  0  0  0  0  0  0  0
  152.9225  140.7649  159.3489 C   0  0  0  0  0  0  0  0  0  0  0  0
  152.1546  140.5377  158.1858 C   0  0  0  0  0  0  0  0  0  0  0  0
  151.9497  139.3789  157.4566 N   0  0  0  0  0  0  0  0  0  0  0  0
  151.1423  139.8092  156.4917 C   0  0  0  0  0  0  0  0  0  0  0  0
  150.8056  141.1137  156.5044 N   0  0  0  0  0  0  0  0  0  0  0  0
  149.9455  141.8073  155.5618 C   0  0  0  0  0  0  0  0  0  0  0  0
  149.0616  140.8462  154.7411 C   0  0  2  0  0  0  0  0  0  0  0  0
  149.1694  141.2372  153.3872 O   0  0  0  0  0  0  0  0  0  0  0  0
  147.5712  140.8623  155.1544 C   0  0  0  0  0  0  0  0  0  0  0  0
  146.9169  142.1667  155.0617 N   0  0  0  0  0  0  0  0  0  0  0  0
  146.2839  142.3439  153.7597 C   0  0  0  0  0  0  0  0  0  0  0  0
  145.5990  143.7150  153.6356 C   0  0  0  0  0  0  0  0  0  0  0  0
  144.6411  143.8681  154.6779 O   0  0  0  0  0  0  0  0  0  0  0  0
  145.2049  143.7289  155.9800 C   0  0  1  0  0  0  0  0  0  0  0  0
  144.1343  143.9650  157.0668 C   0  0  0  0  0  0  0  0  0  0  0  0
  143.2904  145.1556  156.9220 N   0  0  0  0  0  0  0  0  0  0  0  0
  144.0564  146.3959  156.9004 C   0  0  0  0  0  0  0  0  0  0  0  0
  142.2913  145.2041  157.9804 C   0  0  0  0  0  0  0  0  0  0  0  0
  145.9161  142.3650  156.1072 C   0  0  0  0  0  0  0  0  0  0  0  0
  151.4495  141.6395  157.6194 C   0  0  0  0  0  0  0  0  0  0  0  0
  151.5046  142.9213  158.1947 C   0  0  0  0  0  0  0  0  0  0  0  0
  152.2770  143.1311  159.3563 C   0  0  0  0  0  0  0  0  0  0  0  0
  152.3331  144.5199  159.9679 C   0  0  0  0  0  0  0  0  0  0  0  0
  154.2943  141.3165  161.5038 H   0  0  0  0  0  0  0  0  0  0  0  0
  153.2095  142.6111  162.0063 H   0  0  0  0  0  0  0  0  0  0  0  0
  154.6201  142.9742  161.0003 H   0  0  0  0  0  0  0  0  0  0  0  0
  153.4634  139.9402  159.7895 H   0  0  0  0  0  0  0  0  0  0  0  0
  150.7792  139.1384  155.7268 H   0  0  0  0  0  0  0  0  0  0  0  0
  149.3268  142.5189  156.1108 H   0  0  0  0  0  0  0  0  0  0  0  0
  150.5824  142.3935  154.8977 H   0  0  0  0  0  0  0  0  0  0  0  0
  149.4624  139.8363  154.8366 H   0  0  0  0  0  0  0  0  0  0  0  0
  149.4090  140.4809  152.8738 H   0  0  0  0  0  0  0  0  0  0  0  0
  147.0290  140.1830  154.4978 H   0  0  0  0  0  0  0  0  0  0  0  0
  147.4482  140.4441  156.1548 H   0  0  0  0  0  0  0  0  0  0  0  0
  147.0284  142.2431  152.9691 H   0  0  0  0  0  0  0  0  0  0  0  0
  145.5467  141.5564  153.5962 H   0  0  0  0  0  0  0  0  0  0  0  0
  146.3341  144.5196  153.6861 H   0  0  0  0  0  0  0  0  0  0  0  0
  145.0953  143.8018  152.6729 H   0  0  0  0  0  0  0  0  0  0  0  0
  145.9519  144.5171  156.0914 H   0  0  0  0  0  0  0  0  0  0  0  0
  143.4868  143.0870  157.0634 H   0  0  0  0  0  0  0  0  0  0  0  0
  144.6131  143.9701  158.0470 H   0  0  0  0  0  0  0  0  0  0  0  0
  143.3915  147.2590  156.8590 H   0  0  0  0  0  0  0  0  0  0  0  0
  144.6967  146.4508  156.0213 H   0  0  0  0  0  0  0  0  0  0  0  0
  144.6797  146.4912  157.7902 H   0  0  0  0  0  0  0  0  0  0  0  0
  141.6289  146.0603  157.8497 H   0  0  0  0  0  0  0  0  0  0  0  0
  142.7609  145.2840  158.9616 H   0  0  0  0  0  0  0  0  0  0  0  0
  141.6726  144.3063  157.9715 H   0  0  0  0  0  0  0  0  0  0  0  0
  145.1805  141.5607  156.0631 H   0  0  0  0  0  0  0  0  0  0  0  0
  146.3841  142.3060  157.0896 H   0  0  0  0  0  0  0  0  0  0  0  0
  150.9581  143.7366  157.7439 H   0  0  0  0  0  0  0  0  0  0  0  0
  151.7149  145.2250  159.4114 H   0  0  0  0  0  0  0  0  0  0  0  0
  153.3560  144.8967  159.9653 H   0  0  0  0  0  0  0  0  0  0  0  0
  151.9730  144.4999  160.9968 H   0  0  0  0  0  0  0  0  0  0  0  0
  1  2  1  0  0  0  0
  1 26  1  0  0  0  0
  1 27  1  0  0  0  0
  1 28  1  0  0  0  0
  2 24  1  0  0  0  0
  2  3  2  0  0  0  0
  3  4  1  0  0  0  0
  3 29  1  0  0  0  0
  4 22  2  0  0  0  0
  4  5  1  0  0  0  0
  5  6  2  0  0  0  0
  6  7  1  0  0  0  0
  6 30  1  0  0  0  0
  7  8  1  0  0  0  0
  7 22  1  0  0  0  0
  8  9  1  0  0  0  0
  8 31  1  0  0  0  0
  8 32  1  0  0  0  0
  9 10  1  0  0  0  0
  9 11  1  0  0  0  0
  9 33  1  0  0  0  0
 10 34  1  0  0  0  0
 11 12  1  0  0  0  0
 11 35  1  0  0  0  0
 11 36  1  0  0  0  0
 12 21  1  0  0  0  0
 12 13  1  0  0  0  0
 13 14  1  0  0  0  0
 13 37  1  0  0  0  0
 13 38  1  0  0  0  0
 14 15  1  0  0  0  0
 14 39  1  0  0  0  0
 14 40  1  0  0  0  0
 15 16  1  0  0  0  0
 16 17  1  0  0  0  0
 16 21  1  0  0  0  0
 16 41  1  0  0  0  0
 17 18  1  0  0  0  0
 17 42  1  0  0  0  0
 17 43  1  0  0  0  0
 18 19  1  0  0  0  0
 18 20  1  0  0  0  0
 19 44  1  0  0  0  0
 19 45  1  0  0  0  0
 19 46  1  0  0  0  0
 20 47  1  0  0  0  0
 20 48  1  0  0  0  0
 20 49  1  0  0  0  0
 21 50  1  0  0  0  0
 21 51  1  0  0  0  0
 22 23  1  0  0  0  0
 23 24  2  0  0  0  0
 23 52  1  0  0  0  0
 24 25  1  0  0  0  0
 25 53  1  0  0  0  0
 25 54  1  0  0  0  0
 25 55  1  0  0  0  0
M  END
> <s_m_source_file>
AV-unprocessed.smi

> <i_m_source_file_index>
1005

> <i_lp_mmshare_version>
43012

> <i_f3d_flags>
0

> <s_epik_input>
W0NIM11jKFtjSF0xKWMoW0NIM10pW2NIXWMoYzEyKW4oW2NIXW4yKVtDSDJdW0NASF0oW09IXSlbQ0gyXU4zW0NIMl1bQ0gyXU9bQ0BIXShbQ0gyXTMpW0NIMl1OKFtDSDNdKVtDSDNd

> <s_epik_cmdline>
J2VwaWtfcHl0aG9uJywgJy1waCcsICc3LjAnLCAnLXRuJywgJzgnLCAnLW1hJywgJzIwMCcsICctbWV0YWxfYmluZGluZycsICctaW1hZScsICc8aW5maWxlLm1hZT4nLCAnLW9tYWUnLCAnPG91dGZpbGUubWFlPic=

> <r_epik_Ionization_Penalty>
2.78613

> <r_epik_Ionization_Penalty_Charging>
0

> <r_epik_Ionization_Penalty_Neutral>
2.78613

> <r_epik_State_Penalty>
2.57336

> <r_epik_Charging_Adjusted_Penalty>
2.57336

> <i_epik_Tot_Q>
0

> <i_epik_Tot_abs_Q>
0

> <r_epik_Metal_State_Penalty>
2.49087

> <b_epik_Metal_Only>
0

> <s_lp_Force_Field>
OPLS_2005

> <r_lp_Energy>
41.5619

> <b_lp_Chiralities_Consistent>
1

> <s_lp_Variant>
AV-unprocessed.smi:1005-25

> <Gold.Version>
5.8.1

> <Gold.Id.Protein>
6NUR|6NUR_protein|mol2

> <Gold.PLP.Fitness>
52.0008

> <Gold.PLP.PLP>
-49.7342

> <Gold.PLP.part.hbond>
-3.0000

> <Gold.PLP.part.metal>
0.0000

> <Gold.PLP.part.buried>
-7.9083

> <Gold.PLP.part.nonpolar>
-39.4373

> <Gold.PLP.part.repulsive>
0.3476

> <Gold.PLP.ligand.clash>
0.0000

> <Gold.PLP.ligand.torsion>
1.4093

> <Gold.PLP.Chemscore.Hbond>
1.6700

> <Gold.PLP.Chemscore.CHOScore>
0.0000

> <Gold.PLP.Chemscore.Metal>
0.0000

> <Gold.Chemscore.Hbonds>
donor molecule, donor type, donor heavy atom, donor atom, acceptor molecule, acceptor atom, score
      L1  H    10    34       P1  7957  0.77
      P1  H  8011  8017       L1    10  0.85

> <Gold.PLP.Chemscore.Internal.Correction>
0.0752

> <Gold.Rescore>
     Score         DG    S(hbond)    S(metal)    S(lipo)     H(rot)  DE(clash)    DE(int)     intcor
     17.88     -20.07       1.37        0.00     135.64       2.29       0.76       1.44       ----

> <Gold.Chemscore.Fitness>
17.8752

> <Gold.Chemscore.DG>
-20.0732

> <Gold.Chemscore.ZeroCoef>
-5.4800

> <Gold.Chemscore.Hbond>
1.3725

> <Gold.Chemscore.Metal>
0.0000

> <Gold.Chemscore.Lipo>
135.6426

> <Gold.Chemscore.Internal_Hbond>
0.0000

> <Gold.Chemscore.DEClash>
0.7605

> <Gold.Chemscore.DEInternal>
1.4375

> <Gold.Chemscore.Rot>
2.2895

> <Gold.Chemscore.Internal.Correction>
   9.000000E+99

> <Gold.Chemscore.Hbonds>
donor molecule, donor type, donor heavy atom, donor atom, acceptor molecule, acceptor atom, score
      L1  H    10    34       P1  7957  0.76
      P1  H  8011  8017       L1    10  0.14

> <Gold.Chemscore.Hbond.Weighted>
-4.5842

> <Gold.Chemscore.Metal.Weighted>
-0.0000

> <Gold.Chemscore.Lipo.Weighted>
-15.8702

> <Gold.Chemscore.Internal_Hbond.Weighted>
0.0000

> <Gold.Chemscore.DEClash.Weighted>
0.7605

> <Gold.Chemscore.DEInternal.Weighted>
1.4375

> <Gold.Chemscore.Rot.Weighted>
5.8612

> <Gold.Chemscore.Internal.Correction.Weighted>
   9.000000E+99

> <Gold.Protein.RotatedTorsions>
[ 6907 6896 6895 6894 ] final  -83.22 input  -60.11 | X-H torsion
[ 7974 7965 7964 7962 ] final   -3.10 input  175.53 | X-H torsion
[ 8008 7997 7996 7995 ] final  170.75 input   59.86 | X-H torsion
[ 10167 10162 10161 10158 ] final  -40.60 input  -65.29 | X-H torsion
[ 10718 10713 10712 10709 ] final  143.64 input   66.30 | X-H torsion
[ 10763 10752 10751 10750 ] final -169.63 input  -60.55 | X-H torsion
[ 11005 11000 10999 10996 ] final  -74.48 input  -57.11 | X-H torsion

> <Gold.Protein.ActiveResidues>
 VAL166  LYS551  ARG553  GLY616  TRP617  ASP618  TYR619  PRO620  LYS621  CYS622 
 ASP623  PHE694  ASN695  SER759  ASP760  ASP761  ALA762  ILE779  LEU786  VAL792 
 PHE793  MET794  SER795  GLU796  ALA797  LYS798  CYS799  TRP800  GLU811  SER814 

> <Gold.Protein.RotatedAtoms>
  150.6888  134.3544  159.4922 H   0  0  0  0  0  0  0  0  0  0  0  0  # atno 6907 bound_to 6896
  152.1381  134.9081  160.0564 H   0  0  0  0  0  0  0  0  0  0  0  0  # atno 6908 bound_to 6896
  152.0224  133.3869  159.4301 H   0  0  0  0  0  0  0  0  0  0  0  0  # atno 6909 bound_to 6896
  146.2394  140.1671  142.8332 H   0  0  0  0  0  0  0  0  0  0  0  0  # atno 7974 bound_to 7965
  156.1336  140.1530  156.9028 H   0  0  0  0  0  0  0  0  0  0  0  0  # atno 8008 bound_to 7997
  154.4929  140.0846  156.7673 H   0  0  0  0  0  0  0  0  0  0  0  0  # atno 8009 bound_to 7997
  155.4210  140.3423  155.4273 H   0  0  0  0  0  0  0  0  0  0  0  0  # atno 8010 bound_to 7997
  140.7029  143.3144  151.2947 H   0  0  0  0  0  0  0  0  0  0  0  0  # atno 10167 bound_to 10162
  157.3666  131.0973  151.0866 H   0  0  0  0  0  0  0  0  0  0  0  0  # atno 10718 bound_to 10713
  154.6503  135.2910  154.9995 H   0  0  0  0  0  0  0  0  0  0  0  0  # atno 10763 bound_to 10752
  154.1091  135.6565  153.4886 H   0  0  0  0  0  0  0  0  0  0  0  0  # atno 10764 bound_to 10752
  153.0373  135.5261  154.7408 H   0  0  0  0  0  0  0  0  0  0  0  0  # atno 10765 bound_to 10752
  141.1635  133.6913  156.7371 H   0  0  0  0  0  0  0  0  0  0  0  0  # atno 11005 bound_to 11000
  145.0042  140.8658  143.5263 LP  0  0  0  0  0  0  0  0  0  0  0  0  # atno 17320 bound_to 7965
  145.1695  139.2412  143.5349 LP  0  0  0  0  0  0  0  0  0  0  0  0  # atno 17321 bound_to 7965
  139.6577  144.0246  152.2671 LP  0  0  0  0  0  0  0  0  0  0  0  0  # atno 17342 bound_to 10162
  139.9803  144.6433  150.7907 LP  0  0  0  0  0  0  0  0  0  0  0  0  # atno 17343 bound_to 10162
  157.1986  130.6384  149.5730 LP  0  0  0  0  0  0  0  0  0  0  0  0  # atno 17370 bound_to 10713
  155.9747  130.4698  150.6408 LP  0  0  0  0  0  0  0  0  0  0  0  0  # atno 17371 bound_to 10713
  140.2702  134.8398  157.3840 LP  0  0  0  0  0  0  0  0  0  0  0  0  # atno 17394 bound_to 11000
  140.1529  134.4827  155.7949 LP  0  0  0  0  0  0  0  0  0  0  0  0  # atno 17395 bound_to 11000

$$$$
