#       Name:                AV-unprocessed.smi:1929
#       Creating user name   scv26
#       Creation time:       Fri Mar 27 09:54:25 2020


#       File generated by GOLD software.
#

@<TRIPOS>MOLECULE
AV-unprocessed.smi:1929
    48    49     1
SMALL
NO_CHARGES


@<TRIPOS>ATOM
      1 ****        -6.2248   2.9433   1.2833 C.3            1 S1                 0.0000
      2 ****        -5.5637   2.0174   0.3770 N.am           1 S1                 0.0000
      3 ****        -4.6362   2.3753  -0.5225 C.2            1 S1                 0.0000
      4 ****        -4.2498   3.5346  -0.6707 O.2            1 S1                 0.0000
      5 ****        -4.0453   1.2532  -1.3848 C.3            1 S1                 0.0000
      6 ****        -2.5845   1.0645  -1.2312 N.3            1 S1                 0.0000
      7 ****        -2.1282   0.0481  -2.1851 C.3            1 S1                 0.0000
      8 ****        -0.5959  -0.0823  -2.1478 C.3            1 S1                 0.0000
      9 ****        -0.1072  -0.4486  -0.7398 C.3            1 S1                 0.0000
     10 ****         1.3524  -0.4600  -0.7075 N.am           1 S1                 0.0000
     11 ****         2.1002  -1.1328   0.1789 C.2            1 S1                 0.0000
     12 ****         1.6261  -1.8160   1.0862 O.2            1 S1                 0.0000
     13 ****         3.4119  -0.9433  -0.0482 N.am           1 S1                 0.0000
     14 ****         4.5241  -1.4881   0.6504 C.ar           1 S1                 0.0000
     15 ****         5.7705  -0.8414   0.4954 C.ar           1 S1                 0.0000
     16 ****         6.9071  -1.3515   1.1552 C.ar           1 S1                 0.0000
     17 ****         6.7994  -2.4575   1.9219 N.pl3          1 S1                 1.0000
     18 ****         5.6338  -3.1180   2.0899 C.ar           1 S1                 0.0000
     19 ****         4.4633  -2.6550   1.4547 C.ar           1 S1                 0.0000
     20 ****        -0.6738   0.5697   0.2631 C.3            1 S1                 0.0000
     21 ****        -2.2035   0.6856   0.1377 C.3            1 S1                 0.0000
     22 ****        -6.9169   2.4018   1.9280 H              1 S1                 0.0000
     23 ****        -6.7903   3.6928   0.7282 H              1 S1                 0.0000
     24 ****        -5.4973   3.4530   1.9161 H              1 S1                 0.0000
     25 ****        -5.8234   1.0436   0.4387 H              1 S1                 0.0000
     26 ****        -4.5612   0.3143  -1.1731 H              1 S1                 0.0000
     27 ****        -4.2704   1.5003  -2.4234 H              1 S1                 0.0000
     28 ****        -2.5951  -0.9144  -1.9680 H              1 S1                 0.0000
     29 ****        -2.4314   0.3267  -3.1952 H              1 S1                 0.0000
     30 ****        -0.2739  -0.8392  -2.8641 H              1 S1                 0.0000
     31 ****        -0.1452   0.8587  -2.4681 H              1 S1                 0.0000
     32 ****        -0.4831  -1.4434  -0.4927 H              1 S1                 0.0000
     33 ****         1.8240   0.0849  -1.4147 H              1 S1                 0.0000
     34 ****         3.6412  -0.2902  -0.7832 H              1 S1                 0.0000
     35 ****         5.8579   0.0425  -0.1201 H              1 S1                 0.0000
     36 ****         7.8920  -0.9118   1.0917 H              1 S1                 0.0000
     37 ****         5.6723  -3.9952   2.7191 H              1 S1                 0.0000
     38 ****         3.5488  -3.2113   1.5893 H              1 S1                 0.0000
     39 ****        -0.4124   0.2801   1.2816 H              1 S1                 0.0000
     40 ****        -0.2224   1.5490   0.0956 H              1 S1                 0.0000
     41 ****        -2.5434   1.4301   0.8575 H              1 S1                 0.0000
     42 ****        -2.6780  -0.2582   0.4125 H              1 S1                 0.0000
     43 ****         7.6341  -2.8115   2.3903 H              1 S1                 0.0000
     44 ****        -4.6312   4.2650  -0.1041 LP             1 S1                 0.0000
     45 ****        -3.5546   3.7460  -1.3578 LP             1 S1                 0.0000
     46 ****        -2.1414   1.9410  -1.4194 LP             1 S1                 0.0000
     47 ****         0.6343  -1.8902   1.1902 LP             1 S1                 0.0000
     48 ****         2.2326  -2.2969   1.7193 LP             1 S1                 0.0000
@<TRIPOS>BOND
    1    1    2 1     
    2    1   22 1     
    3    1   23 1     
    4    1   24 1     
    5    2    3 am    
    6    2   25 1     
    7    3    4 2     
    8    3    5 1     
    9    5    6 1     
   10    5   26 1     
   11    5   27 1     
   12    6   21 1     
   13    6    7 1     
   14    7    8 1     
   15    7   28 1     
   16    7   29 1     
   17    8    9 1     
   18    8   30 1     
   19    8   31 1     
   20    9   10 1     
   21    9   20 1     
   22    9   32 1     
   23   10   11 am    
   24   10   33 1     
   25   11   12 2     
   26   11   13 am    
   27   13   14 1     
   28   13   34 1     
   29   14   19 ar    
   30   14   15 ar    
   31   15   16 ar    
   32   15   35 1     
   33   16   17 ar    
   34   16   36 1     
   35   17   18 ar    
   36   17   43 1     
   37   18   19 ar    
   38   18   37 1     
   39   19   38 1     
   40   20   21 1     
   41   20   39 1     
   42   20   40 1     
   43   21   41 1     
   44   21   42 1     
   45    4   44 1     
   46    4   45 1     
   47    6   46 1     
   48   12   47 1     
   49   12   48 1     
@<TRIPOS>SUBSTRUCTURE
      1 S1             1
@<TRIPOS>SET
LONE_PAIRS      STATIC     ATOMS    <user>   **** ""
5 44 45 46 47 48
DONOR_HYDROGENS      STATIC     ATOMS    <user>   **** ""
4 25 33 34 43
ATOM$BLUE        STATIC     ATOMS    COLORGROUP SYSTEM
5 44 45 46 47 48
ATOM$RED        STATIC     ATOMS    COLORGROUP SYSTEM
4 25 33 34 43
