AV-unprocessed.smi:2801|AV-procd|sdf|10800|dock1
  -GOLD-   2272015233D 1   1.00000     0.00000
 Structure written by MMmdl.
 32 32  0  0  0  0  0  0  0  0  1 V2000
  147.4611  144.6605  161.6538 C   0  0  0  0  0  0  0  0  0  0  0  0
  148.6833  145.0707  160.8295 C   0  0  0  0  0  0  0  0  0  0  0  0
  149.2499  143.9046  160.2445 O   0  0  0  0  0  0  0  0  0  0  0  0
  150.1024  144.1342  159.1245 C   0  0  1  0  0  0  0  0  0  0  0  0
  151.3336  144.9166  159.6197 C   0  0  0  0  0  0  0  0  0  0  0  0
  152.2219  144.0934  160.5608 C   0  0  0  0  0  0  0  0  0  0  0  0
  150.5137  142.7950  158.4906 C   0  0  0  0  0  0  0  0  0  0  0  0
  151.0419  141.9308  159.1895 O   0  0  0  0  0  0  0  0  0  0  0  0
  150.2239  142.6566  157.1833 N   0  0  0  0  0  0  0  0  0  0  0  0
  150.4726  141.5583  156.3122 C   0  0  0  0  0  0  0  0  0  0  0  0
  151.5890  140.6941  156.4255 C   0  0  0  0  0  0  0  0  0  0  0  0
  151.7361  139.6510  155.4900 C   0  0  0  0  0  0  0  0  0  0  0  0
  150.8709  139.4302  154.4785 N   0  0  0  0  0  0  0  0  0  0  0  0
  149.8151  140.2618  154.3635 C   0  0  0  0  0  0  0  0  0  0  0  0
  149.5723  141.3360  155.2442 C   0  0  0  0  0  0  0  0  0  0  0  0
  148.4808  142.1366  155.0546 O   0  0  0  0  0  0  0  0  0  0  0  0
  146.9992  145.5287  162.1240 H   0  0  0  0  0  0  0  0  0  0  0  0
  147.7379  143.9597  162.4418 H   0  0  0  0  0  0  0  0  0  0  0  0
  146.7094  144.1807  161.0267 H   0  0  0  0  0  0  0  0  0  0  0  0
  148.3826  145.7894  160.0665 H   0  0  0  0  0  0  0  0  0  0  0  0
  149.4159  145.5598  161.4732 H   0  0  0  0  0  0  0  0  0  0  0  0
  149.5784  144.7433  158.3850 H   0  0  0  0  0  0  0  0  0  0  0  0
  151.9273  145.2566  158.7701 H   0  0  0  0  0  0  0  0  0  0  0  0
  151.0108  145.8157  160.1468 H   0  0  0  0  0  0  0  0  0  0  0  0
  153.0753  144.6799  160.9010 H   0  0  0  0  0  0  0  0  0  0  0  0
  152.6083  143.2041  160.0622 H   0  0  0  0  0  0  0  0  0  0  0  0
  151.6686  143.7697  161.4427 H   0  0  0  0  0  0  0  0  0  0  0  0
  149.7167  143.4228  156.7645 H   0  0  0  0  0  0  0  0  0  0  0  0
  152.3372  140.8119  157.1930 H   0  0  0  0  0  0  0  0  0  0  0  0
  152.5781  138.9777  155.5530 H   0  0  0  0  0  0  0  0  0  0  0  0
  149.1438  140.0658  153.5404 H   0  0  0  0  0  0  0  0  0  0  0  0
  148.5038  142.9218  155.5805 H   0  0  0  0  0  0  0  0  0  0  0  0
  1  2  1  0  0  0  0
  1 17  1  0  0  0  0
  1 18  1  0  0  0  0
  1 19  1  0  0  0  0
  2  3  1  0  0  0  0
  2 20  1  0  0  0  0
  2 21  1  0  0  0  0
  3  4  1  0  0  0  0
  4  5  1  0  0  0  0
  4  7  1  0  0  0  0
  4 22  1  0  0  0  0
  5  6  1  0  0  0  0
  5 23  1  0  0  0  0
  5 24  1  0  0  0  0
  6 25  1  0  0  0  0
  6 26  1  0  0  0  0
  6 27  1  0  0  0  0
  7  8  2  0  0  0  0
  7  9  1  0  0  0  0
  9 10  1  0  0  0  0
  9 28  1  0  0  0  0
 10 15  1  0  0  0  0
 10 11  2  0  0  0  0
 11 12  1  0  0  0  0
 11 29  1  0  0  0  0
 12 13  2  0  0  0  0
 12 30  1  0  0  0  0
 13 14  1  0  0  0  0
 14 15  2  0  0  0  0
 14 31  1  0  0  0  0
 15 16  1  0  0  0  0
 16 32  1  0  0  0  0
M  END
> <s_m_source_file>
AV-unprocessed.smi

> <i_m_source_file_index>
2801

> <i_lp_mmshare_version>
43012

> <i_f3d_flags>
0

> <s_epik_input>
W0NIM11bQ0gyXU9bQ0BIXShbQ0gyXVtDSDNdKUMoPU8pW05IXWMxW2NIXVtjSF1uW2NIXWMxW09IXQ==

> <s_epik_cmdline>
J2VwaWtfcHl0aG9uJywgJy1waCcsICc3LjAnLCAnLXRuJywgJzgnLCAnLW1hJywgJzIwMCcsICctbWV0YWxfYmluZGluZycsICctaW1hZScsICc8aW5maWxlLm1hZT4nLCAnLW9tYWUnLCAnPG91dGZpbGUubWFlPic=

> <r_lp_tautomer_probability>
0.43658

> <r_epik_Ionization_Penalty>
0.0250035

> <r_epik_Ionization_Penalty_Charging>
0

> <r_epik_Ionization_Penalty_Neutral>
0.0250035

> <r_epik_State_Penalty>
0.520524

> <r_epik_Charging_Adjusted_Penalty>
0.520524

> <i_epik_Tot_Q>
0

> <i_epik_Tot_abs_Q>
0

> <r_epik_Metal_State_Penalty>
0.772586

> <b_epik_Metal_Only>
0

> <s_lp_Force_Field>
OPLS_2005

> <r_lp_Energy>
11.8743

> <b_lp_Chiralities_Consistent>
1

> <s_lp_Variant>
AV-unprocessed.smi:2801-4

> <Gold.Version>
5.8.1

> <Gold.Id.Protein>
6NUR|6NUR_protein|mol2

> <Gold.PLP.Fitness>
47.0500

> <Gold.PLP.PLP>
-37.4518

> <Gold.PLP.part.hbond>
-4.6125

> <Gold.PLP.part.metal>
0.0000

> <Gold.PLP.part.buried>
-4.8295

> <Gold.PLP.part.nonpolar>
-28.5081

> <Gold.PLP.part.repulsive>
0.2943

> <Gold.PLP.ligand.clash>
0.0000

> <Gold.PLP.ligand.torsion>
0.3722

> <Gold.PLP.Chemscore.Hbond>
2.4419

> <Gold.PLP.Chemscore.CHOScore>
1.0000

> <Gold.PLP.Chemscore.Metal>
0.0000

> <Gold.Chemscore.Hbonds>
donor molecule, donor type, donor heavy atom, donor atom, acceptor molecule, acceptor atom, score
      L1  H     9    28       P1  8028  1.00
      L1  H    16    32       P1  8028  0.94
      P1  H  6933  6944       L1     3  0.44
      L1  C    14    31       P1  7957  0.98

> <Gold.PLP.Chemscore.Internal.Correction>
0.0168

> <Gold.Rescore>
     Score         DG    S(hbond)    S(metal)    S(lipo)     H(rot)  DE(clash)    DE(int)     intcor
     14.33     -16.41       1.99        0.00      82.87       2.11       0.21       1.86       ----

> <Gold.Chemscore.Fitness>
14.3348

> <Gold.Chemscore.DG>
-16.4052

> <Gold.Chemscore.ZeroCoef>
-5.4800

> <Gold.Chemscore.Hbond>
1.9875

> <Gold.Chemscore.Metal>
0.0000

> <Gold.Chemscore.Lipo>
82.8716

> <Gold.Chemscore.Internal_Hbond>
0.0000

> <Gold.Chemscore.DEClash>
0.2094

> <Gold.Chemscore.DEInternal>
1.8610

> <Gold.Chemscore.Rot>
2.1129

> <Gold.Chemscore.Internal.Correction>
   9.000000E+99

> <Gold.Chemscore.Hbonds>
donor molecule, donor type, donor heavy atom, donor atom, acceptor molecule, acceptor atom, score
      L1  H     9    28       P1  8028  1.00
      L1  H    16    32       P1  8028  0.91
      P1  H  6933  6944       L1     3  0.19

> <Gold.Chemscore.Hbond.Weighted>
-6.6381

> <Gold.Chemscore.Metal.Weighted>
-0.0000

> <Gold.Chemscore.Lipo.Weighted>
-9.6960

> <Gold.Chemscore.Internal_Hbond.Weighted>
0.0000

> <Gold.Chemscore.DEClash.Weighted>
0.2094

> <Gold.Chemscore.DEInternal.Weighted>
1.8610

> <Gold.Chemscore.Rot.Weighted>
5.4089

> <Gold.Chemscore.Internal.Correction.Weighted>
   9.000000E+99

> <Gold.Protein.RotatedTorsions>
[ 6907 6896 6895 6894 ] final  -52.23 input  -60.11 | X-H torsion
[ 7974 7965 7964 7962 ] final    4.80 input  175.53 | X-H torsion
[ 8008 7997 7996 7995 ] final  -59.46 input   59.86 | X-H torsion
[ 10167 10162 10161 10158 ] final   60.41 input  -65.29 | X-H torsion
[ 10718 10713 10712 10709 ] final    4.50 input   66.30 | X-H torsion
[ 10763 10752 10751 10750 ] final -165.75 input  -60.55 | X-H torsion
[ 11005 11000 10999 10996 ] final  159.61 input  -57.11 | X-H torsion

> <Gold.Protein.ActiveResidues>
 VAL166  LYS551  ARG553  GLY616  TRP617  ASP618  TYR619  PRO620  LYS621  CYS622 
 ASP623  PHE694  ASN695  SER759  ASP760  ASP761  ALA762  ILE779  LEU786  VAL792 
 PHE793  MET794  SER795  GLU796  ALA797  LYS798  CYS799  TRP800  GLU811  SER814 

> <Gold.Protein.RotatedAtoms>
  150.8537  134.7870  159.7028 H   0  0  0  0  0  0  0  0  0  0  0  0  # atno 6907 bound_to 6896
  152.4595  134.5213  159.9793 H   0  0  0  0  0  0  0  0  0  0  0  0  # atno 6908 bound_to 6896
  151.5329  133.3408  159.2957 H   0  0  0  0  0  0  0  0  0  0  0  0  # atno 6909 bound_to 6896
  146.2443  140.0479  142.8377 H   0  0  0  0  0  0  0  0  0  0  0  0  # atno 7974 bound_to 7965
  154.4353  140.1061  156.6119 H   0  0  0  0  0  0  0  0  0  0  0  0  # atno 8008 bound_to 7997
  155.5800  140.3490  155.4519 H   0  0  0  0  0  0  0  0  0  0  0  0  # atno 8009 bound_to 7997
  156.0326  140.1264  157.0231 H   0  0  0  0  0  0  0  0  0  0  0  0  # atno 8010 bound_to 7997
  140.1659  144.4324  150.6685 H   0  0  0  0  0  0  0  0  0  0  0  0  # atno 10167 bound_to 10162
  156.8936  130.5696  149.5649 H   0  0  0  0  0  0  0  0  0  0  0  0  # atno 10718 bound_to 10713
  154.6901  135.2969  154.9492 H   0  0  0  0  0  0  0  0  0  0  0  0  # atno 10763 bound_to 10752
  154.0458  135.6651  153.4799 H   0  0  0  0  0  0  0  0  0  0  0  0  # atno 10764 bound_to 10752
  153.0606  135.5118  154.7988 H   0  0  0  0  0  0  0  0  0  0  0  0  # atno 10765 bound_to 10752
  140.1978  134.8360  157.2984 H   0  0  0  0  0  0  0  0  0  0  0  0  # atno 11005 bound_to 11000
  145.1010  140.9346  143.4712 LP  0  0  0  0  0  0  0  0  0  0  0  0  # atno 17320 bound_to 7965
  145.0672  139.3059  143.5850 LP  0  0  0  0  0  0  0  0  0  0  0  0  # atno 17321 bound_to 7965
  140.6613  143.2253  151.5849 LP  0  0  0  0  0  0  0  0  0  0  0  0  # atno 17342 bound_to 10162
  139.5360  144.2781  152.1251 LP  0  0  0  0  0  0  0  0  0  0  0  0  # atno 17343 bound_to 10162
  156.0617  130.5668  150.9205 LP  0  0  0  0  0  0  0  0  0  0  0  0  # atno 17370 bound_to 10713
  157.6069  131.0938  150.8864 LP  0  0  0  0  0  0  0  0  0  0  0  0  # atno 17371 bound_to 10713
  140.2087  134.4165  155.7624 LP  0  0  0  0  0  0  0  0  0  0  0  0  # atno 17394 bound_to 11000
  141.2227  133.7108  156.8303 LP  0  0  0  0  0  0  0  0  0  0  0  0  # atno 17395 bound_to 11000

$$$$
