#       Name:                AV-unprocessed.smi:102
#       Creating user name   scv26
#       Creation time:       Thu Mar 26 17:51:24 2020


#       File generated by GOLD software.
#

@<TRIPOS>MOLECULE
AV-unprocessed.smi:102
    56    57     1
SMALL
NO_CHARGES


@<TRIPOS>ATOM
      1 ****        -4.1987   0.7303   0.9525 C.3            1 S1                 0.0000
      2 ****        -3.8005  -0.6566   0.4652 C.2            1 S1                 0.0000
      3 ****        -4.6422  -1.4755   0.0952 O.2            1 S1                 0.0000
      4 ****        -2.4749  -0.8473   0.4981 O.3            1 S1                 0.0000
      5 ****        -1.9277  -2.0873   0.0789 C.3            1 S1                 0.0000
      6 ****        -0.3988  -1.9866  -0.0102 C.3            1 S1                 0.0000
      7 ****         0.1692  -1.7793   1.2737 O.3            1 S1                 0.0000
      8 ****         1.3969  -1.1278   1.1418 C.3            1 S1                 0.0000
      9 ****         1.4348   0.0044   2.1475 N.am           1 S1                 0.0000
     10 ****         0.2960   0.7538   2.3883 C.2            1 S1                 0.0000
     11 ****         0.3042   1.7774   3.2654 C.2            1 S1                 0.0000
     12 ****        -0.8172   2.4885   3.4744 F              1 S1                 0.0000
     13 ****         1.5371   2.1079   3.9775 C.2            1 S1                 0.0000
     14 ****         1.5371   3.0365   4.7840 O.2            1 S1                 0.0000
     15 ****         2.6485   1.3625   3.7089 N.pl3          1 S1                -1.0000
     16 ****         2.6475   0.3313   2.8138 C.2            1 S1                 0.0000
     17 ****         3.6542  -0.3240   2.5447 O.2            1 S1                 0.0000
     18 ****         1.5331  -0.6297  -0.3156 C.3            1 S1                 0.0000
     19 ****         1.9072   0.7430  -0.3875 O.3            1 S1                 0.0000
     20 ****         2.5445   1.2204  -1.4675 C.2            1 S1                 0.0000
     21 ****         2.8719   2.7016  -1.3357 C.3            1 S1                 0.0000
     22 ****         2.8477   0.5807  -2.4748 O.2            1 S1                 0.0000
     23 ****         0.1334  -0.8399  -0.8719 C.3            1 S1                 0.0000
     24 ****         0.2121  -1.2127  -2.2413 O.3            1 S1                 0.0000
     25 ****        -0.7486  -0.8356  -3.1016 C.2            1 S1                 0.0000
     26 ****        -0.4754  -1.3139  -4.5212 C.3            1 S1                 0.0000
     27 ****        -1.7553  -0.1828  -2.8262 O.2            1 S1                 0.0000
     28 ****        -3.4570   1.4706   0.6511 H              1 S1                 0.0000
     29 ****        -4.2745   0.7396   2.0399 H              1 S1                 0.0000
     30 ****        -5.1633   1.0191   0.5349 H              1 S1                 0.0000
     31 ****        -2.2158  -2.8739   0.7771 H              1 S1                 0.0000
     32 ****        -2.3316  -2.3551  -0.8985 H              1 S1                 0.0000
     33 ****         0.0028  -2.9311  -0.3813 H              1 S1                 0.0000
     34 ****         2.1815  -1.8316   1.4202 H              1 S1                 0.0000
     35 ****        -0.6173   0.5252   1.8606 H              1 S1                 0.0000
     36 ****         2.2541  -1.2801  -0.8137 H              1 S1                 0.0000
     37 ****         1.9568   3.2934  -1.3574 H              1 S1                 0.0000
     38 ****         3.5149   3.0268  -2.1538 H              1 S1                 0.0000
     39 ****         3.3869   2.8934  -0.3940 H              1 S1                 0.0000
     40 ****        -0.4511   0.0679  -0.7134 H              1 S1                 0.0000
     41 ****        -0.6908  -2.3789  -4.6085 H              1 S1                 0.0000
     42 ****         0.5693  -1.1478  -4.7849 H              1 S1                 0.0000
     43 ****        -1.1008  -0.7748  -5.2333 H              1 S1                 0.0000
     44 ****        -5.6130  -1.2363   0.1103 LP             1 S1                 0.0000
     45 ****        -4.3550  -2.3799  -0.2205 LP             1 S1                 0.0000
     46 ****         0.3071  -2.6619   1.7232 LP             1 S1                 0.0000
     47 ****        -0.4484  -1.2177   1.8243 LP             1 S1                 0.0000
     48 ****         0.6990   3.5570   4.9471 LP             1 S1                 0.0000
     49 ****         2.3752   3.2709   5.2765 LP             1 S1                 0.0000
     50 ****         3.4989   1.5806   4.1875 LP             1 S1                 0.0000
     51 ****         3.6048  -1.0635   1.8733 LP             1 S1                 0.0000
     52 ****         4.5214  -0.1170   2.9975 LP             1 S1                 0.0000
     53 ****         2.6172  -0.3903  -2.5387 LP             1 S1                 0.0000
     54 ****         3.3245   1.0320  -3.2291 LP             1 S1                 0.0000
     55 ****        -1.9150   0.1170  -1.8857 LP             1 S1                 0.0000
     56 ****        -2.4134   0.0476  -3.5430 LP             1 S1                 0.0000
@<TRIPOS>BOND
    1    1    2 1     
    2    1   28 1     
    3    1   29 1     
    4    1   30 1     
    5    2    3 2     
    6    2    4 1     
    7    4    5 1     
    8    5    6 1     
    9    5   31 1     
   10    5   32 1     
   11    6   23 1     
   12    6    7 1     
   13    6   33 1     
   14    7    8 1     
   15    8    9 1     
   16    8   18 1     
   17    8   34 1     
   18    9   16 am    
   19    9   10 1     
   20   10   11 2     
   21   10   35 1     
   22   11   12 1     
   23   11   13 1     
   24   13   14 2     
   25   13   15 1     
   26   15   16 1     
   27   16   17 2     
   28   18   19 1     
   29   18   23 1     
   30   18   36 1     
   31   19   20 1     
   32   20   21 1     
   33   20   22 2     
   34   21   37 1     
   35   21   38 1     
   36   21   39 1     
   37   23   24 1     
   38   23   40 1     
   39   24   25 1     
   40   25   26 1     
   41   25   27 2     
   42   26   41 1     
   43   26   42 1     
   44   26   43 1     
   45    3   44 1     
   46    3   45 1     
   47    7   46 1     
   48    7   47 1     
   49   14   48 1     
   50   14   49 1     
   51   15   50 1     
   52   17   51 1     
   53   17   52 1     
   54   22   53 1     
   55   22   54 1     
   56   27   55 1     
   57   27   56 1     
@<TRIPOS>SUBSTRUCTURE
      1 S1             1
@<TRIPOS>SET
LONE_PAIRS      STATIC     ATOMS    <user>   **** ""
13 44 45 46 47 48 49 50 51 52 53 54 55 56
ATOM$BLUE        STATIC     ATOMS    COLORGROUP SYSTEM
13 44 45 46 47 48 49 50 51 52 53 54 55 56
