#       Name:                AV-unprocessed.smi:1270
#       Creating user name   scv26
#       Creation time:       Fri Mar 27 04:46:14 2020


#       File generated by GOLD software.
#

@<TRIPOS>MOLECULE
AV-unprocessed.smi:1270
    47    48     1
SMALL
NO_CHARGES


@<TRIPOS>ATOM
      1 ****        -3.4970  -4.4257  -0.6035 C.3            1 S1                 0.0000
      2 ****        -2.9820  -3.0992  -0.6462 O.3            1 S1                 0.0000
      3 ****        -3.8744  -2.0474  -0.7328 C.ar           1 S1                 0.0000
      4 ****        -5.2013  -2.3292  -0.7660 N.ar           1 S1                 0.0000
      5 ****        -6.0741  -1.3050  -0.8566 C.ar           1 S1                 0.0000
      6 ****        -5.6755   0.0423  -0.9252 C.ar           1 S1                 0.0000
      7 ****        -4.3001   0.3374  -0.8912 C.ar           1 S1                 0.0000
      8 ****        -3.3710  -0.7262  -0.7820 C.ar           1 S1                 0.0000
      9 ****        -1.9598  -0.5457  -0.7594 N.am           1 S1                 0.0000
     10 ****        -1.2557   0.5558  -0.4481 C.2            1 S1                 0.0000
     11 ****        -1.7341   1.6317  -0.0901 O.2            1 S1                 0.0000
     12 ****         0.0618   0.3337  -0.5578 N.am           1 S1                 0.0000
     13 ****         1.1056   1.3217  -0.3004 C.3            1 S1                 0.0000
     14 ****         2.4000   0.9119  -1.0181 C.3            1 S1                 0.0000
     15 ****         3.5424   1.9009  -0.7259 C.3            1 S1                 0.0000
     16 ****         3.7489   2.0830   0.7251 N.pl3          1 S1                 0.0000
     17 ****         5.0601   1.2665   1.5274 S.o2           1 S1                 0.0000
     18 ****         4.4746  -0.4693   1.6931 C.3            1 S1                 0.0000
     19 ****         6.2180   1.2752   0.6204 O.2            1 S1                 0.0000
     20 ****         5.1872   1.8377   2.8769 O.2            1 S1                 0.0000
     21 ****         2.5311   2.4404   1.4800 C.3            1 S1                 0.0000
     22 ****         1.3822   1.4541   1.2070 C.3            1 S1                 0.0000
     23 ****        -2.6692  -5.1315  -0.5367 H              1 S1                 0.0000
     24 ****        -4.0620  -4.6632  -1.5061 H              1 S1                 0.0000
     25 ****        -4.1339  -4.5797   0.2690 H              1 S1                 0.0000
     26 ****        -7.1214  -1.5677  -0.8829 H              1 S1                 0.0000
     27 ****        -6.4081   0.8315  -1.0078 H              1 S1                 0.0000
     28 ****        -3.9900   1.3679  -0.9654 H              1 S1                 0.0000
     29 ****        -1.4197  -1.3758  -0.9553 H              1 S1                 0.0000
     30 ****         0.3661  -0.5834  -0.8504 H              1 S1                 0.0000
     31 ****         0.7852   2.2890  -0.6928 H              1 S1                 0.0000
     32 ****         2.6919  -0.0926  -0.7134 H              1 S1                 0.0000
     33 ****         2.2293   0.8650  -2.0943 H              1 S1                 0.0000
     34 ****         4.4638   1.5682  -1.2027 H              1 S1                 0.0000
     35 ****         3.3041   2.8711  -1.1633 H              1 S1                 0.0000
     36 ****         5.2466  -1.0583   2.1875 H              1 S1                 0.0000
     37 ****         4.2843  -0.8924   0.7086 H              1 S1                 0.0000
     38 ****         3.5684  -0.4993   2.2955 H              1 S1                 0.0000
     39 ****         2.7450   2.4878   2.5472 H              1 S1                 0.0000
     40 ****         2.2254   3.4445   1.1836 H              1 S1                 0.0000
     41 ****         0.4858   1.7964   1.7253 H              1 S1                 0.0000
     42 ****         1.6206   0.4779   1.6279 H              1 S1                 0.0000
     43 ****        -2.3800  -3.0418  -1.4426 LP             1 S1                 0.0000
     44 ****        -2.4461  -2.9637   0.1871 LP             1 S1                 0.0000
     45 ****        -5.5246  -3.2746  -0.7243 LP             1 S1                 0.0000
     46 ****        -2.7254   1.7367  -0.0115 LP             1 S1                 0.0000
     47 ****        -1.1314   2.4010   0.1222 LP             1 S1                 0.0000
@<TRIPOS>BOND
    1    1    2 1     
    2    1   23 1     
    3    1   24 1     
    4    1   25 1     
    5    2    3 1     
    6    3    8 ar    
    7    3    4 ar    
    8    4    5 ar    
    9    5    6 ar    
   10    5   26 1     
   11    6    7 ar    
   12    6   27 1     
   13    7    8 ar    
   14    7   28 1     
   15    8    9 1     
   16    9   10 am    
   17    9   29 1     
   18   10   11 2     
   19   10   12 am    
   20   12   13 1     
   21   12   30 1     
   22   13   22 1     
   23   13   14 1     
   24   13   31 1     
   25   14   15 1     
   26   14   32 1     
   27   14   33 1     
   28   15   16 1     
   29   15   34 1     
   30   15   35 1     
   31   16   17 1     
   32   16   21 1     
   33   17   18 1     
   34   17   19 2     
   35   17   20 2     
   36   18   36 1     
   37   18   37 1     
   38   18   38 1     
   39   21   22 1     
   40   21   39 1     
   41   21   40 1     
   42   22   41 1     
   43   22   42 1     
   44    2   43 1     
   45    2   44 1     
   46    4   45 1     
   47   11   46 1     
   48   11   47 1     
@<TRIPOS>SUBSTRUCTURE
      1 S1             1
@<TRIPOS>SET
LONE_PAIRS      STATIC     ATOMS    <user>   **** ""
7 43 44 45 46 47 19 20
DONOR_HYDROGENS      STATIC     ATOMS    <user>   **** ""
2 29 30
ATOM$BLUE        STATIC     ATOMS    COLORGROUP SYSTEM
7 43 44 45 46 47 19 20
ATOM$RED        STATIC     ATOMS    COLORGROUP SYSTEM
2 29 30
