AV-unprocessed.smi:3149|AV-procd|sdf|12000|dock5
  -GOLD-   2272017403D 1   1.00000     0.00000
 Structure written by MMmdl.
 38 39  0  0  0  0  0  0  0  0  2 V2000
  148.4014  140.1548  157.0570 C   0  0  0  0  0  0  0  0  0  0  0  0
  148.7016  141.4104  156.2178 C   0  0  1  0  0  0  0  0  0  0  0  0
  149.7198  142.2210  156.9279 N   0  3  0  0  0  0  0  0  0  0  0  0
  151.1270  141.9304  156.5781 C   0  0  0  0  0  0  0  0  0  0  0  0
  151.8530  141.2049  157.7169 C   0  0  0  0  0  0  0  0  0  0  0  0
  152.4312  140.1416  157.4955 O   0  0  0  0  0  0  0  0  0  0  0  0
  151.8744  141.8101  158.9759 N   0  0  0  0  0  0  0  0  0  0  0  0
  152.0666  143.2441  159.1342 C   0  0  0  0  0  0  0  0  0  0  0  0
  152.7257  142.8996  160.4733 C   0  0  0  0  0  0  0  0  0  0  0  0
  152.8946  141.4677  159.9558 C   0  0  0  0  0  0  0  0  0  0  0  0
  149.1722  141.0787  154.7751 C   0  0  2  0  0  0  0  0  0  0  0  0
  148.0127  141.0018  153.7635 C   0  0  0  0  0  0  0  0  0  0  0  0
  149.9536  139.8492  154.7247 N   0  0  0  0  0  0  0  0  0  0  0  0
  149.4978  138.5476  154.6762 C   0  0  0  0  0  0  0  0  0  0  0  0
  150.5926  137.7324  154.6432 C   0  0  0  0  0  0  0  0  0  0  0  0
  151.6896  138.6372  154.6794 C   0  0  0  0  0  0  0  0  0  0  0  0
  151.3049  139.9021  154.7296 N   0  0  0  0  0  0  0  0  0  0  0  0
  147.5780  139.5741  156.6405 H   0  0  0  0  0  0  0  0  0  0  0  0
  148.1152  140.4247  158.0741 H   0  0  0  0  0  0  0  0  0  0  0  0
  149.2724  139.5014  157.1191 H   0  0  0  0  0  0  0  0  0  0  0  0
  147.7708  141.9766  156.1542 H   0  0  0  0  0  0  0  0  0  0  0  0
  149.5516  143.1961  156.7243 H   0  0  0  0  0  0  0  0  0  0  0  0
  151.1317  141.2749  155.7070 H   0  0  0  0  0  0  0  0  0  0  0  0
  151.6324  142.8475  156.2776 H   0  0  0  0  0  0  0  0  0  0  0  0
  152.7622  143.6738  158.4104 H   0  0  0  0  0  0  0  0  0  0  0  0
  151.1390  143.8112  159.2186 H   0  0  0  0  0  0  0  0  0  0  0  0
  153.6646  143.4224  160.6583 H   0  0  0  0  0  0  0  0  0  0  0  0
  152.0451  142.9752  161.3233 H   0  0  0  0  0  0  0  0  0  0  0  0
  152.5919  140.6909  160.6586 H   0  0  0  0  0  0  0  0  0  0  0  0
  153.8788  141.2829  159.5200 H   0  0  0  0  0  0  0  0  0  0  0  0
  149.8367  141.8805  154.4486 H   0  0  0  0  0  0  0  0  0  0  0  0
  147.5063  141.9612  153.6600 H   0  0  0  0  0  0  0  0  0  0  0  0
  147.2688  140.2625  154.0622 H   0  0  0  0  0  0  0  0  0  0  0  0
  148.3763  140.7243  152.7735 H   0  0  0  0  0  0  0  0  0  0  0  0
  148.4440  138.3110  154.6678 H   0  0  0  0  0  0  0  0  0  0  0  0
  150.6080  136.6533  154.6010 H   0  0  0  0  0  0  0  0  0  0  0  0
  152.7464  138.4141  154.6708 H   0  0  0  0  0  0  0  0  0  0  0  0
  149.5964  142.0766  157.9196 H   0  0  0  0  0  0  0  0  0  0  0  0
  1  2  1  0  0  0  0
  1 18  1  0  0  0  0
  1 19  1  0  0  0  0
  1 20  1  0  0  0  0
  2  3  1  0  0  0  0
  2 11  1  0  0  0  0
  2 21  1  0  0  0  0
  3  4  1  0  0  0  0
  3 22  1  0  0  0  0
  3 38  1  0  0  0  0
  4  5  1  0  0  0  0
  4 23  1  0  0  0  0
  4 24  1  0  0  0  0
  5  6  2  0  0  0  0
  5  7  1  0  0  0  0
  7 10  1  0  0  0  0
  7  8  1  0  0  0  0
  8  9  1  0  0  0  0
  8 25  1  0  0  0  0
  8 26  1  0  0  0  0
  9 10  1  0  0  0  0
  9 27  1  0  0  0  0
  9 28  1  0  0  0  0
 10 29  1  0  0  0  0
 10 30  1  0  0  0  0
 11 12  1  0  0  0  0
 11 13  1  0  0  0  0
 11 31  1  0  0  0  0
 12 32  1  0  0  0  0
 12 33  1  0  0  0  0
 12 34  1  0  0  0  0
 13 17  1  0  0  0  0
 13 14  1  0  0  0  0
 14 15  2  0  0  0  0
 14 35  1  0  0  0  0
 15 16  1  0  0  0  0
 15 36  1  0  0  0  0
 16 17  2  0  0  0  0
 16 37  1  0  0  0  0
M  CHG  1   3   1
M  END
> <s_m_source_file>
AV-unprocessed.smi

> <i_m_source_file_index>
3149

> <i_lp_mmshare_version>
43012

> <i_f3d_flags>
0

> <s_epik_input>
bjFbY0hdW2NIXVtjSF1uMVtDQEBIXShbQ0gzXSlbQ0BIXShbQ0gzXSlbTkhdW0NIMl1DKD1PKU4yW0NIMl1bQ0gyXVtDSDJdMg==

> <s_epik_cmdline>
J2VwaWtfcHl0aG9uJywgJy1waCcsICc3LjAnLCAnLXRuJywgJzgnLCAnLW1hJywgJzIwMCcsICctbWV0YWxfYmluZGluZycsICctaW1hZScsICc8aW5maWxlLm1hZT4nLCAnLW9tYWUnLCAnPG91dGZpbGUubWFlPic=

> <r_lp_tautomer_probability>
1

> <r_epik_Ionization_Penalty>
0.141739

> <r_epik_Ionization_Penalty_Charging>
0.141731

> <r_epik_Ionization_Penalty_Neutral>
8.82171e-06

> <r_epik_State_Penalty>
0.131043

> <r_epik_Charging_Adjusted_Penalty>
0.272773

> <i_epik_Tot_Q>
1

> <i_epik_Tot_abs_Q>
1

> <r_epik_Metal_State_Penalty>
0.131384

> <b_epik_Metal_Only>
0

> <s_lp_Force_Field>
OPLS_2005

> <r_lp_Energy>
23.3154

> <b_lp_Chiralities_Consistent>
1

> <s_lp_Variant>
AV-unprocessed.smi:3149-2

> <Gold.Version>
5.8.1

> <Gold.Id.Protein>
6NUR|6NUR_protein|mol2

> <Gold.PLP.Fitness>
46.5567

> <Gold.PLP.PLP>
-38.4033

> <Gold.PLP.part.hbond>
-2.9947

> <Gold.PLP.part.metal>
0.0000

> <Gold.PLP.part.buried>
-5.0187

> <Gold.PLP.part.nonpolar>
-30.2972

> <Gold.PLP.part.repulsive>
0.0883

> <Gold.PLP.ligand.clash>
0.0000

> <Gold.PLP.ligand.torsion>
2.4027

> <Gold.PLP.Chemscore.Hbond>
4.0000

> <Gold.PLP.Chemscore.CHOScore>
0.0000

> <Gold.PLP.Chemscore.Metal>
0.0000

> <Gold.Chemscore.Hbonds>
donor molecule, donor type, donor heavy atom, donor atom, acceptor molecule, acceptor atom, score
      L1  H     3    22       P1  8028  2.00
      P1  H  7989  7998       L1    17  1.00
      P1  H  7997  8010       L1     6  0.78

> <Gold.PLP.Chemscore.Internal.Correction>
0.9587

> <Gold.Rescore>
     Score         DG    S(hbond)    S(metal)    S(lipo)     H(rot)  DE(clash)    DE(int)     intcor
     16.24     -19.78       2.90        0.00      79.90       1.85       0.02       3.51       ----

> <Gold.Chemscore.Fitness>
16.2437

> <Gold.Chemscore.DG>
-19.7787

> <Gold.Chemscore.ZeroCoef>
-5.4800

> <Gold.Chemscore.Hbond>
2.9035

> <Gold.Chemscore.Metal>
0.0000

> <Gold.Chemscore.Lipo>
79.8997

> <Gold.Chemscore.Internal_Hbond>
0.0000

> <Gold.Chemscore.DEClash>
0.0250

> <Gold.Chemscore.DEInternal>
3.5101

> <Gold.Chemscore.Rot>
1.8544

> <Gold.Chemscore.Internal.Correction>
   9.000000E+99

> <Gold.Chemscore.Hbonds>
donor molecule, donor type, donor heavy atom, donor atom, acceptor molecule, acceptor atom, score
      L1  H     3    22       P1  8028  0.97
      P1  H  7989  7998       L1    17  0.43
      P1  H  7997  8010       L1     6  0.73

> <Gold.Chemscore.Hbond.Weighted>
-9.6976

> <Gold.Chemscore.Metal.Weighted>
-0.0000

> <Gold.Chemscore.Lipo.Weighted>
-9.3483

> <Gold.Chemscore.Internal_Hbond.Weighted>
0.0000

> <Gold.Chemscore.DEClash.Weighted>
0.0250

> <Gold.Chemscore.DEInternal.Weighted>
3.5101

> <Gold.Chemscore.Rot.Weighted>
4.7472

> <Gold.Chemscore.Internal.Correction.Weighted>
   9.000000E+99

> <Gold.Protein.RotatedTorsions>
[ 6907 6896 6895 6894 ] final  130.07 input  -60.11 | X-H torsion
[ 7974 7965 7964 7962 ] final   21.41 input  175.53 | X-H torsion
[ 8008 7997 7996 7995 ] final   58.17 input   59.86 | X-H torsion
[ 10167 10162 10161 10158 ] final -156.85 input  -65.29 | X-H torsion
[ 10718 10713 10712 10709 ] final  -77.01 input   66.30 | X-H torsion
[ 10763 10752 10751 10750 ] final -170.06 input  -60.55 | X-H torsion
[ 11005 11000 10999 10996 ] final -165.61 input  -57.11 | X-H torsion

> <Gold.Protein.ActiveResidues>
 VAL166  LYS551  ARG553  GLY616  TRP617  ASP618  TYR619  PRO620  LYS621  CYS622 
 ASP623  PHE694  ASN695  SER759  ASP760  ASP761  ALA762  ILE779  LEU786  VAL792 
 PHE793  MET794  SER795  GLU796  ALA797  LYS798  CYS799  TRP800  GLU811  SER814 

> <Gold.Protein.RotatedAtoms>
  152.3562  133.6240  159.5980 H   0  0  0  0  0  0  0  0  0  0  0  0  # atno 6907 bound_to 6896
  150.7570  133.9496  159.3490 H   0  0  0  0  0  0  0  0  0  0  0  0  # atno 6908 bound_to 6896
  151.7341  135.0869  160.0356 H   0  0  0  0  0  0  0  0  0  0  0  0  # atno 6909 bound_to 6896
  146.2072  139.8032  142.8716 H   0  0  0  0  0  0  0  0  0  0  0  0  # atno 7974 bound_to 7965
  155.5457  140.3485  155.4457 H   0  0  0  0  0  0  0  0  0  0  0  0  # atno 8008 bound_to 7997
  156.0619  140.1342  156.9957 H   0  0  0  0  0  0  0  0  0  0  0  0  # atno 8009 bound_to 7997
  154.4484  140.0983  156.6515 H   0  0  0  0  0  0  0  0  0  0  0  0  # atno 8010 bound_to 7997
  139.6818  143.9569  152.2340 H   0  0  0  0  0  0  0  0  0  0  0  0  # atno 10167 bound_to 10162
  156.0158  130.4480  150.3279 H   0  0  0  0  0  0  0  0  0  0  0  0  # atno 10718 bound_to 10713
  154.6455  135.2904  155.0051 H   0  0  0  0  0  0  0  0  0  0  0  0  # atno 10763 bound_to 10752
  154.1162  135.6555  153.4898 H   0  0  0  0  0  0  0  0  0  0  0  0  # atno 10764 bound_to 10752
  153.0349  135.5277  154.7341 H   0  0  0  0  0  0  0  0  0  0  0  0  # atno 10765 bound_to 10752
  140.5738  134.5211  157.5166 H   0  0  0  0  0  0  0  0  0  0  0  0  # atno 11005 bound_to 11000
  145.3275  141.0258  143.3465 LP  0  0  0  0  0  0  0  0  0  0  0  0  # atno 17320 bound_to 7965
  144.8823  139.4887  143.6717 LP  0  0  0  0  0  0  0  0  0  0  0  0  # atno 17321 bound_to 7965
  139.9361  144.6711  150.8313 LP  0  0  0  0  0  0  0  0  0  0  0  0  # atno 17342 bound_to 10162
  140.7654  143.3276  151.2482 LP  0  0  0  0  0  0  0  0  0  0  0  0  # atno 17343 bound_to 10162
  157.1378  131.0288  151.2941 LP  0  0  0  0  0  0  0  0  0  0  0  0  # atno 17370 bound_to 10713
  157.4497  130.7591  149.7140 LP  0  0  0  0  0  0  0  0  0  0  0  0  # atno 17371 bound_to 10713
  139.9349  134.7894  156.0830 LP  0  0  0  0  0  0  0  0  0  0  0  0  # atno 17394 bound_to 11000
  141.1039  133.6667  156.2819 LP  0  0  0  0  0  0  0  0  0  0  0  0  # atno 17395 bound_to 11000

$$$$
