AV-unprocessed.smi:3184|AV-procd|sdf|12164|dock1
  -GOLD-   2272018 03D 1   1.00000     0.00000
 Structure written by MMmdl.
 34 35  0  0  0  0  0  0  0  0  1 V2000
  147.5068  141.7380  155.7725 C   0  0  0  0  0  0  0  0  0  0  0  0
  148.9329  141.1770  155.8633 C   0  0  1  0  0  0  0  0  0  0  0  0
  149.5749  141.0193  154.4718 C   0  0  0  0  0  0  0  0  0  0  0  0
  150.5177  139.9164  154.4259 N   0  0  0  0  0  0  0  0  0  0  0  0
  150.4730  138.8098  153.5886 C   0  0  0  0  0  0  0  0  0  0  0  0
  151.5603  138.0293  153.9106 C   0  0  0  0  0  0  0  0  0  0  0  0
  152.2844  138.6336  154.9356 N   0  0  0  0  0  0  0  0  0  0  0  0
  151.6077  139.7466  155.1868 C   0  0  0  0  0  0  0  0  0  0  0  0
  149.7533  142.0573  156.6926 N   0  0  0  0  0  0  0  0  0  0  0  0
  150.6177  141.6658  157.6444 C   0  0  0  0  0  0  0  0  0  0  0  0
  150.7707  140.4882  157.9709 O   0  0  0  0  0  0  0  0  0  0  0  0
  151.3159  142.6794  158.2006 N   0  0  0  0  0  0  0  0  0  0  0  0
  151.4998  144.0225  157.6416 C   0  0  0  0  0  0  0  0  0  0  0  0
  152.1859  144.8390  158.7369 C   0  0  0  0  0  0  0  0  0  0  0  0
  152.9074  143.7984  159.5813 C   0  0  0  0  0  0  0  0  0  0  0  0
  152.0281  142.5528  159.4709 C   0  0  0  0  0  0  0  0  0  0  0  0
  146.8693  141.0904  155.1699 H   0  0  0  0  0  0  0  0  0  0  0  0
  147.4973  142.7298  155.3192 H   0  0  0  0  0  0  0  0  0  0  0  0
  147.0524  141.8183  156.7607 H   0  0  0  0  0  0  0  0  0  0  0  0
  148.8722  140.1857  156.3164 H   0  0  0  0  0  0  0  0  0  0  0  0
  148.8056  140.8365  153.7205 H   0  0  0  0  0  0  0  0  0  0  0  0
  150.0891  141.9356  154.1773 H   0  0  0  0  0  0  0  0  0  0  0  0
  149.6910  138.6715  152.8568 H   0  0  0  0  0  0  0  0  0  0  0  0
  151.8743  137.0865  153.4875 H   0  0  0  0  0  0  0  0  0  0  0  0
  151.9084  140.4520  155.9478 H   0  0  0  0  0  0  0  0  0  0  0  0
  149.6914  143.0464  156.4995 H   0  0  0  0  0  0  0  0  0  0  0  0
  152.1380  143.9558  156.7590 H   0  0  0  0  0  0  0  0  0  0  0  0
  150.5548  144.4810  157.3466 H   0  0  0  0  0  0  0  0  0  0  0  0
  152.8566  145.6013  158.3393 H   0  0  0  0  0  0  0  0  0  0  0  0
  151.4324  145.3415  159.3449 H   0  0  0  0  0  0  0  0  0  0  0  0
  153.8873  143.5936  159.1481 H   0  0  0  0  0  0  0  0  0  0  0  0
  153.0583  144.1195  160.6125 H   0  0  0  0  0  0  0  0  0  0  0  0
  151.3003  142.5237  160.2830 H   0  0  0  0  0  0  0  0  0  0  0  0
  152.6263  141.6414  159.5188 H   0  0  0  0  0  0  0  0  0  0  0  0
  1  2  1  0  0  0  0
  1 17  1  0  0  0  0
  1 18  1  0  0  0  0
  1 19  1  0  0  0  0
  2  3  1  0  0  0  0
  2  9  1  0  0  0  0
  2 20  1  0  0  0  0
  3  4  1  0  0  0  0
  3 21  1  0  0  0  0
  3 22  1  0  0  0  0
  4  8  1  0  0  0  0
  4  5  1  0  0  0  0
  5  6  2  0  0  0  0
  5 23  1  0  0  0  0
  6  7  1  0  0  0  0
  6 24  1  0  0  0  0
  7  8  2  0  0  0  0
  8 25  1  0  0  0  0
  9 10  1  0  0  0  0
  9 26  1  0  0  0  0
 10 11  2  0  0  0  0
 10 12  1  0  0  0  0
 12 16  1  0  0  0  0
 12 13  1  0  0  0  0
 13 14  1  0  0  0  0
 13 27  1  0  0  0  0
 13 28  1  0  0  0  0
 14 15  1  0  0  0  0
 14 29  1  0  0  0  0
 14 30  1  0  0  0  0
 15 16  1  0  0  0  0
 15 31  1  0  0  0  0
 15 32  1  0  0  0  0
 16 33  1  0  0  0  0
 16 34  1  0  0  0  0
M  END
> <s_m_source_file>
AV-unprocessed.smi

> <i_m_source_file_index>
3184

> <i_lp_mmshare_version>
43012

> <i_f3d_flags>
0

> <s_epik_input>
W2NIXTFuW2NIXVtjSF1uMVtDSDJdW0NAQEhdKFtDSDNdKVtOSF1DKD1PKU4yW0NIMl1bQ0gyXVtDSDJdW0NIMl0y

> <s_epik_cmdline>
J2VwaWtfcHl0aG9uJywgJy1waCcsICc3LjAnLCAnLXRuJywgJzgnLCAnLW1hJywgJzIwMCcsICctbWV0YWxfYmluZGluZycsICctaW1hZScsICc8aW5maWxlLm1hZT4nLCAnLW9tYWUnLCAnPG91dGZpbGUubWFlPic=

> <r_lp_tautomer_probability>
1

> <r_epik_Ionization_Penalty>
0.625774

> <r_epik_Ionization_Penalty_Charging>
0.625709

> <r_epik_Ionization_Penalty_Neutral>
6.46152e-05

> <r_epik_State_Penalty>
0.642123

> <r_epik_Charging_Adjusted_Penalty>
1.26783

> <i_epik_Tot_Q>
0

> <i_epik_Tot_abs_Q>
0

> <r_epik_Metal_State_Penalty>
0.307922

> <b_epik_Metal_Only>
0

> <s_lp_Force_Field>
OPLS_2005

> <r_lp_Energy>
35.7196

> <b_lp_Chiralities_Consistent>
1

> <s_lp_Variant>
AV-unprocessed.smi:3184-4

> <Gold.Version>
5.8.1

> <Gold.Id.Protein>
6NUR|6NUR_protein|mol2

> <Gold.PLP.Fitness>
44.3549

> <Gold.PLP.PLP>
-35.7287

> <Gold.PLP.part.hbond>
-1.0000

> <Gold.PLP.part.metal>
0.0000

> <Gold.PLP.part.buried>
0.3034

> <Gold.PLP.part.nonpolar>
-35.1229

> <Gold.PLP.part.repulsive>
0.0467

> <Gold.PLP.ligand.clash>
0.0000

> <Gold.PLP.ligand.torsion>
0.7570

> <Gold.PLP.Chemscore.Hbond>
1.0000

> <Gold.PLP.Chemscore.CHOScore>
2.3609

> <Gold.PLP.Chemscore.Metal>
0.0000

> <Gold.Chemscore.Hbonds>
donor molecule, donor type, donor heavy atom, donor atom, acceptor molecule, acceptor atom, score
      L1  H     9    26       P1  8028  0.98
      L1  C     5    23       P1  7948  0.53
      L1  C     5    23       P1  7957  0.77
      L1  C     6    24       P1  7949  1.00

> <Gold.PLP.Chemscore.Internal.Correction>
0.0574

> <Gold.Rescore>
     Score         DG    S(hbond)    S(metal)    S(lipo)     H(rot)  DE(clash)    DE(int)     intcor
     13.44     -14.21       0.98        0.00      81.62       1.60       0.04       0.72       ----

> <Gold.Chemscore.Fitness>
13.4420

> <Gold.Chemscore.DG>
-14.2062

> <Gold.Chemscore.ZeroCoef>
-5.4800

> <Gold.Chemscore.Hbond>
0.9805

> <Gold.Chemscore.Metal>
0.0000

> <Gold.Chemscore.Lipo>
81.6227

> <Gold.Chemscore.Internal_Hbond>
0.0000

> <Gold.Chemscore.DEClash>
0.0407

> <Gold.Chemscore.DEInternal>
0.7236

> <Gold.Chemscore.Rot>
1.6009

> <Gold.Chemscore.Internal.Correction>
   9.000000E+99

> <Gold.Chemscore.Hbonds>
donor molecule, donor type, donor heavy atom, donor atom, acceptor molecule, acceptor atom, score
      L1  H     9    26       P1  8028  0.91

> <Gold.Chemscore.Hbond.Weighted>
-3.2747

> <Gold.Chemscore.Metal.Weighted>
-0.0000

> <Gold.Chemscore.Lipo.Weighted>
-9.5499

> <Gold.Chemscore.Internal_Hbond.Weighted>
0.0000

> <Gold.Chemscore.DEClash.Weighted>
0.0407

> <Gold.Chemscore.DEInternal.Weighted>
0.7236

> <Gold.Chemscore.Rot.Weighted>
4.0983

> <Gold.Chemscore.Internal.Correction.Weighted>
   9.000000E+99

> <Gold.Protein.RotatedTorsions>
[ 6907 6896 6895 6894 ] final -111.14 input  -60.11 | X-H torsion
[ 7974 7965 7964 7962 ] final -128.19 input  175.53 | X-H torsion
[ 8008 7997 7996 7995 ] final   83.48 input   59.86 | X-H torsion
[ 10167 10162 10161 10158 ] final -107.09 input  -65.29 | X-H torsion
[ 10718 10713 10712 10709 ] final   87.05 input   66.30 | X-H torsion
[ 10763 10752 10751 10750 ] final  -58.19 input  -60.55 | X-H torsion
[ 11005 11000 10999 10996 ] final  107.91 input  -57.11 | X-H torsion

> <Gold.Protein.ActiveResidues>
 VAL166  LYS551  ARG553  GLY616  TRP617  ASP618  TYR619  PRO620  LYS621  CYS622 
 ASP623  PHE694  ASN695  SER759  ASP760  ASP761  ALA762  ILE779  LEU786  VAL792 
 PHE793  MET794  SER795  GLU796  ALA797  LYS798  CYS799  TRP800  GLU811  SER814 

> <Gold.Protein.RotatedAtoms>
  150.7671  133.9278  159.3417 H   0  0  0  0  0  0  0  0  0  0  0  0  # atno 6907 bound_to 6896
  151.7173  135.0899  160.0287 H   0  0  0  0  0  0  0  0  0  0  0  0  # atno 6908 bound_to 6896
  152.3672  133.6334  159.6095 H   0  0  0  0  0  0  0  0  0  0  0  0  # atno 6909 bound_to 6896
  144.9695  140.7531  143.4679 H   0  0  0  0  0  0  0  0  0  0  0  0  # atno 7974 bound_to 7965
  155.9245  140.3419  155.6199 H   0  0  0  0  0  0  0  0  0  0  0  0  # atno 8008 bound_to 7997
  155.7233  140.0786  157.2340 H   0  0  0  0  0  0  0  0  0  0  0  0  # atno 8009 bound_to 7997
  154.4075  140.1601  156.2414 H   0  0  0  0  0  0  0  0  0  0  0  0  # atno 8010 bound_to 7997
  140.1807  143.3969  152.1283 H   0  0  0  0  0  0  0  0  0  0  0  0  # atno 10167 bound_to 10162
  157.6936  131.0240  150.3065 H   0  0  0  0  0  0  0  0  0  0  0  0  # atno 10718 bound_to 10713
  154.2342  135.6355  153.5185 H   0  0  0  0  0  0  0  0  0  0  0  0  # atno 10763 bound_to 10752
  152.9943  135.5526  154.5980 H   0  0  0  0  0  0  0  0  0  0  0  0  # atno 10764 bound_to 10752
  154.5470  135.2899  155.1018 H   0  0  0  0  0  0  0  0  0  0  0  0  # atno 10765 bound_to 10752
  139.8835  134.9415  156.5891 H   0  0  0  0  0  0  0  0  0  0  0  0  # atno 11005 bound_to 11000
  145.2580  139.2004  143.4907 LP  0  0  0  0  0  0  0  0  0  0  0  0  # atno 17320 bound_to 7965
  146.3378  140.2505  142.8598 LP  0  0  0  0  0  0  0  0  0  0  0  0  # atno 17321 bound_to 7965
  139.5297  144.7145  151.5100 LP  0  0  0  0  0  0  0  0  0  0  0  0  # atno 17342 bound_to 10162
  140.6521  143.8675  150.6796 LP  0  0  0  0  0  0  0  0  0  0  0  0  # atno 17343 bound_to 10162
  156.3573  130.3841  149.7280 LP  0  0  0  0  0  0  0  0  0  0  0  0  # atno 17370 bound_to 10713
  156.4738  130.8009  151.3026 LP  0  0  0  0  0  0  0  0  0  0  0  0  # atno 17371 bound_to 10713
  140.7969  133.8537  155.8693 LP  0  0  0  0  0  0  0  0  0  0  0  0  # atno 17394 bound_to 11000
  140.9627  134.1634  157.4641 LP  0  0  0  0  0  0  0  0  0  0  0  0  # atno 17395 bound_to 11000

$$$$
