AV-unprocessed.smi:148|AV-procd|sdf|1219|dock7
  -GOLD-   2262018403D 1   1.00000     0.00000
 Structure written by MMmdl.
 63 67  0  0  0  0  0  0  0  0  1 V2000
  147.5458  137.1833  161.0070 O   0  0  0  0  0  0  0  0  0  0  0  0
  148.3195  136.2887  160.2322 C   0  0  0  0  0  0  0  0  0  0  0  0
  147.6624  134.8866  160.1131 C   0  0  1  0  0  0  0  0  0  0  0  0
  148.1634  134.0171  158.9167 C   0  0  0  0  0  0  0  0  0  0  0  0
  148.0360  134.6177  157.5993 N   0  0  0  0  0  0  0  0  0  0  0  0
  149.0639  134.9714  156.7545 C   0  0  0  0  0  0  0  0  0  0  0  0
  148.6940  135.5114  155.6253 N   0  0  0  0  0  0  0  0  0  0  0  0
  147.3059  135.5246  155.6955 C   0  0  0  0  0  0  0  0  0  0  0  0
  146.2685  135.9845  154.8357 C   0  0  0  0  0  0  0  0  0  0  0  0
  146.4649  136.5907  153.6429 N   0  0  0  0  0  0  0  0  0  0  0  0
  146.6405  138.0297  153.8353 C   0  0  0  0  0  0  0  0  0  0  0  0
  147.1156  138.7108  152.5460 C   0  0  0  0  0  0  0  0  0  0  0  0
  146.1483  138.4054  151.3980 C   0  0  0  0  0  0  0  0  0  0  0  0
  146.0008  136.8876  151.2254 C   0  0  0  0  0  0  0  0  0  0  0  0
  145.5643  136.1948  152.5436 C   0  0  1  0  0  0  0  0  0  0  0  0
  145.4155  134.6456  152.4085 C   0  0  2  0  0  0  0  0  0  0  0  0
  146.7256  133.8476  152.2536 C   0  0  0  0  0  0  0  0  0  0  0  0
  146.3838  132.6114  151.4056 C   0  0  0  0  0  0  0  0  0  0  0  0
  144.8723  132.6622  151.1647 C   0  0  0  0  0  0  0  0  0  0  0  0
  144.5252  134.1472  151.2605 C   0  0  1  0  0  0  0  0  0  0  0  0
  143.1515  134.3375  151.5301 O   0  0  0  0  0  0  0  0  0  0  0  0
  144.9850  135.8108  155.2362 N   0  0  0  0  0  0  0  0  0  0  0  0
  144.7256  135.2428  156.4178 C   0  0  0  0  0  0  0  0  0  0  0  0
  145.5846  134.7863  157.3320 N   0  0  0  0  0  0  0  0  0  0  0  0
  146.8758  134.9484  156.9231 C   0  0  0  0  0  0  0  0  0  0  0  0
  147.6698  134.0754  161.4439 C   0  0  1  0  0  0  0  0  0  0  0  0
  146.9367  134.7177  162.6158 C   0  0  0  0  0  0  0  0  0  0  0  0
  145.4789  134.3417  162.3665 C   0  0  0  0  0  0  0  0  0  0  0  0
  145.5166  133.1222  161.6332 O   0  0  0  0  0  0  0  0  0  0  0  0
  146.8668  132.7700  161.3514 C   0  0  0  0  0  0  0  0  0  0  0  0
  146.6790  136.8203  161.1096 H   0  0  0  0  0  0  0  0  0  0  0  0
  148.4641  136.7283  159.2462 H   0  0  0  0  0  0  0  0  0  0  0  0
  149.3206  136.2180  160.6565 H   0  0  0  0  0  0  0  0  0  0  0  0
  146.6153  135.0968  159.8898 H   0  0  0  0  0  0  0  0  0  0  0  0
  149.2106  133.7415  159.0422 H   0  0  0  0  0  0  0  0  0  0  0  0
  147.6171  133.0730  158.9043 H   0  0  0  0  0  0  0  0  0  0  0  0
  150.1034  134.8297  157.0127 H   0  0  0  0  0  0  0  0  0  0  0  0
  145.6953  138.4692  154.1577 H   0  0  0  0  0  0  0  0  0  0  0  0
  147.3640  138.2149  154.6309 H   0  0  0  0  0  0  0  0  0  0  0  0
  147.1923  139.7877  152.6976 H   0  0  0  0  0  0  0  0  0  0  0  0
  148.1159  138.3585  152.2904 H   0  0  0  0  0  0  0  0  0  0  0  0
  145.1743  138.8501  151.6062 H   0  0  0  0  0  0  0  0  0  0  0  0
  146.5081  138.8562  150.4727 H   0  0  0  0  0  0  0  0  0  0  0  0
  145.2765  136.7059  150.4331 H   0  0  0  0  0  0  0  0  0  0  0  0
  146.9503  136.4848  150.8748 H   0  0  0  0  0  0  0  0  0  0  0  0
  144.5781  136.5916  152.7854 H   0  0  0  0  0  0  0  0  0  0  0  0
  144.9401  134.2657  153.3140 H   0  0  0  0  0  0  0  0  0  0  0  0
  147.5059  134.4236  151.7591 H   0  0  0  0  0  0  0  0  0  0  0  0
  147.1184  133.5607  153.2296 H   0  0  0  0  0  0  0  0  0  0  0  0
  146.9119  132.6652  150.4526 H   0  0  0  0  0  0  0  0  0  0  0  0
  146.6837  131.6830  151.8925 H   0  0  0  0  0  0  0  0  0  0  0  0
  144.5830  132.2221  150.2097 H   0  0  0  0  0  0  0  0  0  0  0  0
  144.3630  132.1063  151.9539 H   0  0  0  0  0  0  0  0  0  0  0  0
  144.7804  134.6254  150.3160 H   0  0  0  0  0  0  0  0  0  0  0  0
  142.6896  134.3968  150.7077 H   0  0  0  0  0  0  0  0  0  0  0  0
  143.6799  135.1450  156.6691 H   0  0  0  0  0  0  0  0  0  0  0  0
  148.7049  133.8688  161.7194 H   0  0  0  0  0  0  0  0  0  0  0  0
  147.2715  134.2496  163.5427 H   0  0  0  0  0  0  0  0  0  0  0  0
  147.0909  135.7885  162.7350 H   0  0  0  0  0  0  0  0  0  0  0  0
  144.9184  134.2304  163.2949 H   0  0  0  0  0  0  0  0  0  0  0  0
  144.9837  135.1000  161.7593 H   0  0  0  0  0  0  0  0  0  0  0  0
  146.9439  132.2616  160.3909 H   0  0  0  0  0  0  0  0  0  0  0  0
  147.2033  132.0705  162.1180 H   0  0  0  0  0  0  0  0  0  0  0  0
  1  2  1  0  0  0  0
  1 31  1  0  0  0  0
  2  3  1  0  0  0  0
  2 32  1  0  0  0  0
  2 33  1  0  0  0  0
  3  4  1  0  0  0  0
  3 26  1  0  0  0  0
  3 34  1  0  0  0  0
  4  5  1  0  0  0  0
  4 35  1  0  0  0  0
  4 36  1  0  0  0  0
  5 25  1  0  0  0  0
  5  6  1  0  0  0  0
  6  7  2  0  0  0  0
  6 37  1  0  0  0  0
  7  8  1  0  0  0  0
  8 25  2  0  0  0  0
  8  9  1  0  0  0  0
  9 10  1  0  0  0  0
  9 22  2  0  0  0  0
 10 15  1  0  0  0  0
 10 11  1  0  0  0  0
 11 12  1  0  0  0  0
 11 38  1  0  0  0  0
 11 39  1  0  0  0  0
 12 13  1  0  0  0  0
 12 40  1  0  0  0  0
 12 41  1  0  0  0  0
 13 14  1  0  0  0  0
 13 42  1  0  0  0  0
 13 43  1  0  0  0  0
 14 15  1  0  0  0  0
 14 44  1  0  0  0  0
 14 45  1  0  0  0  0
 15 16  1  0  0  0  0
 15 46  1  0  0  0  0
 16 20  1  0  0  0  0
 16 17  1  0  0  0  0
 16 47  1  0  0  0  0
 17 18  1  0  0  0  0
 17 48  1  0  0  0  0
 17 49  1  0  0  0  0
 18 19  1  0  0  0  0
 18 50  1  0  0  0  0
 18 51  1  0  0  0  0
 19 20  1  0  0  0  0
 19 52  1  0  0  0  0
 19 53  1  0  0  0  0
 20 21  1  0  0  0  0
 20 54  1  0  0  0  0
 21 55  1  0  0  0  0
 22 23  1  0  0  0  0
 23 24  2  0  0  0  0
 23 56  1  0  0  0  0
 24 25  1  0  0  0  0
 26 30  1  0  0  0  0
 26 27  1  0  0  0  0
 26 57  1  0  0  0  0
 27 28  1  0  0  0  0
 27 58  1  0  0  0  0
 27 59  1  0  0  0  0
 28 29  1  0  0  0  0
 28 60  1  0  0  0  0
 28 61  1  0  0  0  0
 29 30  1  0  0  0  0
 30 62  1  0  0  0  0
 30 63  1  0  0  0  0
M  END
> <s_m_source_file>
AV-unprocessed.smi

> <i_m_source_file_index>
148

> <i_lp_mmshare_version>
43012

> <i_f3d_flags>
0

> <s_epik_input>
W0NIMl0xT1tDSDJdW0NIMl1bQ0BIXTFbQ0BIXShbQ0gyXVtPSF0pW0NIMl1uKFtjSF1uMiljKGMyMyluW2NIXW5jM040W0NIMl1bQ0gyXVtDSDJdW0NIMl1bQ0BIXTRbQ0BASF01W0NIMl1bQ0gyXVtDSDJdW0NASF01W09IXQ==

> <s_epik_cmdline>
J2VwaWtfcHl0aG9uJywgJy1waCcsICc3LjAnLCAnLXRuJywgJzgnLCAnLW1hJywgJzIwMCcsICctbWV0YWxfYmluZGluZycsICctaW1hZScsICc8aW5maWxlLm1hZT4nLCAnLW9tYWUnLCAnPG91dGZpbGUubWFlPic=

> <r_lp_tautomer_probability>
1

> <r_epik_Ionization_Penalty>
0.00556303

> <r_epik_Ionization_Penalty_Charging>
0

> <r_epik_Ionization_Penalty_Neutral>
0.00556303

> <r_epik_State_Penalty>
0.00401767

> <r_epik_Charging_Adjusted_Penalty>
0.00401767

> <i_epik_Tot_Q>
0

> <i_epik_Tot_abs_Q>
0

> <r_epik_Metal_State_Penalty>
-0

> <b_epik_Metal_Only>
0

> <s_lp_Force_Field>
OPLS_2005

> <r_lp_Energy>
73.5051

> <b_lp_Chiralities_Consistent>
1

> <s_lp_Variant>
AV-unprocessed.smi:148-18

> <Gold.Version>
5.8.1

> <Gold.Id.Protein>
6NUR|6NUR_protein|mol2

> <Gold.PLP.Fitness>
43.7933

> <Gold.PLP.PLP>
-36.7527

> <Gold.PLP.part.hbond>
-3.0000

> <Gold.PLP.part.metal>
0.0000

> <Gold.PLP.part.buried>
2.5266

> <Gold.PLP.part.nonpolar>
-36.0473

> <Gold.PLP.part.repulsive>
0.5649

> <Gold.PLP.ligand.clash>
0.0000

> <Gold.PLP.ligand.torsion>
0.8925

> <Gold.PLP.Chemscore.Hbond>
2.7825

> <Gold.PLP.Chemscore.CHOScore>
0.0000

> <Gold.PLP.Chemscore.Metal>
0.0000

> <Gold.Chemscore.Hbonds>
donor molecule, donor type, donor heavy atom, donor atom, acceptor molecule, acceptor atom, score
      L1  H    21    55       P1 10186  0.99
      P1  H  6931  6943       L1     1  0.86
      P1  H  6934  6947       L1     1  0.98

> <Gold.PLP.Chemscore.Internal.Correction>
0.4780

> <Gold.Rescore>
     Score         DG    S(hbond)    S(metal)    S(lipo)     H(rot)  DE(clash)    DE(int)     intcor
      9.25     -11.88       0.97        0.00      99.77       3.32       0.37       2.26       ----

> <Gold.Chemscore.Fitness>
9.2523

> <Gold.Chemscore.DG>
-11.8849

> <Gold.Chemscore.ZeroCoef>
-5.4800

> <Gold.Chemscore.Hbond>
0.9675

> <Gold.Chemscore.Metal>
0.0000

> <Gold.Chemscore.Lipo>
99.7741

> <Gold.Chemscore.Internal_Hbond>
0.0000

> <Gold.Chemscore.DEClash>
0.3706

> <Gold.Chemscore.DEInternal>
2.2620

> <Gold.Chemscore.Rot>
3.3203

> <Gold.Chemscore.Internal.Correction>
   9.000000E+99

> <Gold.Chemscore.Hbonds>
donor molecule, donor type, donor heavy atom, donor atom, acceptor molecule, acceptor atom, score
      L1  H    21    55       P1 10186  0.31
      P1  H  6931  6943       L1     1  0.20
      P1  H  6934  6947       L1     1  0.32

> <Gold.Chemscore.Hbond.Weighted>
-3.2313

> <Gold.Chemscore.Metal.Weighted>
-0.0000

> <Gold.Chemscore.Lipo.Weighted>
-11.6736

> <Gold.Chemscore.Internal_Hbond.Weighted>
0.0000

> <Gold.Chemscore.DEClash.Weighted>
0.3706

> <Gold.Chemscore.DEInternal.Weighted>
2.2620

> <Gold.Chemscore.Rot.Weighted>
8.5000

> <Gold.Chemscore.Internal.Correction.Weighted>
   9.000000E+99

> <Gold.Protein.RotatedTorsions>
[ 6907 6896 6895 6894 ] final    7.49 input  -60.11 | X-H torsion
[ 7974 7965 7964 7962 ] final -162.42 input  175.53 | X-H torsion
[ 8008 7997 7996 7995 ] final  162.25 input   59.86 | X-H torsion
[ 10167 10162 10161 10158 ] final -130.98 input  -65.29 | X-H torsion
[ 10718 10713 10712 10709 ] final   66.76 input   66.30 | X-H torsion
[ 10763 10752 10751 10750 ] final   13.66 input  -60.55 | X-H torsion
[ 11005 11000 10999 10996 ] final  135.98 input  -57.11 | X-H torsion

> <Gold.Protein.ActiveResidues>
 VAL166  LYS551  ARG553  GLY616  TRP617  ASP618  TYR619  PRO620  LYS621  CYS622 
 ASP623  PHE694  ASN695  SER759  ASP760  ASP761  ALA762  ILE779  LEU786  VAL792 
 PHE793  MET794  SER795  GLU796  ALA797  LYS798  CYS799  TRP800  GLU811  SER814 

> <Gold.Protein.RotatedAtoms>
  151.6908  135.0947  160.0232 H   0  0  0  0  0  0  0  0  0  0  0  0  # atno 6907 bound_to 6896
  152.3780  133.6502  159.6147 H   0  0  0  0  0  0  0  0  0  0  0  0  # atno 6908 bound_to 6896
  150.7724  133.9078  159.3402 H   0  0  0  0  0  0  0  0  0  0  0  0  # atno 6909 bound_to 6896
  144.7358  140.3254  143.6163 H   0  0  0  0  0  0  0  0  0  0  0  0  # atno 7974 bound_to 7965
  156.2045  140.1755  156.7829 H   0  0  0  0  0  0  0  0  0  0  0  0  # atno 8008 bound_to 7997
  154.5636  140.0695  156.8888 H   0  0  0  0  0  0  0  0  0  0  0  0  # atno 8009 bound_to 7997
  155.2802  140.3348  155.4261 H   0  0  0  0  0  0  0  0  0  0  0  0  # atno 8010 bound_to 7997
  139.9237  143.6352  152.2547 H   0  0  0  0  0  0  0  0  0  0  0  0  # atno 10167 bound_to 10162
  157.6189  130.9285  150.0152 H   0  0  0  0  0  0  0  0  0  0  0  0  # atno 10718 bound_to 10713
  153.1699  135.6810  153.8622 H   0  0  0  0  0  0  0  0  0  0  0  0  # atno 10763 bound_to 10752
  153.7990  135.3158  155.3389 H   0  0  0  0  0  0  0  0  0  0  0  0  # atno 10764 bound_to 10752
  154.7991  135.4789  154.0323 H   0  0  0  0  0  0  0  0  0  0  0  0  # atno 10765 bound_to 10752
  140.0016  134.9476  157.0084 H   0  0  0  0  0  0  0  0  0  0  0  0  # atno 11005 bound_to 11000
  145.7526  139.1798  143.2313 LP  0  0  0  0  0  0  0  0  0  0  0  0  # atno 17320 bound_to 7965
  146.1049  140.7499  142.9531 LP  0  0  0  0  0  0  0  0  0  0  0  0  # atno 17321 bound_to 7965
  139.6840  144.7653  151.1557 LP  0  0  0  0  0  0  0  0  0  0  0  0  # atno 17342 bound_to 10162
  140.7655  143.5684  150.9023 LP  0  0  0  0  0  0  0  0  0  0  0  0  # atno 17343 bound_to 10162
  156.1325  130.3643  149.9710 LP  0  0  0  0  0  0  0  0  0  0  0  0  # atno 17370 bound_to 10713
  156.7768  130.9206  151.3645 LP  0  0  0  0  0  0  0  0  0  0  0  0  # atno 17371 bound_to 10713
  140.4718  134.1379  155.7204 LP  0  0  0  0  0  0  0  0  0  0  0  0  # atno 17394 bound_to 11000
  141.1646  133.8728  157.1752 LP  0  0  0  0  0  0  0  0  0  0  0  0  # atno 17395 bound_to 11000

$$$$
