AV-unprocessed.smi:1680|AV-procd|sdf|6737|dock6
  -GOLD-   22720 7483D 1   1.00000     0.00000
 Structure written by MMmdl.
 38 39  0  0  0  0  0  0  0  0  1 V2000
  151.9455  141.1653  158.1032 C   0  0  0  0  0  0  0  0  0  0  0  0
  152.1249  140.1039  157.0157 C   0  0  0  0  0  0  0  0  0  0  0  0
  152.9377  139.2014  157.2169 O   0  0  0  0  0  0  0  0  0  0  0  0
  151.3937  140.1915  155.8792 N   0  0  0  0  0  0  0  0  0  0  0  0
  150.3625  141.1943  155.5942 C   0  0  0  0  0  0  0  0  0  0  0  0
  149.0003  140.4853  155.4658 C   0  0  0  0  0  0  0  0  0  0  0  0
  149.0487  139.4892  154.3919 N   0  0  0  0  0  0  0  0  0  0  0  0
  147.7378  138.8542  154.2549 C   0  0  0  0  0  0  0  0  0  0  0  0
  147.1368  139.0036  152.8414 C   0  0  0  0  0  0  0  0  0  0  0  0
  145.7114  138.6883  152.8238 N   0  0  0  0  0  0  0  0  0  0  0  0
  145.1718  137.5169  153.1924 C   0  0  0  0  0  0  0  0  0  0  0  0
  145.8293  136.5724  153.6306 O   0  0  0  0  0  0  0  0  0  0  0  0
  143.8390  137.5192  153.0142 N   0  0  0  0  0  0  0  0  0  0  0  0
  142.9190  136.4620  153.2424 C   0  0  0  0  0  0  0  0  0  0  0  0
  141.8110  136.5868  153.9897 N   0  0  0  0  0  0  0  0  0  0  0  0
  141.0908  135.4011  154.0535 N   0  0  0  0  0  0  0  0  0  0  0  0
  141.6836  134.4296  153.3537 C   0  0  0  0  0  0  0  0  0  0  0  0
  143.1776  134.8695  152.5447 S   0  0  0  0  0  0  0  0  0  0  0  0
  150.0989  138.5022  154.6712 C   0  0  0  0  0  0  0  0  0  0  0  0
  151.4644  139.2043  154.7983 C   0  0  0  0  0  0  0  0  0  0  0  0
  150.9205  141.1681  158.4748 H   0  0  0  0  0  0  0  0  0  0  0  0
  152.1884  142.1567  157.7195 H   0  0  0  0  0  0  0  0  0  0  0  0
  152.6051  140.9650  158.9482 H   0  0  0  0  0  0  0  0  0  0  0  0
  150.2920  141.9748  156.3500 H   0  0  0  0  0  0  0  0  0  0  0  0
  150.6088  141.7074  154.6629 H   0  0  0  0  0  0  0  0  0  0  0  0
  148.7295  140.0094  156.4099 H   0  0  0  0  0  0  0  0  0  0  0  0
  148.2287  141.2237  155.2442 H   0  0  0  0  0  0  0  0  0  0  0  0
  147.8097  137.7999  154.5259 H   0  0  0  0  0  0  0  0  0  0  0  0
  147.0443  139.3072  154.9649 H   0  0  0  0  0  0  0  0  0  0  0  0
  147.3340  139.9865  152.4127 H   0  0  0  0  0  0  0  0  0  0  0  0
  147.6296  138.2940  152.1768 H   0  0  0  0  0  0  0  0  0  0  0  0
  145.0936  139.4080  152.4784 H   0  0  0  0  0  0  0  0  0  0  0  0
  143.4372  138.3709  152.6511 H   0  0  0  0  0  0  0  0  0  0  0  0
  141.2372  133.4471  153.3130 H   0  0  0  0  0  0  0  0  0  0  0  0
  149.8685  137.9567  155.5877 H   0  0  0  0  0  0  0  0  0  0  0  0
  150.1562  137.7688  153.8681 H   0  0  0  0  0  0  0  0  0  0  0  0
  151.7201  139.7058  153.8635 H   0  0  0  0  0  0  0  0  0  0  0  0
  152.2430  138.4576  154.9602 H   0  0  0  0  0  0  0  0  0  0  0  0
  1  2  1  0  0  0  0
  1 21  1  0  0  0  0
  1 22  1  0  0  0  0
  1 23  1  0  0  0  0
  2  3  2  0  0  0  0
  2  4  1  0  0  0  0
  4 20  1  0  0  0  0
  4  5  1  0  0  0  0
  5  6  1  0  0  0  0
  5 24  1  0  0  0  0
  5 25  1  0  0  0  0
  6  7  1  0  0  0  0
  6 26  1  0  0  0  0
  6 27  1  0  0  0  0
  7  8  1  0  0  0  0
  7 19  1  0  0  0  0
  8  9  1  0  0  0  0
  8 28  1  0  0  0  0
  8 29  1  0  0  0  0
  9 10  1  0  0  0  0
  9 30  1  0  0  0  0
  9 31  1  0  0  0  0
 10 11  1  0  0  0  0
 10 32  1  0  0  0  0
 11 12  2  0  0  0  0
 11 13  1  0  0  0  0
 13 14  1  0  0  0  0
 13 33  1  0  0  0  0
 14 18  1  0  0  0  0
 14 15  2  0  0  0  0
 15 16  1  0  0  0  0
 16 17  2  0  0  0  0
 17 18  1  0  0  0  0
 17 34  1  0  0  0  0
 19 20  1  0  0  0  0
 19 35  1  0  0  0  0
 19 36  1  0  0  0  0
 20 37  1  0  0  0  0
 20 38  1  0  0  0  0
M  END
> <s_m_source_file>
AV-unprocessed.smi

> <i_m_source_file_index>
1680

> <i_lp_mmshare_version>
43012

> <i_f3d_flags>
0

> <s_epik_input>
W0NIM11DKD1PKU4xW0NIMl1bQ0gyXU4oW0NIMl1bQ0gyXTEpW0NIMl1bQ0gyXVtOSF1DKD1PKVtOSF1jMm5uW2NIXXMy

> <s_epik_cmdline>
J2VwaWtfcHl0aG9uJywgJy1waCcsICc3LjAnLCAnLXRuJywgJzgnLCAnLW1hJywgJzIwMCcsICctbWV0YWxfYmluZGluZycsICctaW1hZScsICc8aW5maWxlLm1hZT4nLCAnLW9tYWUnLCAnPG91dGZpbGUubWFlPic=

> <r_lp_tautomer_probability>
1

> <r_epik_Ionization_Penalty>
0.229992

> <r_epik_Ionization_Penalty_Charging>
0

> <r_epik_Ionization_Penalty_Neutral>
0.229992

> <r_epik_State_Penalty>
0.219013

> <r_epik_Charging_Adjusted_Penalty>
0.219013

> <i_epik_Tot_Q>
0

> <i_epik_Tot_abs_Q>
0

> <r_epik_Metal_State_Penalty>
0.556868

> <b_epik_Metal_Only>
0

> <s_lp_Force_Field>
OPLS_2005

> <r_lp_Energy>
36.5244

> <b_lp_Chiralities_Consistent>
1

> <s_lp_Variant>
AV-unprocessed.smi:1680-1

> <Gold.Version>
5.8.1

> <Gold.Id.Protein>
6NUR|6NUR_protein|mol2

> <Gold.PLP.Fitness>
41.2875

> <Gold.PLP.PLP>
-31.2806

> <Gold.PLP.part.hbond>
-4.0000

> <Gold.PLP.part.metal>
0.0000

> <Gold.PLP.part.buried>
-2.7227

> <Gold.PLP.part.nonpolar>
-25.0476

> <Gold.PLP.part.repulsive>
0.4213

> <Gold.PLP.ligand.clash>
0.0000

> <Gold.PLP.ligand.torsion>
1.2729

> <Gold.PLP.Chemscore.Hbond>
3.7469

> <Gold.PLP.Chemscore.CHOScore>
0.4313

> <Gold.PLP.Chemscore.Metal>
0.0000

> <Gold.Chemscore.Hbonds>
donor molecule, donor type, donor heavy atom, donor atom, acceptor molecule, acceptor atom, score
      L1  H    10    32       P1 10175  1.00
      L1  H    13    33       P1 10175  0.83
      P1  H  7997  8010       L1     3  1.00
      P1  H 11000 11005       L1    16  0.73
      L1  C    17    34       P1 10957  0.48

> <Gold.PLP.Chemscore.Internal.Correction>
0.0179

> <Gold.Rescore>
     Score         DG    S(hbond)    S(metal)    S(lipo)     H(rot)  DE(clash)    DE(int)     intcor
     17.70     -19.23       3.57        0.00      54.77       1.79       0.15       1.38       ----

> <Gold.Chemscore.Fitness>
17.6996

> <Gold.Chemscore.DG>
-19.2346

> <Gold.Chemscore.ZeroCoef>
-5.4800

> <Gold.Chemscore.Hbond>
3.5733

> <Gold.Chemscore.Metal>
0.0000

> <Gold.Chemscore.Lipo>
54.7747

> <Gold.Chemscore.Internal_Hbond>
0.0000

> <Gold.Chemscore.DEClash>
0.1537

> <Gold.Chemscore.DEInternal>
1.3812

> <Gold.Chemscore.Rot>
1.7926

> <Gold.Chemscore.Internal.Correction>
   9.000000E+99

> <Gold.Chemscore.Hbonds>
donor molecule, donor type, donor heavy atom, donor atom, acceptor molecule, acceptor atom, score
      L1  H    10    32       P1 10175  0.99
      L1  H    13    33       P1 10175  0.78
      P1  H  7997  8010       L1     3  0.35
      P1  H 11000 11005       L1    16  0.24

> <Gold.Chemscore.Hbond.Weighted>
-11.9349

> <Gold.Chemscore.Metal.Weighted>
-0.0000

> <Gold.Chemscore.Lipo.Weighted>
-6.4086

> <Gold.Chemscore.Internal_Hbond.Weighted>
0.0000

> <Gold.Chemscore.DEClash.Weighted>
0.1537

> <Gold.Chemscore.DEInternal.Weighted>
1.3812

> <Gold.Chemscore.Rot.Weighted>
4.5890

> <Gold.Chemscore.Internal.Correction.Weighted>
   9.000000E+99

> <Gold.Protein.RotatedTorsions>
[ 6907 6896 6895 6894 ] final -168.80 input  -60.11 | X-H torsion
[ 7974 7965 7964 7962 ] final  -78.68 input  175.53 | X-H torsion
[ 8008 7997 7996 7995 ] final   42.17 input   59.86 | X-H torsion
[ 10167 10162 10161 10158 ] final  -51.82 input  -65.29 | X-H torsion
[ 10718 10713 10712 10709 ] final    3.80 input   66.30 | X-H torsion
[ 10763 10752 10751 10750 ] final -157.19 input  -60.55 | X-H torsion
[ 11005 11000 10999 10996 ] final   32.40 input  -57.11 | X-H torsion

> <Gold.Protein.ActiveResidues>
 VAL166  LYS551  ARG553  GLY616  TRP617  ASP618  TYR619  PRO620  LYS621  CYS622 
 ASP623  PHE694  ASN695  SER759  ASP760  ASP761  ALA762  ILE779  LEU786  VAL792 
 PHE793  MET794  SER795  GLU796  ALA797  LYS798  CYS799  TRP800  GLU811  SER814 

> <Gold.Protein.RotatedAtoms>
  151.4813  133.3546  159.2838 H   0  0  0  0  0  0  0  0  0  0  0  0  # atno 6907 bound_to 6896
  150.8895  134.8299  159.7294 H   0  0  0  0  0  0  0  0  0  0  0  0  # atno 6908 bound_to 6896
  152.4814  134.4721  159.9691 H   0  0  0  0  0  0  0  0  0  0  0  0  # atno 6909 bound_to 6896
  145.5833  140.9444  143.1332 H   0  0  0  0  0  0  0  0  0  0  0  0  # atno 7974 bound_to 7965
  155.2817  140.3373  155.4258 H   0  0  0  0  0  0  0  0  0  0  0  0  # atno 8008 bound_to 7997
  156.2087  140.1761  156.7784 H   0  0  0  0  0  0  0  0  0  0  0  0  # atno 8009 bound_to 7997
  154.5656  140.0679  156.8870 H   0  0  0  0  0  0  0  0  0  0  0  0  # atno 8010 bound_to 7997
  140.6569  143.2606  151.4559 H   0  0  0  0  0  0  0  0  0  0  0  0  # atno 10167 bound_to 10162
  156.8832  130.5661  149.5652 H   0  0  0  0  0  0  0  0  0  0  0  0  # atno 10718 bound_to 10713
  154.7655  135.3130  154.8295 H   0  0  0  0  0  0  0  0  0  0  0  0  # atno 10763 bound_to 10752
  153.9044  135.6812  153.4758 H   0  0  0  0  0  0  0  0  0  0  0  0  # atno 10764 bound_to 10752
  153.1260  135.4801  154.9206 H   0  0  0  0  0  0  0  0  0  0  0  0  # atno 10765 bound_to 10752
  140.2739  134.3051  155.7820 H   0  0  0  0  0  0  0  0  0  0  0  0  # atno 11005 bound_to 11000
  144.7384  139.7519  143.7320 LP  0  0  0  0  0  0  0  0  0  0  0  0  # atno 17320 bound_to 7965
  146.1700  139.4847  142.9933 LP  0  0  0  0  0  0  0  0  0  0  0  0  # atno 17321 bound_to 7965
  139.5793  144.1745  152.1947 LP  0  0  0  0  0  0  0  0  0  0  0  0  # atno 17342 bound_to 10162
  140.1066  144.5494  150.6953 LP  0  0  0  0  0  0  0  0  0  0  0  0  # atno 17343 bound_to 10162
  156.0667  130.5708  150.9302 LP  0  0  0  0  0  0  0  0  0  0  0  0  # atno 17370 bound_to 10713
  157.6128  131.0935  150.8764 LP  0  0  0  0  0  0  0  0  0  0  0  0  # atno 17371 bound_to 10713
  141.2173  133.7483  156.9377 LP  0  0  0  0  0  0  0  0  0  0  0  0  # atno 17394 bound_to 11000
  140.1347  134.9333  157.2385 LP  0  0  0  0  0  0  0  0  0  0  0  0  # atno 17395 bound_to 11000

$$$$
