AV-unprocessed.smi:3148|AV-procd|sdf|11994|dock1
  -GOLD-   2272017403D 1   1.00000     0.00000
 Structure written by MMmdl.
 34 36  0  0  0  0  0  0  0  0  1 V2000
  146.8754  141.5265  153.6969 C   0  0  0  0  0  0  0  0  0  0  0  0
  147.7801  140.4279  153.6732 O   0  0  0  0  0  0  0  0  0  0  0  0
  148.9540  140.5387  154.3892 C   0  0  0  0  0  0  0  0  0  0  0  0
  149.9112  139.5064  154.3168 C   0  0  0  0  0  0  0  0  0  0  0  0
  151.0874  139.6869  155.0742 C   0  0  0  0  0  0  0  0  0  0  0  0
  152.1890  138.6484  155.0856 C   0  0  0  0  0  0  0  0  0  0  0  0
  151.2868  140.7900  155.8290 N   0  0  0  0  0  0  0  0  0  0  0  0
  150.3164  141.7069  155.8301 C   0  0  0  0  0  0  0  0  0  0  0  0
  150.5474  142.8180  156.6200 N   0  0  0  0  0  0  0  0  0  0  0  0
  151.6539  142.9432  157.5608 C   0  0  1  0  0  0  0  0  0  0  0  0
  151.8626  144.3816  158.0508 C   0  0  0  0  0  0  0  0  0  0  0  0
  151.7674  144.2142  159.5724 C   0  0  2  0  0  0  0  0  0  0  0  0
  152.9640  143.4455  160.1493 C   0  0  0  0  0  0  0  0  0  0  0  0
  152.6699  142.0184  159.6877 C   0  0  0  0  0  0  0  0  0  0  0  0
  151.3771  142.2061  158.8817 C   0  0  1  0  0  0  0  0  0  0  0  0
  150.7570  143.2244  159.6504 O   0  0  0  0  0  0  0  0  0  0  0  0
  149.1653  141.6400  155.1518 N   0  0  0  0  0  0  0  0  0  0  0  0
  146.0054  141.2913  153.0844 H   0  0  0  0  0  0  0  0  0  0  0  0
  147.3327  142.4295  153.2897 H   0  0  0  0  0  0  0  0  0  0  0  0
  146.5225  141.7300  154.7092 H   0  0  0  0  0  0  0  0  0  0  0  0
  149.7478  138.6257  153.7134 H   0  0  0  0  0  0  0  0  0  0  0  0
  151.9893  137.8545  154.3653 H   0  0  0  0  0  0  0  0  0  0  0  0
  152.2732  138.1986  156.0752 H   0  0  0  0  0  0  0  0  0  0  0  0
  153.1464  139.1048  154.8324 H   0  0  0  0  0  0  0  0  0  0  0  0
  150.0030  143.6444  156.4194 H   0  0  0  0  0  0  0  0  0  0  0  0
  152.5572  142.5458  157.0960 H   0  0  0  0  0  0  0  0  0  0  0  0
  152.8196  144.7979  157.7350 H   0  0  0  0  0  0  0  0  0  0  0  0
  151.0734  145.0465  157.6964 H   0  0  0  0  0  0  0  0  0  0  0  0
  151.5340  145.1368  160.1044 H   0  0  0  0  0  0  0  0  0  0  0  0
  153.9166  143.8245  159.7772 H   0  0  0  0  0  0  0  0  0  0  0  0
  152.9745  143.5006  161.2384 H   0  0  0  0  0  0  0  0  0  0  0  0
  153.4764  141.5908  159.0910 H   0  0  0  0  0  0  0  0  0  0  0  0
  152.4983  141.3675  160.5459 H   0  0  0  0  0  0  0  0  0  0  0  0
  150.7914  141.2919  158.7782 H   0  0  0  0  0  0  0  0  0  0  0  0
  1  2  1  0  0  0  0
  1 18  1  0  0  0  0
  1 19  1  0  0  0  0
  1 20  1  0  0  0  0
  2  3  1  0  0  0  0
  3 17  1  0  0  0  0
  3  4  2  0  0  0  0
  4  5  1  0  0  0  0
  4 21  1  0  0  0  0
  5  6  1  0  0  0  0
  5  7  2  0  0  0  0
  6 22  1  0  0  0  0
  6 23  1  0  0  0  0
  6 24  1  0  0  0  0
  7  8  1  0  0  0  0
  8  9  1  0  0  0  0
  8 17  2  0  0  0  0
  9 10  1  0  0  0  0
  9 25  1  0  0  0  0
 10 15  1  0  0  0  0
 10 11  1  0  0  0  0
 10 26  1  0  0  0  0
 11 12  1  0  0  0  0
 11 27  1  0  0  0  0
 11 28  1  0  0  0  0
 12 16  1  0  0  0  0
 12 13  1  0  0  0  0
 12 29  1  0  0  0  0
 13 14  1  0  0  0  0
 13 30  1  0  0  0  0
 13 31  1  0  0  0  0
 14 15  1  0  0  0  0
 14 32  1  0  0  0  0
 14 33  1  0  0  0  0
 15 16  1  0  0  0  0
 15 34  1  0  0  0  0
M  END
> <s_m_source_file>
AV-unprocessed.smi

> <i_m_source_file_index>
3148

> <i_lp_mmshare_version>
43012

> <i_f3d_flags>
0

> <s_epik_input>
W0NIM11PYzFbY0hdYyhbQ0gzXSluYyhuMSlbTkhdW0NASF0oW0NIMl1bQ0BASF0yMylbQ0BASF0oTzMpW0NIMl1bQ0gyXTI=

> <s_epik_cmdline>
J2VwaWtfcHl0aG9uJywgJy1waCcsICc3LjAnLCAnLXRuJywgJzgnLCAnLW1hJywgJzIwMCcsICctbWV0YWxfYmluZGluZycsICctaW1hZScsICc8aW5maWxlLm1hZT4nLCAnLW9tYWUnLCAnPG91dGZpbGUubWFlPic=

> <r_lp_tautomer_probability>
1

> <r_epik_Ionization_Penalty>
0.101645

> <r_epik_Ionization_Penalty_Charging>
0

> <r_epik_Ionization_Penalty_Neutral>
0.101645

> <r_epik_State_Penalty>
0.0916212

> <r_epik_Charging_Adjusted_Penalty>
0.0916212

> <i_epik_Tot_Q>
0

> <i_epik_Tot_abs_Q>
0

> <r_epik_Metal_State_Penalty>
0.0781

> <b_epik_Metal_Only>
0

> <s_lp_Force_Field>
OPLS_2005

> <r_lp_Energy>
31.271

> <b_lp_Chiralities_Consistent>
1

> <s_lp_Variant>
AV-unprocessed.smi:3148-4

> <Gold.Version>
5.8.1

> <Gold.Id.Protein>
6NUR|6NUR_protein|mol2

> <Gold.PLP.Fitness>
42.8824

> <Gold.PLP.PLP>
-40.3715

> <Gold.PLP.part.hbond>
-2.1875

> <Gold.PLP.part.metal>
0.0000

> <Gold.PLP.part.buried>
-5.3787

> <Gold.PLP.part.nonpolar>
-33.6806

> <Gold.PLP.part.repulsive>
0.4109

> <Gold.PLP.ligand.clash>
0.0000

> <Gold.PLP.ligand.torsion>
0.2560

> <Gold.PLP.Chemscore.Hbond>
1.0000

> <Gold.PLP.Chemscore.CHOScore>
0.0000

> <Gold.PLP.Chemscore.Metal>
0.0000

> <Gold.Chemscore.Hbonds>
donor molecule, donor type, donor heavy atom, donor atom, acceptor molecule, acceptor atom, score
      L1  H     9    25       P1  8028  1.00

> <Gold.PLP.Chemscore.Internal.Correction>
0.0228

> <Gold.Rescore>
     Score         DG    S(hbond)    S(metal)    S(lipo)     H(rot)  DE(clash)    DE(int)     intcor
     16.80     -17.05       1.00        0.00      97.18       1.22       0.11       0.14       ----

> <Gold.Chemscore.Fitness>
16.7956

> <Gold.Chemscore.DG>
-17.0514

> <Gold.Chemscore.ZeroCoef>
-5.4800

> <Gold.Chemscore.Hbond>
0.9978

> <Gold.Chemscore.Metal>
0.0000

> <Gold.Chemscore.Lipo>
97.1816

> <Gold.Chemscore.Internal_Hbond>
0.0000

> <Gold.Chemscore.DEClash>
0.1113

> <Gold.Chemscore.DEInternal>
0.1446

> <Gold.Chemscore.Rot>
1.2232

> <Gold.Chemscore.Internal.Correction>
   9.000000E+99

> <Gold.Chemscore.Hbonds>
donor molecule, donor type, donor heavy atom, donor atom, acceptor molecule, acceptor atom, score
      L1  H     9    25       P1  8028  1.00

> <Gold.Chemscore.Hbond.Weighted>
-3.3325

> <Gold.Chemscore.Metal.Weighted>
-0.0000

> <Gold.Chemscore.Lipo.Weighted>
-11.3702

> <Gold.Chemscore.Internal_Hbond.Weighted>
0.0000

> <Gold.Chemscore.DEClash.Weighted>
0.1113

> <Gold.Chemscore.DEInternal.Weighted>
0.1446

> <Gold.Chemscore.Rot.Weighted>
3.1314

> <Gold.Chemscore.Internal.Correction.Weighted>
   9.000000E+99

> <Gold.Protein.RotatedTorsions>
[ 6907 6896 6895 6894 ] final  106.14 input  -60.11 | X-H torsion
[ 7974 7965 7964 7962 ] final  -62.38 input  175.53 | X-H torsion
[ 8008 7997 7996 7995 ] final   -5.79 input   59.86 | X-H torsion
[ 10167 10162 10161 10158 ] final  -99.49 input  -65.29 | X-H torsion
[ 10718 10713 10712 10709 ] final -168.22 input   66.30 | X-H torsion
[ 10763 10752 10751 10750 ] final  -54.66 input  -60.55 | X-H torsion
[ 11005 11000 10999 10996 ] final   -6.54 input  -57.11 | X-H torsion

> <Gold.Protein.ActiveResidues>
 VAL166  LYS551  ARG553  GLY616  TRP617  ASP618  TYR619  PRO620  LYS621  CYS622 
 ASP623  PHE694  ASN695  SER759  ASP760  ASP761  ALA762  ILE779  LEU786  VAL792 
 PHE793  MET794  SER795  GLU796  ALA797  LYS798  CYS799  TRP800  GLU811  SER814 

> <Gold.Protein.RotatedAtoms>
  152.5205  133.9425  159.7633 H   0  0  0  0  0  0  0  0  0  0  0  0  # atno 6907 bound_to 6896
  150.9752  133.6294  159.2738 H   0  0  0  0  0  0  0  0  0  0  0  0  # atno 6908 bound_to 6896
  151.3491  135.0886  159.9450 H   0  0  0  0  0  0  0  0  0  0  0  0  # atno 6909 bound_to 6896
  145.7920  140.8704  143.0276 H   0  0  0  0  0  0  0  0  0  0  0  0  # atno 7974 bound_to 7965
  154.6003  140.2449  155.7801 H   0  0  0  0  0  0  0  0  0  0  0  0  # atno 8008 bound_to 7997
  156.2306  140.2968  156.0132 H   0  0  0  0  0  0  0  0  0  0  0  0  # atno 8009 bound_to 7997
  155.2222  140.0401  157.2940 H   0  0  0  0  0  0  0  0  0  0  0  0  # atno 8010 bound_to 7997
  140.2619  143.3401  152.0617 H   0  0  0  0  0  0  0  0  0  0  0  0  # atno 10167 bound_to 10162
  156.6938  130.9170  151.3072 H   0  0  0  0  0  0  0  0  0  0  0  0  # atno 10718 bound_to 10713
  154.1783  135.6447  153.5027 H   0  0  0  0  0  0  0  0  0  0  0  0  # atno 10763 bound_to 10752
  153.0066  135.5400  154.6540 H   0  0  0  0  0  0  0  0  0  0  0  0  # atno 10764 bound_to 10752
  154.5898  135.2933  155.0620 H   0  0  0  0  0  0  0  0  0  0  0  0  # atno 10765 bound_to 10752
  140.7031  133.8973  155.8697 H   0  0  0  0  0  0  0  0  0  0  0  0  # atno 11005 bound_to 11000
  144.6780  140.0137  143.7484 LP  0  0  0  0  0  0  0  0  0  0  0  0  # atno 17320 bound_to 7965
  145.9967  139.3058  143.0952 LP  0  0  0  0  0  0  0  0  0  0  0  0  # atno 17321 bound_to 7965
  139.5014  144.6713  151.6236 LP  0  0  0  0  0  0  0  0  0  0  0  0  # atno 17342 bound_to 10162
  140.5959  143.9697  150.6354 LP  0  0  0  0  0  0  0  0  0  0  0  0  # atno 17343 bound_to 10162
  157.6999  130.9321  150.0753 LP  0  0  0  0  0  0  0  0  0  0  0  0  # atno 17370 bound_to 10713
  156.1778  130.3649  149.9077 LP  0  0  0  0  0  0  0  0  0  0  0  0  # atno 17371 bound_to 10713
  141.0147  134.0971  157.4184 LP  0  0  0  0  0  0  0  0  0  0  0  0  # atno 17394 bound_to 11000
  139.8891  135.0103  156.6662 LP  0  0  0  0  0  0  0  0  0  0  0  0  # atno 17395 bound_to 11000

$$$$
