AV-unprocessed.smi:98|AV-procd|sdf|864|dock10
  -GOLD-   2262017313D 1   1.00000     0.00000
 Structure written by MMmdl.
 56 59  0  0  0  0  0  0  0  0  1 V2000
  147.5051  140.2695  155.3114 O   0  0  0  0  0  0  0  0  0  0  0  0
  147.9393  141.4172  155.2033 C   0  0  0  0  0  0  0  0  0  0  0  0
  149.3976  141.6590  154.7834 C   0  0  0  0  0  0  0  0  0  0  0  0
  150.3790  141.0457  155.7051 N   0  0  0  0  0  0  0  0  0  0  0  0
  151.0576  139.8760  155.2818 C   0  0  0  0  0  0  0  0  0  0  0  0
  150.8478  139.3820  154.1727 O   0  0  0  0  0  0  0  0  0  0  0  0
  152.0031  139.3147  156.2396 C   0  0  0  0  0  0  0  0  0  0  0  0
  152.6688  138.1876  155.9359 F   0  0  0  0  0  0  0  0  0  0  0  0
  152.2176  139.9079  157.4317 C   0  0  0  0  0  0  0  0  0  0  0  0
  151.5804  141.0711  157.8159 N   0  0  0  0  0  0  0  0  0  0  0  0
  151.8612  141.6494  159.1835 C   0  0  1  0  0  0  0  0  0  0  0  0
  152.7445  140.7462  160.0649 C   0  0  0  0  0  0  0  0  0  0  0  0
  153.9297  141.6415  160.3876 C   0  0  0  0  0  0  0  0  0  0  0  0
  153.3746  143.0411  160.1465 C   0  0  0  0  0  0  0  0  0  0  0  0
  152.5226  142.8665  159.0254 O   0  0  0  0  0  0  0  0  0  0  0  0
  150.6177  141.6555  156.9605 C   0  0  0  0  0  0  0  0  0  0  0  0
  150.0034  142.6696  157.2956 O   0  0  0  0  0  0  0  0  0  0  0  0
  147.2148  142.5269  155.4350 N   0  0  0  0  0  0  0  0  0  0  0  0
  145.8516  142.6169  155.8219 C   0  0  0  0  0  0  0  0  0  0  0  0
  145.0371  141.4842  155.6098 C   0  0  0  0  0  0  0  0  0  0  0  0
  143.6817  141.4975  155.9913 C   0  0  0  0  0  0  0  0  0  0  0  0
  143.1413  142.6461  156.6020 C   0  0  0  0  0  0  0  0  0  0  0  0
  141.4206  142.6679  157.0964 S   0  0  0  0  0  0  0  0  0  0  0  0
  140.8497  141.3308  156.8685 O   0  0  0  0  0  0  0  0  0  0  0  0
  141.3260  143.2950  158.4242 O   0  0  0  0  0  0  0  0  0  0  0  0
  140.7145  143.7524  155.9426 N   0  0  0  0  0  0  0  0  0  0  0  0
  141.6051  144.4641  155.0103 C   0  0  0  0  0  0  0  0  0  0  0  0
  140.8687  145.6231  154.3201 C   0  0  0  0  0  0  0  0  0  0  0  0
  139.6764  145.1508  153.7110 O   0  0  0  0  0  0  0  0  0  0  0  0
  138.7719  144.6336  154.6750 C   0  0  0  0  0  0  0  0  0  0  0  0
  139.3919  143.4203  155.3872 C   0  0  0  0  0  0  0  0  0  0  0  0
  143.9484  143.7760  156.8377 C   0  0  0  0  0  0  0  0  0  0  0  0
  145.3024  143.7610  156.4506 C   0  0  0  0  0  0  0  0  0  0  0  0
  149.5210  141.2892  153.7644 H   0  0  0  0  0  0  0  0  0  0  0  0
  149.5772  142.7320  154.6946 H   0  0  0  0  0  0  0  0  0  0  0  0
  152.9251  139.4491  158.1071 H   0  0  0  0  0  0  0  0  0  0  0  0
  150.8870  141.8294  159.6406 H   0  0  0  0  0  0  0  0  0  0  0  0
  152.1880  140.4897  160.9670 H   0  0  0  0  0  0  0  0  0  0  0  0
  153.0328  139.8219  159.5632 H   0  0  0  0  0  0  0  0  0  0  0  0
  154.3039  141.5029  161.4021 H   0  0  0  0  0  0  0  0  0  0  0  0
  154.7497  141.4434  159.6967 H   0  0  0  0  0  0  0  0  0  0  0  0
  152.7884  143.3809  161.0019 H   0  0  0  0  0  0  0  0  0  0  0  0
  154.1550  143.7761  159.9484 H   0  0  0  0  0  0  0  0  0  0  0  0
  147.7213  143.4003  155.4118 H   0  0  0  0  0  0  0  0  0  0  0  0
  145.4487  140.6002  155.1444 H   0  0  0  0  0  0  0  0  0  0  0  0
  143.0658  140.6284  155.8131 H   0  0  0  0  0  0  0  0  0  0  0  0
  142.4751  144.8459  155.5445 H   0  0  0  0  0  0  0  0  0  0  0  0
  141.9701  143.7590  154.2629 H   0  0  0  0  0  0  0  0  0  0  0  0
  140.6379  146.4154  155.0342 H   0  0  0  0  0  0  0  0  0  0  0  0
  141.5051  146.0651  153.5535 H   0  0  0  0  0  0  0  0  0  0  0  0
  138.5056  145.4101  155.3940 H   0  0  0  0  0  0  0  0  0  0  0  0
  137.8500  144.3404  154.1726 H   0  0  0  0  0  0  0  0  0  0  0  0
  139.5022  142.5919  154.6865 H   0  0  0  0  0  0  0  0  0  0  0  0
  138.7279  143.0819  156.1826 H   0  0  0  0  0  0  0  0  0  0  0  0
  143.5356  144.6528  157.3145 H   0  0  0  0  0  0  0  0  0  0  0  0
  145.9082  144.6302  156.6579 H   0  0  0  0  0  0  0  0  0  0  0  0
  1  2  2  0  0  0  0
  2  3  1  0  0  0  0
  2 18  1  0  0  0  0
  3  4  1  0  0  0  0
  3 34  1  0  0  0  0
  3 35  1  0  0  0  0
  4 16  1  0  0  0  0
  4  5  1  0  0  0  0
  5  6  2  0  0  0  0
  5  7  1  0  0  0  0
  7  8  1  0  0  0  0
  7  9  2  0  0  0  0
  9 10  1  0  0  0  0
  9 36  1  0  0  0  0
 10 11  1  0  0  0  0
 10 16  1  0  0  0  0
 11 15  1  0  0  0  0
 11 12  1  0  0  0  0
 11 37  1  0  0  0  0
 12 13  1  0  0  0  0
 12 38  1  0  0  0  0
 12 39  1  0  0  0  0
 13 14  1  0  0  0  0
 13 40  1  0  0  0  0
 13 41  1  0  0  0  0
 14 15  1  0  0  0  0
 14 42  1  0  0  0  0
 14 43  1  0  0  0  0
 16 17  2  0  0  0  0
 18 19  1  0  0  0  0
 18 44  1  0  0  0  0
 19 33  1  0  0  0  0
 19 20  2  0  0  0  0
 20 21  1  0  0  0  0
 20 45  1  0  0  0  0
 21 22  2  0  0  0  0
 21 46  1  0  0  0  0
 22 23  1  0  0  0  0
 22 32  1  0  0  0  0
 23 24  2  0  0  0  0
 23 25  2  0  0  0  0
 23 26  1  0  0  0  0
 26 31  1  0  0  0  0
 26 27  1  0  0  0  0
 27 28  1  0  0  0  0
 27 47  1  0  0  0  0
 27 48  1  0  0  0  0
 28 29  1  0  0  0  0
 28 49  1  0  0  0  0
 28 50  1  0  0  0  0
 29 30  1  0  0  0  0
 30 31  1  0  0  0  0
 30 51  1  0  0  0  0
 30 52  1  0  0  0  0
 31 53  1  0  0  0  0
 31 54  1  0  0  0  0
 32 33  2  0  0  0  0
 32 55  1  0  0  0  0
 33 56  1  0  0  0  0
M  END
> <s_m_source_file>
AV-unprocessed.smi

> <i_m_source_file_index>
98

> <i_lp_mmshare_version>
43012

> <i_f3d_flags>
0

> <s_epik_input>
TzFbQ0gyXVtDSDJdW0NIMl1bQ0BIXTFuKGMyPU8pW2NIXWMoRiljKD1PKW4yW0NIMl1DKD1PKVtOSF1jM1tjSF1bY0hdYyhbY0hdW2NIXTMpUyg9TykoPU8pTjRbQ0gyXVtDSDJdT1tDSDJdW0NIMl00

> <s_epik_cmdline>
J2VwaWtfcHl0aG9uJywgJy1waCcsICc3LjAnLCAnLXRuJywgJzgnLCAnLW1hJywgJzIwMCcsICctbWV0YWxfYmluZGluZycsICctaW1hZScsICc8aW5maWxlLm1hZT4nLCAnLW9tYWUnLCAnPG91dGZpbGUubWFlPic=

> <r_lp_tautomer_probability>
1

> <r_epik_Ionization_Penalty>
1.9271e-06

> <r_epik_Ionization_Penalty_Charging>
3.88729e-08

> <r_epik_Ionization_Penalty_Neutral>
1.88823e-06

> <r_epik_State_Penalty>
-0

> <r_epik_Charging_Adjusted_Penalty>
3.88729e-08

> <i_epik_Tot_Q>
0

> <i_epik_Tot_abs_Q>
0

> <r_epik_Metal_State_Penalty>
-0

> <b_epik_Metal_Only>
0

> <s_epik_Chemistry_Notes>
This compound contains an acetal/aminal-like group ( X-CH(R)-Y where X, Y are N, S, or O) that may be acid/base labile, releasing an aldehyde.

> <s_lp_Force_Field>
OPLS_2005

> <r_lp_Energy>
28.5933

> <b_lp_Chiralities_Consistent>
1

> <s_lp_Variant>
AV-unprocessed.smi:98-2

> <Gold.Version>
5.8.1

> <Gold.Id.Protein>
6NUR|6NUR_protein|mol2

> <Gold.PLP.Fitness>
48.9862

> <Gold.PLP.PLP>
-42.8870

> <Gold.PLP.part.hbond>
-3.0000

> <Gold.PLP.part.metal>
0.0000

> <Gold.PLP.part.buried>
-3.8914

> <Gold.PLP.part.nonpolar>
-37.7378

> <Gold.PLP.part.repulsive>
2.3077

> <Gold.PLP.ligand.clash>
0.0000

> <Gold.PLP.ligand.torsion>
2.6277

> <Gold.PLP.Chemscore.Hbond>
2.4000

> <Gold.PLP.Chemscore.CHOScore>
0.0000

> <Gold.PLP.Chemscore.Metal>
0.0000

> <Gold.Chemscore.Hbonds>
donor molecule, donor type, donor heavy atom, donor atom, acceptor molecule, acceptor atom, score
      L1  H    18    44       P1  8028  1.00
      P1  H  7989  7998       L1     6  0.35
      P1  H 10162 10167       L1    29  1.00

> <Gold.PLP.Chemscore.Internal.Correction>
4.1548

> <Gold.Rescore>
     Score         DG    S(hbond)    S(metal)    S(lipo)     H(rot)  DE(clash)    DE(int)     intcor
     11.17     -16.09       1.66        0.00      79.85       1.67       0.16       4.76       ----

> <Gold.Chemscore.Fitness>
11.1680

> <Gold.Chemscore.DG>
-16.0945

> <Gold.Chemscore.ZeroCoef>
-5.4800

> <Gold.Chemscore.Hbond>
1.6644

> <Gold.Chemscore.Metal>
0.0000

> <Gold.Chemscore.Lipo>
79.8462

> <Gold.Chemscore.Internal_Hbond>
0.0000

> <Gold.Chemscore.DEClash>
0.1625

> <Gold.Chemscore.DEInternal>
4.7640

> <Gold.Chemscore.Rot>
1.6744

> <Gold.Chemscore.Internal.Correction>
   9.000000E+99

> <Gold.Chemscore.Hbonds>
donor molecule, donor type, donor heavy atom, donor atom, acceptor molecule, acceptor atom, score
      L1  H    18    44       P1  8028  0.26
      P1  H  7989  7998       L1     6  0.01
      P1  H 10162 10167       L1    29  0.73

> <Gold.Chemscore.Hbond.Weighted>
-5.5589

> <Gold.Chemscore.Metal.Weighted>
-0.0000

> <Gold.Chemscore.Lipo.Weighted>
-9.3420

> <Gold.Chemscore.Internal_Hbond.Weighted>
0.0000

> <Gold.Chemscore.DEClash.Weighted>
0.1625

> <Gold.Chemscore.DEInternal.Weighted>
4.7640

> <Gold.Chemscore.Rot.Weighted>
4.2865

> <Gold.Chemscore.Internal.Correction.Weighted>
   9.000000E+99

> <Gold.Protein.RotatedTorsions>
[ 6907 6896 6895 6894 ] final -109.29 input  -60.11 | X-H torsion
[ 7974 7965 7964 7962 ] final   71.94 input  175.53 | X-H torsion
[ 8008 7997 7996 7995 ] final  -29.25 input   59.86 | X-H torsion
[ 10167 10162 10161 10158 ] final -170.47 input  -65.29 | X-H torsion
[ 10718 10713 10712 10709 ] final   42.80 input   66.30 | X-H torsion
[ 10763 10752 10751 10750 ] final   98.62 input  -60.55 | X-H torsion
[ 11005 11000 10999 10996 ] final  -79.58 input  -57.11 | X-H torsion

> <Gold.Protein.ActiveResidues>
 VAL166  LYS551  ARG553  GLY616  TRP617  ASP618  TYR619  PRO620  LYS621  CYS622 
 ASP623  PHE694  ASN695  SER759  ASP760  ASP761  ALA762  ILE779  LEU786  VAL792 
 PHE793  MET794  SER795  GLU796  ALA797  LYS798  CYS799  TRP800  GLU811  SER814 

> <Gold.Protein.RotatedAtoms>
  150.7553  133.9551  159.3497 H   0  0  0  0  0  0  0  0  0  0  0  0  # atno 6907 bound_to 6896
  151.7472  135.0839  160.0334 H   0  0  0  0  0  0  0  0  0  0  0  0  # atno 6908 bound_to 6896
  152.3490  133.6120  159.5967 H   0  0  0  0  0  0  0  0  0  0  0  0  # atno 6909 bound_to 6896
  145.7596  139.2795  143.1384 H   0  0  0  0  0  0  0  0  0  0  0  0  # atno 7974 bound_to 7965
  154.4298  140.1823  156.1218 H   0  0  0  0  0  0  0  0  0  0  0  0  # atno 8008 bound_to 7997
  156.0137  140.3348  155.6941 H   0  0  0  0  0  0  0  0  0  0  0  0  # atno 8009 bound_to 7997
  155.6075  140.0646  157.2706 H   0  0  0  0  0  0  0  0  0  0  0  0  # atno 8010 bound_to 7997
  139.5860  144.1318  152.1575 H   0  0  0  0  0  0  0  0  0  0  0  0  # atno 10167 bound_to 10162
  157.4088  130.7902  149.7412 H   0  0  0  0  0  0  0  0  0  0  0  0  # atno 10718 bound_to 10713
  153.2913  135.4142  155.1169 H   0  0  0  0  0  0  0  0  0  0  0  0  # atno 10763 bound_to 10752
  154.8521  135.3519  154.5977 H   0  0  0  0  0  0  0  0  0  0  0  0  # atno 10764 bound_to 10752
  153.6400  135.7057  153.5303 H   0  0  0  0  0  0  0  0  0  0  0  0  # atno 10765 bound_to 10752
  141.1667  133.7112  156.8144 H   0  0  0  0  0  0  0  0  0  0  0  0  # atno 11005 bound_to 11000
  146.0277  140.8287  142.9891 LP  0  0  0  0  0  0  0  0  0  0  0  0  # atno 17320 bound_to 7965
  144.6833  140.2723  143.7304 LP  0  0  0  0  0  0  0  0  0  0  0  0  # atno 17321 bound_to 7965
  140.0882  144.5643  150.7074 LP  0  0  0  0  0  0  0  0  0  0  0  0  # atno 17342 bound_to 10162
  140.7131  143.2522  151.4518 LP  0  0  0  0  0  0  0  0  0  0  0  0  # atno 17343 bound_to 10162
  155.9844  130.3991  150.3312 LP  0  0  0  0  0  0  0  0  0  0  0  0  # atno 17370 bound_to 10713
  157.1447  131.0305  151.2912 LP  0  0  0  0  0  0  0  0  0  0  0  0  # atno 17371 bound_to 10713
  140.2164  134.8789  157.3330 LP  0  0  0  0  0  0  0  0  0  0  0  0  # atno 17394 bound_to 11000
  140.2033  134.4228  155.7651 LP  0  0  0  0  0  0  0  0  0  0  0  0  # atno 17395 bound_to 11000

$$$$
