AV-unprocessed.smi:1006|AV-procd|sdf|4397|dock5
  -GOLD-   22720 2333D 1   1.00000     0.00000
 Structure written by MMmdl.
 47 49  0  0  0  0  0  0  0  0  3 V2000
  146.9512  139.1477  152.7511 C   0  0  0  0  0  0  0  0  0  0  0  0
  148.2303  139.5830  153.4343 C   0  0  0  0  0  0  0  0  0  0  0  0
  148.3744  140.8638  154.0060 C   0  0  0  0  0  0  0  0  0  0  0  0
  149.6102  141.1535  154.6101 C   0  0  0  0  0  0  0  0  0  0  0  0
  149.8443  142.3925  155.2009 N   0  0  0  0  0  0  0  0  0  0  0  0
  150.6090  140.2491  154.6397 N   0  0  0  0  0  0  0  0  0  0  0  0
  150.4067  139.0506  154.0761 C   0  0  0  0  0  0  0  0  0  0  0  0
  151.7104  137.8320  154.0980 S   0  0  0  0  0  0  0  0  0  0  0  0
  151.6182  137.1712  155.7921 C   0  0  0  0  0  0  0  0  0  0  0  0
  152.5634  137.9119  156.7524 C   0  0  1  0  0  0  0  0  0  0  0  0
  153.8447  138.0108  156.1602 O   0  0  0  0  0  0  0  0  0  0  0  0
  152.0395  139.3169  157.1086 C   0  0  0  0  0  0  0  0  0  0  0  0
  152.6285  139.8478  158.3470 N   0  0  0  0  0  0  0  0  0  0  0  0
  153.4148  139.2267  159.2680 C   0  0  0  0  0  0  0  0  0  0  0  0
  153.7084  140.1353  160.2384 N   0  3  0  0  0  0  0  0  0  0  0  0
  153.1014  141.3552  159.9336 C   0  0  0  0  0  0  0  0  0  0  0  0
  153.1087  142.5686  160.6114 C   0  0  0  0  0  0  0  0  0  0  0  0
  152.3876  143.6360  160.0310 C   0  0  0  0  0  0  0  0  0  0  0  0
  152.3759  144.9768  160.7455 C   0  0  0  0  0  0  0  0  0  0  0  0
  151.6897  143.4652  158.8075 C   0  0  0  0  0  0  0  0  0  0  0  0
  150.9214  144.6214  158.1897 C   0  0  0  0  0  0  0  0  0  0  0  0
  151.6928  142.2223  158.1347 C   0  0  0  0  0  0  0  0  0  0  0  0
  152.4073  141.1795  158.7204 C   0  0  0  0  0  0  0  0  0  0  0  0
  149.2576  138.6980  153.4818 N   0  3  0  0  0  0  0  0  0  0  0  0
  146.1291  139.8220  152.9934 H   0  0  0  0  0  0  0  0  0  0  0  0
  146.6691  138.1428  153.0671 H   0  0  0  0  0  0  0  0  0  0  0  0
  147.0832  139.1448  151.6689 H   0  0  0  0  0  0  0  0  0  0  0  0
  147.5727  141.5881  153.9804 H   0  0  0  0  0  0  0  0  0  0  0  0
  149.1396  143.1159  155.2138 H   0  0  0  0  0  0  0  0  0  0  0  0
  150.7313  142.6115  155.6317 H   0  0  0  0  0  0  0  0  0  0  0  0
  150.5903  137.2348  156.1519 H   0  0  0  0  0  0  0  0  0  0  0  0
  151.8839  136.1140  155.7605 H   0  0  0  0  0  0  0  0  0  0  0  0
  152.6639  137.3316  157.6707 H   0  0  0  0  0  0  0  0  0  0  0  0
  153.7566  137.8897  155.2273 H   0  0  0  0  0  0  0  0  0  0  0  0
  152.2068  140.0227  156.2947 H   0  0  0  0  0  0  0  0  0  0  0  0
  150.9600  139.2804  157.2610 H   0  0  0  0  0  0  0  0  0  0  0  0
  153.7471  138.1992  159.2350 H   0  0  0  0  0  0  0  0  0  0  0  0
  153.6442  142.6916  161.5416 H   0  0  0  0  0  0  0  0  0  0  0  0
  151.3553  145.2718  160.9912 H   0  0  0  0  0  0  0  0  0  0  0  0
  152.8188  145.7494  160.1164 H   0  0  0  0  0  0  0  0  0  0  0  0
  152.9437  144.9381  161.6755 H   0  0  0  0  0  0  0  0  0  0  0  0
  150.4487  144.3309  157.2510 H   0  0  0  0  0  0  0  0  0  0  0  0
  151.5898  145.4569  157.9805 H   0  0  0  0  0  0  0  0  0  0  0  0
  150.1375  144.9647  158.8651 H   0  0  0  0  0  0  0  0  0  0  0  0
  151.1634  142.0966  157.2022 H   0  0  0  0  0  0  0  0  0  0  0  0
  149.1496  137.7727  153.0657 H   0  0  0  0  0  0  0  0  0  0  0  0
  154.2827  139.9353  161.0473 H   0  0  0  0  0  0  0  0  0  0  0  0
  1  2  1  0  0  0  0
  1 25  1  0  0  0  0
  1 26  1  0  0  0  0
  1 27  1  0  0  0  0
  2 24  1  0  0  0  0
  2  3  2  0  0  0  0
  3  4  1  0  0  0  0
  3 28  1  0  0  0  0
  4  5  1  0  0  0  0
  4  6  2  0  0  0  0
  5 29  1  0  0  0  0
  5 30  1  0  0  0  0
  6  7  1  0  0  0  0
  7  8  1  0  0  0  0
  7 24  2  0  0  0  0
  8  9  1  0  0  0  0
  9 10  1  0  0  0  0
  9 31  1  0  0  0  0
  9 32  1  0  0  0  0
 10 11  1  0  0  0  0
 10 12  1  0  0  0  0
 10 33  1  0  0  0  0
 11 34  1  0  0  0  0
 12 13  1  0  0  0  0
 12 35  1  0  0  0  0
 12 36  1  0  0  0  0
 13 23  1  0  0  0  0
 13 14  1  0  0  0  0
 14 15  2  0  0  0  0
 14 37  1  0  0  0  0
 15 16  1  0  0  0  0
 15 47  1  0  0  0  0
 16 23  2  0  0  0  0
 16 17  1  0  0  0  0
 17 18  2  0  0  0  0
 17 38  1  0  0  0  0
 18 19  1  0  0  0  0
 18 20  1  0  0  0  0
 19 39  1  0  0  0  0
 19 40  1  0  0  0  0
 19 41  1  0  0  0  0
 20 21  1  0  0  0  0
 20 22  2  0  0  0  0
 21 42  1  0  0  0  0
 21 43  1  0  0  0  0
 21 44  1  0  0  0  0
 22 23  1  0  0  0  0
 22 45  1  0  0  0  0
 24 46  1  0  0  0  0
M  CHG  1  15   1
M  CHG  1  24   1
M  END
> <s_m_source_file>
AV-unprocessed.smi

> <i_m_source_file_index>
1006

> <i_lp_mmshare_version>
43012

> <i_f3d_flags>
0

> <s_epik_input>
W0NIM11jMVtjSF1jKFtOSDJdKW5jKG4xKVNbQ0gyXVtDQEhdKFtPSF0pW0NIMl1uKFtjSF1uMiljKGMyMylbY0hdYyhbQ0gzXSljKFtjSF0zKVtDSDNd

> <s_epik_cmdline>
J2VwaWtfcHl0aG9uJywgJy1waCcsICc3LjAnLCAnLXRuJywgJzgnLCAnLW1hJywgJzIwMCcsICctbWV0YWxfYmluZGluZycsICctaW1hZScsICc8aW5maWxlLm1hZT4nLCAnLW9tYWUnLCAnPG91dGZpbGUubWFlPic=

> <r_lp_tautomer_probability>
0.999762

> <r_epik_Ionization_Penalty>
1.50932

> <r_epik_Ionization_Penalty_Charging>
1.50929

> <r_epik_Ionization_Penalty_Neutral>
3.48853e-05

> <r_epik_State_Penalty>
1.56619

> <r_epik_Charging_Adjusted_Penalty>
3.07548

> <i_epik_Tot_Q>
2

> <i_epik_Tot_abs_Q>
2

> <r_epik_Metal_State_Penalty>
1.82892

> <b_epik_Metal_Only>
0

> <s_lp_Force_Field>
OPLS_2005

> <r_lp_Energy>
17.0634

> <b_lp_Chiralities_Consistent>
1

> <s_lp_Variant>
AV-unprocessed.smi:1006-8

> <Gold.Version>
5.8.1

> <Gold.Id.Protein>
6NUR|6NUR_protein|mol2

> <Gold.PLP.Fitness>
59.8367

> <Gold.PLP.PLP>
-49.1480

> <Gold.PLP.part.hbond>
-5.0000

> <Gold.PLP.part.metal>
0.0000

> <Gold.PLP.part.buried>
-2.5118

> <Gold.PLP.part.nonpolar>
-41.5459

> <Gold.PLP.part.repulsive>
0.4174

> <Gold.PLP.ligand.clash>
0.0000

> <Gold.PLP.ligand.torsion>
0.8094

> <Gold.PLP.Chemscore.Hbond>
4.0826

> <Gold.PLP.Chemscore.CHOScore>
0.0000

> <Gold.PLP.Chemscore.Metal>
0.0000

> <Gold.Chemscore.Hbonds>
donor molecule, donor type, donor heavy atom, donor atom, acceptor molecule, acceptor atom, score
      L1  H     5    29       P1  8028  0.86
      L1  H    24    46       P1  7948  2.00
      P1  H  7989  7998       L1     6  0.90
      P1  H  7997  8010       L1    11  0.40

> <Gold.PLP.Chemscore.Internal.Correction>
0.0599

> <Gold.Rescore>
     Score         DG    S(hbond)    S(metal)    S(lipo)     H(rot)  DE(clash)    DE(int)     intcor
     16.66     -18.67       1.92        0.00     122.75       2.96       0.11       1.90       ----

> <Gold.Chemscore.Fitness>
16.6595

> <Gold.Chemscore.DG>
-18.6683

> <Gold.Chemscore.ZeroCoef>
-5.4800

> <Gold.Chemscore.Hbond>
1.9174

> <Gold.Chemscore.Metal>
0.0000

> <Gold.Chemscore.Lipo>
122.7460

> <Gold.Chemscore.Internal_Hbond>
0.0000

> <Gold.Chemscore.DEClash>
0.1103

> <Gold.Chemscore.DEInternal>
1.8985

> <Gold.Chemscore.Rot>
2.9599

> <Gold.Chemscore.Internal.Correction>
   9.000000E+99

> <Gold.Chemscore.Hbonds>
donor molecule, donor type, donor heavy atom, donor atom, acceptor molecule, acceptor atom, score
      L1  H     5    29       P1  8028  0.85
      L1  H    24    46       P1  7948  0.99
      P1  H  7989  7998       L1     6  0.05
      P1  H  7997  8010       L1    11  0.09

> <Gold.Chemscore.Hbond.Weighted>
-6.4043

> <Gold.Chemscore.Metal.Weighted>
-0.0000

> <Gold.Chemscore.Lipo.Weighted>
-14.3613

> <Gold.Chemscore.Internal_Hbond.Weighted>
0.0000

> <Gold.Chemscore.DEClash.Weighted>
0.1103

> <Gold.Chemscore.DEInternal.Weighted>
1.8985

> <Gold.Chemscore.Rot.Weighted>
7.5772

> <Gold.Chemscore.Internal.Correction.Weighted>
   9.000000E+99

> <Gold.Protein.RotatedTorsions>
[ 6907 6896 6895 6894 ] final -120.12 input  -60.11 | X-H torsion
[ 7974 7965 7964 7962 ] final   26.04 input  175.53 | X-H torsion
[ 8008 7997 7996 7995 ] final   72.02 input   59.86 | X-H torsion
[ 10167 10162 10161 10158 ] final   77.04 input  -65.29 | X-H torsion
[ 10718 10713 10712 10709 ] final  156.79 input   66.30 | X-H torsion
[ 10763 10752 10751 10750 ] final   90.00 input  -60.55 | X-H torsion
[ 11005 11000 10999 10996 ] final  173.35 input  -57.11 | X-H torsion

> <Gold.Protein.ActiveResidues>
 VAL166  LYS551  ARG553  GLY616  TRP617  ASP618  TYR619  PRO620  LYS621  CYS622 
 ASP623  PHE694  ASN695  SER759  ASP760  ASP761  ALA762  ILE779  LEU786  VAL792 
 PHE793  MET794  SER795  GLU796  ALA797  LYS798  CYS799  TRP800  GLU811  SER814 

> <Gold.Protein.RotatedAtoms>
  150.8365  133.8006  159.3077 H   0  0  0  0  0  0  0  0  0  0  0  0  # atno 6907 bound_to 6896
  151.5720  135.1060  160.0007 H   0  0  0  0  0  0  0  0  0  0  0  0  # atno 6908 bound_to 6896
  152.4436  133.7452  159.6719 H   0  0  0  0  0  0  0  0  0  0  0  0  # atno 6909 bound_to 6896
  146.1858  139.7383  142.8868 H   0  0  0  0  0  0  0  0  0  0  0  0  # atno 7974 bound_to 7965
  155.7626  140.3486  155.5206 H   0  0  0  0  0  0  0  0  0  0  0  0  # atno 8008 bound_to 7997
  155.8899  140.1016  157.1447 H   0  0  0  0  0  0  0  0  0  0  0  0  # atno 8009 bound_to 7997
  154.4032  140.1306  156.4290 H   0  0  0  0  0  0  0  0  0  0  0  0  # atno 8010 bound_to 7997
  139.9858  144.5793  150.7861 H   0  0  0  0  0  0  0  0  0  0  0  0  # atno 10167 bound_to 10162
  157.2002  131.0674  151.2029 H   0  0  0  0  0  0  0  0  0  0  0  0  # atno 10718 bound_to 10713
  153.1930  135.4449  155.0173 H   0  0  0  0  0  0  0  0  0  0  0  0  # atno 10763 bound_to 10752
  154.8102  135.3291  154.7328 H   0  0  0  0  0  0  0  0  0  0  0  0  # atno 10764 bound_to 10752
  153.7780  135.6979  153.4949 H   0  0  0  0  0  0  0  0  0  0  0  0  # atno 10765 bound_to 10752
  140.3395  134.7288  157.4192 H   0  0  0  0  0  0  0  0  0  0  0  0  # atno 11005 bound_to 11000
  145.3943  141.0376  143.3106 LP  0  0  0  0  0  0  0  0  0  0  0  0  # atno 17320 bound_to 7965
  144.8395  139.5496  143.6907 LP  0  0  0  0  0  0  0  0  0  0  0  0  # atno 17321 bound_to 7965
  140.7473  143.2904  151.3347 LP  0  0  0  0  0  0  0  0  0  0  0  0  # atno 17342 bound_to 10162
  139.6376  144.0600  152.2528 LP  0  0  0  0  0  0  0  0  0  0  0  0  # atno 17343 bound_to 10162
  157.3774  130.7213  149.6606 LP  0  0  0  0  0  0  0  0  0  0  0  0  # atno 17370 bound_to 10713
  155.9701  130.4182  150.4315 LP  0  0  0  0  0  0  0  0  0  0  0  0  # atno 17371 bound_to 10713
  140.0793  134.5754  155.8558 LP  0  0  0  0  0  0  0  0  0  0  0  0  # atno 17394 bound_to 11000
  141.2042  133.6637  156.6108 LP  0  0  0  0  0  0  0  0  0  0  0  0  # atno 17395 bound_to 11000

$$$$
