AV-unprocessed.smi:1417|AV-procd|sdf|5771|dock1
  -GOLD-   22720 5413D 1   1.00000     0.00000
 Structure written by MMmdl.
 39 40  0  0  0  0  0  0  0  0  3 V2000
  153.1932  142.2892  161.3193 C   0  0  0  0  0  0  0  0  0  0  0  0
  152.9913  141.4020  160.1391 C   0  0  0  0  0  0  0  0  0  0  0  0
  151.9318  141.1972  159.3010 C   0  0  0  0  0  0  0  0  0  0  0  0
  152.4270  140.2149  158.3945 C   0  0  0  0  0  0  0  0  0  0  0  0
  151.7182  139.6380  157.3091 N   0  0  0  0  0  0  0  0  0  0  0  0
  150.3902  139.5927  157.1097 C   0  0  0  0  0  0  0  0  0  0  0  0
  149.5400  140.0830  157.8525 O   0  0  0  0  0  0  0  0  0  0  0  0
  150.0903  138.9315  155.9819 N   0  0  0  0  0  0  0  0  0  0  0  0
  148.7381  138.6832  155.4895 C   0  0  2  0  0  0  0  0  0  0  0  0
  148.4226  137.1760  155.4921 C   0  0  0  0  0  0  0  0  0  0  0  0
  147.0425  136.8940  154.8767 C   0  0  0  0  0  0  0  0  0  0  0  0
  146.9448  137.4483  153.4997 N   0  3  1  0  0  0  0  0  0  0  0  0
  145.6774  137.0910  152.8155 C   0  0  0  0  0  0  0  0  0  0  0  0
  145.9605  136.6500  151.3754 C   0  0  0  0  0  0  0  0  0  0  0  0
  146.4211  137.6573  150.6099 N   0  5  0  0  0  0  0  0  0  0  0  0
  145.7447  135.4862  151.0431 O   0  0  0  0  0  0  0  0  0  0  0  0
  147.2049  138.9099  153.4801 C   0  0  0  0  0  0  0  0  0  0  0  0
  148.5909  139.2354  154.0627 C   0  0  0  0  0  0  0  0  0  0  0  0
  153.6706  139.8594  158.6596 N   0  0  0  0  0  0  0  0  0  0  0  0
  154.0411  140.6167  159.7768 O   0  0  0  0  0  0  0  0  0  0  0  0
  152.2388  142.6563  161.6975 H   0  0  0  0  0  0  0  0  0  0  0  0
  153.8058  143.1507  161.0539 H   0  0  0  0  0  0  0  0  0  0  0  0
  153.6924  141.7541  162.1271 H   0  0  0  0  0  0  0  0  0  0  0  0
  150.9677  141.6805  159.3457 H   0  0  0  0  0  0  0  0  0  0  0  0
  152.2935  139.1952  156.6080 H   0  0  0  0  0  0  0  0  0  0  0  0
  150.8512  138.5646  155.4291 H   0  0  0  0  0  0  0  0  0  0  0  0
  148.0230  139.1996  156.1329 H   0  0  0  0  0  0  0  0  0  0  0  0
  149.1862  136.6359  154.9302 H   0  0  0  0  0  0  0  0  0  0  0  0
  148.4537  136.7846  156.5094 H   0  0  0  0  0  0  0  0  0  0  0  0
  146.8748  135.8167  154.8636 H   0  0  0  0  0  0  0  0  0  0  0  0
  146.2586  137.3260  155.5008 H   0  0  0  0  0  0  0  0  0  0  0  0
  145.1319  136.3392  153.3904 H   0  0  0  0  0  0  0  0  0  0  0  0
  145.0269  137.9646  152.7542 H   0  0  0  0  0  0  0  0  0  0  0  0
  145.7455  138.3142  150.2008 H   0  0  0  0  0  0  0  0  0  0  0  0
  147.1535  139.2794  152.4551 H   0  0  0  0  0  0  0  0  0  0  0  0
  146.4265  139.4264  154.0439 H   0  0  0  0  0  0  0  0  0  0  0  0
  148.7461  140.3150  154.0609 H   0  0  0  0  0  0  0  0  0  0  0  0
  149.3619  138.8106  153.4178 H   0  0  0  0  0  0  0  0  0  0  0  0
  147.6800  137.0192  152.9558 H   0  0  0  0  0  0  0  0  0  0  0  0
  1  2  1  0  0  0  0
  1 21  1  0  0  0  0
  1 22  1  0  0  0  0
  1 23  1  0  0  0  0
  2 20  1  0  0  0  0
  2  3  2  0  0  0  0
  3  4  1  0  0  0  0
  3 24  1  0  0  0  0
  4  5  1  0  0  0  0
  4 19  2  0  0  0  0
  5  6  1  0  0  0  0
  5 25  1  0  0  0  0
  6  7  2  0  0  0  0
  6  8  1  0  0  0  0
  8  9  1  0  0  0  0
  8 26  1  0  0  0  0
  9 18  1  0  0  0  0
  9 10  1  0  0  0  0
  9 27  1  0  0  0  0
 10 11  1  0  0  0  0
 10 28  1  0  0  0  0
 10 29  1  0  0  0  0
 11 12  1  0  0  0  0
 11 30  1  0  0  0  0
 11 31  1  0  0  0  0
 12 13  1  0  0  0  0
 12 17  1  0  0  0  0
 12 39  1  0  0  0  0
 13 14  1  0  0  0  0
 13 32  1  0  0  0  0
 13 33  1  0  0  0  0
 14 15  1  0  0  0  0
 14 16  2  0  0  0  0
 15 34  1  0  0  0  0
 17 18  1  0  0  0  0
 17 35  1  0  0  0  0
 17 36  1  0  0  0  0
 18 37  1  0  0  0  0
 18 38  1  0  0  0  0
 19 20  1  0  0  0  0
M  CHG  1  12   1
M  CHG  1  15  -1
M  END
> <s_m_source_file>
AV-unprocessed.smi

> <i_m_source_file_index>
1417

> <i_lp_mmshare_version>
43012

> <i_f3d_flags>
0

> <s_epik_input>
W0NIM11jMVtjSF1jKG5vMSlbTkhdQyg9TylbTkhdW0NIXTJbQ0gyXVtDSDJdTihbQ0gyXVtDSDJdMilbQ0gyXUMoPU8pW05IMl0=

> <s_epik_cmdline>
J2VwaWtfcHl0aG9uJywgJy1waCcsICc3LjAnLCAnLXRuJywgJzgnLCAnLW1hJywgJzIwMCcsICctbWV0YWxfYmluZGluZycsICctaW1hZScsICc8aW5maWxlLm1hZT4nLCAnLW9tYWUnLCAnPG91dGZpbGUubWFlPic=

> <r_epik_Ionization_Penalty>
5.73218

> <r_epik_Ionization_Penalty_Charging>
5.73215

> <r_epik_Ionization_Penalty_Neutral>
3.37968e-05

> <r_epik_State_Penalty>
6.58009

> <r_epik_Charging_Adjusted_Penalty>
12.3122

> <i_epik_Tot_Q>
0

> <i_epik_Tot_abs_Q>
2

> <r_epik_Metal_State_Penalty>
2.55295

> <b_epik_Metal_Only>
1

> <s_lp_Force_Field>
OPLS_2005

> <r_lp_Energy>
6.84109

> <b_lp_Chiralities_Consistent>
1

> <s_lp_Variant>
AV-unprocessed.smi:1417-7

> <Gold.Version>
5.8.1

> <Gold.Id.Protein>
6NUR|6NUR_protein|mol2

> <Gold.PLP.Fitness>
39.1186

> <Gold.PLP.PLP>
-25.7935

> <Gold.PLP.part.hbond>
-4.8623

> <Gold.PLP.part.metal>
0.0000

> <Gold.PLP.part.buried>
-2.9509

> <Gold.PLP.part.nonpolar>
-18.3428

> <Gold.PLP.part.repulsive>
0.3318

> <Gold.PLP.ligand.clash>
0.0000

> <Gold.PLP.ligand.torsion>
0.7207

> <Gold.PLP.Chemscore.Hbond>
4.9120

> <Gold.PLP.Chemscore.CHOScore>
0.0000

> <Gold.PLP.Chemscore.Metal>
0.0000

> <Gold.Chemscore.Hbonds>
donor molecule, donor type, donor heavy atom, donor atom, acceptor molecule, acceptor atom, score
      L1  H    12    39       P1  7948  2.00
      L1  H    15    34       P1 10171  0.90
      P1  H  7954  7966       L1    15  0.99
      P1  H  7997  8009       L1    19  1.00

> <Gold.PLP.Chemscore.Internal.Correction>
0.0305

> <Gold.Rescore>
     Score         DG    S(hbond)    S(metal)    S(lipo)     H(rot)  DE(clash)    DE(int)     intcor
     15.78     -18.29       3.65        0.00      49.49       2.02       0.72       1.80       ----

> <Gold.Chemscore.Fitness>
15.7780

> <Gold.Chemscore.DG>
-18.2948

> <Gold.Chemscore.ZeroCoef>
-5.4800

> <Gold.Chemscore.Hbond>
3.6495

> <Gold.Chemscore.Metal>
0.0000

> <Gold.Chemscore.Lipo>
49.4911

> <Gold.Chemscore.Internal_Hbond>
0.0000

> <Gold.Chemscore.DEClash>
0.7190

> <Gold.Chemscore.DEInternal>
1.7978

> <Gold.Chemscore.Rot>
2.0176

> <Gold.Chemscore.Internal.Correction>
   9.000000E+99

> <Gold.Chemscore.Hbonds>
donor molecule, donor type, donor heavy atom, donor atom, acceptor molecule, acceptor atom, score
      L1  H    12    39       P1  7948  1.00
      L1  H    15    34       P1 10171  0.88
      P1  H  7954  7966       L1    15  0.77
      P1  H  7997  8009       L1    19  0.74

> <Gold.Chemscore.Hbond.Weighted>
-12.1894

> <Gold.Chemscore.Metal.Weighted>
-0.0000

> <Gold.Chemscore.Lipo.Weighted>
-5.7905

> <Gold.Chemscore.Internal_Hbond.Weighted>
0.0000

> <Gold.Chemscore.DEClash.Weighted>
0.7190

> <Gold.Chemscore.DEInternal.Weighted>
1.7978

> <Gold.Chemscore.Rot.Weighted>
5.1651

> <Gold.Chemscore.Internal.Correction.Weighted>
   9.000000E+99

> <Gold.Protein.RotatedTorsions>
[ 6907 6896 6895 6894 ] final  -46.40 input  -60.11 | X-H torsion
[ 7974 7965 7964 7962 ] final  -81.75 input  175.53 | X-H torsion
[ 8008 7997 7996 7995 ] final  133.28 input   59.86 | X-H torsion
[ 10167 10162 10161 10158 ] final  159.60 input  -65.29 | X-H torsion
[ 10718 10713 10712 10709 ] final  -44.25 input   66.30 | X-H torsion
[ 10763 10752 10751 10750 ] final  -35.58 input  -60.55 | X-H torsion
[ 11005 11000 10999 10996 ] final  -37.20 input  -57.11 | X-H torsion

> <Gold.Protein.ActiveResidues>
 VAL166  LYS551  ARG553  GLY616  TRP617  ASP618  TYR619  PRO620  LYS621  CYS622 
 ASP623  PHE694  ASN695  SER759  ASP760  ASP761  ALA762  ILE779  LEU786  VAL792 
 PHE793  MET794  SER795  GLU796  ALA797  LYS798  CYS799  TRP800  GLU811  SER814 

> <Gold.Protein.RotatedAtoms>
  150.9116  134.8533  159.7428 H   0  0  0  0  0  0  0  0  0  0  0  0  # atno 6907 bound_to 6896
  152.4947  134.4351  159.9535 H   0  0  0  0  0  0  0  0  0  0  0  0  # atno 6908 bound_to 6896
  151.4392  133.3608  159.2814 H   0  0  0  0  0  0  0  0  0  0  0  0  # atno 6909 bound_to 6896
  145.5425  140.9508  143.1543 H   0  0  0  0  0  0  0  0  0  0  0  0  # atno 7974 bound_to 7965
  156.2991  140.2525  156.3227 H   0  0  0  0  0  0  0  0  0  0  0  0  # atno 8008 bound_to 7997
  154.9220  140.0400  157.2022 H   0  0  0  0  0  0  0  0  0  0  0  0  # atno 8009 bound_to 7997
  154.8301  140.2874  155.5732 H   0  0  0  0  0  0  0  0  0  0  0  0  # atno 8010 bound_to 7997
  139.4833  144.4714  151.8570 H   0  0  0  0  0  0  0  0  0  0  0  0  # atno 10167 bound_to 10162
  156.2406  130.4179  149.8766 H   0  0  0  0  0  0  0  0  0  0  0  0  # atno 10718 bound_to 10713
  153.8656  135.6836  153.4779 H   0  0  0  0  0  0  0  0  0  0  0  0  # atno 10763 bound_to 10752
  153.1316  135.4695  154.9356 H   0  0  0  0  0  0  0  0  0  0  0  0  # atno 10764 bound_to 10752
  154.7738  135.3247  154.8084 H   0  0  0  0  0  0  0  0  0  0  0  0  # atno 10765 bound_to 10752
  140.9933  133.6993  156.1890 H   0  0  0  0  0  0  0  0  0  0  0  0  # atno 11005 bound_to 11000
  144.7570  139.7050  143.7250 LP  0  0  0  0  0  0  0  0  0  0  0  0  # atno 17320 bound_to 7965
  146.1971  139.5244  142.9767 LP  0  0  0  0  0  0  0  0  0  0  0  0  # atno 17321 bound_to 7965
  140.4184  144.2277  150.5887 LP  0  0  0  0  0  0  0  0  0  0  0  0  # atno 17342 bound_to 10162
  140.4898  143.2351  151.8835 LP  0  0  0  0  0  0  0  0  0  0  0  0  # atno 17343 bound_to 10162
  156.6349  130.8681  151.3502 LP  0  0  0  0  0  0  0  0  0  0  0  0  # atno 17370 bound_to 10713
  157.7173  130.9514  150.1304 LP  0  0  0  0  0  0  0  0  0  0  0  0  # atno 17371 bound_to 10713
  140.7005  134.4569  157.5586 LP  0  0  0  0  0  0  0  0  0  0  0  0  # atno 17394 bound_to 11000
  139.9003  134.8572  156.1926 LP  0  0  0  0  0  0  0  0  0  0  0  0  # atno 17395 bound_to 11000

$$$$
