AV-unprocessed.smi:3117|AV-procd|sdf|11884|dock4
  -GOLD-   2272017273D 1   1.00000     0.00000
 Structure written by MMmdl.
 36 36  0  0  0  0  0  0  0  0  1 V2000
  152.4471  138.5234  159.5166 C   0  0  0  0  0  0  0  0  0  0  0  0
  151.8722  139.8383  158.9575 C   0  0  2  0  0  0  0  0  0  0  0  0
  152.0946  139.8527  157.5088 N   0  0  0  0  0  0  0  0  0  0  0  0
  151.4380  138.7710  156.7712 C   0  0  0  0  0  0  0  0  0  0  0  0
  151.6114  138.9214  155.2455 C   0  0  0  0  0  0  0  0  0  0  0  0
  153.0933  138.9686  154.8325 C   0  0  0  0  0  0  0  0  0  0  0  0
  150.8311  137.8537  154.4583 C   0  0  0  0  0  0  0  0  0  0  0  0
  151.0513  140.1719  154.9003 O   0  0  0  0  0  0  0  0  0  0  0  0
  152.4869  141.0940  159.6451 C   0  0  1  0  0  0  0  0  0  0  0  0
  154.0266  141.1283  159.6493 C   0  0  0  0  0  0  0  0  0  0  0  0
  151.9753  142.3336  159.0728 N   0  0  0  0  0  0  0  0  0  0  0  0
  152.6872  143.4460  158.6733 C   0  0  0  0  0  0  0  0  0  0  0  0
  151.7895  144.3562  158.1942 C   0  0  0  0  0  0  0  0  0  0  0  0
  150.5345  143.7029  158.3414 C   0  0  0  0  0  0  0  0  0  0  0  0
  150.6477  142.4938  158.8666 N   0  0  0  0  0  0  0  0  0  0  0  0
  152.2048  138.3879  160.5707 H   0  0  0  0  0  0  0  0  0  0  0  0
  153.5325  138.4900  159.4165 H   0  0  0  0  0  0  0  0  0  0  0  0
  152.0386  137.6620  158.9869 H   0  0  0  0  0  0  0  0  0  0  0  0
  150.7998  139.8197  159.1585 H   0  0  0  0  0  0  0  0  0  0  0  0
  153.0915  139.8175  157.3212 H   0  0  0  0  0  0  0  0  0  0  0  0
  151.8560  137.8141  157.0879 H   0  0  0  0  0  0  0  0  0  0  0  0
  150.3774  138.7263  157.0109 H   0  0  0  0  0  0  0  0  0  0  0  0
  153.5927  138.0203  155.0340 H   0  0  0  0  0  0  0  0  0  0  0  0
  153.6329  139.7456  155.3753 H   0  0  0  0  0  0  0  0  0  0  0  0
  153.2025  139.1732  153.7668 H   0  0  0  0  0  0  0  0  0  0  0  0
  151.2250  136.8541  154.6446 H   0  0  0  0  0  0  0  0  0  0  0  0
  150.8910  138.0310  153.3837 H   0  0  0  0  0  0  0  0  0  0  0  0
  149.7757  137.8490  154.7335 H   0  0  0  0  0  0  0  0  0  0  0  0
  150.1097  140.0948  154.9214 H   0  0  0  0  0  0  0  0  0  0  0  0
  152.1665  141.0854  160.6884 H   0  0  0  0  0  0  0  0  0  0  0  0
  154.4400  140.3485  160.2876 H   0  0  0  0  0  0  0  0  0  0  0  0
  154.3949  142.0781  160.0387 H   0  0  0  0  0  0  0  0  0  0  0  0
  154.4338  141.0013  158.6458 H   0  0  0  0  0  0  0  0  0  0  0  0
  153.7623  143.4968  158.7624 H   0  0  0  0  0  0  0  0  0  0  0  0
  151.9976  145.3388  157.7976 H   0  0  0  0  0  0  0  0  0  0  0  0
  149.5517  144.0685  158.0833 H   0  0  0  0  0  0  0  0  0  0  0  0
  1  2  1  0  0  0  0
  1 16  1  0  0  0  0
  1 17  1  0  0  0  0
  1 18  1  0  0  0  0
  2  3  1  0  0  0  0
  2  9  1  0  0  0  0
  2 19  1  0  0  0  0
  3  4  1  0  0  0  0
  3 20  1  0  0  0  0
  4  5  1  0  0  0  0
  4 21  1  0  0  0  0
  4 22  1  0  0  0  0
  5  6  1  0  0  0  0
  5  7  1  0  0  0  0
  5  8  1  0  0  0  0
  6 23  1  0  0  0  0
  6 24  1  0  0  0  0
  6 25  1  0  0  0  0
  7 26  1  0  0  0  0
  7 27  1  0  0  0  0
  7 28  1  0  0  0  0
  8 29  1  0  0  0  0
  9 10  1  0  0  0  0
  9 11  1  0  0  0  0
  9 30  1  0  0  0  0
 10 31  1  0  0  0  0
 10 32  1  0  0  0  0
 10 33  1  0  0  0  0
 11 15  1  0  0  0  0
 11 12  1  0  0  0  0
 12 13  2  0  0  0  0
 12 34  1  0  0  0  0
 13 14  1  0  0  0  0
 13 35  1  0  0  0  0
 14 15  2  0  0  0  0
 14 36  1  0  0  0  0
M  END
> <s_m_source_file>
AV-unprocessed.smi

> <i_m_source_file_index>
3117

> <i_lp_mmshare_version>
43012

> <i_f3d_flags>
0

> <s_epik_input>
W0NIM11DKFtDSDNdKShbT0hdKVtDSDJdW05IXVtDQEBIXShbQ0gzXSlbQ0BIXShbQ0gzXSluMVtjSF1bY0hdW2NIXW4x

> <s_epik_cmdline>
J2VwaWtfcHl0aG9uJywgJy1waCcsICc3LjAnLCAnLXRuJywgJzgnLCAnLW1hJywgJzIwMCcsICctbWV0YWxfYmluZGluZycsICctaW1hZScsICc8aW5maWxlLm1hZT4nLCAnLW9tYWUnLCAnPG91dGZpbGUubWFlPic=

> <r_lp_tautomer_probability>
1

> <r_epik_Ionization_Penalty>
2.13419

> <r_epik_Ionization_Penalty_Charging>
0

> <r_epik_Ionization_Penalty_Neutral>
2.13419

> <r_epik_State_Penalty>
2.27148

> <r_epik_Charging_Adjusted_Penalty>
2.27148

> <i_epik_Tot_Q>
0

> <i_epik_Tot_abs_Q>
0

> <r_epik_Metal_State_Penalty>
2.27029

> <b_epik_Metal_Only>
0

> <s_lp_Force_Field>
OPLS_2005

> <r_lp_Energy>
15.8141

> <b_lp_Chiralities_Consistent>
1

> <s_lp_Variant>
AV-unprocessed.smi:3117-7

> <Gold.Version>
5.8.1

> <Gold.Id.Protein>
6NUR|6NUR_protein|mol2

> <Gold.PLP.Fitness>
38.8389

> <Gold.PLP.PLP>
-32.8122

> <Gold.PLP.part.hbond>
-1.0000

> <Gold.PLP.part.metal>
0.0000

> <Gold.PLP.part.buried>
-2.9237

> <Gold.PLP.part.nonpolar>
-29.1556

> <Gold.PLP.part.repulsive>
0.0559

> <Gold.PLP.ligand.clash>
0.0000

> <Gold.PLP.ligand.torsion>
0.2357

> <Gold.PLP.Chemscore.Hbond>
1.0000

> <Gold.PLP.Chemscore.CHOScore>
1.1298

> <Gold.PLP.Chemscore.Metal>
0.0000

> <Gold.Chemscore.Hbonds>
donor molecule, donor type, donor heavy atom, donor atom, acceptor molecule, acceptor atom, score
      P1  H  7989  7998       L1     8  1.00
      L1  C    14    36       P1  8028  0.56
      L1  C    14    36       P1  8029  0.45

> <Gold.PLP.Chemscore.Internal.Correction>
0.1086

> <Gold.Rescore>
     Score         DG    S(hbond)    S(metal)    S(lipo)     H(rot)  DE(clash)    DE(int)     intcor
     13.75     -13.96       0.99        0.00      92.17       2.19       0.02       0.18       ----

> <Gold.Chemscore.Fitness>
13.7530

> <Gold.Chemscore.DG>
-13.9624

> <Gold.Chemscore.ZeroCoef>
-5.4800

> <Gold.Chemscore.Hbond>
0.9880

> <Gold.Chemscore.Metal>
0.0000

> <Gold.Chemscore.Lipo>
92.1736

> <Gold.Chemscore.Internal_Hbond>
0.0000

> <Gold.Chemscore.DEClash>
0.0247

> <Gold.Chemscore.DEInternal>
0.1846

> <Gold.Chemscore.Rot>
2.1882

> <Gold.Chemscore.Internal.Correction>
   9.000000E+99

> <Gold.Chemscore.Hbonds>
donor molecule, donor type, donor heavy atom, donor atom, acceptor molecule, acceptor atom, score
      P1  H  7989  7998       L1     8  0.81

> <Gold.Chemscore.Hbond.Weighted>
-3.2998

> <Gold.Chemscore.Metal.Weighted>
-0.0000

> <Gold.Chemscore.Lipo.Weighted>
-10.7843

> <Gold.Chemscore.Internal_Hbond.Weighted>
0.0000

> <Gold.Chemscore.DEClash.Weighted>
0.0247

> <Gold.Chemscore.DEInternal.Weighted>
0.1846

> <Gold.Chemscore.Rot.Weighted>
5.6018

> <Gold.Chemscore.Internal.Correction.Weighted>
   9.000000E+99

> <Gold.Protein.RotatedTorsions>
[ 6907 6896 6895 6894 ] final -109.87 input  -60.11 | X-H torsion
[ 7974 7965 7964 7962 ] final   -1.93 input  175.53 | X-H torsion
[ 8008 7997 7996 7995 ] final  -70.29 input   59.86 | X-H torsion
[ 10167 10162 10161 10158 ] final -158.90 input  -65.29 | X-H torsion
[ 10718 10713 10712 10709 ] final  -64.78 input   66.30 | X-H torsion
[ 10763 10752 10751 10750 ] final   56.08 input  -60.55 | X-H torsion
[ 11005 11000 10999 10996 ] final -132.65 input  -57.11 | X-H torsion

> <Gold.Protein.ActiveResidues>
 VAL166  LYS551  ARG553  GLY616  TRP617  ASP618  TYR619  PRO620  LYS621  CYS622 
 ASP623  PHE694  ASN695  SER759  ASP760  ASP761  ALA762  ILE779  LEU786  VAL792 
 PHE793  MET794  SER795  GLU796  ALA797  LYS798  CYS799  TRP800  GLU811  SER814 

> <Gold.Protein.RotatedAtoms>
  150.7589  133.9465  159.3472 H   0  0  0  0  0  0  0  0  0  0  0  0  # atno 6907 bound_to 6896
  151.7378  135.0859  160.0320 H   0  0  0  0  0  0  0  0  0  0  0  0  # atno 6908 bound_to 6896
  152.3548  133.6186  159.6007 H   0  0  0  0  0  0  0  0  0  0  0  0  # atno 6909 bound_to 6896
  146.2411  140.1494  142.8334 H   0  0  0  0  0  0  0  0  0  0  0  0  # atno 7974 bound_to 7965
  154.5001  140.0837  156.7779 H   0  0  0  0  0  0  0  0  0  0  0  0  # atno 8008 bound_to 7997
  155.4024  140.3437  155.4239 H   0  0  0  0  0  0  0  0  0  0  0  0  # atno 8009 bound_to 7997
  156.1445  140.1539  156.8856 H   0  0  0  0  0  0  0  0  0  0  0  0  # atno 8010 bound_to 7997
  139.6657  143.9834  152.2253 H   0  0  0  0  0  0  0  0  0  0  0  0  # atno 10167 bound_to 10162
  156.0709  130.4238  150.1469 H   0  0  0  0  0  0  0  0  0  0  0  0  # atno 10718 bound_to 10713
  152.9826  135.5688  154.5171 H   0  0  0  0  0  0  0  0  0  0  0  0  # atno 10763 bound_to 10752
  154.4666  135.2783  155.1676 H   0  0  0  0  0  0  0  0  0  0  0  0  # atno 10764 bound_to 10752
  154.3242  135.6263  153.5575 H   0  0  0  0  0  0  0  0  0  0  0  0  # atno 10765 bound_to 10752
  140.9151  134.1517  157.4359 H   0  0  0  0  0  0  0  0  0  0  0  0  # atno 11005 bound_to 11000
  145.0180  140.8770  143.5184 LP  0  0  0  0  0  0  0  0  0  0  0  0  # atno 17320 bound_to 7965
  145.1538  139.2498  143.5427 LP  0  0  0  0  0  0  0  0  0  0  0  0  # atno 17321 bound_to 7965
  139.9585  144.6573  150.8102 LP  0  0  0  0  0  0  0  0  0  0  0  0  # atno 17342 bound_to 10162
  140.7598  143.3137  151.2784 LP  0  0  0  0  0  0  0  0  0  0  0  0  # atno 17343 bound_to 10162
  156.9520  130.9777  151.3496 LP  0  0  0  0  0  0  0  0  0  0  0  0  # atno 17370 bound_to 10713
  157.5778  130.8355  149.8481 LP  0  0  0  0  0  0  0  0  0  0  0  0  # atno 17371 bound_to 10713
  139.8764  134.9950  156.5724 LP  0  0  0  0  0  0  0  0  0  0  0  0  # atno 17394 bound_to 11000
  140.8060  133.8467  155.8768 LP  0  0  0  0  0  0  0  0  0  0  0  0  # atno 17395 bound_to 11000

$$$$
