#       Name:                AV-unprocessed.smi:2137
#       Creating user name   scv26
#       Creation time:       Fri Mar 27 11:46:46 2020


#       File generated by GOLD software.
#

@<TRIPOS>MOLECULE
AV-unprocessed.smi:2137
    56    57     1
SMALL
NO_CHARGES


@<TRIPOS>ATOM
      1 ****        -5.5105  -1.1068  -1.0769 C.3            1 S1                 0.0000
      2 ****        -4.8861  -0.5779   0.2217 C.3            1 S1                 0.0000
      3 ****        -5.5565   0.7297   0.6752 C.3            1 S1                 0.0000
      4 ****        -4.8952   1.2491   1.9578 C.3            1 S1                 0.0000
      5 ****        -3.3773   1.4032   1.7714 C.3            1 S1                 0.0000
      6 ****        -2.7579   0.1239   1.3383 N.4            1 S1                 1.0000
      7 ****        -1.2767   0.2087   1.2822 C.3            1 S1                 0.0000
      8 ****        -0.6028  -1.1709   1.4117 C.3            1 S1                 0.0000
      9 ****         0.9329  -1.0952   1.4820 C.3            1 S1                 0.0000
     10 ****         1.5137  -0.4872   0.2902 N.am           1 S1                 0.0000
     11 ****         1.7173  -1.1142  -0.8787 C.2            1 S1                 0.0000
     12 ****         1.4162  -2.2906  -1.0775 O.2            1 S1                 0.0000
     13 ****         2.3562  -0.2878  -1.9990 C.3            1 S1                 0.0000
     14 ****         3.8054  -0.1457  -1.8122 N.am           1 S1                 0.0000
     15 ****         4.6574  -1.0774  -2.3777 C.2            1 S1                 0.0000
     16 ****         6.0016  -1.0311  -2.2534 C.2            1 S1                 0.0000
     17 ****         6.6447   0.0320  -1.4916 C.2            1 S1                 0.0000
     18 ****         7.8655   0.1265  -1.3572 O.2            1 S1                 0.0000
     19 ****         5.7531   0.9652  -0.9147 N.am           1 S1                 0.0000
     20 ****         6.3480   2.0432  -0.1519 C.3            1 S1                 0.0000
     21 ****         4.3466   0.9193  -1.0582 C.2            1 S1                 0.0000
     22 ****         3.6040   1.7652  -0.5540 O.2            1 S1                 0.0000
     23 ****        -3.3645  -0.3751   0.0745 C.3            1 S1                 0.0000
     24 ****        -5.3818  -0.3989  -1.8963 H              1 S1                 0.0000
     25 ****        -6.5794  -1.2835  -0.9546 H              1 S1                 0.0000
     26 ****        -5.0536  -2.0502  -1.3774 H              1 S1                 0.0000
     27 ****        -5.0524  -1.3292   0.9954 H              1 S1                 0.0000
     28 ****        -5.4756   1.4826  -0.1103 H              1 S1                 0.0000
     29 ****        -6.6220   0.5704   0.8457 H              1 S1                 0.0000
     30 ****        -5.3351   2.2057   2.2420 H              1 S1                 0.0000
     31 ****        -5.0961   0.5600   2.7793 H              1 S1                 0.0000
     32 ****        -3.1638   2.1805   1.0357 H              1 S1                 0.0000
     33 ****        -2.9352   1.7279   2.7142 H              1 S1                 0.0000
     34 ****        -0.9723   0.7131   0.3639 H              1 S1                 0.0000
     35 ****        -0.9224   0.8303   2.1058 H              1 S1                 0.0000
     36 ****        -0.9675  -1.6629   2.3141 H              1 S1                 0.0000
     37 ****        -0.8868  -1.8166   0.5813 H              1 S1                 0.0000
     38 ****         1.2368  -0.5046   2.3467 H              1 S1                 0.0000
     39 ****         1.3517  -2.0920   1.6311 H              1 S1                 0.0000
     40 ****         1.8053   0.4773   0.3636 H              1 S1                 0.0000
     41 ****         2.1573  -0.7750  -2.9551 H              1 S1                 0.0000
     42 ****         1.8650   0.6846  -2.0639 H              1 S1                 0.0000
     43 ****         4.2271  -1.8869  -2.9495 H              1 S1                 0.0000
     44 ****         6.6091  -1.7909  -2.7232 H              1 S1                 0.0000
     45 ****         5.5929   2.5891   0.4132 H              1 S1                 0.0000
     46 ****         6.8453   2.7012  -0.8662 H              1 S1                 0.0000
     47 ****         7.0598   1.6039   0.5494 H              1 S1                 0.0000
     48 ****        -2.9086  -1.3227  -0.2104 H              1 S1                 0.0000
     49 ****        -3.1535   0.3291  -0.7324 H              1 S1                 0.0000
     50 ****        -2.9780  -0.5506   2.0571 H              1 S1                 0.0000
     51 ****         0.9968  -2.8296  -0.3471 LP             1 S1                 0.0000
     52 ****         1.5908  -2.7075  -1.9695 LP             1 S1                 0.0000
     53 ****         8.4690  -0.5479  -1.7825 LP             1 S1                 0.0000
     54 ****         8.2530   0.8777  -0.8228 LP             1 S1                 0.0000
     55 ****         2.6139   1.6991  -0.6781 LP             1 S1                 0.0000
     56 ****         3.9920   2.5173  -0.0211 LP             1 S1                 0.0000
@<TRIPOS>BOND
    1    1    2 1     
    2    1   24 1     
    3    1   25 1     
    4    1   26 1     
    5    2   23 1     
    6    2    3 1     
    7    2   27 1     
    8    3    4 1     
    9    3   28 1     
   10    3   29 1     
   11    4    5 1     
   12    4   30 1     
   13    4   31 1     
   14    5    6 1     
   15    5   32 1     
   16    5   33 1     
   17    6    7 1     
   18    6   23 1     
   19    6   50 1     
   20    7    8 1     
   21    7   34 1     
   22    7   35 1     
   23    8    9 1     
   24    8   36 1     
   25    8   37 1     
   26    9   10 1     
   27    9   38 1     
   28    9   39 1     
   29   10   11 am    
   30   10   40 1     
   31   11   12 2     
   32   11   13 1     
   33   13   14 1     
   34   13   41 1     
   35   13   42 1     
   36   14   21 am    
   37   14   15 1     
   38   15   16 2     
   39   15   43 1     
   40   16   17 1     
   41   16   44 1     
   42   17   18 2     
   43   17   19 am    
   44   19   20 1     
   45   19   21 am    
   46   20   45 1     
   47   20   46 1     
   48   20   47 1     
   49   21   22 2     
   50   23   48 1     
   51   23   49 1     
   52   12   51 1     
   53   12   52 1     
   54   18   53 1     
   55   18   54 1     
   56   22   55 1     
   57   22   56 1     
@<TRIPOS>SUBSTRUCTURE
      1 S1             1
@<TRIPOS>SET
LONE_PAIRS      STATIC     ATOMS    <user>   **** ""
6 51 52 53 54 55 56
DONOR_HYDROGENS      STATIC     ATOMS    <user>   **** ""
2 50 40
ATOM$BLUE        STATIC     ATOMS    COLORGROUP SYSTEM
6 51 52 53 54 55 56
ATOM$RED        STATIC     ATOMS    COLORGROUP SYSTEM
2 50 40
