#       Name:                AV-unprocessed.smi:875
#       Creating user name   scv26
#       Creation time:       Fri Mar 27 01:50:36 2020


#       File generated by GOLD software.
#

@<TRIPOS>MOLECULE
AV-unprocessed.smi:875
    45    46     1
SMALL
NO_CHARGES


@<TRIPOS>ATOM
      1 ****        -3.7339   3.8709   0.5642 C.3            1 S1                 0.0000
      2 ****        -3.5845   2.6965  -0.2809 N.am           1 S1                 0.0000
      3 ****        -3.9826   2.6305  -1.5604 C.2            1 S1                 0.0000
      4 ****        -4.5321   3.5641  -2.1449 O.2            1 S1                 0.0000
      5 ****        -3.7374   1.3086  -2.2930 C.3            1 S1                 0.0000
      6 ****        -2.2733   1.0444  -2.4520 C.2            1 S1                 0.0000
      7 ****        -1.5774   1.5794  -3.4490 N.2            1 S1                 0.0000
      8 ****        -0.2783   1.0977  -3.2325 O.3            1 S1                 0.0000
      9 ****        -0.3497   0.3217  -2.1245 C.2            1 S1                 0.0000
     10 ****         0.8919  -0.3495  -1.6370 C.3            1 S1                 0.0000
     11 ****         0.8126  -0.4089  -0.2194 O.3            1 S1                 0.0000
     12 ****         1.9513  -0.9793   0.4121 C.3            1 S1                 0.0000
     13 ****         1.9440  -2.5186   0.2935 C.3            1 S1                 0.0000
     14 ****         3.0989  -3.1475   1.0904 C.3            1 S1                 0.0000
     15 ****         3.0671  -2.7098   2.5632 C.3            1 S1                 0.0000
     16 ****         3.0719  -1.1780   2.6865 C.3            1 S1                 0.0000
     17 ****         1.9146  -0.5532   1.8904 C.3            1 S1                 0.0000
     18 ****        -1.5719   0.2447  -1.6011 N.2            1 S1                 0.0000
     19 ****        -3.3022   3.6791   1.5465 H              1 S1                 0.0000
     20 ****        -4.7870   4.1219   0.6966 H              1 S1                 0.0000
     21 ****        -3.2221   4.7307   0.1296 H              1 S1                 0.0000
     22 ****        -3.1408   1.8858   0.1271 H              1 S1                 0.0000
     23 ****        -4.2020   0.4932  -1.7371 H              1 S1                 0.0000
     24 ****        -4.2130   1.3338  -3.2745 H              1 S1                 0.0000
     25 ****         0.9526  -1.3424  -2.0819 H              1 S1                 0.0000
     26 ****         1.7634   0.2257  -1.9529 H              1 S1                 0.0000
     27 ****         2.8615  -0.5783  -0.0380 H              1 S1                 0.0000
     28 ****         0.9938  -2.9094   0.6600 H              1 S1                 0.0000
     29 ****         2.0232  -2.8268  -0.7486 H              1 S1                 0.0000
     30 ****         3.0466  -4.2346   1.0252 H              1 S1                 0.0000
     31 ****         4.0508  -2.8566   0.6442 H              1 S1                 0.0000
     32 ****         2.1752  -3.1130   3.0449 H              1 S1                 0.0000
     33 ****         3.9218  -3.1288   3.0950 H              1 S1                 0.0000
     34 ****         2.9996  -0.8900   3.7356 H              1 S1                 0.0000
     35 ****         4.0213  -0.7841   2.3217 H              1 S1                 0.0000
     36 ****         1.9601   0.5338   1.9654 H              1 S1                 0.0000
     37 ****         0.9649  -0.8534   2.3355 H              1 S1                 0.0000
     38 ****        -4.7013   4.4246  -1.6643 LP             1 S1                 0.0000
     39 ****        -4.8092   3.4621  -3.1003 LP             1 S1                 0.0000
     40 ****        -1.9019   2.1812  -4.1787 LP             1 S1                 0.0000
     41 ****         0.3544   1.8579  -3.0845 LP             1 S1                 0.0000
     42 ****         0.0275   0.5574  -4.0164 LP             1 S1                 0.0000
     43 ****         0.0126  -0.9564   0.0259 LP             1 S1                 0.0000
     44 ****         0.6978   0.5224   0.1262 LP             1 S1                 0.0000
     45 ****        -1.8890  -0.2630  -0.8000 LP             1 S1                 0.0000
@<TRIPOS>BOND
    1    1    2 1     
    2    1   19 1     
    3    1   20 1     
    4    1   21 1     
    5    2    3 am    
    6    2   22 1     
    7    3    4 2     
    8    3    5 1     
    9    5    6 1     
   10    5   23 1     
   11    5   24 1     
   12    6   18 1     
   13    6    7 2     
   14    7    8 1     
   15    8    9 1     
   16    9   10 1     
   17    9   18 2     
   18   10   11 1     
   19   10   25 1     
   20   10   26 1     
   21   11   12 1     
   22   12   17 1     
   23   12   13 1     
   24   12   27 1     
   25   13   14 1     
   26   13   28 1     
   27   13   29 1     
   28   14   15 1     
   29   14   30 1     
   30   14   31 1     
   31   15   16 1     
   32   15   32 1     
   33   15   33 1     
   34   16   17 1     
   35   16   34 1     
   36   16   35 1     
   37   17   36 1     
   38   17   37 1     
   39    4   38 1     
   40    4   39 1     
   41    7   40 1     
   42    8   41 1     
   43    8   42 1     
   44   11   43 1     
   45   11   44 1     
   46   18   45 1     
@<TRIPOS>SUBSTRUCTURE
      1 S1             1
@<TRIPOS>SET
LONE_PAIRS      STATIC     ATOMS    <user>   **** ""
8 38 39 40 41 42 43 44 45
DONOR_HYDROGENS      STATIC     ATOMS    <user>   **** ""
1 22
ATOM$BLUE        STATIC     ATOMS    COLORGROUP SYSTEM
8 38 39 40 41 42 43 44 45
ATOM$RED        STATIC     ATOMS    COLORGROUP SYSTEM
1 22
