AV-unprocessed.smi:1645|AV-procd|sdf|6622|dock10
  -GOLD-   22720 7323D 1   1.00000     0.00000
 Structure written by MMmdl.
 55 58  0  0  0  0  0  0  0  0  4 V2000
  147.3530  140.4563  153.4282 O   0  0  0  0  0  0  0  0  0  0  0  0
  147.5743  139.3122  153.8395 C   0  0  0  0  0  0  0  0  0  0  0  0
  148.3356  139.1149  154.9303 N   0  0  0  0  0  0  0  0  0  0  0  0
  149.0467  140.0630  155.7144 C   0  0  0  0  0  0  0  0  0  0  0  0
  149.8410  139.5738  156.7732 C   0  0  0  0  0  0  0  0  0  0  0  0
  150.5864  140.4732  157.5624 C   0  0  0  0  0  0  0  0  0  0  0  0
  150.5349  141.8555  157.2708 C   0  0  0  0  0  0  0  0  0  0  0  0
  151.2456  142.8227  157.9931 N   0  0  0  0  0  0  0  0  0  0  0  0
  150.3869  143.8703  158.5394 C   0  0  0  0  0  0  0  0  0  0  0  0
  151.2279  144.9995  159.1598 C   0  0  0  0  0  0  0  0  0  0  0  0
  152.2091  144.4425  160.2040 C   0  0  0  0  0  0  0  0  0  0  0  0
  153.0657  143.3254  159.5862 C   0  0  0  0  0  0  0  0  0  0  0  0
  152.1791  142.2390  158.9530 C   0  0  0  0  0  0  0  0  0  0  0  0
  149.7744  142.2846  156.2404 N   0  3  0  0  0  0  0  0  0  0  0  0
  149.0440  141.4567  155.4623 C   0  0  0  0  0  0  0  0  0  0  0  0
  147.1162  138.1420  153.3183 N   0  5  0  0  0  0  0  0  0  0  0  0
  146.1695  137.2377  153.9871 C   0  0  2  0  0  0  0  0  0  0  0  0
  146.9008  136.4838  155.1142 C   0  0  0  0  0  0  0  0  0  0  0  0
  147.4232  135.1748  154.4852 C   0  0  0  0  0  0  0  0  0  0  0  0
  146.9239  135.1711  153.0955 N   0  3  1  0  0  0  0  0  0  0  0  0
  146.6530  133.8525  152.4801 C   0  0  0  0  0  0  0  0  0  0  0  0
  146.2029  134.0468  151.0178 C   0  0  0  0  0  0  0  0  0  0  0  0
  145.0098  135.0180  150.9095 C   0  0  0  0  0  0  0  0  0  0  0  0
  145.3192  136.3528  151.6133 C   0  0  0  0  0  0  0  0  0  0  0  0
  145.7600  136.0724  153.0675 C   0  0  2  0  0  0  0  0  0  0  0  0
  148.3774  138.1611  155.2583 H   0  0  0  0  0  0  0  0  0  0  0  0
  149.8778  138.5149  156.9837 H   0  0  0  0  0  0  0  0  0  0  0  0
  151.1907  140.1012  158.3765 H   0  0  0  0  0  0  0  0  0  0  0  0
  149.7509  144.2729  157.7497 H   0  0  0  0  0  0  0  0  0  0  0  0
  149.7268  143.4444  159.2964 H   0  0  0  0  0  0  0  0  0  0  0  0
  151.7832  145.5153  158.3752 H   0  0  0  0  0  0  0  0  0  0  0  0
  150.5753  145.7434  159.6173 H   0  0  0  0  0  0  0  0  0  0  0  0
  152.8472  145.2401  160.5860 H   0  0  0  0  0  0  0  0  0  0  0  0
  151.6539  144.0505  161.0570 H   0  0  0  0  0  0  0  0  0  0  0  0
  153.7246  143.7480  158.8264 H   0  0  0  0  0  0  0  0  0  0  0  0
  153.7118  142.8848  160.3460 H   0  0  0  0  0  0  0  0  0  0  0  0
  151.6222  141.7164  159.7321 H   0  0  0  0  0  0  0  0  0  0  0  0
  152.8034  141.4967  158.4538 H   0  0  0  0  0  0  0  0  0  0  0  0
  148.5032  141.9428  154.6643 H   0  0  0  0  0  0  0  0  0  0  0  0
  145.2921  137.7557  154.3767 H   0  0  0  0  0  0  0  0  0  0  0  0
  147.6981  137.0707  155.5729 H   0  0  0  0  0  0  0  0  0  0  0  0
  146.1915  136.2417  155.9067 H   0  0  0  0  0  0  0  0  0  0  0  0
  148.5127  135.1238  154.4873 H   0  0  0  0  0  0  0  0  0  0  0  0
  147.0449  134.3125  155.0371 H   0  0  0  0  0  0  0  0  0  0  0  0
  147.5541  133.2395  152.5186 H   0  0  0  0  0  0  0  0  0  0  0  0
  145.8819  133.3307  153.0490 H   0  0  0  0  0  0  0  0  0  0  0  0
  147.0366  134.4367  150.4323 H   0  0  0  0  0  0  0  0  0  0  0  0
  145.9412  133.0843  150.5776 H   0  0  0  0  0  0  0  0  0  0  0  0
  144.7633  135.1950  149.8623 H   0  0  0  0  0  0  0  0  0  0  0  0
  144.1282  134.5632  151.3630 H   0  0  0  0  0  0  0  0  0  0  0  0
  146.1018  136.8710  151.0559 H   0  0  0  0  0  0  0  0  0  0  0  0
  144.4386  136.9970  151.5913 H   0  0  0  0  0  0  0  0  0  0  0  0
  144.9357  135.5557  153.5641 H   0  0  0  0  0  0  0  0  0  0  0  0
  147.6326  135.6308  152.5414 H   0  0  0  0  0  0  0  0  0  0  0  0
  149.7527  143.2839  156.0359 H   0  0  0  0  0  0  0  0  0  0  0  0
  1  2  2  0  0  0  0
  2  3  1  0  0  0  0
  2 16  1  0  0  0  0
  3  4  1  0  0  0  0
  3 26  1  0  0  0  0
  4 15  1  0  0  0  0
  4  5  2  0  0  0  0
  5  6  1  0  0  0  0
  5 27  1  0  0  0  0
  6  7  2  0  0  0  0
  6 28  1  0  0  0  0
  7  8  1  0  0  0  0
  7 14  1  0  0  0  0
  8 13  1  0  0  0  0
  8  9  1  0  0  0  0
  9 10  1  0  0  0  0
  9 29  1  0  0  0  0
  9 30  1  0  0  0  0
 10 11  1  0  0  0  0
 10 31  1  0  0  0  0
 10 32  1  0  0  0  0
 11 12  1  0  0  0  0
 11 33  1  0  0  0  0
 11 34  1  0  0  0  0
 12 13  1  0  0  0  0
 12 35  1  0  0  0  0
 12 36  1  0  0  0  0
 13 37  1  0  0  0  0
 13 38  1  0  0  0  0
 14 15  2  0  0  0  0
 14 55  1  0  0  0  0
 15 39  1  0  0  0  0
 16 17  1  0  0  0  0
 17 25  1  0  0  0  0
 17 18  1  0  0  0  0
 17 40  1  0  0  0  0
 18 19  1  0  0  0  0
 18 41  1  0  0  0  0
 18 42  1  0  0  0  0
 19 20  1  0  0  0  0
 19 43  1  0  0  0  0
 19 44  1  0  0  0  0
 20 25  1  0  0  0  0
 20 21  1  0  0  0  0
 20 54  1  0  0  0  0
 21 22  1  0  0  0  0
 21 45  1  0  0  0  0
 21 46  1  0  0  0  0
 22 23  1  0  0  0  0
 22 47  1  0  0  0  0
 22 48  1  0  0  0  0
 23 24  1  0  0  0  0
 23 49  1  0  0  0  0
 23 50  1  0  0  0  0
 24 25  1  0  0  0  0
 24 51  1  0  0  0  0
 24 52  1  0  0  0  0
 25 53  1  0  0  0  0
M  CHG  1  14   1
M  CHG  1  16  -1
M  CHG  1  20   1
M  END
> <s_m_source_file>
AV-unprocessed.smi

> <i_m_source_file_index>
1645

> <i_lp_mmshare_version>
43012

> <i_f3d_flags>
0

> <s_epik_input>
W0NIMl0xW0NIMl1bQ0gyXVtDSDJdW0NASF0oTjEyKVtDQEBIXShbQ0gyXVtDSDJdMilbTkhdQyg9TylbTkhdYzNbY0hdW2NIXWMobltjSF0zKU40W0NIMl1bQ0gyXVtDSDJdW0NIMl1bQ0gyXTQ=

> <s_epik_cmdline>
J2VwaWtfcHl0aG9uJywgJy1waCcsICc3LjAnLCAnLXRuJywgJzgnLCAnLW1hJywgJzIwMCcsICctbWV0YWxfYmluZGluZycsICctaW1hZScsICc8aW5maWxlLm1hZT4nLCAnLW9tYWUnLCAnPG91dGZpbGUubWFlPic=

> <r_lp_tautomer_probability>
0.999994

> <r_epik_Ionization_Penalty>
8.55589

> <r_epik_Ionization_Penalty_Charging>
8.55589

> <r_epik_Ionization_Penalty_Neutral>
3.8092e-06

> <r_epik_State_Penalty>
8.15703

> <r_epik_Charging_Adjusted_Penalty>
16.7129

> <i_epik_Tot_Q>
1

> <i_epik_Tot_abs_Q>
3

> <r_epik_Metal_State_Penalty>
4.13781

> <b_epik_Metal_Only>
1

> <s_lp_Force_Field>
OPLS_2005

> <r_lp_Energy>
55.4093

> <b_lp_Chiralities_Consistent>
1

> <s_lp_Variant>
AV-unprocessed.smi:1645-23

> <Gold.Version>
5.8.1

> <Gold.Id.Protein>
6NUR|6NUR_protein|mol2

> <Gold.PLP.Fitness>
47.8447

> <Gold.PLP.PLP>
-37.2736

> <Gold.PLP.part.hbond>
-2.0000

> <Gold.PLP.part.metal>
0.0000

> <Gold.PLP.part.buried>
-7.5403

> <Gold.PLP.part.nonpolar>
-30.8334

> <Gold.PLP.part.repulsive>
1.5585

> <Gold.PLP.ligand.clash>
0.0000

> <Gold.PLP.ligand.torsion>
0.8133

> <Gold.PLP.Chemscore.Hbond>
4.0000

> <Gold.PLP.Chemscore.CHOScore>
0.0000

> <Gold.PLP.Chemscore.Metal>
0.0000

> <Gold.Chemscore.Hbonds>
donor molecule, donor type, donor heavy atom, donor atom, acceptor molecule, acceptor atom, score
      L1  H    14    55       P1  8028  2.00
      L1  H    20    54       P1  7948  2.00

> <Gold.PLP.Chemscore.Internal.Correction>
0.1977

> <Gold.Rescore>
     Score         DG    S(hbond)    S(metal)    S(lipo)     H(rot)  DE(clash)    DE(int)     intcor
     18.82     -21.16       1.96        0.00     103.64       1.17       0.07       2.27       ----

> <Gold.Chemscore.Fitness>
18.8239

> <Gold.Chemscore.DG>
-21.1559

> <Gold.Chemscore.ZeroCoef>
-5.4800

> <Gold.Chemscore.Hbond>
1.9621

> <Gold.Chemscore.Metal>
0.0000

> <Gold.Chemscore.Lipo>
103.6399

> <Gold.Chemscore.Internal_Hbond>
0.0000

> <Gold.Chemscore.DEClash>
0.0662

> <Gold.Chemscore.DEInternal>
2.2659

> <Gold.Chemscore.Rot>
1.1731

> <Gold.Chemscore.Internal.Correction>
   9.000000E+99

> <Gold.Chemscore.Hbonds>
donor molecule, donor type, donor heavy atom, donor atom, acceptor molecule, acceptor atom, score
      L1  H    14    55       P1  8028  0.95
      L1  H    20    54       P1  7948  0.98

> <Gold.Chemscore.Hbond.Weighted>
-6.5533

> <Gold.Chemscore.Metal.Weighted>
-0.0000

> <Gold.Chemscore.Lipo.Weighted>
-12.1259

> <Gold.Chemscore.Internal_Hbond.Weighted>
0.0000

> <Gold.Chemscore.DEClash.Weighted>
0.0662

> <Gold.Chemscore.DEInternal.Weighted>
2.2659

> <Gold.Chemscore.Rot.Weighted>
3.0032

> <Gold.Chemscore.Internal.Correction.Weighted>
   9.000000E+99

> <Gold.Protein.RotatedTorsions>
[ 6907 6896 6895 6894 ] final    9.93 input  -60.11 | X-H torsion
[ 7974 7965 7964 7962 ] final  131.52 input  175.53 | X-H torsion
[ 8008 7997 7996 7995 ] final   90.33 input   59.86 | X-H torsion
[ 10167 10162 10161 10158 ] final  -23.62 input  -65.29 | X-H torsion
[ 10718 10713 10712 10709 ] final  127.61 input   66.30 | X-H torsion
[ 10763 10752 10751 10750 ] final  173.69 input  -60.55 | X-H torsion
[ 11005 11000 10999 10996 ] final  -46.50 input  -57.11 | X-H torsion

> <Gold.Protein.ActiveResidues>
 VAL166  LYS551  ARG553  GLY616  TRP617  ASP618  TYR619  PRO620  LYS621  CYS622 
 ASP623  PHE694  ASN695  SER759  ASP760  ASP761  ALA762  ILE779  LEU786  VAL792 
 PHE793  MET794  SER795  GLU796  ALA797  LYS798  CYS799  TRP800  GLU811  SER814 

> <Gold.Protein.RotatedAtoms>
  151.7301  135.0876  160.0298 H   0  0  0  0  0  0  0  0  0  0  0  0  # atno 6907 bound_to 6896
  152.3547  133.6218  159.5979 H   0  0  0  0  0  0  0  0  0  0  0  0  # atno 6908 bound_to 6896
  150.7563  133.9436  159.3505 H   0  0  0  0  0  0  0  0  0  0  0  0  # atno 6909 bound_to 6896
  145.0064  139.4262  143.5266 H   0  0  0  0  0  0  0  0  0  0  0  0  # atno 7974 bound_to 7965
  156.0107  140.3350  155.6937 H   0  0  0  0  0  0  0  0  0  0  0  0  # atno 8008 bound_to 7997
  155.6162  140.0670  157.2709 H   0  0  0  0  0  0  0  0  0  0  0  0  # atno 8009 bound_to 7997
  154.4280  140.1784  156.1312 H   0  0  0  0  0  0  0  0  0  0  0  0  # atno 8010 bound_to 7997
  140.7288  143.4426  151.0634 H   0  0  0  0  0  0  0  0  0  0  0  0  # atno 10167 bound_to 10162
  157.5318  131.1098  150.8997 H   0  0  0  0  0  0  0  0  0  0  0  0  # atno 10718 bound_to 10713
  154.4435  135.2762  155.1831 H   0  0  0  0  0  0  0  0  0  0  0  0  # atno 10763 bound_to 10752
  154.3687  135.6113  153.5732 H   0  0  0  0  0  0  0  0  0  0  0  0  # atno 10764 bound_to 10752
  152.9842  135.5852  154.4767 H   0  0  0  0  0  0  0  0  0  0  0  0  # atno 10765 bound_to 10752
  141.0582  133.6718  156.3163 H   0  0  0  0  0  0  0  0  0  0  0  0  # atno 11005 bound_to 11000
  146.3462  139.9483  142.8732 LP  0  0  0  0  0  0  0  0  0  0  0  0  # atno 17320 bound_to 7965
  145.2082  140.9884  143.4116 LP  0  0  0  0  0  0  0  0  0  0  0  0  # atno 17321 bound_to 7965
  139.8095  143.7971  152.3170 LP  0  0  0  0  0  0  0  0  0  0  0  0  # atno 17342 bound_to 10162
  139.8015  144.7372  150.9818 LP  0  0  0  0  0  0  0  0  0  0  0  0  # atno 17343 bound_to 10162
  156.9577  130.5443  149.5284 LP  0  0  0  0  0  0  0  0  0  0  0  0  # atno 17370 bound_to 10713
  156.0428  130.5508  150.8811 LP  0  0  0  0  0  0  0  0  0  0  0  0  # atno 17371 bound_to 10713
  140.5921  134.5640  157.5501 LP  0  0  0  0  0  0  0  0  0  0  0  0  # atno 17394 bound_to 11000
  139.9409  134.7789  156.0681 LP  0  0  0  0  0  0  0  0  0  0  0  0  # atno 17395 bound_to 11000

$$$$
