#       Name:                AV-unprocessed.smi:1538
#       Creating user name   scv26
#       Creation time:       Fri Mar 27 06:36:07 2020


#       File generated by GOLD software.
#

@<TRIPOS>MOLECULE
AV-unprocessed.smi:1538
    41    42     1
SMALL
NO_CHARGES


@<TRIPOS>ATOM
      1 ****        -3.6107   1.8116  -0.7558 C.3            1 S1                 0.0000
      2 ****        -2.7800   0.9275   0.0638 N.am           1 S1                 0.0000
      3 ****        -1.9981  -0.0605  -0.6898 C.3            1 S1                 0.0000
      4 ****        -1.5404  -1.2473   0.1684 C.3            1 S1                 0.0000
      5 ****        -0.8991  -0.7830   1.4840 C.3            1 S1                 0.0000
      6 ****         0.4934  -0.1665   1.2687 C.2            1 S1                 0.0000
      7 ****         0.6084   1.0144   0.9389 O.2            1 S1                 0.0000
      8 ****         1.5432  -0.9851   1.4419 N.am           1 S1                 0.0000
      9 ****         2.9362  -0.6317   1.1826 C.3            1 S1                 0.0000
     10 ****         3.3868  -1.0735  -0.2229 C.3            1 S1                 0.0000
     11 ****         2.6789  -0.3781  -1.2825 N.pl3          1 S1                 0.0000
     12 ****         2.8550   0.9389  -1.6857 C.2            1 S1                 0.0000
     13 ****         1.9582   1.1603  -2.7066 C.2            1 S1                 0.0000
     14 ****         1.2304  -0.0016  -2.9525 N.2            1 S1                 0.0000
     15 ****         1.7153  -0.8695  -2.0742 C.2            1 S1                 0.0000
     16 ****        -1.8470   0.1564   2.2645 C.3            1 S1                 0.0000
     17 ****        -2.7290   1.0867   1.4089 C.2            1 S1                 0.0000
     18 ****        -3.3825   1.9519   1.9929 O.2            1 S1                 0.0000
     19 ****        -3.3895   2.8594  -0.5460 H              1 S1                 0.0000
     20 ****        -4.6679   1.6375  -0.5517 H              1 S1                 0.0000
     21 ****        -3.4481   1.6574  -1.8230 H              1 S1                 0.0000
     22 ****        -2.5835  -0.4409  -1.5280 H              1 S1                 0.0000
     23 ****        -1.1353   0.4457  -1.1242 H              1 S1                 0.0000
     24 ****        -2.4009  -1.8782   0.3957 H              1 S1                 0.0000
     25 ****        -0.8497  -1.8723  -0.3995 H              1 S1                 0.0000
     26 ****        -0.7521  -1.6703   2.1023 H              1 S1                 0.0000
     27 ****         1.3595  -1.9370   1.7242 H              1 S1                 0.0000
     28 ****         3.1068   0.4370   1.3228 H              1 S1                 0.0000
     29 ****         3.5486  -1.1353   1.9306 H              1 S1                 0.0000
     30 ****         4.4530  -0.8821  -0.3474 H              1 S1                 0.0000
     31 ****         3.2452  -2.1479  -0.3482 H              1 S1                 0.0000
     32 ****         3.5766   1.5935  -1.2197 H              1 S1                 0.0000
     33 ****         1.7826   2.0593  -3.2787 H              1 S1                 0.0000
     34 ****         1.3524  -1.8840  -1.9974 H              1 S1                 0.0000
     35 ****        -2.5254  -0.4543   2.8613 H              1 S1                 0.0000
     36 ****        -1.2910   0.7606   2.9832 H              1 S1                 0.0000
     37 ****        -0.2067   1.5790   0.8094 LP             1 S1                 0.0000
     38 ****         1.5169   1.4087   0.8006 LP             1 S1                 0.0000
     39 ****         0.5111  -0.1473  -3.6318 LP             1 S1                 0.0000
     40 ****        -3.9759   2.5664   1.4729 LP             1 S1                 0.0000
     41 ****        -3.3197   2.0400   2.9870 LP             1 S1                 0.0000
@<TRIPOS>BOND
    1    1    2 1     
    2    1   19 1     
    3    1   20 1     
    4    1   21 1     
    5    2   17 am    
    6    2    3 1     
    7    3    4 1     
    8    3   22 1     
    9    3   23 1     
   10    4    5 1     
   11    4   24 1     
   12    4   25 1     
   13    5    6 1     
   14    5   16 1     
   15    5   26 1     
   16    6    7 2     
   17    6    8 am    
   18    8    9 1     
   19    8   27 1     
   20    9   10 1     
   21    9   28 1     
   22    9   29 1     
   23   10   11 1     
   24   10   30 1     
   25   10   31 1     
   26   11   15 1     
   27   11   12 1     
   28   12   13 2     
   29   12   32 1     
   30   13   14 1     
   31   13   33 1     
   32   14   15 2     
   33   15   34 1     
   34   16   17 1     
   35   16   35 1     
   36   16   36 1     
   37   17   18 2     
   38    7   37 1     
   39    7   38 1     
   40   14   39 1     
   41   18   40 1     
   42   18   41 1     
@<TRIPOS>SUBSTRUCTURE
      1 S1             1
@<TRIPOS>SET
LONE_PAIRS      STATIC     ATOMS    <user>   **** ""
5 37 38 39 40 41
DONOR_HYDROGENS      STATIC     ATOMS    <user>   **** ""
1 27
ATOM$BLUE        STATIC     ATOMS    COLORGROUP SYSTEM
5 37 38 39 40 41
ATOM$RED        STATIC     ATOMS    COLORGROUP SYSTEM
1 27
