AV-unprocessed.smi:2911|AV-procd|sdf|11177|dock4
  -GOLD-   2272016 73D 1   1.00000     0.00000
 Structure written by MMmdl.
 41 42  0  0  0  0  0  0  0  0  1 V2000
  155.8663  132.2076  158.0909 C   0  0  0  0  0  0  0  0  0  0  0  0
  155.3471  133.5599  157.7398 C   0  0  0  0  0  0  0  0  0  0  0  0
  156.0077  134.3574  156.9093 N   0  0  0  0  0  0  0  0  0  0  0  0
  155.2002  135.5025  156.8502 O   0  0  0  0  0  0  0  0  0  0  0  0
  154.1320  135.2424  157.6420 C   0  0  0  0  0  0  0  0  0  0  0  0
  153.0930  136.2975  157.8221 C   0  0  0  0  0  0  0  0  0  0  0  0
  153.5319  137.6568  157.2546 C   0  0  0  0  0  0  0  0  0  0  0  0
  152.7147  138.7457  157.7771 N   0  0  0  0  0  0  0  0  0  0  0  0
  152.2727  139.7955  157.0638 C   0  0  0  0  0  0  0  0  0  0  0  0
  152.5010  139.9127  155.8597 O   0  0  0  0  0  0  0  0  0  0  0  0
  151.4584  140.6230  157.7671 N   0  0  0  0  0  0  0  0  0  0  0  0
  151.7742  140.9993  159.1566 C   0  0  0  0  0  0  0  0  0  0  0  0
  152.5793  142.3134  159.1503 C   0  0  0  0  0  0  0  0  0  0  0  0
  151.8154  143.4398  158.4215 C   0  0  1  0  0  0  0  0  0  0  0  0
  152.6613  144.7152  158.3045 C   0  0  0  0  0  0  0  0  0  0  0  0
  151.3041  142.9659  157.0435 C   0  0  0  0  0  0  0  0  0  0  0  0
  150.5519  141.6244  157.1637 C   0  0  1  0  0  0  0  0  0  0  0  0
  149.8840  141.1993  155.8387 C   0  0  0  0  0  0  0  0  0  0  0  0
  154.1792  134.0526  158.2362 N   0  0  0  0  0  0  0  0  0  0  0  0
  155.4496  131.4595  157.4165 H   0  0  0  0  0  0  0  0  0  0  0  0
  155.5896  131.9462  159.1126 H   0  0  0  0  0  0  0  0  0  0  0  0
  156.9537  132.1786  158.0126 H   0  0  0  0  0  0  0  0  0  0  0  0
  152.1746  135.9620  157.3391 H   0  0  0  0  0  0  0  0  0  0  0  0
  152.8710  136.3879  158.8859 H   0  0  0  0  0  0  0  0  0  0  0  0
  154.5689  137.8537  157.5274 H   0  0  0  0  0  0  0  0  0  0  0  0
  153.4929  137.6483  156.1640 H   0  0  0  0  0  0  0  0  0  0  0  0
  152.4542  138.6942  158.7513 H   0  0  0  0  0  0  0  0  0  0  0  0
  150.8501  141.1275  159.7219 H   0  0  0  0  0  0  0  0  0  0  0  0
  152.3352  140.2340  159.6940 H   0  0  0  0  0  0  0  0  0  0  0  0
  152.8012  142.6154  160.1743 H   0  0  0  0  0  0  0  0  0  0  0  0
  153.5413  142.1450  158.6638 H   0  0  0  0  0  0  0  0  0  0  0  0
  150.9406  143.6827  159.0265 H   0  0  0  0  0  0  0  0  0  0  0  0
  153.5576  144.5430  157.7077 H   0  0  0  0  0  0  0  0  0  0  0  0
  152.9774  145.0677  159.2866 H   0  0  0  0  0  0  0  0  0  0  0  0
  152.0960  145.5188  157.8319 H   0  0  0  0  0  0  0  0  0  0  0  0
  150.6471  143.7244  156.6162 H   0  0  0  0  0  0  0  0  0  0  0  0
  152.1411  142.8573  156.3520 H   0  0  0  0  0  0  0  0  0  0  0  0
  149.7269  141.7673  157.8637 H   0  0  0  0  0  0  0  0  0  0  0  0
  149.0798  141.8887  155.5809 H   0  0  0  0  0  0  0  0  0  0  0  0
  149.4450  140.2042  155.9171 H   0  0  0  0  0  0  0  0  0  0  0  0
  150.5783  141.2018  154.9990 H   0  0  0  0  0  0  0  0  0  0  0  0
  1  2  1  0  0  0  0
  1 20  1  0  0  0  0
  1 21  1  0  0  0  0
  1 22  1  0  0  0  0
  2 19  1  0  0  0  0
  2  3  2  0  0  0  0
  3  4  1  0  0  0  0
  4  5  1  0  0  0  0
  5  6  1  0  0  0  0
  5 19  2  0  0  0  0
  6  7  1  0  0  0  0
  6 23  1  0  0  0  0
  6 24  1  0  0  0  0
  7  8  1  0  0  0  0
  7 25  1  0  0  0  0
  7 26  1  0  0  0  0
  8  9  1  0  0  0  0
  8 27  1  0  0  0  0
  9 10  2  0  0  0  0
  9 11  1  0  0  0  0
 11 17  1  0  0  0  0
 11 12  1  0  0  0  0
 12 13  1  0  0  0  0
 12 28  1  0  0  0  0
 12 29  1  0  0  0  0
 13 14  1  0  0  0  0
 13 30  1  0  0  0  0
 13 31  1  0  0  0  0
 14 15  1  0  0  0  0
 14 16  1  0  0  0  0
 14 32  1  0  0  0  0
 15 33  1  0  0  0  0
 15 34  1  0  0  0  0
 15 35  1  0  0  0  0
 16 17  1  0  0  0  0
 16 36  1  0  0  0  0
 16 37  1  0  0  0  0
 17 18  1  0  0  0  0
 17 38  1  0  0  0  0
 18 39  1  0  0  0  0
 18 40  1  0  0  0  0
 18 41  1  0  0  0  0
M  END
> <s_m_source_file>
AV-unprocessed.smi

> <i_m_source_file_index>
2911

> <i_lp_mmshare_version>
43012

> <i_f3d_flags>
0

> <s_epik_input>
W0NIM11jMW5vYyhuMSlbQ0gyXVtDSDJdW05IXUMoPU8pTjJbQ0gyXVtDSDJdW0NAQEhdKFtDSDNdKVtDSDJdW0NASF0yW0NIM10=

> <s_epik_cmdline>
J2VwaWtfcHl0aG9uJywgJy1waCcsICc3LjAnLCAnLXRuJywgJzgnLCAnLW1hJywgJzIwMCcsICctbWV0YWxfYmluZGluZycsICctaW1hZScsICc8aW5maWxlLm1hZT4nLCAnLW9tYWUnLCAnPG91dGZpbGUubWFlPic=

> <r_lp_tautomer_probability>
1

> <r_epik_Ionization_Penalty>
6.61671e-05

> <r_epik_Ionization_Penalty_Charging>
0

> <r_epik_Ionization_Penalty_Neutral>
6.61671e-05

> <r_epik_State_Penalty>
-0

> <r_epik_Charging_Adjusted_Penalty>
0

> <i_epik_Tot_Q>
0

> <i_epik_Tot_abs_Q>
0

> <r_epik_Metal_State_Penalty>
-0

> <b_epik_Metal_Only>
0

> <s_lp_Force_Field>
OPLS_2005

> <r_lp_Energy>
29.1944

> <b_lp_Chiralities_Consistent>
1

> <s_lp_Variant>
AV-unprocessed.smi:2911-1

> <Gold.Version>
5.8.1

> <Gold.Id.Protein>
6NUR|6NUR_protein|mol2

> <Gold.PLP.Fitness>
36.9772

> <Gold.PLP.PLP>
-29.1511

> <Gold.PLP.part.hbond>
-3.0000

> <Gold.PLP.part.metal>
0.0000

> <Gold.PLP.part.buried>
-2.3584

> <Gold.PLP.part.nonpolar>
-24.0023

> <Gold.PLP.part.repulsive>
0.0824

> <Gold.PLP.ligand.clash>
0.0000

> <Gold.PLP.ligand.torsion>
0.6951

> <Gold.PLP.Chemscore.Hbond>
2.9280

> <Gold.PLP.Chemscore.CHOScore>
0.0000

> <Gold.PLP.Chemscore.Metal>
0.0000

> <Gold.Chemscore.Hbonds>
donor molecule, donor type, donor heavy atom, donor atom, acceptor molecule, acceptor atom, score
      P1  H  6896  6908       L1    19  0.57
      P1  H  7997  8009       L1    10  0.95
      P1  H 10752 10763       L1     4  0.85

> <Gold.PLP.Chemscore.Internal.Correction>
0.4323

> <Gold.Rescore>
     Score         DG    S(hbond)    S(metal)    S(lipo)     H(rot)  DE(clash)    DE(int)     intcor
     14.01     -16.56       1.93        0.00      74.77       1.61       0.41       2.14       ----

> <Gold.Chemscore.Fitness>
14.0116

> <Gold.Chemscore.DG>
-16.5635

> <Gold.Chemscore.ZeroCoef>
-5.4800

> <Gold.Chemscore.Hbond>
1.9324

> <Gold.Chemscore.Metal>
0.0000

> <Gold.Chemscore.Lipo>
74.7675

> <Gold.Chemscore.Internal_Hbond>
0.0000

> <Gold.Chemscore.DEClash>
0.4092

> <Gold.Chemscore.DEInternal>
2.1427

> <Gold.Chemscore.Rot>
1.6088

> <Gold.Chemscore.Internal.Correction>
   9.000000E+99

> <Gold.Chemscore.Hbonds>
donor molecule, donor type, donor heavy atom, donor atom, acceptor molecule, acceptor atom, score
      P1  H  6896  6908       L1    19  0.43
      P1  H  7997  8009       L1    10  0.21
      P1  H 10752 10763       L1     4  0.05

> <Gold.Chemscore.Hbond.Weighted>
-6.4544

> <Gold.Chemscore.Metal.Weighted>
-0.0000

> <Gold.Chemscore.Lipo.Weighted>
-8.7478

> <Gold.Chemscore.Internal_Hbond.Weighted>
0.0000

> <Gold.Chemscore.DEClash.Weighted>
0.4092

> <Gold.Chemscore.DEInternal.Weighted>
2.1427

> <Gold.Chemscore.Rot.Weighted>
4.1186

> <Gold.Chemscore.Internal.Correction.Weighted>
   9.000000E+99

> <Gold.Protein.RotatedTorsions>
[ 6907 6896 6895 6894 ] final   -6.92 input  -60.11 | X-H torsion
[ 7974 7965 7964 7962 ] final -141.86 input  175.53 | X-H torsion
[ 8008 7997 7996 7995 ] final -137.76 input   59.86 | X-H torsion
[ 10167 10162 10161 10158 ] final  171.32 input  -65.29 | X-H torsion
[ 10718 10713 10712 10709 ] final  -15.85 input   66.30 | X-H torsion
[ 10763 10752 10751 10750 ] final  166.09 input  -60.55 | X-H torsion
[ 11005 11000 10999 10996 ] final   65.29 input  -57.11 | X-H torsion

> <Gold.Protein.ActiveResidues>
 VAL166  LYS551  ARG553  GLY616  TRP617  ASP618  TYR619  PRO620  LYS621  CYS622 
 ASP623  PHE694  ASN695  SER759  ASP760  ASP761  ALA762  ILE779  LEU786  VAL792 
 PHE793  MET794  SER795  GLU796  ALA797  LYS798  CYS799  TRP800  GLU811  SER814 

> <Gold.Protein.RotatedAtoms>
  151.4578  135.1036  159.9715 H   0  0  0  0  0  0  0  0  0  0  0  0  # atno 6907 bound_to 6896
  152.4864  133.8380  159.7148 H   0  0  0  0  0  0  0  0  0  0  0  0  # atno 6908 bound_to 6896
  150.8978  133.7098  159.2914 H   0  0  0  0  0  0  0  0  0  0  0  0  # atno 6909 bound_to 6896
  144.8487  140.6029  143.5404 H   0  0  0  0  0  0  0  0  0  0  0  0  # atno 7974 bound_to 7965
  155.4172  140.0516  157.3028 H   0  0  0  0  0  0  0  0  0  0  0  0  # atno 8008 bound_to 7997
  154.4919  140.2123  155.9489 H   0  0  0  0  0  0  0  0  0  0  0  0  # atno 8009 bound_to 7997
  156.1354  140.3164  155.8417 H   0  0  0  0  0  0  0  0  0  0  0  0  # atno 8010 bound_to 7997
  139.5043  144.3499  151.9933 H   0  0  0  0  0  0  0  0  0  0  0  0  # atno 10167 bound_to 10162
  156.5959  130.4811  149.6260 H   0  0  0  0  0  0  0  0  0  0  0  0  # atno 10718 bound_to 10713
  154.3337  135.2754  155.2458 H   0  0  0  0  0  0  0  0  0  0  0  0  # atno 10763 bound_to 10752
  154.4759  135.5871  153.6358 H   0  0  0  0  0  0  0  0  0  0  0  0  # atno 10764 bound_to 10752
  152.9864  135.6099  154.3532 H   0  0  0  0  0  0  0  0  0  0  0  0  # atno 10765 bound_to 10752
  139.9904  134.6601  156.0101 H   0  0  0  0  0  0  0  0  0  0  0  0  # atno 11005 bound_to 11000
  145.4543  139.1520  143.3901 LP  0  0  0  0  0  0  0  0  0  0  0  0  # atno 17320 bound_to 7965
  146.2767  140.4671  142.8793 LP  0  0  0  0  0  0  0  0  0  0  0  0  # atno 17321 bound_to 7965
  140.2936  144.3726  150.6081 LP  0  0  0  0  0  0  0  0  0  0  0  0  # atno 17342 bound_to 10162
  140.5927  143.2167  151.7222 LP  0  0  0  0  0  0  0  0  0  0  0  0  # atno 17343 bound_to 10162
  156.2510  130.6907  151.1645 LP  0  0  0  0  0  0  0  0  0  0  0  0  # atno 17370 bound_to 10713
  157.7292  131.0626  150.5785 LP  0  0  0  0  0  0  0  0  0  0  0  0  # atno 17371 bound_to 10713
  141.1561  133.6543  156.4165 LP  0  0  0  0  0  0  0  0  0  0  0  0  # atno 17394 bound_to 11000
  140.4920  134.6566  157.5214 LP  0  0  0  0  0  0  0  0  0  0  0  0  # atno 17395 bound_to 11000

$$$$
