#       Name:                AV-unprocessed.smi:657
#       Creating user name   scv26
#       Creation time:       Fri Mar 27 00:16:40 2020


#       File generated by GOLD software.
#

@<TRIPOS>MOLECULE
AV-unprocessed.smi:657
    50    51     1
SMALL
NO_CHARGES


@<TRIPOS>ATOM
      1 ****        -2.4018   0.5406   3.0928 C.3            1 S1                 0.0000
      2 ****        -1.7376   0.7985   1.7262 C.3            1 S1                 0.0000
      3 ****        -1.7371   2.2942   1.3662 C.3            1 S1                 0.0000
      4 ****        -2.3071  -0.0331   0.6119 N.4            1 S1                 1.0000
      5 ****        -3.7847   0.1215   0.4635 C.3            1 S1                 0.0000
      6 ****        -4.3186  -0.5825  -0.7897 C.3            1 S1                 0.0000
      7 ****        -3.9804  -2.0721  -0.7401 C.3            1 S1                 0.0000
      8 ****        -2.4640  -2.2351  -0.6234 C.3            1 S1                 0.0000
      9 ****        -1.8810  -1.4764   0.5974 C.3            1 S1                 0.0000
     10 ****        -0.3505  -1.6829   0.6152 C.2            1 S1                 0.0000
     11 ****         0.1179  -2.4666   1.4467 O.2            1 S1                 0.0000
     12 ****         0.2736  -0.9233  -0.3302 N.pl3          1 S1                -1.0000
     13 ****         1.7220  -0.8763  -0.5068 C.3            1 S1                 0.0000
     14 ****         2.1091   0.3987  -1.2807 C.3            1 S1                 0.0000
     15 ****         3.5981   0.5273  -1.4897 C.2            1 S1                 0.0000
     16 ****         4.3806   0.0131  -2.5650 C.2            1 S1                 0.0000
     17 ****         5.6656   0.3091  -2.4568 N.2            1 S1                 0.0000
     18 ****         5.7501   1.0245  -1.3168 N.pl3          1 S1                 0.0000
     19 ****         7.0372   1.5220  -0.8809 C.3            1 S1                 0.0000
     20 ****         4.5198   1.1769  -0.7150 C.2            1 S1                 0.0000
     21 ****        -1.8688   1.0706   3.8826 H              1 S1                 0.0000
     22 ****        -2.3901  -0.5177   3.3530 H              1 S1                 0.0000
     23 ****        -3.4355   0.8853   3.1195 H              1 S1                 0.0000
     24 ****        -0.6839   0.5577   1.8513 H              1 S1                 0.0000
     25 ****        -1.1743   2.8672   2.1037 H              1 S1                 0.0000
     26 ****        -2.7414   2.7152   1.3336 H              1 S1                 0.0000
     27 ****        -1.2681   2.4629   0.3962 H              1 S1                 0.0000
     28 ****        -4.2910  -0.2888   1.3377 H              1 S1                 0.0000
     29 ****        -4.0551   1.1747   0.4078 H              1 S1                 0.0000
     30 ****        -5.3987  -0.4489  -0.8592 H              1 S1                 0.0000
     31 ****        -3.8888  -0.1291  -1.6838 H              1 S1                 0.0000
     32 ****        -4.4750  -2.5434   0.1102 H              1 S1                 0.0000
     33 ****        -4.3462  -2.5736  -1.6366 H              1 S1                 0.0000
     34 ****        -2.2190  -3.2962  -0.5565 H              1 S1                 0.0000
     35 ****        -2.0067  -1.8768  -1.5473 H              1 S1                 0.0000
     36 ****        -2.2854  -1.9407   1.4981 H              1 S1                 0.0000
     37 ****         2.2479  -0.8773   0.4492 H              1 S1                 0.0000
     38 ****         2.0843  -1.7494  -1.0505 H              1 S1                 0.0000
     39 ****         1.5953   0.4038  -2.2429 H              1 S1                 0.0000
     40 ****         1.7304   1.2699  -0.7442 H              1 S1                 0.0000
     41 ****         4.0519  -0.5662  -3.4153 H              1 S1                 0.0000
     42 ****         6.9340   2.0460   0.0697 H              1 S1                 0.0000
     43 ****         7.4372   2.2116  -1.6247 H              1 S1                 0.0000
     44 ****         7.7305   0.6902  -0.7531 H              1 S1                 0.0000
     45 ****         4.4005   1.7261   0.2074 H              1 S1                 0.0000
     46 ****        -1.8962   0.3467  -0.2295 H              1 S1                 0.0000
     47 ****        -0.4896  -2.9442   2.0813 LP             1 S1                 0.0000
     48 ****         1.1048  -2.6235   1.4854 LP             1 S1                 0.0000
     49 ****        -0.2935  -0.3666  -0.9373 LP             1 S1                 0.0000
     50 ****         6.4068   0.0589  -3.0797 LP             1 S1                 0.0000
@<TRIPOS>BOND
    1    1    2 1     
    2    1   21 1     
    3    1   22 1     
    4    1   23 1     
    5    2    3 1     
    6    2    4 1     
    7    2   24 1     
    8    3   25 1     
    9    3   26 1     
   10    3   27 1     
   11    4    9 1     
   12    4    5 1     
   13    4   46 1     
   14    5    6 1     
   15    5   28 1     
   16    5   29 1     
   17    6    7 1     
   18    6   30 1     
   19    6   31 1     
   20    7    8 1     
   21    7   32 1     
   22    7   33 1     
   23    8    9 1     
   24    8   34 1     
   25    8   35 1     
   26    9   10 1     
   27    9   36 1     
   28   10   11 2     
   29   10   12 1     
   30   12   13 1     
   31   13   14 1     
   32   13   37 1     
   33   13   38 1     
   34   14   15 1     
   35   14   39 1     
   36   14   40 1     
   37   15   20 2     
   38   15   16 1     
   39   16   17 2     
   40   16   41 1     
   41   17   18 1     
   42   18   19 1     
   43   18   20 1     
   44   19   42 1     
   45   19   43 1     
   46   19   44 1     
   47   20   45 1     
   48   11   47 1     
   49   11   48 1     
   50   12   49 1     
   51   17   50 1     
@<TRIPOS>SUBSTRUCTURE
      1 S1             1
@<TRIPOS>SET
LONE_PAIRS      STATIC     ATOMS    <user>   **** ""
4 47 48 49 50
DONOR_HYDROGENS      STATIC     ATOMS    <user>   **** ""
1 46
ATOM$BLUE        STATIC     ATOMS    COLORGROUP SYSTEM
4 47 48 49 50
ATOM$RED        STATIC     ATOMS    COLORGROUP SYSTEM
1 46
