#       Name:                AV-unprocessed.smi:652
#       Creating user name   scv26
#       Creation time:       Fri Mar 27 00:12:37 2020


#       File generated by GOLD software.
#

@<TRIPOS>MOLECULE
AV-unprocessed.smi:652
    54    55     1
SMALL
NO_CHARGES


@<TRIPOS>ATOM
      1 ****        -4.1065   1.2530   0.2887 C.3            1 S1                 0.0000
      2 ****        -4.8326   0.1989  -0.5621 C.3            1 S1                 0.0000
      3 ****        -6.0011  -0.4394   0.2004 C.3            1 S1                 0.0000
      4 ****        -3.9012  -0.8429  -0.9835 N.am           1 S1                 0.0000
      5 ****        -3.0769  -0.7687  -2.0401 C.2            1 S1                 0.0000
      6 ****        -3.0296   0.2007  -2.7976 O.2            1 S1                 0.0000
      7 ****        -2.1617  -1.9743  -2.2764 C.3            1 S1                 0.0000
      8 ****        -0.6733  -1.5900  -2.4145 C.3            1 S1                 0.0000
      9 ****        -0.1016  -0.8369  -1.2958 N.3            1 S1                 0.0000
     10 ****        -0.0369  -1.6212  -0.0658 C.3            1 S1                 0.0000
     11 ****         0.5877  -0.8200   1.0878 C.3            1 S1                 0.0000
     12 ****         1.8766  -0.3594   0.6990 O.3            1 S1                 0.0000
     13 ****         1.8502   0.4661  -0.4632 C.3            1 S1                 0.0000
     14 ****         3.2830   0.9180  -0.7930 C.3            1 S1                 0.0000
     15 ****         3.7960   1.8858   0.1703 N.pl3          1 S1                 0.0000
     16 ****         4.3876   1.4694   1.3718 C.ar           1 S1                 0.0000
     17 ****         4.5602   2.4119   2.4052 C.ar           1 S1                 0.0000
     18 ****         5.1590   1.9714   3.5982 C.ar           1 S1                 0.0000
     19 ****         5.5425   0.6198   3.6667 C.ar           1 S1                 0.0000
     20 ****         5.3574  -0.2422   2.6419 N.ar           1 S1                 0.0000
     21 ****         4.7882   0.1798   1.5071 N.ar           1 S1                 0.0000
     22 ****         1.2338  -0.3471  -1.6187 C.3            1 S1                 0.0000
     23 ****        -4.7936   2.0353   0.6121 H              1 S1                 0.0000
     24 ****        -3.3057   1.7334  -0.2746 H              1 S1                 0.0000
     25 ****        -3.6645   0.8082   1.1808 H              1 S1                 0.0000
     26 ****        -5.2428   0.6890  -1.4470 H              1 S1                 0.0000
     27 ****        -6.7274   0.3145   0.5053 H              1 S1                 0.0000
     28 ****        -5.6574  -0.9528   1.0991 H              1 S1                 0.0000
     29 ****        -6.5245  -1.1674  -0.4205 H              1 S1                 0.0000
     30 ****        -3.8692  -1.6789  -0.4183 H              1 S1                 0.0000
     31 ****        -2.2921  -2.7056  -1.4780 H              1 S1                 0.0000
     32 ****        -2.4899  -2.4707  -3.1900 H              1 S1                 0.0000
     33 ****        -0.0870  -2.4943  -2.5830 H              1 S1                 0.0000
     34 ****        -0.5674  -1.0000  -3.3261 H              1 S1                 0.0000
     35 ****        -1.0348  -1.9425   0.2315 H              1 S1                 0.0000
     36 ****         0.5480  -2.5268  -0.2341 H              1 S1                 0.0000
     37 ****        -0.0444   0.0272   1.3583 H              1 S1                 0.0000
     38 ****         0.6851  -1.4445   1.9757 H              1 S1                 0.0000
     39 ****         1.2297   1.3437  -0.2711 H              1 S1                 0.0000
     40 ****         3.9492   0.0602  -0.8927 H              1 S1                 0.0000
     41 ****         3.2847   1.4119  -1.7649 H              1 S1                 0.0000
     42 ****         3.4579   2.8349   0.1067 H              1 S1                 0.0000
     43 ****         4.2433   3.4381   2.2902 H              1 S1                 0.0000
     44 ****         5.3180   2.6427   4.4290 H              1 S1                 0.0000
     45 ****         6.0078   0.2226   4.5567 H              1 S1                 0.0000
     46 ****         1.8865  -1.1879  -1.8600 H              1 S1                 0.0000
     47 ****         1.1883   0.2772  -2.5118 H              1 S1                 0.0000
     48 ****        -3.6260   0.9878  -2.6402 LP             1 S1                 0.0000
     49 ****        -2.3948   0.2010  -3.5703 LP             1 S1                 0.0000
     50 ****        -0.7169  -0.0639  -1.1415 LP             1 S1                 0.0000
     51 ****         2.4550  -1.1535   0.5120 LP             1 S1                 0.0000
     52 ****         2.2673   0.1670   1.4541 LP             1 S1                 0.0000
     53 ****         5.6460  -1.1954   2.7321 LP             1 S1                 0.0000
     54 ****         4.6566  -0.4614   0.7511 LP             1 S1                 0.0000
@<TRIPOS>BOND
    1    1    2 1     
    2    1   23 1     
    3    1   24 1     
    4    1   25 1     
    5    2    3 1     
    6    2    4 1     
    7    2   26 1     
    8    3   27 1     
    9    3   28 1     
   10    3   29 1     
   11    4    5 am    
   12    4   30 1     
   13    5    6 2     
   14    5    7 1     
   15    7    8 1     
   16    7   31 1     
   17    7   32 1     
   18    8    9 1     
   19    8   33 1     
   20    8   34 1     
   21    9   22 1     
   22    9   10 1     
   23   10   11 1     
   24   10   35 1     
   25   10   36 1     
   26   11   12 1     
   27   11   37 1     
   28   11   38 1     
   29   12   13 1     
   30   13   14 1     
   31   13   22 1     
   32   13   39 1     
   33   14   15 1     
   34   14   40 1     
   35   14   41 1     
   36   15   16 1     
   37   15   42 1     
   38   16   21 ar    
   39   16   17 ar    
   40   17   18 ar    
   41   17   43 1     
   42   18   19 ar    
   43   18   44 1     
   44   19   20 ar    
   45   19   45 1     
   46   20   21 ar    
   47   22   46 1     
   48   22   47 1     
   49    6   48 1     
   50    6   49 1     
   51    9   50 1     
   52   12   51 1     
   53   12   52 1     
   54   20   53 1     
   55   21   54 1     
@<TRIPOS>SUBSTRUCTURE
      1 S1             1
@<TRIPOS>SET
LONE_PAIRS      STATIC     ATOMS    <user>   **** ""
7 48 49 50 51 52 53 54
DONOR_HYDROGENS      STATIC     ATOMS    <user>   **** ""
2 30 42
ATOM$BLUE        STATIC     ATOMS    COLORGROUP SYSTEM
7 48 49 50 51 52 53 54
ATOM$RED        STATIC     ATOMS    COLORGROUP SYSTEM
2 30 42
