AV-unprocessed.smi:3227|AV-procd|sdf|12317|dock4
  -GOLD-   2272018163D 1   1.00000     0.00000
 Structure written by MMmdl.
 37 38  0  0  0  0  0  0  0  0  1 V2000
  146.9856  138.4973  154.7824 C   0  0  0  0  0  0  0  0  0  0  0  0
  147.3222  139.1263  156.0519 N   0  0  0  0  0  0  0  0  0  0  0  0
  146.4388  140.1992  156.4915 C   0  0  0  0  0  0  0  0  0  0  0  0
  148.7048  139.3527  156.2047 C   0  0  0  0  0  0  0  0  0  0  0  0
  149.2806  140.2491  155.3659 N   0  0  0  0  0  0  0  0  0  0  0  0
  150.6053  140.4793  155.4667 C   0  0  0  0  0  0  0  0  0  0  0  0
  151.4275  139.8374  156.4088 C   0  0  0  0  0  0  0  0  0  0  0  0
  150.8393  138.9081  157.2851 C   0  0  0  0  0  0  0  0  0  0  0  0
  149.4519  138.6424  157.1834 C   0  0  0  0  0  0  0  0  0  0  0  0
  148.7803  137.7498  158.0673 N   0  0  0  0  0  0  0  0  0  0  0  0
  149.3131  136.9340  158.9948 C   0  0  0  0  0  0  0  0  0  0  0  0
  150.5184  136.8167  159.2145 O   0  0  0  0  0  0  0  0  0  0  0  0
  148.3210  136.0869  159.7889 C   0  0  0  0  0  0  0  0  0  0  0  0
  147.4657  136.9540  160.5145 O   0  0  0  0  0  0  0  0  0  0  0  0
  146.5175  136.2510  161.2984 C   0  0  0  0  0  0  0  0  0  0  0  0
  147.2492  135.3985  162.3129 C   0  0  0  0  0  0  0  0  0  0  0  0
  147.7599  134.0239  161.9445 C   0  0  0  0  0  0  0  0  0  0  0  0
  146.5907  134.1634  162.8852 C   0  0  0  0  0  0  0  0  0  0  0  0
  147.5111  137.5513  154.6520 H   0  0  0  0  0  0  0  0  0  0  0  0
  147.2486  139.1522  153.9508 H   0  0  0  0  0  0  0  0  0  0  0  0
  145.9158  138.2942  154.7297 H   0  0  0  0  0  0  0  0  0  0  0  0
  146.7624  140.6025  157.4519 H   0  0  0  0  0  0  0  0  0  0  0  0
  145.4224  139.8240  156.6121 H   0  0  0  0  0  0  0  0  0  0  0  0
  146.4183  141.0102  155.7628 H   0  0  0  0  0  0  0  0  0  0  0  0
  151.0206  141.2018  154.7797 H   0  0  0  0  0  0  0  0  0  0  0  0
  152.4829  140.0592  156.4642 H   0  0  0  0  0  0  0  0  0  0  0  0
  151.4571  138.4316  158.0307 H   0  0  0  0  0  0  0  0  0  0  0  0
  147.7850  137.6633  157.9198 H   0  0  0  0  0  0  0  0  0  0  0  0
  147.7443  135.4735  159.0949 H   0  0  0  0  0  0  0  0  0  0  0  0
  148.8468  135.4148  160.4698 H   0  0  0  0  0  0  0  0  0  0  0  0
  145.8701  136.9516  161.8277 H   0  0  0  0  0  0  0  0  0  0  0  0
  145.8878  135.6205  160.6685 H   0  0  0  0  0  0  0  0  0  0  0  0
  147.8601  135.9705  163.0088 H   0  0  0  0  0  0  0  0  0  0  0  0
  147.5555  133.6586  160.9400 H   0  0  0  0  0  0  0  0  0  0  0  0
  148.7129  133.7135  162.3682 H   0  0  0  0  0  0  0  0  0  0  0  0
  146.7624  133.9448  163.9374 H   0  0  0  0  0  0  0  0  0  0  0  0
  145.6078  133.8893  162.5065 H   0  0  0  0  0  0  0  0  0  0  0  0
  1  2  1  0  0  0  0
  1 19  1  0  0  0  0
  1 20  1  0  0  0  0
  1 21  1  0  0  0  0
  2  3  1  0  0  0  0
  2  4  1  0  0  0  0
  3 22  1  0  0  0  0
  3 23  1  0  0  0  0
  3 24  1  0  0  0  0
  4  9  1  0  0  0  0
  4  5  2  0  0  0  0
  5  6  1  0  0  0  0
  6  7  2  0  0  0  0
  6 25  1  0  0  0  0
  7  8  1  0  0  0  0
  7 26  1  0  0  0  0
  8  9  2  0  0  0  0
  8 27  1  0  0  0  0
  9 10  1  0  0  0  0
 10 11  1  0  0  0  0
 10 28  1  0  0  0  0
 11 12  2  0  0  0  0
 11 13  1  0  0  0  0
 13 14  1  0  0  0  0
 13 29  1  0  0  0  0
 13 30  1  0  0  0  0
 14 15  1  0  0  0  0
 15 16  1  0  0  0  0
 15 31  1  0  0  0  0
 15 32  1  0  0  0  0
 16 18  1  0  0  0  0
 16 17  1  0  0  0  0
 16 33  1  0  0  0  0
 17 18  1  0  0  0  0
 17 34  1  0  0  0  0
 17 35  1  0  0  0  0
 18 36  1  0  0  0  0
 18 37  1  0  0  0  0
M  END
> <s_m_source_file>
AV-unprocessed.smi

> <i_m_source_file_index>
3227

> <i_lp_mmshare_version>
43012

> <i_f3d_flags>
0

> <s_epik_input>
W0NIM11OKFtDSDNdKWMxbltjSF1bY0hdW2NIXWMxW05IXUMoPU8pW0NIMl1PW0NIMl1bQ0hdMltDSDJdW0NIMl0y

> <s_epik_cmdline>
J2VwaWtfcHl0aG9uJywgJy1waCcsICc3LjAnLCAnLXRuJywgJzgnLCAnLW1hJywgJzIwMCcsICctbWV0YWxfYmluZGluZycsICctaW1hZScsICc8aW5maWxlLm1hZT4nLCAnLW9tYWUnLCAnPG91dGZpbGUubWFlPic=

> <r_lp_tautomer_probability>
1

> <r_epik_Ionization_Penalty>
0.25353

> <r_epik_Ionization_Penalty_Charging>
0

> <r_epik_Ionization_Penalty_Neutral>
0.25353

> <r_epik_State_Penalty>
0.244789

> <r_epik_Charging_Adjusted_Penalty>
0.244789

> <i_epik_Tot_Q>
0

> <i_epik_Tot_abs_Q>
0

> <r_epik_Metal_State_Penalty>
0.170372

> <b_epik_Metal_Only>
0

> <s_lp_Force_Field>
OPLS_2005

> <r_lp_Energy>
22.5303

> <b_lp_Chiralities_Consistent>
1

> <s_lp_Variant>
AV-unprocessed.smi:3227-1

> <Gold.Version>
5.8.1

> <Gold.Id.Protein>
6NUR|6NUR_protein|mol2

> <Gold.PLP.Fitness>
36.8543

> <Gold.PLP.PLP>
-28.6530

> <Gold.PLP.part.hbond>
-3.0000

> <Gold.PLP.part.metal>
0.0000

> <Gold.PLP.part.buried>
-4.8098

> <Gold.PLP.part.nonpolar>
-20.7854

> <Gold.PLP.part.repulsive>
0.2679

> <Gold.PLP.ligand.clash>
0.0000

> <Gold.PLP.ligand.torsion>
0.4481

> <Gold.PLP.Chemscore.Hbond>
2.7440

> <Gold.PLP.Chemscore.CHOScore>
0.0000

> <Gold.PLP.Chemscore.Metal>
0.0000

> <Gold.Chemscore.Hbonds>
donor molecule, donor type, donor heavy atom, donor atom, acceptor molecule, acceptor atom, score
      P1  H  6896  6908       L1    12  1.00
      P1  H  6934  6947       L1    14  0.76

> <Gold.PLP.Chemscore.Internal.Correction>
0.8657

> <Gold.Rescore>
     Score         DG    S(hbond)    S(metal)    S(lipo)     H(rot)  DE(clash)    DE(int)     intcor
     13.66     -15.58       2.23        0.00      59.44       1.68       0.03       1.90       ----

> <Gold.Chemscore.Fitness>
13.6572

> <Gold.Chemscore.DG>
-15.5842

> <Gold.Chemscore.ZeroCoef>
-5.4800

> <Gold.Chemscore.Hbond>
2.2284

> <Gold.Chemscore.Metal>
0.0000

> <Gold.Chemscore.Lipo>
59.4418

> <Gold.Chemscore.Internal_Hbond>
0.0000

> <Gold.Chemscore.DEClash>
0.0270

> <Gold.Chemscore.DEInternal>
1.9000

> <Gold.Chemscore.Rot>
1.6771

> <Gold.Chemscore.Internal.Correction>
   9.000000E+99

> <Gold.Chemscore.Hbonds>
donor molecule, donor type, donor heavy atom, donor atom, acceptor molecule, acceptor atom, score
      P1  H  6896  6908       L1    12  0.87
      P1  H  6931  6943       L1    14  0.01
      P1  H  6934  6947       L1    14  0.44

> <Gold.Chemscore.Hbond.Weighted>
-7.4430

> <Gold.Chemscore.Metal.Weighted>
-0.0000

> <Gold.Chemscore.Lipo.Weighted>
-6.9547

> <Gold.Chemscore.Internal_Hbond.Weighted>
0.0000

> <Gold.Chemscore.DEClash.Weighted>
0.0270

> <Gold.Chemscore.DEInternal.Weighted>
1.9000

> <Gold.Chemscore.Rot.Weighted>
4.2935

> <Gold.Chemscore.Internal.Correction.Weighted>
   9.000000E+99

> <Gold.Protein.RotatedTorsions>
[ 6907 6896 6895 6894 ] final -153.69 input  -60.11 | X-H torsion
[ 7974 7965 7964 7962 ] final  118.09 input  175.53 | X-H torsion
[ 8008 7997 7996 7995 ] final  101.08 input   59.86 | X-H torsion
[ 10167 10162 10161 10158 ] final  -18.27 input  -65.29 | X-H torsion
[ 10718 10713 10712 10709 ] final  178.47 input   66.30 | X-H torsion
[ 10763 10752 10751 10750 ] final   29.67 input  -60.55 | X-H torsion
[ 11005 11000 10999 10996 ] final  -86.32 input  -57.11 | X-H torsion

> <Gold.Protein.ActiveResidues>
 VAL166  LYS551  ARG553  GLY616  TRP617  ASP618  TYR619  PRO620  LYS621  CYS622 
 ASP623  PHE694  ASN695  SER759  ASP760  ASP761  ALA762  ILE779  LEU786  VAL792 
 PHE793  MET794  SER795  GLU796  ALA797  LYS798  CYS799  TRP800  GLU811  SER814 

> <Gold.Protein.RotatedAtoms>
  151.2463  133.4373  159.2609 H   0  0  0  0  0  0  0  0  0  0  0  0  # atno 6907 bound_to 6896
  151.0658  134.9767  159.8294 H   0  0  0  0  0  0  0  0  0  0  0  0  # atno 6908 bound_to 6896
  152.5405  134.2411  159.8915 H   0  0  0  0  0  0  0  0  0  0  0  0  # atno 6909 bound_to 6896
  145.1594  139.3163  143.4525 H   0  0  0  0  0  0  0  0  0  0  0  0  # atno 7974 bound_to 7965
  156.1265  140.3203  155.8285 H   0  0  0  0  0  0  0  0  0  0  0  0  # atno 8008 bound_to 7997
  155.4410  140.0525  157.3027 H   0  0  0  0  0  0  0  0  0  0  0  0  # atno 8009 bound_to 7997
  154.4866  140.2075  155.9654 H   0  0  0  0  0  0  0  0  0  0  0  0  # atno 8010 bound_to 7997
  140.7257  143.4933  150.9963 H   0  0  0  0  0  0  0  0  0  0  0  0  # atno 10167 bound_to 10162
  156.8901  130.9844  151.3050 H   0  0  0  0  0  0  0  0  0  0  0  0  # atno 10718 bound_to 10713
  153.0416  135.6483  154.0927 H   0  0  0  0  0  0  0  0  0  0  0  0  # atno 10763 bound_to 10752
  154.0632  135.2886  155.3323 H   0  0  0  0  0  0  0  0  0  0  0  0  # atno 10764 bound_to 10752
  154.6643  135.5380  153.8123 H   0  0  0  0  0  0  0  0  0  0  0  0  # atno 10765 bound_to 10752
  141.1631  133.7448  156.9143 H   0  0  0  0  0  0  0  0  0  0  0  0  # atno 11005 bound_to 11000
  146.3484  140.1699  142.8590 LP  0  0  0  0  0  0  0  0  0  0  0  0  # atno 17320 bound_to 7965
  145.0346  140.8898  143.5089 LP  0  0  0  0  0  0  0  0  0  0  0  0  # atno 17321 bound_to 7965
  139.8639  143.7279  152.3171 LP  0  0  0  0  0  0  0  0  0  0  0  0  # atno 17342 bound_to 10162
  139.7504  144.7535  151.0515 LP  0  0  0  0  0  0  0  0  0  0  0  0  # atno 17343 bound_to 10162
  157.6089  130.8568  149.8919 LP  0  0  0  0  0  0  0  0  0  0  0  0  # atno 17370 bound_to 10713
  156.0633  130.3696  150.0933 LP  0  0  0  0  0  0  0  0  0  0  0  0  # atno 17371 bound_to 10713
  140.1495  134.9240  157.2574 LP  0  0  0  0  0  0  0  0  0  0  0  0  # atno 17394 bound_to 11000
  140.2740  134.3427  155.7364 LP  0  0  0  0  0  0  0  0  0  0  0  0  # atno 17395 bound_to 11000

$$$$
