AV-unprocessed.smi:591|AV-procd|sdf|3009|dock5
  -GOLD-   2262023513D 1   1.00000     0.00000
 Structure written by MMmdl.
 42 43  0  0  0  0  0  0  0  0  1 V2000
  143.9465  136.5400  152.5579 O   0  0  0  0  0  0  0  0  0  0  0  0
  145.0124  136.2577  152.0086 C   0  0  0  0  0  0  0  0  0  0  0  0
  145.0523  135.3029  150.8066 C   0  0  0  0  0  0  0  0  0  0  0  0
  145.4092  133.9213  151.1708 N   0  0  0  0  0  0  0  0  0  0  0  0
  146.4878  133.7508  152.0611 C   0  0  0  0  0  0  0  0  0  0  0  0
  146.9192  132.5412  152.4670 C   0  0  0  0  0  0  0  0  0  0  0  0
  148.0464  132.3911  153.4769 C   0  0  0  0  0  0  0  0  0  0  0  0
  147.6648  132.8008  154.6870 F   0  0  0  0  0  0  0  0  0  0  0  0
  148.4061  131.1112  153.5663 F   0  0  0  0  0  0  0  0  0  0  0  0
  149.1170  133.0985  153.1133 F   0  0  0  0  0  0  0  0  0  0  0  0
  146.1903  131.3939  151.9627 C   0  0  0  0  0  0  0  0  0  0  0  0
  145.1484  131.5399  151.1210 C   0  0  0  0  0  0  0  0  0  0  0  0
  144.7028  132.8616  150.6742 C   0  0  0  0  0  0  0  0  0  0  0  0
  143.7538  133.0075  149.9032 O   0  0  0  0  0  0  0  0  0  0  0  0
  146.1958  136.7352  152.4189 N   0  0  0  0  0  0  0  0  0  0  0  0
  146.3696  137.6479  153.5401 C   0  0  0  0  0  0  0  0  0  0  0  0
  146.9356  138.9921  153.0588 C   0  0  0  0  0  0  0  0  0  0  0  0
  148.0165  139.5390  153.9767 C   0  0  0  0  0  0  0  0  0  0  0  0
  149.1527  138.8583  154.2252 C   0  0  0  0  0  0  0  0  0  0  0  0
  150.2712  139.3618  155.1204 C   0  0  0  0  0  0  0  0  0  0  0  0
  150.1362  140.8597  155.4415 C   0  0  0  0  0  0  0  0  0  0  0  0
  148.6845  141.2257  155.7747 C   0  0  0  0  0  0  0  0  0  0  0  0
  147.7421  140.9028  154.6014 C   0  0  0  0  0  0  0  0  0  0  0  0
  144.0861  135.3196  150.2984 H   0  0  0  0  0  0  0  0  0  0  0  0
  145.7618  135.7014  150.0802 H   0  0  0  0  0  0  0  0  0  0  0  0
  146.9372  134.6718  152.4030 H   0  0  0  0  0  0  0  0  0  0  0  0
  146.4861  130.3994  152.2629 H   0  0  0  0  0  0  0  0  0  0  0  0
  144.6290  130.6621  150.7647 H   0  0  0  0  0  0  0  0  0  0  0  0
  147.0274  136.4528  151.9204 H   0  0  0  0  0  0  0  0  0  0  0  0
  145.4078  137.8018  154.0322 H   0  0  0  0  0  0  0  0  0  0  0  0
  147.0384  137.1909  154.2707 H   0  0  0  0  0  0  0  0  0  0  0  0
  147.3507  138.8882  152.0556 H   0  0  0  0  0  0  0  0  0  0  0  0
  146.1262  139.7197  152.9827 H   0  0  0  0  0  0  0  0  0  0  0  0
  149.3046  137.8852  153.7810 H   0  0  0  0  0  0  0  0  0  0  0  0
  150.2557  138.7763  156.0400 H   0  0  0  0  0  0  0  0  0  0  0  0
  151.2307  139.1714  154.6389 H   0  0  0  0  0  0  0  0  0  0  0  0
  150.7956  141.1249  156.2684 H   0  0  0  0  0  0  0  0  0  0  0  0
  150.4647  141.4478  154.5834 H   0  0  0  0  0  0  0  0  0  0  0  0
  148.3693  140.6696  156.6588 H   0  0  0  0  0  0  0  0  0  0  0  0
  148.6092  142.2826  156.0322 H   0  0  0  0  0  0  0  0  0  0  0  0
  147.8503  141.6611  153.8255 H   0  0  0  0  0  0  0  0  0  0  0  0
  146.7078  140.9468  154.9439 H   0  0  0  0  0  0  0  0  0  0  0  0
  1  2  2  0  0  0  0
  2  3  1  0  0  0  0
  2 15  1  0  0  0  0
  3  4  1  0  0  0  0
  3 24  1  0  0  0  0
  3 25  1  0  0  0  0
  4 13  1  0  0  0  0
  4  5  1  0  0  0  0
  5  6  2  0  0  0  0
  5 26  1  0  0  0  0
  6  7  1  0  0  0  0
  6 11  1  0  0  0  0
  7  8  1  0  0  0  0
  7  9  1  0  0  0  0
  7 10  1  0  0  0  0
 11 12  2  0  0  0  0
 11 27  1  0  0  0  0
 12 13  1  0  0  0  0
 12 28  1  0  0  0  0
 13 14  2  0  0  0  0
 15 16  1  0  0  0  0
 15 29  1  0  0  0  0
 16 17  1  0  0  0  0
 16 30  1  0  0  0  0
 16 31  1  0  0  0  0
 17 18  1  0  0  0  0
 17 32  1  0  0  0  0
 17 33  1  0  0  0  0
 18 23  1  0  0  0  0
 18 19  2  0  0  0  0
 19 20  1  0  0  0  0
 19 34  1  0  0  0  0
 20 21  1  0  0  0  0
 20 35  1  0  0  0  0
 20 36  1  0  0  0  0
 21 22  1  0  0  0  0
 21 37  1  0  0  0  0
 21 38  1  0  0  0  0
 22 23  1  0  0  0  0
 22 39  1  0  0  0  0
 22 40  1  0  0  0  0
 23 41  1  0  0  0  0
 23 42  1  0  0  0  0
M  END
> <s_m_source_file>
AV-unprocessed.smi

> <i_m_source_file_index>
591

> <i_lp_mmshare_version>
43012

> <i_f3d_flags>
0

> <s_epik_input>
Tz1jMVtjSF1bY0hdYyhDKEYpKEYpRilbY0hdbjFbQ0gyXUMoPU8pW05IXVtDSDJdW0NIMl1DMj1bQ0hdW0NIMl1bQ0gyXVtDSDJdW0NIMl0y

> <s_epik_cmdline>
J2VwaWtfcHl0aG9uJywgJy1waCcsICc3LjAnLCAnLXRuJywgJzgnLCAnLW1hJywgJzIwMCcsICctbWV0YWxfYmluZGluZycsICctaW1hZScsICc8aW5maWxlLm1hZT4nLCAnLW9tYWUnLCAnPG91dGZpbGUubWFlPic=

> <r_lp_tautomer_probability>
1

> <r_epik_Ionization_Penalty>
3.65086e-08

> <r_epik_Ionization_Penalty_Charging>
1.84051e-08

> <r_epik_Ionization_Penalty_Neutral>
1.81035e-08

> <r_epik_State_Penalty>
-0

> <r_epik_Charging_Adjusted_Penalty>
1.84051e-08

> <i_epik_Tot_Q>
0

> <i_epik_Tot_abs_Q>
0

> <r_epik_Metal_State_Penalty>
-0

> <b_epik_Metal_Only>
0

> <s_lp_Force_Field>
OPLS_2005

> <r_lp_Energy>
19.2896

> <b_lp_Chiralities_Consistent>
1

> <s_lp_Variant>
AV-unprocessed.smi:591-1

> <Gold.Version>
5.8.1

> <Gold.Id.Protein>
6NUR|6NUR_protein|mol2

> <Gold.PLP.Fitness>
46.4814

> <Gold.PLP.PLP>
-42.6331

> <Gold.PLP.part.hbond>
-1.0000

> <Gold.PLP.part.metal>
0.0000

> <Gold.PLP.part.buried>
-4.2964

> <Gold.PLP.part.nonpolar>
-37.8197

> <Gold.PLP.part.repulsive>
0.4438

> <Gold.PLP.ligand.clash>
0.0077

> <Gold.PLP.ligand.torsion>
1.1210

> <Gold.PLP.Chemscore.Hbond>
1.0000

> <Gold.PLP.Chemscore.CHOScore>
1.0000

> <Gold.PLP.Chemscore.Metal>
0.0000

> <Gold.Chemscore.Hbonds>
donor molecule, donor type, donor heavy atom, donor atom, acceptor molecule, acceptor atom, score
      L1  H    15    29       P1  7948  1.00
      L1  C     5    26       P1  7948  0.90

> <Gold.PLP.Chemscore.Internal.Correction>
0.0981

> <Gold.Rescore>
     Score         DG    S(hbond)    S(metal)    S(lipo)     H(rot)  DE(clash)    DE(int)     intcor
     12.58     -13.66       0.96        0.00      84.94       1.94       0.07       1.01       ----

> <Gold.Chemscore.Fitness>
12.5794

> <Gold.Chemscore.DG>
-13.6575

> <Gold.Chemscore.ZeroCoef>
-5.4800

> <Gold.Chemscore.Hbond>
0.9592

> <Gold.Chemscore.Metal>
0.0000

> <Gold.Chemscore.Lipo>
84.9365

> <Gold.Chemscore.Internal_Hbond>
0.0000

> <Gold.Chemscore.DEClash>
0.0706

> <Gold.Chemscore.DEInternal>
1.0075

> <Gold.Chemscore.Rot>
1.9390

> <Gold.Chemscore.Internal.Correction>
   9.000000E+99

> <Gold.Chemscore.Hbonds>
donor molecule, donor type, donor heavy atom, donor atom, acceptor molecule, acceptor atom, score
      L1  H    15    29       P1  7948  0.95

> <Gold.Chemscore.Hbond.Weighted>
-3.2039

> <Gold.Chemscore.Metal.Weighted>
-0.0000

> <Gold.Chemscore.Lipo.Weighted>
-9.9376

> <Gold.Chemscore.Internal_Hbond.Weighted>
0.0000

> <Gold.Chemscore.DEClash.Weighted>
0.0706

> <Gold.Chemscore.DEInternal.Weighted>
1.0075

> <Gold.Chemscore.Rot.Weighted>
4.9639

> <Gold.Chemscore.Internal.Correction.Weighted>
   9.000000E+99

> <Gold.Protein.RotatedTorsions>
[ 6907 6896 6895 6894 ] final  -81.17 input  -60.11 | X-H torsion
[ 7974 7965 7964 7962 ] final  -32.62 input  175.53 | X-H torsion
[ 8008 7997 7996 7995 ] final -169.35 input   59.86 | X-H torsion
[ 10167 10162 10161 10158 ] final   -5.23 input  -65.29 | X-H torsion
[ 10718 10713 10712 10709 ] final  103.31 input   66.30 | X-H torsion
[ 10763 10752 10751 10750 ] final -139.85 input  -60.55 | X-H torsion
[ 11005 11000 10999 10996 ] final  122.90 input  -57.11 | X-H torsion

> <Gold.Protein.ActiveResidues>
 VAL166  LYS551  ARG553  GLY616  TRP617  ASP618  TYR619  PRO620  LYS621  CYS622 
 ASP623  PHE694  ASN695  SER759  ASP760  ASP761  ALA762  ILE779  LEU786  VAL792 
 PHE793  MET794  SER795  GLU796  ALA797  LYS798  CYS799  TRP800  GLU811  SER814 

> <Gold.Protein.RotatedAtoms>
  150.6916  134.3858  159.5053 H   0  0  0  0  0  0  0  0  0  0  0  0  # atno 6907 bound_to 6896
  152.1653  134.8876  160.0547 H   0  0  0  0  0  0  0  0  0  0  0  0  # atno 6908 bound_to 6896
  151.9922  133.3760  159.4186 H   0  0  0  0  0  0  0  0  0  0  0  0  # atno 6909 bound_to 6896
  146.0975  140.5815  142.8836 H   0  0  0  0  0  0  0  0  0  0  0  0  # atno 7974 bound_to 7965
  155.9038  140.1045  157.1330 H   0  0  0  0  0  0  0  0  0  0  0  0  # atno 8008 bound_to 7997
  154.4030  140.1287  156.4535 H   0  0  0  0  0  0  0  0  0  0  0  0  # atno 8009 bound_to 7997
  155.7391  140.3467  155.5098 H   0  0  0  0  0  0  0  0  0  0  0  0  # atno 8010 bound_to 7997
  140.6956  143.6333  150.8503 H   0  0  0  0  0  0  0  0  0  0  0  0  # atno 10167 bound_to 10162
  157.6776  131.0775  150.5536 H   0  0  0  0  0  0  0  0  0  0  0  0  # atno 10718 bound_to 10713
  154.8597  135.3570  154.5612 H   0  0  0  0  0  0  0  0  0  0  0  0  # atno 10763 bound_to 10752
  153.6228  135.7005  153.5309 H   0  0  0  0  0  0  0  0  0  0  0  0  # atno 10764 bound_to 10752
  153.3115  135.4177  155.1300 H   0  0  0  0  0  0  0  0  0  0  0  0  # atno 10765 bound_to 10752
  139.9289  134.9641  156.8179 H   0  0  0  0  0  0  0  0  0  0  0  0  # atno 11005 bound_to 11000
  144.7407  140.4933  143.6871 LP  0  0  0  0  0  0  0  0  0  0  0  0  # atno 17320 bound_to 7965
  145.5919  139.1496  143.3177 LP  0  0  0  0  0  0  0  0  0  0  0  0  # atno 17321 bound_to 7965
  140.0050  143.5703  152.2861 LP  0  0  0  0  0  0  0  0  0  0  0  0  # atno 17342 bound_to 10162
  139.6406  144.7654  151.2346 LP  0  0  0  0  0  0  0  0  0  0  0  0  # atno 17343 bound_to 10162
  156.5840  130.4312  149.5965 LP  0  0  0  0  0  0  0  0  0  0  0  0  # atno 17370 bound_to 10713
  156.2638  130.6978  151.1754 LP  0  0  0  0  0  0  0  0  0  0  0  0  # atno 17371 bound_to 10713
  140.6258  133.9951  155.7639 LP  0  0  0  0  0  0  0  0  0  0  0  0  # atno 17394 bound_to 11000
  141.0865  133.9983  157.3306 LP  0  0  0  0  0  0  0  0  0  0  0  0  # atno 17395 bound_to 11000

$$$$
