AV-unprocessed.smi:2344|AV-procd|sdf|9360|dock4
  -GOLD-   2272012583D 1   1.00000     0.00000
 Structure written by MMmdl.
 35 36  0  0  0  0  0  0  0  0  1 V2000
  150.9991  142.2608  156.4308 C   0  0  0  0  0  0  0  0  0  0  0  0
  150.2888  141.1422  155.6980 C   0  0  0  0  0  0  0  0  0  0  0  0
  150.9464  139.9333  155.4022 C   0  0  0  0  0  0  0  0  0  0  0  0
  150.2384  138.9251  154.7201 C   0  0  0  0  0  0  0  0  0  0  0  0
  148.8927  139.1477  154.3512 C   0  0  0  0  0  0  0  0  0  0  0  0
  148.2713  138.0702  153.6658 N   0  0  0  0  0  0  0  0  0  0  0  0
  146.9580  137.8082  153.5451 C   0  0  0  0  0  0  0  0  0  0  0  0
  146.0481  138.4812  154.0308 O   0  0  0  0  0  0  0  0  0  0  0  0
  146.7498  136.6989  152.8220 N   0  0  0  0  0  0  0  0  0  0  0  0
  145.4404  136.1252  152.5335 C   0  0  1  0  0  0  0  0  0  0  0  0
  145.2637  135.9466  151.0495 C   0  0  0  0  0  0  0  0  0  0  0  0
  145.0380  134.6805  150.7059 C   0  0  0  0  0  0  0  0  0  0  0  0
  145.0300  133.7507  151.8916 C   0  0  1  0  0  0  0  0  0  0  0  0
  146.0433  132.5973  151.7609 C   0  0  0  0  0  0  0  0  0  0  0  0
  147.3202  133.0634  151.3694 O   0  0  0  0  0  0  0  0  0  0  0  0
  145.2831  134.6887  153.0999 C   0  0  0  0  0  0  0  0  0  0  0  0
  148.2674  140.3156  154.6423 N   0  0  0  0  0  0  0  0  0  0  0  0
  148.9461  141.2811  155.2962 C   0  0  0  0  0  0  0  0  0  0  0  0
  144.6491  136.7798  152.9030 H   0  0  0  0  0  0  0  0  0  0  0  0
  144.0271  133.3289  151.9694 H   0  0  0  0  0  0  0  0  0  0  0  0
  152.0814  142.1576  156.3488 H   0  0  0  0  0  0  0  0  0  0  0  0
  150.7314  142.2476  157.4874 H   0  0  0  0  0  0  0  0  0  0  0  0
  150.7192  143.2300  156.0171 H   0  0  0  0  0  0  0  0  0  0  0  0
  151.9752  139.7773  155.6915 H   0  0  0  0  0  0  0  0  0  0  0  0
  150.7282  137.9913  154.4846 H   0  0  0  0  0  0  0  0  0  0  0  0
  148.9006  137.4205  153.2180 H   0  0  0  0  0  0  0  0  0  0  0  0
  147.5524  136.2034  152.4624 H   0  0  0  0  0  0  0  0  0  0  0  0
  145.3089  136.7776  150.3609 H   0  0  0  0  0  0  0  0  0  0  0  0
  144.8759  134.3291  149.6976 H   0  0  0  0  0  0  0  0  0  0  0  0
  146.1369  132.0682  152.7096 H   0  0  0  0  0  0  0  0  0  0  0  0
  145.6960  131.8720  151.0245 H   0  0  0  0  0  0  0  0  0  0  0  0
  147.7547  132.3780  150.8850 H   0  0  0  0  0  0  0  0  0  0  0  0
  146.1611  134.3791  153.6692 H   0  0  0  0  0  0  0  0  0  0  0  0
  144.4404  134.6487  153.7909 H   0  0  0  0  0  0  0  0  0  0  0  0
  148.4005  142.1900  155.5035 H   0  0  0  0  0  0  0  0  0  0  0  0
  1  2  1  0  0  0  0
  1 21  1  0  0  0  0
  1 22  1  0  0  0  0
  1 23  1  0  0  0  0
  2 18  1  0  0  0  0
  2  3  2  0  0  0  0
  3  4  1  0  0  0  0
  3 24  1  0  0  0  0
  4  5  2  0  0  0  0
  4 25  1  0  0  0  0
  5  6  1  0  0  0  0
  5 17  1  0  0  0  0
  6  7  1  0  0  0  0
  6 26  1  0  0  0  0
  7  8  2  0  0  0  0
  7  9  1  0  0  0  0
  9 10  1  0  0  0  0
  9 27  1  0  0  0  0
 10 19  1  0  0  0  0
 10 16  1  0  0  0  0
 10 11  1  0  0  0  0
 11 12  2  0  0  0  0
 11 28  1  0  0  0  0
 12 13  1  0  0  0  0
 12 29  1  0  0  0  0
 13 20  1  0  0  0  0
 13 14  1  0  0  0  0
 13 16  1  0  0  0  0
 14 15  1  0  0  0  0
 14 30  1  0  0  0  0
 14 31  1  0  0  0  0
 15 32  1  0  0  0  0
 16 33  1  0  0  0  0
 16 34  1  0  0  0  0
 17 18  2  0  0  0  0
 18 35  1  0  0  0  0
M  END
> <s_m_source_file>
AV-unprocessed.smi

> <i_m_source_file_index>
2344

> <i_lp_mmshare_version>
43012

> <i_f3d_flags>
0

> <s_epik_input>
W0NIM11jMVtjSF1bY0hdYyhuW2NIXTEpW05IXUMoPU8pW05IXVtDQEBIXTJbQ0hdPVtDSF1bQ0BASF0oW0NIMl0yKVtDSDJdW09IXQ==

> <s_epik_cmdline>
J2VwaWtfcHl0aG9uJywgJy1waCcsICc3LjAnLCAnLXRuJywgJzgnLCAnLW1hJywgJzIwMCcsICctbWV0YWxfYmluZGluZycsICctaW1hZScsICc8aW5maWxlLm1hZT4nLCAnLW9tYWUnLCAnPG91dGZpbGUubWFlPic=

> <r_lp_tautomer_probability>
1

> <r_epik_Ionization_Penalty>
5.7643e-05

> <r_epik_Ionization_Penalty_Charging>
0

> <r_epik_Ionization_Penalty_Neutral>
5.7643e-05

> <r_epik_State_Penalty>
-0

> <r_epik_Charging_Adjusted_Penalty>
0

> <i_epik_Tot_Q>
0

> <i_epik_Tot_abs_Q>
0

> <r_epik_Metal_State_Penalty>
-0

> <b_epik_Metal_Only>
0

> <s_lp_Force_Field>
OPLS_2005

> <r_lp_Energy>
18.1017

> <b_lp_Chiralities_Consistent>
1

> <s_lp_Variant>
AV-unprocessed.smi:2344-4

> <Gold.Version>
5.8.1

> <Gold.Id.Protein>
6NUR|6NUR_protein|mol2

> <Gold.PLP.Fitness>
39.6258

> <Gold.PLP.PLP>
-28.6460

> <Gold.PLP.part.hbond>
-2.6948

> <Gold.PLP.part.metal>
0.0000

> <Gold.PLP.part.buried>
-2.5987

> <Gold.PLP.part.nonpolar>
-23.1462

> <Gold.PLP.part.repulsive>
0.2792

> <Gold.PLP.ligand.clash>
0.0000

> <Gold.PLP.ligand.torsion>
0.1828

> <Gold.PLP.Chemscore.Hbond>
2.7905

> <Gold.PLP.Chemscore.CHOScore>
0.9868

> <Gold.PLP.Chemscore.Metal>
0.0000

> <Gold.Chemscore.Hbonds>
donor molecule, donor type, donor heavy atom, donor atom, acceptor molecule, acceptor atom, score
      L1  H     6    26       P1  7948  0.83
      L1  H     9    27       P1  7948  0.96
      L1  H    15    32       P1 10747  0.98
      L1  C    18    35       P1  8028  0.90

> <Gold.PLP.Chemscore.Internal.Correction>
0.0136

> <Gold.Rescore>
     Score         DG    S(hbond)    S(metal)    S(lipo)     H(rot)  DE(clash)    DE(int)     intcor
     16.03     -17.61       2.73        0.00      65.44       1.82       0.20       1.37       ----

> <Gold.Chemscore.Fitness>
16.0311

> <Gold.Chemscore.DG>
-17.6054

> <Gold.Chemscore.ZeroCoef>
-5.4800

> <Gold.Chemscore.Hbond>
2.7316

> <Gold.Chemscore.Metal>
0.0000

> <Gold.Chemscore.Lipo>
65.4429

> <Gold.Chemscore.Internal_Hbond>
0.0000

> <Gold.Chemscore.DEClash>
0.2050

> <Gold.Chemscore.DEInternal>
1.3693

> <Gold.Chemscore.Rot>
1.8184

> <Gold.Chemscore.Internal.Correction>
   9.000000E+99

> <Gold.Chemscore.Hbonds>
donor molecule, donor type, donor heavy atom, donor atom, acceptor molecule, acceptor atom, score
      L1  H     6    26       P1  7948  0.83
      L1  H     9    27       P1  7948  0.86
      L1  H    15    32       P1 10747  0.92

> <Gold.Chemscore.Hbond.Weighted>
-9.1236

> <Gold.Chemscore.Metal.Weighted>
-0.0000

> <Gold.Chemscore.Lipo.Weighted>
-7.6568

> <Gold.Chemscore.Internal_Hbond.Weighted>
0.0000

> <Gold.Chemscore.DEClash.Weighted>
0.2050

> <Gold.Chemscore.DEInternal.Weighted>
1.3693

> <Gold.Chemscore.Rot.Weighted>
4.6551

> <Gold.Chemscore.Internal.Correction.Weighted>
   9.000000E+99

> <Gold.Protein.RotatedTorsions>
[ 6907 6896 6895 6894 ] final  -16.32 input  -60.11 | X-H torsion
[ 7974 7965 7964 7962 ] final  -52.97 input  175.53 | X-H torsion
[ 8008 7997 7996 7995 ] final  167.70 input   59.86 | X-H torsion
[ 10167 10162 10161 10158 ] final  123.49 input  -65.29 | X-H torsion
[ 10718 10713 10712 10709 ] final  -50.36 input   66.30 | X-H torsion
[ 10763 10752 10751 10750 ] final -103.88 input  -60.55 | X-H torsion
[ 11005 11000 10999 10996 ] final  -44.26 input  -57.11 | X-H torsion

> <Gold.Protein.ActiveResidues>
 VAL166  LYS551  ARG553  GLY616  TRP617  ASP618  TYR619  PRO620  LYS621  CYS622 
 ASP623  PHE694  ASN695  SER759  ASP760  ASP761  ALA762  ILE779  LEU786  VAL792 
 PHE793  MET794  SER795  GLU796  ALA797  LYS798  CYS799  TRP800  GLU811  SER814 

> <Gold.Protein.RotatedAtoms>
  151.3104  135.0792  159.9269 H   0  0  0  0  0  0  0  0  0  0  0  0  # atno 6907 bound_to 6896
  152.5279  133.9742  159.7786 H   0  0  0  0  0  0  0  0  0  0  0  0  # atno 6908 bound_to 6896
  151.0044  133.5973  159.2721 H   0  0  0  0  0  0  0  0  0  0  0  0  # atno 6909 bound_to 6896
  145.9021  140.7986  142.9738 H   0  0  0  0  0  0  0  0  0  0  0  0  # atno 7974 bound_to 7965
  156.1611  140.1610  156.8610 H   0  0  0  0  0  0  0  0  0  0  0  0  # atno 8008 bound_to 7997
  154.5162  140.0789  156.8121 H   0  0  0  0  0  0  0  0  0  0  0  0  # atno 8009 bound_to 7997
  155.3705  140.3400  155.4245 H   0  0  0  0  0  0  0  0  0  0  0  0  # atno 8010 bound_to 7997
  139.5796  144.6980  151.3563 H   0  0  0  0  0  0  0  0  0  0  0  0  # atno 10167 bound_to 10162
  156.1808  130.4150  149.9510 H   0  0  0  0  0  0  0  0  0  0  0  0  # atno 10718 bound_to 10713
  154.7839  135.4807  153.9904 H   0  0  0  0  0  0  0  0  0  0  0  0  # atno 10763 bound_to 10752
  153.1532  135.6795  153.8858 H   0  0  0  0  0  0  0  0  0  0  0  0  # atno 10764 bound_to 10752
  153.8495  135.3169  155.3410 H   0  0  0  0  0  0  0  0  0  0  0  0  # atno 10765 bound_to 10752
  141.0439  133.6769  156.2848 H   0  0  0  0  0  0  0  0  0  0  0  0  # atno 11005 bound_to 11000
  144.6736  140.1692  143.7416 LP  0  0  0  0  0  0  0  0  0  0  0  0  # atno 17320 bound_to 7965
  145.8778  139.2306  143.1623 LP  0  0  0  0  0  0  0  0  0  0  0  0  # atno 17321 bound_to 7965
  140.7076  143.7474  150.7509 LP  0  0  0  0  0  0  0  0  0  0  0  0  # atno 17342 bound_to 10162
  140.1003  143.4794  152.2429 LP  0  0  0  0  0  0  0  0  0  0  0  0  # atno 17343 bound_to 10162
  156.7281  130.9033  151.3623 LP  0  0  0  0  0  0  0  0  0  0  0  0  # atno 17370 bound_to 10713
  157.6866  130.9192  150.0404 LP  0  0  0  0  0  0  0  0  0  0  0  0  # atno 17371 bound_to 10713
  140.6184  134.5387  157.5544 LP  0  0  0  0  0  0  0  0  0  0  0  0  # atno 17394 bound_to 11000
  139.9296  134.7988  156.0968 LP  0  0  0  0  0  0  0  0  0  0  0  0  # atno 17395 bound_to 11000

$$$$
