AV-unprocessed.smi:264|AV-procd|sdf|2011|dock6
  -GOLD-   2262021213D 1   1.00000     0.00000
 Structure written by MMmdl.
 52 56  0  0  0  0  0  0  0  0  1 V2000
  143.0347  133.3031  151.5831 C   0  0  0  0  0  0  0  0  0  0  0  0
  144.2320  133.7244  150.7163 C   0  0  2  0  0  0  0  0  0  0  0  0
  145.1092  132.6059  150.6132 O   0  0  0  0  0  0  0  0  0  0  0  0
  146.4341  133.0803  150.4546 C   0  0  0  0  0  0  0  0  0  0  0  0
  146.4775  134.2523  151.4231 C   0  0  0  0  0  0  0  0  0  0  0  0
  145.1055  134.8978  151.2457 C   0  0  1  0  0  0  0  0  0  0  0  0
  145.2093  135.8572  150.2065 O   0  0  0  0  0  0  0  0  0  0  0  0
  144.5922  135.6231  152.5176 C   0  0  0  0  0  0  0  0  0  0  0  0
  145.5026  136.6478  153.0079 N   0  0  0  0  0  0  0  0  0  0  0  0
  145.5755  137.9548  152.5860 C   0  0  0  0  0  0  0  0  0  0  0  0
  146.4798  138.6804  153.1829 N   0  0  0  0  0  0  0  0  0  0  0  0
  147.0731  137.8165  154.0987 C   0  0  0  0  0  0  0  0  0  0  0  0
  148.1174  137.9369  155.0672 C   0  0  0  0  0  0  0  0  0  0  0  0
  148.8179  139.0687  155.3438 N   0  0  0  0  0  0  0  0  0  0  0  0
  148.3580  140.2986  154.7070 C   0  0  0  0  0  0  0  0  0  0  0  0
  149.4792  141.3469  154.7213 C   0  0  0  0  0  0  0  0  0  0  0  0
  149.9531  141.5448  156.0522 O   0  0  0  0  0  0  0  0  0  0  0  0
  150.4570  140.3615  156.6783 C   0  0  2  0  0  0  0  0  0  0  0  0
  150.8691  140.7260  158.1000 C   0  0  0  0  0  0  0  0  0  0  0  0
  152.0631  139.8197  158.3559 C   0  0  0  0  0  0  0  0  0  0  0  0
  152.7521  139.8676  157.1203 O   0  0  0  0  0  0  0  0  0  0  0  0
  151.7929  139.8760  156.0682 C   0  0  0  0  0  0  0  0  0  0  0  0
  149.3615  139.2697  156.6816 C   0  0  0  0  0  0  0  0  0  0  0  0
  148.4279  136.8250  155.7838 N   0  0  0  0  0  0  0  0  0  0  0  0
  147.7722  135.6791  155.5832 C   0  0  0  0  0  0  0  0  0  0  0  0
  146.7828  135.4248  154.7269 N   0  0  0  0  0  0  0  0  0  0  0  0
  146.4655  136.5307  153.9956 C   0  0  0  0  0  0  0  0  0  0  0  0
  142.3182  134.1169  151.6957 H   0  0  0  0  0  0  0  0  0  0  0  0
  143.3511  132.9843  152.5764 H   0  0  0  0  0  0  0  0  0  0  0  0
  142.5071  132.4657  151.1261 H   0  0  0  0  0  0  0  0  0  0  0  0
  143.8661  133.9462  149.7119 H   0  0  0  0  0  0  0  0  0  0  0  0
  147.1691  132.3102  150.6889 H   0  0  0  0  0  0  0  0  0  0  0  0
  146.5901  133.4107  149.4265 H   0  0  0  0  0  0  0  0  0  0  0  0
  146.5800  133.8603  152.4355 H   0  0  0  0  0  0  0  0  0  0  0  0
  147.3129  134.9305  151.2432 H   0  0  0  0  0  0  0  0  0  0  0  0
  145.7856  135.5157  149.5401 H   0  0  0  0  0  0  0  0  0  0  0  0
  143.6262  136.0921  152.3259 H   0  0  0  0  0  0  0  0  0  0  0  0
  144.4328  134.9093  153.3261 H   0  0  0  0  0  0  0  0  0  0  0  0
  144.9366  138.3547  151.8120 H   0  0  0  0  0  0  0  0  0  0  0  0
  148.0391  140.1312  153.6781 H   0  0  0  0  0  0  0  0  0  0  0  0
  147.4901  140.6723  155.2517 H   0  0  0  0  0  0  0  0  0  0  0  0
  150.2927  141.0446  154.0615 H   0  0  0  0  0  0  0  0  0  0  0  0
  149.1053  142.2966  154.3389 H   0  0  0  0  0  0  0  0  0  0  0  0
  151.1981  141.7653  158.1416 H   0  0  0  0  0  0  0  0  0  0  0  0
  150.0727  140.6021  158.8345 H   0  0  0  0  0  0  0  0  0  0  0  0
  152.6883  140.1649  159.1795 H   0  0  0  0  0  0  0  0  0  0  0  0
  151.7451  138.7970  158.5644 H   0  0  0  0  0  0  0  0  0  0  0  0
  151.7021  138.8734  155.6482 H   0  0  0  0  0  0  0  0  0  0  0  0
  152.1572  140.5326  155.2784 H   0  0  0  0  0  0  0  0  0  0  0  0
  148.5461  139.5638  157.3439 H   0  0  0  0  0  0  0  0  0  0  0  0
  149.7764  138.3380  157.0680 H   0  0  0  0  0  0  0  0  0  0  0  0
  148.0846  134.8478  156.1976 H   0  0  0  0  0  0  0  0  0  0  0  0
  1  2  1  0  0  0  0
  1 28  1  0  0  0  0
  1 29  1  0  0  0  0
  1 30  1  0  0  0  0
  2  6  1  0  0  0  0
  2  3  1  0  0  0  0
  2 31  1  0  0  0  0
  3  4  1  0  0  0  0
  4  5  1  0  0  0  0
  4 32  1  0  0  0  0
  4 33  1  0  0  0  0
  5  6  1  0  0  0  0
  5 34  1  0  0  0  0
  5 35  1  0  0  0  0
  6  7  1  0  0  0  0
  6  8  1  0  0  0  0
  7 36  1  0  0  0  0
  8  9  1  0  0  0  0
  8 37  1  0  0  0  0
  8 38  1  0  0  0  0
  9 27  1  0  0  0  0
  9 10  1  0  0  0  0
 10 11  2  0  0  0  0
 10 39  1  0  0  0  0
 11 12  1  0  0  0  0
 12 27  2  0  0  0  0
 12 13  1  0  0  0  0
 13 14  1  0  0  0  0
 13 24  2  0  0  0  0
 14 23  1  0  0  0  0
 14 15  1  0  0  0  0
 15 16  1  0  0  0  0
 15 40  1  0  0  0  0
 15 41  1  0  0  0  0
 16 17  1  0  0  0  0
 16 42  1  0  0  0  0
 16 43  1  0  0  0  0
 17 18  1  0  0  0  0
 18 22  1  0  0  0  0
 18 19  1  0  0  0  0
 18 23  1  0  0  0  0
 19 20  1  0  0  0  0
 19 44  1  0  0  0  0
 19 45  1  0  0  0  0
 20 21  1  0  0  0  0
 20 46  1  0  0  0  0
 20 47  1  0  0  0  0
 21 22  1  0  0  0  0
 22 48  1  0  0  0  0
 22 49  1  0  0  0  0
 23 50  1  0  0  0  0
 23 51  1  0  0  0  0
 24 25  1  0  0  0  0
 25 26  2  0  0  0  0
 25 52  1  0  0  0  0
 26 27  1  0  0  0  0
M  END
> <s_m_source_file>
AV-unprocessed.smi

> <i_m_source_file_index>
264

> <i_lp_mmshare_version>
43012

> <i_f3d_flags>
0

> <s_epik_input>
W0NIMl0xW0NIMl1PW0NAQEhdKFtDSDNdKVtDQEBdMShbT0hdKVtDSDJdbihbY0hdbjIpYyhjMjMpbltjSF1uYzNOKFtDSDJdNClbQ0gyXVtDSDJdT1tDQF00NVtDSDJdW0NIMl1PW0NIMl01

> <s_epik_cmdline>
J2VwaWtfcHl0aG9uJywgJy1waCcsICc3LjAnLCAnLXRuJywgJzgnLCAnLW1hJywgJzIwMCcsICctbWV0YWxfYmluZGluZycsICctaW1hZScsICc8aW5maWxlLm1hZT4nLCAnLW9tYWUnLCAnPG91dGZpbGUubWFlPic=

> <r_lp_tautomer_probability>
1

> <r_epik_Ionization_Penalty>
0.00539389

> <r_epik_Ionization_Penalty_Charging>
0

> <r_epik_Ionization_Penalty_Neutral>
0.00539389

> <r_epik_State_Penalty>
0.00375441

> <r_epik_Charging_Adjusted_Penalty>
0.00375441

> <i_epik_Tot_Q>
0

> <i_epik_Tot_abs_Q>
0

> <r_epik_Metal_State_Penalty>
-0

> <b_epik_Metal_Only>
0

> <s_lp_Force_Field>
OPLS_2005

> <r_lp_Energy>
55.2391

> <b_lp_Chiralities_Consistent>
1

> <s_lp_Variant>
AV-unprocessed.smi:264-5

> <Gold.Version>
5.8.1

> <Gold.Id.Protein>
6NUR|6NUR_protein|mol2

> <Gold.PLP.Fitness>
42.7128

> <Gold.PLP.PLP>
-32.5201

> <Gold.PLP.part.hbond>
-2.8632

> <Gold.PLP.part.metal>
0.0000

> <Gold.PLP.part.buried>
-1.9023

> <Gold.PLP.part.nonpolar>
-27.1349

> <Gold.PLP.part.repulsive>
0.5779

> <Gold.PLP.ligand.clash>
0.0000

> <Gold.PLP.ligand.torsion>
0.5429

> <Gold.PLP.Chemscore.Hbond>
1.9750

> <Gold.PLP.Chemscore.CHOScore>
1.6847

> <Gold.PLP.Chemscore.Metal>
0.0000

> <Gold.Chemscore.Hbonds>
donor molecule, donor type, donor heavy atom, donor atom, acceptor molecule, acceptor atom, score
      L1  H     7    36       P1  7921  0.96
      P1  H  7997  8008       L1    21  1.00
      L1  C    10    39       P1 10171  1.00
      L1  C    10    39       P1 10175  0.71

> <Gold.PLP.Chemscore.Internal.Correction>
0.2994

> <Gold.Rescore>
     Score         DG    S(hbond)    S(metal)    S(lipo)     H(rot)  DE(clash)    DE(int)     intcor
     14.76     -16.60       1.99        0.00      77.51       1.79       0.05       1.78       ----

> <Gold.Chemscore.Fitness>
14.7619

> <Gold.Chemscore.DG>
-16.5954

> <Gold.Chemscore.ZeroCoef>
-5.4800

> <Gold.Chemscore.Hbond>
1.9873

> <Gold.Chemscore.Metal>
0.0000

> <Gold.Chemscore.Lipo>
77.5147

> <Gold.Chemscore.Internal_Hbond>
0.0000

> <Gold.Chemscore.DEClash>
0.0522

> <Gold.Chemscore.DEInternal>
1.7813

> <Gold.Chemscore.Rot>
1.7935

> <Gold.Chemscore.Internal.Correction>
   9.000000E+99

> <Gold.Chemscore.Hbonds>
donor molecule, donor type, donor heavy atom, donor atom, acceptor molecule, acceptor atom, score
      L1  H     7    36       P1  7921  0.86
      P1  H  7997  8008       L1    21  0.62

> <Gold.Chemscore.Hbond.Weighted>
-6.6375

> <Gold.Chemscore.Metal.Weighted>
-0.0000

> <Gold.Chemscore.Lipo.Weighted>
-9.0692

> <Gold.Chemscore.Internal_Hbond.Weighted>
0.0000

> <Gold.Chemscore.DEClash.Weighted>
0.0522

> <Gold.Chemscore.DEInternal.Weighted>
1.7813

> <Gold.Chemscore.Rot.Weighted>
4.5913

> <Gold.Chemscore.Internal.Correction.Weighted>
   9.000000E+99

> <Gold.Protein.RotatedTorsions>
[ 6907 6896 6895 6894 ] final -100.97 input  -60.11 | X-H torsion
[ 7974 7965 7964 7962 ] final -128.84 input  175.53 | X-H torsion
[ 8008 7997 7996 7995 ] final  -45.29 input   59.86 | X-H torsion
[ 10167 10162 10161 10158 ] final  -66.85 input  -65.29 | X-H torsion
[ 10718 10713 10712 10709 ] final  -24.67 input   66.30 | X-H torsion
[ 10763 10752 10751 10750 ] final  -41.70 input  -60.55 | X-H torsion
[ 11005 11000 10999 10996 ] final    4.00 input  -57.11 | X-H torsion

> <Gold.Protein.ActiveResidues>
 VAL166  LYS551  ARG553  GLY616  TRP617  ASP618  TYR619  PRO620  LYS621  CYS622 
 ASP623  PHE694  ASN695  SER759  ASP760  ASP761  ALA762  ILE779  LEU786  VAL792 
 PHE793  MET794  SER795  GLU796  ALA797  LYS798  CYS799  TRP800  GLU811  SER814 

> <Gold.Protein.RotatedAtoms>
  150.7136  134.0806  159.3896 H   0  0  0  0  0  0  0  0  0  0  0  0  # atno 6907 bound_to 6896
  151.8790  135.0459  160.0496 H   0  0  0  0  0  0  0  0  0  0  0  0  # atno 6908 bound_to 6896
  152.2583  133.5239  159.5403 H   0  0  0  0  0  0  0  0  0  0  0  0  # atno 6909 bound_to 6896
  144.9631  140.7467  143.4717 H   0  0  0  0  0  0  0  0  0  0  0  0  # atno 7974 bound_to 7965
  154.4000  140.1400  156.3823 H   0  0  0  0  0  0  0  0  0  0  0  0  # atno 8008 bound_to 7997
  155.7992  140.3476  155.5372 H   0  0  0  0  0  0  0  0  0  0  0  0  # atno 8009 bound_to 7997
  155.8501  140.0940  157.1671 H   0  0  0  0  0  0  0  0  0  0  0  0  # atno 8010 bound_to 7997
  140.5627  143.2313  151.6696 H   0  0  0  0  0  0  0  0  0  0  0  0  # atno 10167 bound_to 10162
  156.4746  130.4532  149.6848 H   0  0  0  0  0  0  0  0  0  0  0  0  # atno 10718 bound_to 10713
  153.9668  135.6733  153.4746 H   0  0  0  0  0  0  0  0  0  0  0  0  # atno 10763 bound_to 10752
  153.0812  135.4922  154.8502 H   0  0  0  0  0  0  0  0  0  0  0  0  # atno 10764 bound_to 10752
  154.7241  135.3123  154.8959 H   0  0  0  0  0  0  0  0  0  0  0  0  # atno 10765 bound_to 10752
  140.5868  133.9961  155.8071 H   0  0  0  0  0  0  0  0  0  0  0  0  # atno 11005 bound_to 11000
  145.2670  139.1969  143.4861 LP  0  0  0  0  0  0  0  0  0  0  0  0  # atno 17320 bound_to 7965
  146.3359  140.2610  142.8602 LP  0  0  0  0  0  0  0  0  0  0  0  0  # atno 17321 bound_to 7965
  139.5078  144.3635  152.0539 LP  0  0  0  0  0  0  0  0  0  0  0  0  # atno 17342 bound_to 10162
  140.2763  144.3909  150.6134 LP  0  0  0  0  0  0  0  0  0  0  0  0  # atno 17343 bound_to 10162
  156.3583  130.7468  151.2437 LP  0  0  0  0  0  0  0  0  0  0  0  0  # atno 17370 bound_to 10713
  157.7488  131.0357  150.4377 LP  0  0  0  0  0  0  0  0  0  0  0  0  # atno 17371 bound_to 10713
  141.0961  133.9842  157.3158 LP  0  0  0  0  0  0  0  0  0  0  0  0  # atno 17394 bound_to 11000
  139.9292  135.0200  156.8342 LP  0  0  0  0  0  0  0  0  0  0  0  0  # atno 17395 bound_to 11000

$$$$
