AV-unprocessed.smi:3030|AV-procd|sdf|11540|dock9
  -GOLD-   2272016483D 1   1.00000     0.00000
 Structure written by MMmdl.
 52 53  0  0  0  0  0  0  0  0  1 V2000
  152.0628  138.5137  154.8876 C   0  0  0  0  0  0  0  0  0  0  0  0
  151.2509  137.3937  154.2279 C   0  0  0  0  0  0  0  0  0  0  0  0
  150.6732  136.4929  155.2148 N   0  0  0  0  0  0  0  0  0  0  0  0
  150.9026  136.6695  156.5752 C   0  0  0  0  0  0  0  0  0  0  0  0
  150.4477  135.8369  157.5313 C   0  0  0  0  0  0  0  0  0  0  0  0
  149.6573  134.6514  157.1423 C   0  0  0  0  0  0  0  0  0  0  0  0
  149.2260  133.8701  157.9904 O   0  0  0  0  0  0  0  0  0  0  0  0
  149.4163  134.4592  155.6874 C   0  0  0  0  0  0  0  0  0  0  0  0
  148.6570  133.3331  155.3283 N   0  0  0  0  0  0  0  0  0  0  0  0
  148.5523  132.7162  154.1371 C   0  0  0  0  0  0  0  0  0  0  0  0
  149.1465  133.0287  153.1058 O   0  0  0  0  0  0  0  0  0  0  0  0
  147.7010  131.6834  154.2112 N   0  0  0  0  0  0  0  0  0  0  0  0
  147.3385  130.7989  153.1051 C   0  0  1  0  0  0  0  0  0  0  0  0
  147.3073  129.3412  153.6145 C   0  0  0  0  0  0  0  0  0  0  0  0
  146.8649  128.3349  152.5358 C   0  0  2  0  0  0  0  0  0  0  0  0
  147.9512  128.0879  151.4741 C   0  0  0  0  0  0  0  0  0  0  0  0
  145.5200  128.7655  151.9231 C   0  0  0  0  0  0  0  0  0  0  0  0
  145.5508  130.2096  151.3971 C   0  0  0  0  0  0  0  0  0  0  0  0
  145.9734  131.2170  152.4927 C   0  0  2  0  0  0  0  0  0  0  0  0
  145.9238  132.7001  152.0155 C   0  0  0  0  0  0  0  0  0  0  0  0
  144.5199  133.1189  151.5458 C   0  0  0  0  0  0  0  0  0  0  0  0
  146.9803  133.0556  150.9530 C   0  0  0  0  0  0  0  0  0  0  0  0
  149.9305  135.3783  154.8304 C   0  0  0  0  0  0  0  0  0  0  0  0
  152.4814  139.1825  154.1356 H   0  0  0  0  0  0  0  0  0  0  0  0
  152.8900  138.1092  155.4714 H   0  0  0  0  0  0  0  0  0  0  0  0
  151.4409  139.1110  155.5549 H   0  0  0  0  0  0  0  0  0  0  0  0
  150.4553  137.8229  153.6176 H   0  0  0  0  0  0  0  0  0  0  0  0
  151.8868  136.8279  153.5460 H   0  0  0  0  0  0  0  0  0  0  0  0
  151.4812  137.5489  156.8188 H   0  0  0  0  0  0  0  0  0  0  0  0
  150.6472  136.0167  158.5775 H   0  0  0  0  0  0  0  0  0  0  0  0
  148.1235  132.9328  156.0867 H   0  0  0  0  0  0  0  0  0  0  0  0
  147.2601  131.4971  155.1000 H   0  0  0  0  0  0  0  0  0  0  0  0
  148.0995  130.8713  152.3272 H   0  0  0  0  0  0  0  0  0  0  0  0
  148.2862  129.0565  154.0031 H   0  0  0  0  0  0  0  0  0  0  0  0
  146.6192  129.2737  154.4587 H   0  0  0  0  0  0  0  0  0  0  0  0
  146.7024  127.3779  153.0334 H   0  0  0  0  0  0  0  0  0  0  0  0
  148.1943  128.9911  150.9153 H   0  0  0  0  0  0  0  0  0  0  0  0
  147.6305  127.3331  150.7557 H   0  0  0  0  0  0  0  0  0  0  0  0
  148.8719  127.7292  151.9350 H   0  0  0  0  0  0  0  0  0  0  0  0
  145.2346  128.0831  151.1219 H   0  0  0  0  0  0  0  0  0  0  0  0
  144.7402  128.6830  152.6812 H   0  0  0  0  0  0  0  0  0  0  0  0
  146.2289  130.2690  150.5462 H   0  0  0  0  0  0  0  0  0  0  0  0
  144.5612  130.4560  151.0143 H   0  0  0  0  0  0  0  0  0  0  0  0
  145.2387  131.1297  153.2953 H   0  0  0  0  0  0  0  0  0  0  0  0
  146.1319  133.3304  152.8800 H   0  0  0  0  0  0  0  0  0  0  0  0
  144.2393  132.6296  150.6134 H   0  0  0  0  0  0  0  0  0  0  0  0
  144.4735  134.1944  151.3726 H   0  0  0  0  0  0  0  0  0  0  0  0
  143.7639  132.8773  152.2934 H   0  0  0  0  0  0  0  0  0  0  0  0
  146.8218  132.5079  150.0243 H   0  0  0  0  0  0  0  0  0  0  0  0
  147.9916  132.8454  151.2998 H   0  0  0  0  0  0  0  0  0  0  0  0
  146.9421  134.1182  150.7119 H   0  0  0  0  0  0  0  0  0  0  0  0
  149.7930  135.3290  153.7624 H   0  0  0  0  0  0  0  0  0  0  0  0
  1  2  1  0  0  0  0
  1 24  1  0  0  0  0
  1 25  1  0  0  0  0
  1 26  1  0  0  0  0
  2  3  1  0  0  0  0
  2 27  1  0  0  0  0
  2 28  1  0  0  0  0
  3 23  1  0  0  0  0
  3  4  1  0  0  0  0
  4  5  2  0  0  0  0
  4 29  1  0  0  0  0
  5  6  1  0  0  0  0
  5 30  1  0  0  0  0
  6  7  2  0  0  0  0
  6  8  1  0  0  0  0
  8  9  1  0  0  0  0
  8 23  2  0  0  0  0
  9 10  1  0  0  0  0
  9 31  1  0  0  0  0
 10 11  2  0  0  0  0
 10 12  1  0  0  0  0
 12 13  1  0  0  0  0
 12 32  1  0  0  0  0
 13 19  1  0  0  0  0
 13 14  1  0  0  0  0
 13 33  1  0  0  0  0
 14 15  1  0  0  0  0
 14 34  1  0  0  0  0
 14 35  1  0  0  0  0
 15 16  1  0  0  0  0
 15 17  1  0  0  0  0
 15 36  1  0  0  0  0
 16 37  1  0  0  0  0
 16 38  1  0  0  0  0
 16 39  1  0  0  0  0
 17 18  1  0  0  0  0
 17 40  1  0  0  0  0
 17 41  1  0  0  0  0
 18 19  1  0  0  0  0
 18 42  1  0  0  0  0
 18 43  1  0  0  0  0
 19 20  1  0  0  0  0
 19 44  1  0  0  0  0
 20 21  1  0  0  0  0
 20 22  1  0  0  0  0
 20 45  1  0  0  0  0
 21 46  1  0  0  0  0
 21 47  1  0  0  0  0
 21 48  1  0  0  0  0
 22 49  1  0  0  0  0
 22 50  1  0  0  0  0
 22 51  1  0  0  0  0
 23 52  1  0  0  0  0
M  END
> <s_m_source_file>
AV-unprocessed.smi

> <i_m_source_file_index>
3030

> <i_lp_mmshare_version>
43012

> <i_f3d_flags>
0

> <s_epik_input>
W0NIM11bQ0gyXW4xW2NIXVtjSF1jKD1PKWMoW2NIXTEpW05IXUMoPU8pW05IXVtDQEBIXTJbQ0gyXVtDQEBIXShbQ0gzXSlbQ0gyXVtDSDJdW0NASF0yW0NIXShbQ0gzXSlbQ0gzXQ==

> <s_epik_cmdline>
J2VwaWtfcHl0aG9uJywgJy1waCcsICc3LjAnLCAnLXRuJywgJzgnLCAnLW1hJywgJzIwMCcsICctbWV0YWxfYmluZGluZycsICctaW1hZScsICc8aW5maWxlLm1hZT4nLCAnLW9tYWUnLCAnPG91dGZpbGUubWFlPic=

> <r_lp_tautomer_probability>
1

> <r_epik_Ionization_Penalty>
0.00147933

> <r_epik_Ionization_Penalty_Charging>
0.00145753

> <r_epik_Ionization_Penalty_Neutral>
2.17987e-05

> <r_epik_State_Penalty>
0.00097457

> <r_epik_Charging_Adjusted_Penalty>
0.0024321

> <i_epik_Tot_Q>
0

> <i_epik_Tot_abs_Q>
0

> <r_epik_Metal_State_Penalty>
-0

> <b_epik_Metal_Only>
0

> <s_lp_Force_Field>
OPLS_2005

> <r_lp_Energy>
11.4945

> <b_lp_Chiralities_Consistent>
1

> <s_lp_Variant>
AV-unprocessed.smi:3030-8

> <Gold.Version>
5.8.1

> <Gold.Id.Protein>
6NUR|6NUR_protein|mol2

> <Gold.PLP.Fitness>
41.2721

> <Gold.PLP.PLP>
-35.9657

> <Gold.PLP.part.hbond>
-1.0000

> <Gold.PLP.part.metal>
0.0000

> <Gold.PLP.part.buried>
-3.2940

> <Gold.PLP.part.nonpolar>
-33.1555

> <Gold.PLP.part.repulsive>
0.2248

> <Gold.PLP.ligand.clash>
0.0000

> <Gold.PLP.ligand.torsion>
0.3736

> <Gold.PLP.Chemscore.Hbond>
1.0000

> <Gold.PLP.Chemscore.CHOScore>
0.9964

> <Gold.PLP.Chemscore.Metal>
0.0000

> <Gold.Chemscore.Hbonds>
donor molecule, donor type, donor heavy atom, donor atom, acceptor molecule, acceptor atom, score
      P1  H  6896  6908       L1     7  1.00
      L1  C    23    52       P1  7948  0.59

> <Gold.PLP.Chemscore.Internal.Correction>
0.0645

> <Gold.Rescore>
     Score         DG    S(hbond)    S(metal)    S(lipo)     H(rot)  DE(clash)    DE(int)     intcor
     16.67     -17.51       0.96        0.00     103.01       1.27       0.41       0.43       ----

> <Gold.Chemscore.Fitness>
16.6677

> <Gold.Chemscore.DG>
-17.5051

> <Gold.Chemscore.ZeroCoef>
-5.4800

> <Gold.Chemscore.Hbond>
0.9643

> <Gold.Chemscore.Metal>
0.0000

> <Gold.Chemscore.Lipo>
103.0063

> <Gold.Chemscore.Internal_Hbond>
0.0000

> <Gold.Chemscore.DEClash>
0.4108

> <Gold.Chemscore.DEInternal>
0.4266

> <Gold.Chemscore.Rot>
1.2685

> <Gold.Chemscore.Internal.Correction>
   9.000000E+99

> <Gold.Chemscore.Hbonds>
donor molecule, donor type, donor heavy atom, donor atom, acceptor molecule, acceptor atom, score
      P1  H  6896  6908       L1     7  0.25

> <Gold.Chemscore.Hbond.Weighted>
-3.2208

> <Gold.Chemscore.Metal.Weighted>
-0.0000

> <Gold.Chemscore.Lipo.Weighted>
-12.0517

> <Gold.Chemscore.Internal_Hbond.Weighted>
0.0000

> <Gold.Chemscore.DEClash.Weighted>
0.4108

> <Gold.Chemscore.DEInternal.Weighted>
0.4266

> <Gold.Chemscore.Rot.Weighted>
3.2474

> <Gold.Chemscore.Internal.Correction.Weighted>
   9.000000E+99

> <Gold.Protein.RotatedTorsions>
[ 6907 6896 6895 6894 ] final  126.57 input  -60.11 | X-H torsion
[ 7974 7965 7964 7962 ] final  -73.99 input  175.53 | X-H torsion
[ 8008 7997 7996 7995 ] final  -71.95 input   59.86 | X-H torsion
[ 10167 10162 10161 10158 ] final   65.61 input  -65.29 | X-H torsion
[ 10718 10713 10712 10709 ] final   71.12 input   66.30 | X-H torsion
[ 10763 10752 10751 10750 ] final  113.90 input  -60.55 | X-H torsion
[ 11005 11000 10999 10996 ] final  -21.70 input  -57.11 | X-H torsion

> <Gold.Protein.ActiveResidues>
 VAL166  LYS551  ARG553  GLY616  TRP617  ASP618  TYR619  PRO620  LYS621  CYS622 
 ASP623  PHE694  ASN695  SER759  ASP760  ASP761  ALA762  ILE779  LEU786  VAL792 
 PHE793  MET794  SER795  GLU796  ALA797  LYS798  CYS799  TRP800  GLU811  SER814 

> <Gold.Protein.RotatedAtoms>
  152.3891  133.6654  159.6222 H   0  0  0  0  0  0  0  0  0  0  0  0  # atno 6907 bound_to 6896
  150.7803  133.8984  159.3343 H   0  0  0  0  0  0  0  0  0  0  0  0  # atno 6908 bound_to 6896
  151.6774  135.0968  160.0261 H   0  0  0  0  0  0  0  0  0  0  0  0  # atno 6909 bound_to 6896
  145.6450  140.9300  143.1015 H   0  0  0  0  0  0  0  0  0  0  0  0  # atno 7974 bound_to 7965
  154.5127  140.0806  156.8022 H   0  0  0  0  0  0  0  0  0  0  0  0  # atno 8008 bound_to 7997
  155.3748  140.3425  155.4226 H   0  0  0  0  0  0  0  0  0  0  0  0  # atno 8009 bound_to 7997
  156.1592  140.1583  156.8628 H   0  0  0  0  0  0  0  0  0  0  0  0  # atno 8010 bound_to 7997
  140.1094  144.4832  150.6987 H   0  0  0  0  0  0  0  0  0  0  0  0  # atno 10167 bound_to 10162
  157.6435  130.9512  150.0745 H   0  0  0  0  0  0  0  0  0  0  0  0  # atno 10718 bound_to 10713
  153.4993  135.3641  155.2531 H   0  0  0  0  0  0  0  0  0  0  0  0  # atno 10763 bound_to 10752
  154.8748  135.3996  154.3497 H   0  0  0  0  0  0  0  0  0  0  0  0  # atno 10764 bound_to 10752
  153.4131  135.7078  153.6412 H   0  0  0  0  0  0  0  0  0  0  0  0  # atno 10765 bound_to 10752
  140.8587  133.7804  156.0049 H   0  0  0  0  0  0  0  0  0  0  0  0  # atno 11005 bound_to 11000
  144.7143  139.8253  143.7404 LP  0  0  0  0  0  0  0  0  0  0  0  0  # atno 17320 bound_to 7965
  146.1250  139.4275  143.0204 LP  0  0  0  0  0  0  0  0  0  0  0  0  # atno 17321 bound_to 7965
  140.6934  143.2389  151.5068 LP  0  0  0  0  0  0  0  0  0  0  0  0  # atno 17342 bound_to 10162
  139.5627  144.2116  152.1717 LP  0  0  0  0  0  0  0  0  0  0  0  0  # atno 17343 bound_to 10162
  156.1739  130.3647  149.9127 LP  0  0  0  0  0  0  0  0  0  0  0  0  # atno 17370 bound_to 10713
  156.7096  130.8965  151.3608 LP  0  0  0  0  0  0  0  0  0  0  0  0  # atno 17371 bound_to 10713
  140.8708  134.2729  157.5191 LP  0  0  0  0  0  0  0  0  0  0  0  0  # atno 17394 bound_to 11000
  139.8706  134.9566  156.4243 LP  0  0  0  0  0  0  0  0  0  0  0  0  # atno 17395 bound_to 11000

$$$$
