AV-unprocessed.smi:1464|AV-procd|sdf|5943|dock8
  -GOLD-   22720 6 23D 1   1.00000     0.00000
 Structure written by MMmdl.
 41 42  0  0  0  0  0  0  0  0  1 V2000
  152.5483  143.9899  162.3148 C   0  0  0  0  0  0  0  0  0  0  0  0
  152.8495  142.7153  161.5060 C   0  0  2  0  0  0  0  0  0  0  0  0
  153.8312  141.8202  162.2907 C   0  0  0  0  0  0  0  0  0  0  0  0
  154.1601  140.5229  161.5397 C   0  0  0  0  0  0  0  0  0  0  0  0
  154.7135  140.8241  160.1395 C   0  0  0  0  0  0  0  0  0  0  0  0
  153.7563  141.7106  159.3220 C   0  0  1  0  0  0  0  0  0  0  0  0
  152.5586  140.9473  158.9626 N   0  0  0  0  0  0  0  0  0  0  0  0
  152.5314  139.7342  158.3896 C   0  0  0  0  0  0  0  0  0  0  0  0
  153.5446  139.1091  158.0733 O   0  0  0  0  0  0  0  0  0  0  0  0
  151.1342  139.1594  158.1136 C   0  0  0  0  0  0  0  0  0  0  0  0
  150.7960  139.1061  156.6842 N   0  0  0  0  0  0  0  0  0  0  0  0
  151.4679  138.1188  155.9793 N   0  0  0  0  0  0  0  0  0  0  0  0
  151.2451  137.9620  154.7181 C   0  0  0  0  0  0  0  0  0  0  0  0
  151.9292  136.9703  154.0588 O   0  0  0  0  0  0  0  0  0  0  0  0
  150.3035  138.8047  154.0137 C   0  0  0  0  0  0  0  0  0  0  0  0
  149.6580  139.7674  154.7079 C   0  0  0  0  0  0  0  0  0  0  0  0
  149.8872  139.9724  156.1394 C   0  0  0  0  0  0  0  0  0  0  0  0
  149.3156  140.8429  156.7957 O   0  0  0  0  0  0  0  0  0  0  0  0
  153.3992  143.0154  160.0832 C   0  0  1  0  0  0  0  0  0  0  0  0
  152.4648  143.9166  159.2504 C   0  0  0  0  0  0  0  0  0  0  0  0
  151.4828  136.8626  153.2332 H   0  0  0  0  0  0  0  0  0  0  0  0
  153.4294  144.6272  162.3948 H   0  0  0  0  0  0  0  0  0  0  0  0
  152.2255  143.7435  163.3268 H   0  0  0  0  0  0  0  0  0  0  0  0
  151.7488  144.5760  161.8624 H   0  0  0  0  0  0  0  0  0  0  0  0
  151.9110  142.1686  161.4028 H   0  0  0  0  0  0  0  0  0  0  0  0
  154.7543  142.3689  162.4829 H   0  0  0  0  0  0  0  0  0  0  0  0
  153.4130  141.5740  163.2673 H   0  0  0  0  0  0  0  0  0  0  0  0
  154.8870  139.9407  162.1068 H   0  0  0  0  0  0  0  0  0  0  0  0
  153.2650  139.9046  161.4628 H   0  0  0  0  0  0  0  0  0  0  0  0
  155.6749  141.3299  160.2373 H   0  0  0  0  0  0  0  0  0  0  0  0
  154.9141  139.8931  159.6074 H   0  0  0  0  0  0  0  0  0  0  0  0
  154.2885  141.9918  158.4118 H   0  0  0  0  0  0  0  0  0  0  0  0
  151.6723  141.3816  159.1756 H   0  0  0  0  0  0  0  0  0  0  0  0
  151.0568  138.1620  158.5510 H   0  0  0  0  0  0  0  0  0  0  0  0
  150.4072  139.7709  158.6511 H   0  0  0  0  0  0  0  0  0  0  0  0
  150.1269  138.6610  152.9579 H   0  0  0  0  0  0  0  0  0  0  0  0
  148.9519  140.4040  154.1951 H   0  0  0  0  0  0  0  0  0  0  0  0
  154.3318  143.5680  160.2076 H   0  0  0  0  0  0  0  0  0  0  0  0
  151.4571  143.5049  159.1893 H   0  0  0  0  0  0  0  0  0  0  0  0
  152.8389  144.0310  158.2325 H   0  0  0  0  0  0  0  0  0  0  0  0
  152.3894  144.9180  159.6735 H   0  0  0  0  0  0  0  0  0  0  0  0
  1  2  1  0  0  0  0
  1 22  1  0  0  0  0
  1 23  1  0  0  0  0
  1 24  1  0  0  0  0
  2 19  1  0  0  0  0
  2  3  1  0  0  0  0
  2 25  1  0  0  0  0
  3  4  1  0  0  0  0
  3 26  1  0  0  0  0
  3 27  1  0  0  0  0
  4  5  1  0  0  0  0
  4 28  1  0  0  0  0
  4 29  1  0  0  0  0
  5  6  1  0  0  0  0
  5 30  1  0  0  0  0
  5 31  1  0  0  0  0
  6  7  1  0  0  0  0
  6 19  1  0  0  0  0
  6 32  1  0  0  0  0
  7  8  1  0  0  0  0
  7 33  1  0  0  0  0
  8  9  2  0  0  0  0
  8 10  1  0  0  0  0
 10 34  1  0  0  0  0
 10 35  1  0  0  0  0
 10 11  1  0  0  0  0
 11 12  1  0  0  0  0
 11 17  1  0  0  0  0
 12 13  2  0  0  0  0
 13 14  1  0  0  0  0
 13 15  1  0  0  0  0
 14 21  1  0  0  0  0
 15 36  1  0  0  0  0
 15 16  2  0  0  0  0
 16 37  1  0  0  0  0
 16 17  1  0  0  0  0
 17 18  2  0  0  0  0
 19 20  1  0  0  0  0
 19 38  1  0  0  0  0
 20 39  1  0  0  0  0
 20 40  1  0  0  0  0
 20 41  1  0  0  0  0
M  END
> <s_m_source_file>
AV-unprocessed.smi

> <i_m_source_file_index>
1464

> <i_lp_mmshare_version>
43012

> <i_f3d_flags>
0

> <s_epik_input>
W0NIM11bQ0BASF0xW0NIMl1bQ0gyXVtDSDJdW0NASF0oW0NASF0xW0NIM10pW05IXUMoPU8pW0NIMl1uMltuSF1jKD1PKVtjSF1bY0hdYzI9Tw==

> <s_epik_cmdline>
J2VwaWtfcHl0aG9uJywgJy1waCcsICc3LjAnLCAnLXRuJywgJzgnLCAnLW1hJywgJzIwMCcsICctbWV0YWxfYmluZGluZycsICctaW1hZScsICc8aW5maWxlLm1hZT4nLCAnLW9tYWUnLCAnPG91dGZpbGUubWFlPic=

> <r_lp_tautomer_probability>
0.9996

> <r_epik_Ionization_Penalty>
2.10335

> <r_epik_Ionization_Penalty_Charging>
3.98079e-08

> <r_epik_Ionization_Penalty_Neutral>
2.10335

> <r_epik_State_Penalty>
1.67957

> <r_epik_Charging_Adjusted_Penalty>
1.67957

> <i_epik_Tot_Q>
0

> <i_epik_Tot_abs_Q>
0

> <r_epik_Metal_State_Penalty>
1.67957

> <b_epik_Metal_Only>
0

> <s_lp_Force_Field>
OPLS_2005

> <r_lp_Energy>
20.9709

> <b_lp_Chiralities_Consistent>
1

> <s_lp_Variant>
AV-unprocessed.smi:1464-9

> <Gold.Version>
5.8.1

> <Gold.Id.Protein>
6NUR|6NUR_protein|mol2

> <Gold.PLP.Fitness>
49.5046

> <Gold.PLP.PLP>
-41.0720

> <Gold.PLP.part.hbond>
-3.0000

> <Gold.PLP.part.metal>
0.0000

> <Gold.PLP.part.buried>
-3.8009

> <Gold.PLP.part.nonpolar>
-33.0957

> <Gold.PLP.part.repulsive>
0.1637

> <Gold.PLP.ligand.clash>
0.0000

> <Gold.PLP.ligand.torsion>
0.2889

> <Gold.PLP.Chemscore.Hbond>
3.0000

> <Gold.PLP.Chemscore.CHOScore>
0.0000

> <Gold.PLP.Chemscore.Metal>
0.0000

> <Gold.Chemscore.Hbonds>
donor molecule, donor type, donor heavy atom, donor atom, acceptor molecule, acceptor atom, score
      L1  H    14    21       P1  7949  1.00
      P1  H  7997  8008       L1     9  1.00
      P1  H 10752 10765       L1    14  1.00

> <Gold.PLP.Chemscore.Internal.Correction>
0.0104

> <Gold.Rescore>
     Score         DG    S(hbond)    S(metal)    S(lipo)     H(rot)  DE(clash)    DE(int)     intcor
     19.62     -21.30       2.68        0.00     107.49       2.22       0.40       1.29       ----

> <Gold.Chemscore.Fitness>
19.6180

> <Gold.Chemscore.DG>
-21.3026

> <Gold.Chemscore.ZeroCoef>
-5.4800

> <Gold.Chemscore.Hbond>
2.6753

> <Gold.Chemscore.Metal>
0.0000

> <Gold.Chemscore.Lipo>
107.4902

> <Gold.Chemscore.Internal_Hbond>
0.0000

> <Gold.Chemscore.DEClash>
0.3956

> <Gold.Chemscore.DEInternal>
1.2890

> <Gold.Chemscore.Rot>
2.2224

> <Gold.Chemscore.Internal.Correction>
   9.000000E+99

> <Gold.Chemscore.Hbonds>
donor molecule, donor type, donor heavy atom, donor atom, acceptor molecule, acceptor atom, score
      L1  H    14    21       P1  7949  0.84
      P1  H  7997  8008       L1     9  0.78
      P1  H 10752 10765       L1    14  0.34

> <Gold.Chemscore.Hbond.Weighted>
-8.9356

> <Gold.Chemscore.Metal.Weighted>
-0.0000

> <Gold.Chemscore.Lipo.Weighted>
-12.5763

> <Gold.Chemscore.Internal_Hbond.Weighted>
0.0000

> <Gold.Chemscore.DEClash.Weighted>
0.3956

> <Gold.Chemscore.DEInternal.Weighted>
1.2890

> <Gold.Chemscore.Rot.Weighted>
5.6893

> <Gold.Chemscore.Internal.Correction.Weighted>
   9.000000E+99

> <Gold.Protein.RotatedTorsions>
[ 6907 6896 6895 6894 ] final  128.79 input  -60.11 | X-H torsion
[ 7974 7965 7964 7962 ] final -143.57 input  175.53 | X-H torsion
[ 8008 7997 7996 7995 ] final  -76.48 input   59.86 | X-H torsion
[ 10167 10162 10161 10158 ] final  131.00 input  -65.29 | X-H torsion
[ 10718 10713 10712 10709 ] final   20.57 input   66.30 | X-H torsion
[ 10763 10752 10751 10750 ] final  144.14 input  -60.55 | X-H torsion
[ 11005 11000 10999 10996 ] final   -4.20 input  -57.11 | X-H torsion

> <Gold.Protein.ActiveResidues>
 VAL166  LYS551  ARG553  GLY616  TRP617  ASP618  TYR619  PRO620  LYS621  CYS622 
 ASP623  PHE694  ASN695  SER759  ASP760  ASP761  ALA762  ILE779  LEU786  VAL792 
 PHE793  MET794  SER795  GLU796  ALA797  LYS798  CYS799  TRP800  GLU811  SER814 

> <Gold.Protein.RotatedAtoms>
  152.3686  133.6389  159.6069 H   0  0  0  0  0  0  0  0  0  0  0  0  # atno 6907 bound_to 6896
  150.7652  133.9308  159.3435 H   0  0  0  0  0  0  0  0  0  0  0  0  # atno 6908 bound_to 6896
  151.7134  135.0909  160.0323 H   0  0  0  0  0  0  0  0  0  0  0  0  # atno 6909 bound_to 6896
  144.8360  140.5818  143.5484 H   0  0  0  0  0  0  0  0  0  0  0  0  # atno 7974 bound_to 7965
  154.5509  140.0726  156.8665 H   0  0  0  0  0  0  0  0  0  0  0  0  # atno 8008 bound_to 7997
  155.2996  140.3383  155.4230 H   0  0  0  0  0  0  0  0  0  0  0  0  # atno 8009 bound_to 7997
  156.1960  140.1703  156.7983 H   0  0  0  0  0  0  0  0  0  0  0  0  # atno 8010 bound_to 7997
  139.5404  144.6725  151.4644 H   0  0  0  0  0  0  0  0  0  0  0  0  # atno 10167 bound_to 10162
  157.1263  130.6571  149.5938 H   0  0  0  0  0  0  0  0  0  0  0  0  # atno 10718 bound_to 10713
  153.9840  135.2938  155.3418 H   0  0  0  0  0  0  0  0  0  0  0  0  # atno 10763 bound_to 10752
  154.7252  135.5091  153.8879 H   0  0  0  0  0  0  0  0  0  0  0  0  # atno 10764 bound_to 10752
  153.0841  135.6688  154.0100 H   0  0  0  0  0  0  0  0  0  0  0  0  # atno 10765 bound_to 10752
  140.6777  133.9181  155.8535 H   0  0  0  0  0  0  0  0  0  0  0  0  # atno 11005 bound_to 11000
  145.4794  139.1496  143.3770 LP  0  0  0  0  0  0  0  0  0  0  0  0  # atno 17320 bound_to 7965
  146.2658  140.4930  142.8834 LP  0  0  0  0  0  0  0  0  0  0  0  0  # atno 17321 bound_to 7965
  140.6631  143.8456  150.6910 LP  0  0  0  0  0  0  0  0  0  0  0  0  # atno 17342 bound_to 10162
  140.1857  143.4078  152.1900 LP  0  0  0  0  0  0  0  0  0  0  0  0  # atno 17343 bound_to 10162
  155.9817  130.4827  150.6844 LP  0  0  0  0  0  0  0  0  0  0  0  0  # atno 17370 bound_to 10713
  157.4432  131.0864  151.0922 LP  0  0  0  0  0  0  0  0  0  0  0  0  # atno 17371 bound_to 10713
  141.0342  134.0713  157.3978 LP  0  0  0  0  0  0  0  0  0  0  0  0  # atno 17394 bound_to 11000
  139.8961  135.0144  156.7037 LP  0  0  0  0  0  0  0  0  0  0  0  0  # atno 17395 bound_to 11000

$$$$
