AV-unprocessed.smi:2304|AV-procd|sdf|9245|dock8
  -GOLD-   2272012463D 1   1.00000     0.00000
 Structure written by MMmdl.
 37 38  0  0  0  0  0  0  0  0  1 V2000
  144.7011  141.8348  160.6956 C   0  0  0  0  0  0  0  0  0  0  0  0
  145.0389  143.1040  160.1650 O   0  0  0  0  0  0  0  0  0  0  0  0
  145.3722  144.0440  161.1737 C   0  0  0  0  0  0  0  0  0  0  0  0
  145.7680  145.3799  160.5225 C   0  0  1  0  0  0  0  0  0  0  0  0
  147.0208  145.2129  159.7897 N   0  0  0  0  0  0  0  0  0  0  0  0
  148.1582  144.7021  160.2847 C   0  0  0  0  0  0  0  0  0  0  0  0
  148.2766  144.2917  161.4396 O   0  0  0  0  0  0  0  0  0  0  0  0
  149.1321  144.7035  159.3575 N   0  0  0  0  0  0  0  0  0  0  0  0
  150.4818  144.2847  159.5008 C   0  0  0  0  0  0  0  0  0  0  0  0
  151.3147  144.5560  158.3918 C   0  0  0  0  0  0  0  0  0  0  0  0
  152.6722  144.1843  158.4374 C   0  0  0  0  0  0  0  0  0  0  0  0
  153.1643  143.5504  159.5922 C   0  0  0  0  0  0  0  0  0  0  0  0
  152.2684  143.3171  160.6539 C   0  0  0  0  0  0  0  0  0  0  0  0
  152.7279  142.6393  161.9277 C   0  0  0  0  0  0  0  0  0  0  0  0
  150.9663  143.6725  160.6100 N   0  0  0  0  0  0  0  0  0  0  0  0
  144.6523  145.9026  159.6372 C   0  0  0  0  0  0  0  0  0  0  0  0
  144.6024  145.5650  158.1666 C   0  0  0  0  0  0  0  0  0  0  0  0
  144.9111  146.9779  158.6090 C   0  0  0  0  0  0  0  0  0  0  0  0
  144.4410  141.1556  159.8839 H   0  0  0  0  0  0  0  0  0  0  0  0
  143.8436  141.9024  161.3663 H   0  0  0  0  0  0  0  0  0  0  0  0
  145.5398  141.4008  161.2415 H   0  0  0  0  0  0  0  0  0  0  0  0
  144.5351  144.1838  161.8599 H   0  0  0  0  0  0  0  0  0  0  0  0
  146.2088  143.6563  161.7574 H   0  0  0  0  0  0  0  0  0  0  0  0
  145.9008  146.1101  161.3231 H   0  0  0  0  0  0  0  0  0  0  0  0
  147.0214  145.5176  158.8276 H   0  0  0  0  0  0  0  0  0  0  0  0
  148.8835  145.0603  158.4471 H   0  0  0  0  0  0  0  0  0  0  0  0
  150.9213  145.0447  157.5123 H   0  0  0  0  0  0  0  0  0  0  0  0
  153.3242  144.3829  157.5996 H   0  0  0  0  0  0  0  0  0  0  0  0
  154.2007  143.2529  159.6579 H   0  0  0  0  0  0  0  0  0  0  0  0
  153.8104  142.5098  161.9387 H   0  0  0  0  0  0  0  0  0  0  0  0
  152.2648  141.6566  162.0192 H   0  0  0  0  0  0  0  0  0  0  0  0
  152.4490  143.2340  162.7982 H   0  0  0  0  0  0  0  0  0  0  0  0
  143.6892  145.9596  160.1412 H   0  0  0  0  0  0  0  0  0  0  0  0
  145.4199  144.9768  157.7538 H   0  0  0  0  0  0  0  0  0  0  0  0
  143.6248  145.3778  157.7274 H   0  0  0  0  0  0  0  0  0  0  0  0
  144.1391  147.7306  158.4644 H   0  0  0  0  0  0  0  0  0  0  0  0
  145.9340  147.3290  158.4872 H   0  0  0  0  0  0  0  0  0  0  0  0
  1  2  1  0  0  0  0
  1 19  1  0  0  0  0
  1 20  1  0  0  0  0
  1 21  1  0  0  0  0
  2  3  1  0  0  0  0
  3  4  1  0  0  0  0
  3 22  1  0  0  0  0
  3 23  1  0  0  0  0
  4  5  1  0  0  0  0
  4 16  1  0  0  0  0
  4 24  1  0  0  0  0
  5  6  1  0  0  0  0
  5 25  1  0  0  0  0
  6  7  2  0  0  0  0
  6  8  1  0  0  0  0
  8  9  1  0  0  0  0
  8 26  1  0  0  0  0
  9 15  1  0  0  0  0
  9 10  2  0  0  0  0
 10 11  1  0  0  0  0
 10 27  1  0  0  0  0
 11 12  2  0  0  0  0
 11 28  1  0  0  0  0
 12 13  1  0  0  0  0
 12 29  1  0  0  0  0
 13 14  1  0  0  0  0
 13 15  2  0  0  0  0
 14 30  1  0  0  0  0
 14 31  1  0  0  0  0
 14 32  1  0  0  0  0
 16 18  1  0  0  0  0
 16 17  1  0  0  0  0
 16 33  1  0  0  0  0
 17 18  1  0  0  0  0
 17 34  1  0  0  0  0
 17 35  1  0  0  0  0
 18 36  1  0  0  0  0
 18 37  1  0  0  0  0
M  END
> <s_m_source_file>
AV-unprocessed.smi

> <i_m_source_file_index>
2304

> <i_lp_mmshare_version>
43012

> <i_f3d_flags>
0

> <s_epik_input>
W0NIM11PW0NIMl1bQ0BASF0oW0NIXTFbQ0gyXVtDSDJdMSlbTkhdQyg9TylbTkhdYzJbY0hdW2NIXVtjSF1jKG4yKVtDSDNd

> <s_epik_cmdline>
J2VwaWtfcHl0aG9uJywgJy1waCcsICc3LjAnLCAnLXRuJywgJzgnLCAnLW1hJywgJzIwMCcsICctbWV0YWxfYmluZGluZycsICctaW1hZScsICc8aW5maWxlLm1hZT4nLCAnLW9tYWUnLCAnPG91dGZpbGUubWFlPic=

> <r_lp_tautomer_probability>
1

> <r_epik_Ionization_Penalty>
8.58396e-05

> <r_epik_Ionization_Penalty_Charging>
0

> <r_epik_Ionization_Penalty_Neutral>
8.58396e-05

> <r_epik_State_Penalty>
-0

> <r_epik_Charging_Adjusted_Penalty>
0

> <i_epik_Tot_Q>
0

> <i_epik_Tot_abs_Q>
0

> <r_epik_Metal_State_Penalty>
-0

> <b_epik_Metal_Only>
0

> <s_lp_Force_Field>
OPLS_2005

> <r_lp_Energy>
16.7335

> <b_lp_Chiralities_Consistent>
1

> <s_lp_Variant>
AV-unprocessed.smi:2304-2

> <Gold.Version>
5.8.1

> <Gold.Id.Protein>
6NUR|6NUR_protein|mol2

> <Gold.PLP.Fitness>
48.5635

> <Gold.PLP.PLP>
-39.9026

> <Gold.PLP.part.hbond>
-4.0000

> <Gold.PLP.part.metal>
0.0000

> <Gold.PLP.part.buried>
-6.4887

> <Gold.PLP.part.nonpolar>
-31.3171

> <Gold.PLP.part.repulsive>
0.6003

> <Gold.PLP.ligand.clash>
0.0000

> <Gold.PLP.ligand.torsion>
0.6015

> <Gold.PLP.Chemscore.Hbond>
2.9280

> <Gold.PLP.Chemscore.CHOScore>
0.0000

> <Gold.PLP.Chemscore.Metal>
0.0000

> <Gold.Chemscore.Hbonds>
donor molecule, donor type, donor heavy atom, donor atom, acceptor molecule, acceptor atom, score
      L1  H     5    25       P1  8029  1.00
      L1  H     8    26       P1  8029  1.00
      P1  H  6933  6944       L1     7  0.94

> <Gold.PLP.Chemscore.Internal.Correction>
1.0798

> <Gold.Rescore>
     Score         DG    S(hbond)    S(metal)    S(lipo)     H(rot)  DE(clash)    DE(int)     intcor
     19.49     -21.39       2.86        0.00      89.76       1.61       0.02       1.89       ----

> <Gold.Chemscore.Fitness>
19.4890

> <Gold.Chemscore.DG>
-21.3940

> <Gold.Chemscore.ZeroCoef>
-5.4800

> <Gold.Chemscore.Hbond>
2.8576

> <Gold.Chemscore.Metal>
0.0000

> <Gold.Chemscore.Lipo>
89.7603

> <Gold.Chemscore.Internal_Hbond>
0.0000

> <Gold.Chemscore.DEClash>
0.0189

> <Gold.Chemscore.DEInternal>
1.8861

> <Gold.Chemscore.Rot>
1.6142

> <Gold.Chemscore.Internal.Correction>
   9.000000E+99

> <Gold.Chemscore.Hbonds>
donor molecule, donor type, donor heavy atom, donor atom, acceptor molecule, acceptor atom, score
      L1  H     5    25       P1  8029  0.97
      L1  H     8    26       P1  8029  0.89
      P1  H  6933  6944       L1     7  0.71

> <Gold.Chemscore.Hbond.Weighted>
-9.5443

> <Gold.Chemscore.Metal.Weighted>
-0.0000

> <Gold.Chemscore.Lipo.Weighted>
-10.5020

> <Gold.Chemscore.Internal_Hbond.Weighted>
0.0000

> <Gold.Chemscore.DEClash.Weighted>
0.0189

> <Gold.Chemscore.DEInternal.Weighted>
1.8861

> <Gold.Chemscore.Rot.Weighted>
4.1323

> <Gold.Chemscore.Internal.Correction.Weighted>
   9.000000E+99

> <Gold.Protein.RotatedTorsions>
[ 6907 6896 6895 6894 ] final  -41.20 input  -60.11 | X-H torsion
[ 7974 7965 7964 7962 ] final -171.87 input  175.53 | X-H torsion
[ 8008 7997 7996 7995 ] final  -46.82 input   59.86 | X-H torsion
[ 10167 10162 10161 10158 ] final   78.41 input  -65.29 | X-H torsion
[ 10718 10713 10712 10709 ] final  -55.24 input   66.30 | X-H torsion
[ 10763 10752 10751 10750 ] final  -86.46 input  -60.55 | X-H torsion
[ 11005 11000 10999 10996 ] final   60.41 input  -57.11 | X-H torsion

> <Gold.Protein.ActiveResidues>
 VAL166  LYS551  ARG553  GLY616  TRP617  ASP618  TYR619  PRO620  LYS621  CYS622 
 ASP623  PHE694  ASN695  SER759  ASP760  ASP761  ALA762  ILE779  LEU786  VAL792 
 PHE793  MET794  SER795  GLU796  ALA797  LYS798  CYS799  TRP800  GLU811  SER814 

> <Gold.Protein.RotatedAtoms>
  150.9695  134.9070  159.7779 H   0  0  0  0  0  0  0  0  0  0  0  0  # atno 6907 bound_to 6896
  152.5185  134.3561  159.9278 H   0  0  0  0  0  0  0  0  0  0  0  0  # atno 6908 bound_to 6896
  151.3570  133.3863  159.2720 H   0  0  0  0  0  0  0  0  0  0  0  0  # atno 6909 bound_to 6896
  144.7152  140.1857  143.6354 H   0  0  0  0  0  0  0  0  0  0  0  0  # atno 7974 bound_to 7965
  154.4010  140.1362  156.4073 H   0  0  0  0  0  0  0  0  0  0  0  0  # atno 8008 bound_to 7997
  155.7767  140.3482  155.5255 H   0  0  0  0  0  0  0  0  0  0  0  0  # atno 8009 bound_to 7997
  155.8714  140.0972  157.1538 H   0  0  0  0  0  0  0  0  0  0  0  0  # atno 8010 bound_to 7997
  139.9713  144.5893  150.7983 H   0  0  0  0  0  0  0  0  0  0  0  0  # atno 10167 bound_to 10162
  156.1384  130.4155  150.0145 H   0  0  0  0  0  0  0  0  0  0  0  0  # atno 10718 bound_to 10713
  154.6227  135.5448  153.7593 H   0  0  0  0  0  0  0  0  0  0  0  0  # atno 10763 bound_to 10752
  153.0246  135.6416  154.1417 H   0  0  0  0  0  0  0  0  0  0  0  0  # atno 10764 bound_to 10752
  154.1351  135.2912  155.3155 H   0  0  0  0  0  0  0  0  0  0  0  0  # atno 10765 bound_to 10752
  140.0234  134.6119  155.9607 H   0  0  0  0  0  0  0  0  0  0  0  0  # atno 11005 bound_to 11000
  145.8815  139.2326  143.1602 LP  0  0  0  0  0  0  0  0  0  0  0  0  # atno 17320 bound_to 7965
  145.9990  140.8537  143.0028 LP  0  0  0  0  0  0  0  0  0  0  0  0  # atno 17321 bound_to 7965
  140.7521  143.2984  151.3144 LP  0  0  0  0  0  0  0  0  0  0  0  0  # atno 17342 bound_to 10162
  139.6479  144.0416  152.2605 LP  0  0  0  0  0  0  0  0  0  0  0  0  # atno 17343 bound_to 10162
  156.8037  130.9300  151.3645 LP  0  0  0  0  0  0  0  0  0  0  0  0  # atno 17370 bound_to 10713
  157.6553  130.8919  149.9717 LP  0  0  0  0  0  0  0  0  0  0  0  0  # atno 17371 bound_to 10713
  141.1788  133.6543  156.4934 LP  0  0  0  0  0  0  0  0  0  0  0  0  # atno 17394 bound_to 11000
  140.4348  134.7069  157.4961 LP  0  0  0  0  0  0  0  0  0  0  0  0  # atno 17395 bound_to 11000

$$$$
