AV-unprocessed.smi:1639|AV-procd|sdf|6551|dock9
  -GOLD-   22720 7233D 1   1.00000     0.00000
 Structure written by MMmdl.
 38 39  0  0  0  0  0  0  0  0  2 V2000
  151.7844  145.5698  159.7803 C   0  0  0  0  0  0  0  0  0  0  0  0
  152.4132  144.3931  159.0216 C   0  0  0  0  0  0  0  0  0  0  0  0
  152.5482  143.2467  159.8510 O   0  0  0  0  0  0  0  0  0  0  0  0
  153.0660  142.0909  159.2041 C   0  0  1  0  0  0  0  0  0  0  0  0
  153.2331  140.9686  160.2433 C   0  0  0  0  0  0  0  0  0  0  0  0
  153.6366  139.6586  159.5480 C   0  0  0  0  0  0  0  0  0  0  0  0
  152.6345  139.2965  158.4380 C   0  0  0  0  0  0  0  0  0  0  0  0
  152.4787  140.4036  157.4979 N   0  0  0  0  0  0  0  0  0  0  0  0
  151.7038  140.0660  156.3822 C   0  0  0  0  0  0  0  0  0  0  0  0
  150.5796  140.8124  155.9683 C   0  0  0  0  0  0  0  0  0  0  0  0
  149.9008  140.3537  154.8259 C   0  0  0  0  0  0  0  0  0  0  0  0
  148.6826  141.0708  154.2835 C   0  0  0  0  0  0  0  0  0  0  0  0
  150.3051  139.2529  154.1599 N   0  0  0  0  0  0  0  0  0  0  0  0
  151.3783  138.5893  154.6040 C   0  0  0  0  0  0  0  0  0  0  0  0
  151.7818  137.4694  153.9173 N   0  0  0  0  0  0  0  0  0  0  0  0
  152.0774  138.9651  155.6849 N   0  3  0  0  0  0  0  0  0  0  0  0
  152.0719  141.6663  158.1093 C   0  0  0  0  0  0  0  0  0  0  0  0
  151.6290  146.4187  159.1144 H   0  0  0  0  0  0  0  0  0  0  0  0
  152.4179  145.9074  160.6004 H   0  0  0  0  0  0  0  0  0  0  0  0
  150.8162  145.2919  160.1972 H   0  0  0  0  0  0  0  0  0  0  0  0
  151.7655  144.1229  158.1874 H   0  0  0  0  0  0  0  0  0  0  0  0
  153.3749  144.6710  158.5875 H   0  0  0  0  0  0  0  0  0  0  0  0
  154.0326  142.2888  158.7359 H   0  0  0  0  0  0  0  0  0  0  0  0
  153.9802  141.2460  160.9874 H   0  0  0  0  0  0  0  0  0  0  0  0
  152.2959  140.8222  160.7818 H   0  0  0  0  0  0  0  0  0  0  0  0
  154.6342  139.7647  159.1197 H   0  0  0  0  0  0  0  0  0  0  0  0
  153.6961  138.8501  160.2769 H   0  0  0  0  0  0  0  0  0  0  0  0
  152.9761  138.4072  157.9066 H   0  0  0  0  0  0  0  0  0  0  0  0
  151.6670  139.0534  158.8796 H   0  0  0  0  0  0  0  0  0  0  0  0
  150.2559  141.6942  156.5021 H   0  0  0  0  0  0  0  0  0  0  0  0
  148.4402  141.9468  154.8858 H   0  0  0  0  0  0  0  0  0  0  0  0
  147.8179  140.4065  154.2856 H   0  0  0  0  0  0  0  0  0  0  0  0
  148.8600  141.4007  153.2595 H   0  0  0  0  0  0  0  0  0  0  0  0
  151.2753  137.1623  153.0993 H   0  0  0  0  0  0  0  0  0  0  0  0
  152.5909  136.9451  154.2175 H   0  0  0  0  0  0  0  0  0  0  0  0
  151.0748  141.5585  158.5383 H   0  0  0  0  0  0  0  0  0  0  0  0
  152.0095  142.4420  157.3448 H   0  0  0  0  0  0  0  0  0  0  0  0
  152.8922  138.4344  155.9933 H   0  0  0  0  0  0  0  0  0  0  0  0
  1  2  1  0  0  0  0
  1 18  1  0  0  0  0
  1 19  1  0  0  0  0
  1 20  1  0  0  0  0
  2  3  1  0  0  0  0
  2 21  1  0  0  0  0
  2 22  1  0  0  0  0
  3  4  1  0  0  0  0
  4 17  1  0  0  0  0
  4  5  1  0  0  0  0
  4 23  1  0  0  0  0
  5  6  1  0  0  0  0
  5 24  1  0  0  0  0
  5 25  1  0  0  0  0
  6  7  1  0  0  0  0
  6 26  1  0  0  0  0
  6 27  1  0  0  0  0
  7  8  1  0  0  0  0
  7 28  1  0  0  0  0
  7 29  1  0  0  0  0
  8  9  1  0  0  0  0
  8 17  1  0  0  0  0
  9 16  1  0  0  0  0
  9 10  2  0  0  0  0
 10 11  1  0  0  0  0
 10 30  1  0  0  0  0
 11 12  1  0  0  0  0
 11 13  2  0  0  0  0
 12 31  1  0  0  0  0
 12 32  1  0  0  0  0
 12 33  1  0  0  0  0
 13 14  1  0  0  0  0
 14 15  1  0  0  0  0
 14 16  2  0  0  0  0
 15 34  1  0  0  0  0
 15 35  1  0  0  0  0
 16 38  1  0  0  0  0
 17 36  1  0  0  0  0
 17 37  1  0  0  0  0
M  CHG  1  16   1
M  END
> <s_m_source_file>
AV-unprocessed.smi

> <i_m_source_file_index>
1639

> <i_lp_mmshare_version>
43012

> <i_f3d_flags>
0

> <s_epik_input>
W0NIM11bQ0gyXU9bQ0BASF0xW0NIMl1bQ0gyXVtDSDJdTihbQ0gyXTEpYzJbY0hdYyhbQ0gzXSluYyhuMilbTkgyXQ==

> <s_epik_cmdline>
J2VwaWtfcHl0aG9uJywgJy1waCcsICc3LjAnLCAnLXRuJywgJzgnLCAnLW1hJywgJzIwMCcsICctbWV0YWxfYmluZGluZycsICctaW1hZScsICc8aW5maWxlLm1hZT4nLCAnLW9tYWUnLCAnPG91dGZpbGUubWFlPic=

> <r_lp_tautomer_probability>
0.424989

> <r_epik_Ionization_Penalty>
0.443088

> <r_epik_Ionization_Penalty_Charging>
0.443085

> <r_epik_Ionization_Penalty_Neutral>
3.21819e-06

> <r_epik_State_Penalty>
1.26241

> <r_epik_Charging_Adjusted_Penalty>
1.70549

> <i_epik_Tot_Q>
1

> <i_epik_Tot_abs_Q>
1

> <r_epik_Metal_State_Penalty>
1.59997

> <b_epik_Metal_Only>
0

> <s_lp_Force_Field>
OPLS_2005

> <r_lp_Energy>
15.005

> <b_lp_Chiralities_Consistent>
1

> <s_lp_Variant>
AV-unprocessed.smi:1639-4

> <Gold.Version>
5.8.1

> <Gold.Id.Protein>
6NUR|6NUR_protein|mol2

> <Gold.PLP.Fitness>
45.1744

> <Gold.PLP.PLP>
-37.7988

> <Gold.PLP.part.hbond>
-2.9636

> <Gold.PLP.part.metal>
0.0000

> <Gold.PLP.part.buried>
-2.8012

> <Gold.PLP.part.nonpolar>
-31.2587

> <Gold.PLP.part.repulsive>
0.7424

> <Gold.PLP.ligand.clash>
0.1505

> <Gold.PLP.ligand.torsion>
0.0783

> <Gold.PLP.Chemscore.Hbond>
2.5142

> <Gold.PLP.Chemscore.CHOScore>
0.0000

> <Gold.PLP.Chemscore.Metal>
0.0000

> <Gold.Chemscore.Hbonds>
donor molecule, donor type, donor heavy atom, donor atom, acceptor molecule, acceptor atom, score
      L1  H    15    34       P1  7949  1.98
      P1  H  7997  8009       L1     8  0.48

> <Gold.PLP.Chemscore.Internal.Correction>
0.1402

> <Gold.Rescore>
     Score         DG    S(hbond)    S(metal)    S(lipo)     H(rot)  DE(clash)    DE(int)     intcor
     13.70     -14.55       0.96        0.00      81.87       1.46       0.69       0.16       ----

> <Gold.Chemscore.Fitness>
13.6982

> <Gold.Chemscore.DG>
-14.5460

> <Gold.Chemscore.ZeroCoef>
-5.4800

> <Gold.Chemscore.Hbond>
0.9623

> <Gold.Chemscore.Metal>
0.0000

> <Gold.Chemscore.Lipo>
81.8737

> <Gold.Chemscore.Internal_Hbond>
0.0000

> <Gold.Chemscore.DEClash>
0.6927

> <Gold.Chemscore.DEInternal>
0.1551

> <Gold.Chemscore.Rot>
1.4560

> <Gold.Chemscore.Internal.Correction>
   9.000000E+99

> <Gold.Chemscore.Hbonds>
donor molecule, donor type, donor heavy atom, donor atom, acceptor molecule, acceptor atom, score
      L1  H    15    34       P1  7949  0.59
      P1  H  7997  8009       L1     8  0.01

> <Gold.Chemscore.Hbond.Weighted>
-3.2140

> <Gold.Chemscore.Metal.Weighted>
-0.0000

> <Gold.Chemscore.Lipo.Weighted>
-9.5792

> <Gold.Chemscore.Internal_Hbond.Weighted>
0.0000

> <Gold.Chemscore.DEClash.Weighted>
0.6927

> <Gold.Chemscore.DEInternal.Weighted>
0.1551

> <Gold.Chemscore.Rot.Weighted>
3.7272

> <Gold.Chemscore.Internal.Correction.Weighted>
   9.000000E+99

> <Gold.Protein.RotatedTorsions>
[ 6907 6896 6895 6894 ] final -130.69 input  -60.11 | X-H torsion
[ 7974 7965 7964 7962 ] final  163.47 input  175.53 | X-H torsion
[ 8008 7997 7996 7995 ] final  179.24 input   59.86 | X-H torsion
[ 10167 10162 10161 10158 ] final  178.15 input  -65.29 | X-H torsion
[ 10718 10713 10712 10709 ] final  -64.98 input   66.30 | X-H torsion
[ 10763 10752 10751 10750 ] final  -50.27 input  -60.55 | X-H torsion
[ 11005 11000 10999 10996 ] final  145.10 input  -57.11 | X-H torsion

> <Gold.Protein.ActiveResidues>
 VAL166  LYS551  ARG553  GLY616  TRP617  ASP618  TYR619  PRO620  LYS621  CYS622 
 ASP623  PHE694  ASN695  SER759  ASP760  ASP761  ALA762  ILE779  LEU786  VAL792 
 PHE793  MET794  SER795  GLU796  ALA797  LYS798  CYS799  TRP800  GLU811  SER814 

> <Gold.Protein.RotatedAtoms>
  150.9426  133.6639  159.2787 H   0  0  0  0  0  0  0  0  0  0  0  0  # atno 6907 bound_to 6896
  151.4023  135.0971  159.9569 H   0  0  0  0  0  0  0  0  0  0  0  0  # atno 6908 bound_to 6896
  152.5076  133.8917  159.7452 H   0  0  0  0  0  0  0  0  0  0  0  0  # atno 6909 bound_to 6896
  144.7588  139.8187  143.6340 H   0  0  0  0  0  0  0  0  0  0  0  0  # atno 7974 bound_to 7965
  156.0457  140.1313  157.0107 H   0  0  0  0  0  0  0  0  0  0  0  0  # atno 8008 bound_to 7997
  154.4411  140.1021  156.6372 H   0  0  0  0  0  0  0  0  0  0  0  0  # atno 8009 bound_to 7997
  155.5600  140.3464  155.4491 H   0  0  0  0  0  0  0  0  0  0  0  0  # atno 8010 bound_to 7997
  139.5282  144.2714  152.0625 H   0  0  0  0  0  0  0  0  0  0  0  0  # atno 10167 bound_to 10162
  156.0696  130.4241  150.1498 H   0  0  0  0  0  0  0  0  0  0  0  0  # atno 10718 bound_to 10713
  154.1076  135.6554  153.4879 H   0  0  0  0  0  0  0  0  0  0  0  0  # atno 10763 bound_to 10752
  153.0267  135.5240  154.7224 H   0  0  0  0  0  0  0  0  0  0  0  0  # atno 10764 bound_to 10752
  154.6394  135.2986  155.0091 H   0  0  0  0  0  0  0  0  0  0  0  0  # atno 10765 bound_to 10752
  140.0685  134.9165  157.1306 H   0  0  0  0  0  0  0  0  0  0  0  0  # atno 11005 bound_to 11000
  146.1629  139.4750  142.9977 LP  0  0  0  0  0  0  0  0  0  0  0  0  # atno 17320 bound_to 7965
  145.6688  141.0222  143.1669 LP  0  0  0  0  0  0  0  0  0  0  0  0  # atno 17321 bound_to 7965
  140.2173  144.4502  150.6358 LP  0  0  0  0  0  0  0  0  0  0  0  0  # atno 17342 bound_to 10162
  140.6441  143.2210  151.6224 LP  0  0  0  0  0  0  0  0  0  0  0  0  # atno 17343 bound_to 10162
  156.9552  130.9787  151.3490 LP  0  0  0  0  0  0  0  0  0  0  0  0  # atno 17370 bound_to 10713
  157.5760  130.8343  149.8456 LP  0  0  0  0  0  0  0  0  0  0  0  0  # atno 17371 bound_to 10713
  140.3662  134.2440  155.7182 LP  0  0  0  0  0  0  0  0  0  0  0  0  # atno 17394 bound_to 11000
  141.2002  133.7992  157.0498 LP  0  0  0  0  0  0  0  0  0  0  0  0  # atno 17395 bound_to 11000

$$$$
