AV-unprocessed.smi:1510|AV-procd|sdf|6096|dock4
  -GOLD-   22720 6223D 1   1.00000     0.00000
 Structure written by MMmdl.
 33 34  0  0  0  0  0  0  0  0  1 V2000
  151.7361  136.0894  155.8893 O   0  0  0  0  0  0  0  0  0  0  0  0
  151.1737  136.7475  155.0131 C   0  0  0  0  0  0  0  0  0  0  0  0
  151.8705  137.9604  154.3820 C   0  0  0  0  0  0  0  0  0  0  0  0
  151.3627  139.2389  154.8987 N   0  0  0  0  0  0  0  0  0  0  0  0
  150.3214  139.7783  154.1585 N   0  0  0  0  0  0  0  0  0  0  0  0
  149.7832  140.8932  154.5215 C   0  0  0  0  0  0  0  0  0  0  0  0
  148.7512  141.3892  153.7636 O   0  0  0  0  0  0  0  0  0  0  0  0
  150.2496  141.6041  155.6917 C   0  0  0  0  0  0  0  0  0  0  0  0
  151.2669  141.0724  156.4043 C   0  0  0  0  0  0  0  0  0  0  0  0
  151.8980  139.8078  156.0227 C   0  0  0  0  0  0  0  0  0  0  0  0
  152.8247  139.2992  156.6536 O   0  0  0  0  0  0  0  0  0  0  0  0
  149.9395  136.4739  154.5649 N   0  0  0  0  0  0  0  0  0  0  0  0
  149.1171  135.3512  155.0013 C   0  0  0  0  0  0  0  0  0  0  0  0
  149.7432  133.9943  154.6313 C   0  0  2  0  0  0  0  0  0  0  0  0
  149.1197  133.3066  153.4183 C   0  0  0  0  0  0  0  0  0  0  0  0
  149.4719  131.8447  153.6351 C   0  0  0  0  0  0  0  0  0  0  0  0
  149.7942  131.7557  155.1310 C   0  0  0  0  0  0  0  0  0  0  0  0
  149.5211  133.0464  155.6620 O   0  0  0  0  0  0  0  0  0  0  0  0
  148.1436  140.6720  153.6678 H   0  0  0  0  0  0  0  0  0  0  0  0
  152.9489  137.8989  154.5413 H   0  0  0  0  0  0  0  0  0  0  0  0
  151.7306  137.9044  153.3011 H   0  0  0  0  0  0  0  0  0  0  0  0
  149.7888  142.5374  155.9803 H   0  0  0  0  0  0  0  0  0  0  0  0
  151.6253  141.5925  157.2804 H   0  0  0  0  0  0  0  0  0  0  0  0
  149.5514  137.0714  153.8494 H   0  0  0  0  0  0  0  0  0  0  0  0
  148.9474  135.4091  156.0776 H   0  0  0  0  0  0  0  0  0  0  0  0
  148.1395  135.4488  154.5286 H   0  0  0  0  0  0  0  0  0  0  0  0
  150.8198  134.0981  154.4840 H   0  0  0  0  0  0  0  0  0  0  0  0
  148.0360  133.4291  153.4315 H   0  0  0  0  0  0  0  0  0  0  0  0
  149.4932  133.6982  152.4714 H   0  0  0  0  0  0  0  0  0  0  0  0
  148.6469  131.1906  153.3520 H   0  0  0  0  0  0  0  0  0  0  0  0
  150.3431  131.5615  153.0436 H   0  0  0  0  0  0  0  0  0  0  0  0
  149.1997  130.9973  155.6408 H   0  0  0  0  0  0  0  0  0  0  0  0
  150.8481  131.5192  155.2829 H   0  0  0  0  0  0  0  0  0  0  0  0
  1  2  2  0  0  0  0
  2  3  1  0  0  0  0
  2 12  1  0  0  0  0
  3 20  1  0  0  0  0
  3 21  1  0  0  0  0
  3  4  1  0  0  0  0
  4  5  1  0  0  0  0
  4 10  1  0  0  0  0
  5  6  2  0  0  0  0
  6  7  1  0  0  0  0
  6  8  1  0  0  0  0
  7 19  1  0  0  0  0
  8 22  1  0  0  0  0
  8  9  2  0  0  0  0
  9 23  1  0  0  0  0
  9 10  1  0  0  0  0
 10 11  2  0  0  0  0
 12 13  1  0  0  0  0
 12 24  1  0  0  0  0
 13 14  1  0  0  0  0
 13 25  1  0  0  0  0
 13 26  1  0  0  0  0
 14 18  1  0  0  0  0
 14 15  1  0  0  0  0
 14 27  1  0  0  0  0
 15 16  1  0  0  0  0
 15 28  1  0  0  0  0
 15 29  1  0  0  0  0
 16 17  1  0  0  0  0
 16 30  1  0  0  0  0
 16 31  1  0  0  0  0
 17 18  1  0  0  0  0
 17 32  1  0  0  0  0
 17 33  1  0  0  0  0
M  END
> <s_m_source_file>
AV-unprocessed.smi

> <i_m_source_file_index>
1510

> <i_lp_mmshare_version>
43012

> <i_f3d_flags>
0

> <s_epik_input>
TzFbQ0gyXVtDSDJdW0NIMl1bQ0BIXTFbQ0gyXVtOSF1DKD1PKVtDSDJdbjJbbkhdYyg9TylbY0hdW2NIXWMyPU8=

> <s_epik_cmdline>
J2VwaWtfcHl0aG9uJywgJy1waCcsICc3LjAnLCAnLXRuJywgJzgnLCAnLW1hJywgJzIwMCcsICctbWV0YWxfYmluZGluZycsICctaW1hZScsICc8aW5maWxlLm1hZT4nLCAnLW9tYWUnLCAnPG91dGZpbGUubWFlPic=

> <r_lp_tautomer_probability>
0.9996

> <r_epik_Ionization_Penalty>
2.13037

> <r_epik_Ionization_Penalty_Charging>
3.76e-08

> <r_epik_Ionization_Penalty_Neutral>
2.13037

> <r_epik_State_Penalty>
1.70753

> <r_epik_Charging_Adjusted_Penalty>
1.70753

> <i_epik_Tot_Q>
0

> <i_epik_Tot_abs_Q>
0

> <r_epik_Metal_State_Penalty>
1.70753

> <b_epik_Metal_Only>
0

> <s_lp_Force_Field>
OPLS_2005

> <r_lp_Energy>
28.2415

> <b_lp_Chiralities_Consistent>
1

> <s_lp_Variant>
AV-unprocessed.smi:1510-3

> <Gold.Version>
5.8.1

> <Gold.Id.Protein>
6NUR|6NUR_protein|mol2

> <Gold.PLP.Fitness>
42.8516

> <Gold.PLP.PLP>
-35.9061

> <Gold.PLP.part.hbond>
-6.0000

> <Gold.PLP.part.metal>
0.0000

> <Gold.PLP.part.buried>
-1.0877

> <Gold.PLP.part.nonpolar>
-27.6753

> <Gold.PLP.part.repulsive>
0.8590

> <Gold.PLP.ligand.clash>
0.0000

> <Gold.PLP.ligand.torsion>
1.1611

> <Gold.PLP.Chemscore.Hbond>
3.0860

> <Gold.PLP.Chemscore.CHOScore>
0.0000

> <Gold.PLP.Chemscore.Metal>
0.0000

> <Gold.Chemscore.Hbonds>
donor molecule, donor type, donor heavy atom, donor atom, acceptor molecule, acceptor atom, score
      L1  H    12    24       P1  7948  0.22
      P1  H  7989  7998       L1     5  0.04
      P1  H  7997  8008       L1    11  1.00
      P1  H  8011  8017       L1     7  0.74
      P1  H 10752 10763       L1     1  1.00

> <Gold.PLP.Chemscore.Internal.Correction>
0.0095

> <Gold.Rescore>
     Score         DG    S(hbond)    S(metal)    S(lipo)     H(rot)  DE(clash)    DE(int)     intcor
     10.33     -11.75       2.17        0.00      50.66       2.69       0.25       1.16       ----

> <Gold.Chemscore.Fitness>
10.3327

> <Gold.Chemscore.DG>
-11.7463

> <Gold.Chemscore.ZeroCoef>
-5.4800

> <Gold.Chemscore.Hbond>
2.1662

> <Gold.Chemscore.Metal>
0.0000

> <Gold.Chemscore.Lipo>
50.6600

> <Gold.Chemscore.Internal_Hbond>
0.0000

> <Gold.Chemscore.DEClash>
0.2522

> <Gold.Chemscore.DEInternal>
1.1614

> <Gold.Chemscore.Rot>
2.6937

> <Gold.Chemscore.Internal.Correction>
   9.000000E+99

> <Gold.Chemscore.Hbonds>
donor molecule, donor type, donor heavy atom, donor atom, acceptor molecule, acceptor atom, score
      L1  H    12    24       P1  7948  0.19
      P1  H  7997  8008       L1    11  0.91
      P1  H  8011  8017       L1     7  0.21
      P1  H 10752 10763       L1     1  0.58

> <Gold.Chemscore.Hbond.Weighted>
-7.2350

> <Gold.Chemscore.Metal.Weighted>
-0.0000

> <Gold.Chemscore.Lipo.Weighted>
-5.9272

> <Gold.Chemscore.Internal_Hbond.Weighted>
0.0000

> <Gold.Chemscore.DEClash.Weighted>
0.2522

> <Gold.Chemscore.DEInternal.Weighted>
1.1614

> <Gold.Chemscore.Rot.Weighted>
6.8959

> <Gold.Chemscore.Internal.Correction.Weighted>
   9.000000E+99

> <Gold.Protein.RotatedTorsions>
[ 6907 6896 6895 6894 ] final  -36.72 input  -60.11 | X-H torsion
[ 7974 7965 7964 7962 ] final  166.05 input  175.53 | X-H torsion
[ 8008 7997 7996 7995 ] final  -50.10 input   59.86 | X-H torsion
[ 10167 10162 10161 10158 ] final  160.58 input  -65.29 | X-H torsion
[ 10718 10713 10712 10709 ] final -106.78 input   66.30 | X-H torsion
[ 10763 10752 10751 10750 ] final   99.56 input  -60.55 | X-H torsion
[ 11005 11000 10999 10996 ] final   19.89 input  -57.11 | X-H torsion

> <Gold.Protein.ActiveResidues>
 VAL166  LYS551  ARG553  GLY616  TRP617  ASP618  TYR619  PRO620  LYS621  CYS622 
 ASP623  PHE694  ASN695  SER759  ASP760  ASP761  ALA762  ILE779  LEU786  VAL792 
 PHE793  MET794  SER795  GLU796  ALA797  LYS798  CYS799  TRP800  GLU811  SER814 

> <Gold.Protein.RotatedAtoms>
  151.0237  134.9488  159.8072 H   0  0  0  0  0  0  0  0  0  0  0  0  # atno 6907 bound_to 6896
  152.5330  134.2871  159.9039 H   0  0  0  0  0  0  0  0  0  0  0  0  # atno 6908 bound_to 6896
  151.2879  133.4137  159.2665 H   0  0  0  0  0  0  0  0  0  0  0  0  # atno 6909 bound_to 6896
  144.7478  139.8558  143.6376 H   0  0  0  0  0  0  0  0  0  0  0  0  # atno 7974 bound_to 7965
  154.4056  140.1280  156.4611 H   0  0  0  0  0  0  0  0  0  0  0  0  # atno 8008 bound_to 7997
  155.7272  140.3492  155.5023 H   0  0  0  0  0  0  0  0  0  0  0  0  # atno 8009 bound_to 7997
  155.9160  140.1044  157.1233 H   0  0  0  0  0  0  0  0  0  0  0  0  # atno 8010 bound_to 7997
  139.4841  144.4620  151.8692 H   0  0  0  0  0  0  0  0  0  0  0  0  # atno 10167 bound_to 10162
  156.0406  130.5630  150.7729 H   0  0  0  0  0  0  0  0  0  0  0  0  # atno 10718 bound_to 10713
  153.3029  135.4109  155.1268 H   0  0  0  0  0  0  0  0  0  0  0  0  # atno 10763 bound_to 10752
  154.8554  135.3546  154.5827 H   0  0  0  0  0  0  0  0  0  0  0  0  # atno 10764 bound_to 10752
  153.6253  135.7063  153.5353 H   0  0  0  0  0  0  0  0  0  0  0  0  # atno 10765 bound_to 10752
  140.4087  134.1641  155.7666 H   0  0  0  0  0  0  0  0  0  0  0  0  # atno 11005 bound_to 11000
  146.1383  139.4434  143.0125 LP  0  0  0  0  0  0  0  0  0  0  0  0  # atno 17320 bound_to 7965
  145.7057  141.0122  143.1480 LP  0  0  0  0  0  0  0  0  0  0  0  0  # atno 17321 bound_to 7965
  140.4083  144.2403  150.5890 LP  0  0  0  0  0  0  0  0  0  0  0  0  # atno 17342 bound_to 10162
  140.4991  143.2323  151.8705 LP  0  0  0  0  0  0  0  0  0  0  0  0  # atno 17343 bound_to 10162
  157.5218  131.0932  151.0069 LP  0  0  0  0  0  0  0  0  0  0  0  0  # atno 17370 bound_to 10713
  157.0397  130.5744  149.5354 LP  0  0  0  0  0  0  0  0  0  0  0  0  # atno 17371 bound_to 10713
  141.1829  133.8375  157.1193 LP  0  0  0  0  0  0  0  0  0  0  0  0  # atno 17394 bound_to 11000
  140.0283  134.9913  157.0730 LP  0  0  0  0  0  0  0  0  0  0  0  0  # atno 17395 bound_to 11000

$$$$
