#       Name:                AV-unprocessed.smi:2210
#       Creating user name   scv26
#       Creation time:       Fri Mar 27 12:16:37 2020


#       File generated by GOLD software.
#

@<TRIPOS>MOLECULE
AV-unprocessed.smi:2210
    40    41     1
SMALL
NO_CHARGES


@<TRIPOS>ATOM
      1 ****        -1.3406   1.3926  -0.7897 O.2            1 S1                 0.0000
      2 ****        -1.8565   0.2807  -0.6778 C.2            1 S1                 0.0000
      3 ****        -1.1508  -0.8565  -0.5989 N.am           1 S1                 0.0000
      4 ****         0.3047  -0.9430  -0.6298 C.3            1 S1                 0.0000
      5 ****         0.9204  -0.6156   0.7420 C.3            1 S1                 0.0000
      6 ****         2.4387  -0.6799   0.7360 C.2            1 S1                 0.0000
      7 ****         3.1992   0.4188   0.9094 C.2            1 S1                 0.0000
      8 ****         4.7177   0.4160   0.8988 C.3            1 S1                 0.0000
      9 ****         5.2973  -0.8901   0.3303 C.3            1 S1                 0.0000
     10 ****         4.5494  -2.1116   0.8783 C.3            1 S1                 0.0000
     11 ****         3.0530  -2.0589   0.5218 C.3            1 S1                 0.0000
     12 ****        -3.1776   0.0364  -0.6365 N.am           1 S1                 0.0000
     13 ****        -4.2511   0.9663  -0.6890 C.ar           1 S1                 0.0000
     14 ****        -4.1374   2.3354  -0.3453 C.ar           1 S1                 0.0000
     15 ****        -5.2813   3.1530  -0.4242 C.ar           1 S1                 0.0000
     16 ****        -6.4968   2.5717  -0.8346 C.ar           1 S1                 0.0000
     17 ****        -6.6231   1.2657  -1.1503 N.ar           1 S1                 0.0000
     18 ****        -5.5222   0.4881  -1.0726 C.ar           1 S1                 0.0000
     19 ****        -1.6565  -1.7263  -0.5157 H              1 S1                 0.0000
     20 ****         0.5683  -1.9567  -0.9313 H              1 S1                 0.0000
     21 ****         0.7032  -0.2767  -1.3969 H              1 S1                 0.0000
     22 ****         0.6073   0.3812   1.0559 H              1 S1                 0.0000
     23 ****         0.5450  -1.3060   1.4980 H              1 S1                 0.0000
     24 ****         2.7293   1.3771   1.0771 H              1 S1                 0.0000
     25 ****         5.0749   1.2651   0.3155 H              1 S1                 0.0000
     26 ****         5.0613   0.5669   1.9225 H              1 S1                 0.0000
     27 ****         5.2173  -0.8810  -0.7576 H              1 S1                 0.0000
     28 ****         6.3607  -0.9588   0.5614 H              1 S1                 0.0000
     29 ****         4.9909  -3.0314   0.4935 H              1 S1                 0.0000
     30 ****         4.6644  -2.1447   1.9625 H              1 S1                 0.0000
     31 ****         2.5125  -2.7961   1.1163 H              1 S1                 0.0000
     32 ****         2.9164  -2.3344  -0.5243 H              1 S1                 0.0000
     33 ****        -3.4488  -0.9360  -0.6247 H              1 S1                 0.0000
     34 ****        -3.2078   2.7695  -0.0121 H              1 S1                 0.0000
     35 ****        -5.2286   4.2016  -0.1710 H              1 S1                 0.0000
     36 ****        -7.3929   3.1706  -0.9045 H              1 S1                 0.0000
     37 ****        -5.6615  -0.5516  -1.3310 H              1 S1                 0.0000
     38 ****        -0.3451   1.4805  -0.8261 LP             1 S1                 0.0000
     39 ****        -1.9169   2.2080  -0.8443 LP             1 S1                 0.0000
     40 ****        -7.5040   0.8860  -1.4328 LP             1 S1                 0.0000
@<TRIPOS>BOND
    1    1    2 2     
    2    2    3 am    
    3    2   12 am    
    4    3    4 1     
    5    3   19 1     
    6    4    5 1     
    7    4   20 1     
    8    4   21 1     
    9    5    6 1     
   10    5   22 1     
   11    5   23 1     
   12    6   11 1     
   13    6    7 2     
   14    7    8 1     
   15    7   24 1     
   16    8    9 1     
   17    8   25 1     
   18    8   26 1     
   19    9   10 1     
   20    9   27 1     
   21    9   28 1     
   22   10   11 1     
   23   10   29 1     
   24   10   30 1     
   25   11   31 1     
   26   11   32 1     
   27   12   13 1     
   28   12   33 1     
   29   13   18 ar    
   30   13   14 ar    
   31   14   15 ar    
   32   14   34 1     
   33   15   16 ar    
   34   15   35 1     
   35   16   17 ar    
   36   16   36 1     
   37   17   18 ar    
   38   18   37 1     
   39    1   38 1     
   40    1   39 1     
   41   17   40 1     
@<TRIPOS>SUBSTRUCTURE
      1 S1             1
@<TRIPOS>SET
LONE_PAIRS      STATIC     ATOMS    <user>   **** ""
3 38 39 40
DONOR_HYDROGENS      STATIC     ATOMS    <user>   **** ""
2 19 33
ATOM$BLUE        STATIC     ATOMS    COLORGROUP SYSTEM
3 38 39 40
ATOM$RED        STATIC     ATOMS    COLORGROUP SYSTEM
2 19 33
