#       Name:                AV-unprocessed.smi:1379
#       Creating user name   scv26
#       Creation time:       Fri Mar 27 05:20:31 2020


#       File generated by GOLD software.
#

@<TRIPOS>MOLECULE
AV-unprocessed.smi:1379
    40    41     1
SMALL
NO_CHARGES


@<TRIPOS>ATOM
      1 ****        -6.3233   3.2534   0.1550 C.3            1 S1                 0.0000
      2 ****        -4.9084   3.1890   0.1436 O.3            1 S1                 0.0000
      3 ****        -4.4249   1.8542   0.1413 C.3            1 S1                 0.0000
      4 ****        -2.8947   1.8581   0.1319 C.2            1 S1                 0.0000
      5 ****        -2.2788   2.9232   0.0870 O.2            1 S1                 0.0000
      6 ****        -2.3198   0.6417   0.1544 N.am           1 S1                 0.0000
      7 ****        -0.9374   0.3103   0.1510 C.ar           1 S1                 0.0000
      8 ****         0.0963   1.1880   0.5562 C.ar           1 S1                 0.0000
      9 ****         1.4283   0.7331   0.5212 C.ar           1 S1                 0.0000
     10 ****         1.6886  -0.5851   0.0944 C.ar           1 S1                 0.0000
     11 ****         3.0182  -1.0320   0.0571 N.3            1 S1                 0.0000
     12 ****         3.3115  -2.2109   0.8557 C.3            1 S1                 0.0000
     13 ****         4.6719  -2.7077   0.3604 C.3            1 S1                 0.0000
     14 ****         4.8087  -2.1312  -1.0542 C.3            1 S1                 0.0000
     15 ****         3.5311  -1.3156  -1.2727 C.3            1 S1                 0.0000
     16 ****         0.7030  -1.4345  -0.2820 N.ar           1 S1                 0.0000
     17 ****        -0.5718  -0.9921  -0.2475 C.ar           1 S1                 0.0000
     18 ****        -6.6426   4.2954   0.1505 H              1 S1                 0.0000
     19 ****        -6.7319   2.7798   1.0485 H              1 S1                 0.0000
     20 ****        -6.7475   2.7674  -0.7245 H              1 S1                 0.0000
     21 ****        -4.7784   1.3222   1.0262 H              1 S1                 0.0000
     22 ****        -4.7875   1.3226  -0.7401 H              1 S1                 0.0000
     23 ****        -2.9523  -0.1444   0.1113 H              1 S1                 0.0000
     24 ****        -0.1020   2.1897   0.9036 H              1 S1                 0.0000
     25 ****         2.2345   1.3857   0.8231 H              1 S1                 0.0000
     26 ****         3.3347  -1.9696   1.9188 H              1 S1                 0.0000
     27 ****         2.5539  -2.9804   0.7009 H              1 S1                 0.0000
     28 ****         5.4699  -2.3214   0.9958 H              1 S1                 0.0000
     29 ****         4.7326  -3.7963   0.3745 H              1 S1                 0.0000
     30 ****         5.6864  -1.4861  -1.1092 H              1 S1                 0.0000
     31 ****         4.9197  -2.9092  -1.8100 H              1 S1                 0.0000
     32 ****         2.8070  -1.8978  -1.8446 H              1 S1                 0.0000
     33 ****         3.7308  -0.3950  -1.8217 H              1 S1                 0.0000
     34 ****        -1.3252  -1.7030  -0.5543 H              1 S1                 0.0000
     35 ****        -4.5596   3.6550   0.9567 LP             1 S1                 0.0000
     36 ****        -4.5729   3.6530  -0.6763 LP             1 S1                 0.0000
     37 ****        -2.7785   3.7888   0.0565 LP             1 S1                 0.0000
     38 ****        -1.2788   2.9226   0.0809 LP             1 S1                 0.0000
     39 ****         3.4742  -0.2339   0.4508 LP             1 S1                 0.0000
     40 ****         0.9144  -2.3660  -0.5781 LP             1 S1                 0.0000
@<TRIPOS>BOND
    1    1    2 1     
    2    1   18 1     
    3    1   19 1     
    4    1   20 1     
    5    2    3 1     
    6    3    4 1     
    7    3   21 1     
    8    3   22 1     
    9    4    5 2     
   10    4    6 am    
   11    6    7 1     
   12    6   23 1     
   13    7   17 ar    
   14    7    8 ar    
   15    8    9 ar    
   16    8   24 1     
   17    9   10 ar    
   18    9   25 1     
   19   10   11 1     
   20   10   16 ar    
   21   11   15 1     
   22   11   12 1     
   23   12   13 1     
   24   12   26 1     
   25   12   27 1     
   26   13   14 1     
   27   13   28 1     
   28   13   29 1     
   29   14   15 1     
   30   14   30 1     
   31   14   31 1     
   32   15   32 1     
   33   15   33 1     
   34   16   17 ar    
   35   17   34 1     
   36    2   35 1     
   37    2   36 1     
   38    5   37 1     
   39    5   38 1     
   40   11   39 1     
   41   16   40 1     
@<TRIPOS>SUBSTRUCTURE
      1 S1             1
@<TRIPOS>SET
LONE_PAIRS      STATIC     ATOMS    <user>   **** ""
6 35 36 37 38 39 40
DONOR_HYDROGENS      STATIC     ATOMS    <user>   **** ""
1 23
ATOM$BLUE        STATIC     ATOMS    COLORGROUP SYSTEM
6 35 36 37 38 39 40
ATOM$RED        STATIC     ATOMS    COLORGROUP SYSTEM
1 23
