AV-unprocessed.smi:3031|AV-procd|sdf|11547|dock2
  -GOLD-   2272016503D 1   1.00000     0.00000
 Structure written by MMmdl.
 47 48  0  0  0  0  0  0  0  0  2 V2000
  152.1993  142.6183  159.1226 C   0  0  0  0  0  0  0  0  0  0  0  0
  151.5008  141.8869  158.0126 C   0  0  0  0  0  0  0  0  0  0  0  0
  151.2897  140.4842  157.8868 C   0  0  0  0  0  0  0  0  0  0  0  0
  150.6422  140.1587  156.7801 N   0  0  0  0  0  0  0  0  0  0  0  0
  150.4185  141.3383  156.1612 N   0  0  0  0  0  0  0  0  0  0  0  0
  149.7236  141.3657  154.8870 C   0  0  0  0  0  0  0  0  0  0  0  0
  149.2495  139.9745  154.4037 C   0  0  2  0  0  0  0  0  0  0  0  0
  150.4544  139.0335  154.2692 C   0  0  0  0  0  0  0  0  0  0  0  0
  148.5583  140.0498  153.1130 N   0  0  0  0  0  0  0  0  0  0  0  0
  147.0956  140.0579  153.1965 C   0  0  0  0  0  0  0  0  0  0  0  0
  146.4641  138.8278  152.5206 C   0  0  1  0  0  0  0  0  0  0  0  0
  147.1724  138.5539  151.3275 O   0  0  0  0  0  0  0  0  0  0  0  0
  146.4121  137.5703  153.4150 C   0  0  0  0  0  0  0  0  0  0  0  0
  146.3151  136.3176  152.6233 N   0  3  0  0  0  0  0  0  0  0  0  0
  146.2686  135.1055  153.4752 C   0  0  0  0  0  0  0  0  0  0  0  0
  146.2379  133.8379  152.6046 C   0  0  0  0  0  0  0  0  0  0  0  0
  145.1241  133.8914  151.7219 O   0  0  0  0  0  0  0  0  0  0  0  0
  145.1979  135.0039  150.8391 C   0  0  0  0  0  0  0  0  0  0  0  0
  145.1929  136.3096  151.6518 C   0  0  0  0  0  0  0  0  0  0  0  0
  150.9195  142.3981  156.8867 C   0  0  0  0  0  0  0  0  0  0  0  0
  152.2731  142.0106  160.0247 H   0  0  0  0  0  0  0  0  0  0  0  0
  151.6747  143.5342  159.3955 H   0  0  0  0  0  0  0  0  0  0  0  0
  153.2141  142.8999  158.8408 H   0  0  0  0  0  0  0  0  0  0  0  0
  151.5897  139.6969  158.5625 H   0  0  0  0  0  0  0  0  0  0  0  0
  148.8790  142.0539  154.9545 H   0  0  0  0  0  0  0  0  0  0  0  0
  150.4077  141.7968  154.1548 H   0  0  0  0  0  0  0  0  0  0  0  0
  148.5847  139.5412  155.1525 H   0  0  0  0  0  0  0  0  0  0  0  0
  150.9737  138.9220  155.2214 H   0  0  0  0  0  0  0  0  0  0  0  0
  151.1743  139.4076  153.5402 H   0  0  0  0  0  0  0  0  0  0  0  0
  150.1424  138.0387  153.9494 H   0  0  0  0  0  0  0  0  0  0  0  0
  148.8634  140.8871  152.6256 H   0  0  0  0  0  0  0  0  0  0  0  0
  146.7982  140.0838  154.2453 H   0  0  0  0  0  0  0  0  0  0  0  0
  146.6773  140.9565  152.7482 H   0  0  0  0  0  0  0  0  0  0  0  0
  145.4547  139.1144  152.2285 H   0  0  0  0  0  0  0  0  0  0  0  0
  147.3930  137.6345  151.3131 H   0  0  0  0  0  0  0  0  0  0  0  0
  147.3132  137.5387  154.0295 H   0  0  0  0  0  0  0  0  0  0  0  0
  145.5722  137.6265  154.1093 H   0  0  0  0  0  0  0  0  0  0  0  0
  147.1414  135.0771  154.1289 H   0  0  0  0  0  0  0  0  0  0  0  0
  145.3867  135.1418  154.1168 H   0  0  0  0  0  0  0  0  0  0  0  0
  147.1635  133.7323  152.0366 H   0  0  0  0  0  0  0  0  0  0  0  0
  146.1481  132.9518  153.2333 H   0  0  0  0  0  0  0  0  0  0  0  0
  146.0933  134.9343  150.2193 H   0  0  0  0  0  0  0  0  0  0  0  0
  144.3411  134.9773  150.1655 H   0  0  0  0  0  0  0  0  0  0  0  0
  144.2459  136.4113  152.1843 H   0  0  0  0  0  0  0  0  0  0  0  0
  145.2678  137.1561  150.9706 H   0  0  0  0  0  0  0  0  0  0  0  0
  150.8280  143.4173  156.5410 H   0  0  0  0  0  0  0  0  0  0  0  0
  147.1718  136.2546  152.0913 H   0  0  0  0  0  0  0  0  0  0  0  0
  1  2  1  0  0  0  0
  1 21  1  0  0  0  0
  1 22  1  0  0  0  0
  1 23  1  0  0  0  0
  2 20  2  0  0  0  0
  2  3  1  0  0  0  0
  3  4  2  0  0  0  0
  3 24  1  0  0  0  0
  4  5  1  0  0  0  0
  5  6  1  0  0  0  0
  5 20  1  0  0  0  0
  6  7  1  0  0  0  0
  6 25  1  0  0  0  0
  6 26  1  0  0  0  0
  7  8  1  0  0  0  0
  7  9  1  0  0  0  0
  7 27  1  0  0  0  0
  8 28  1  0  0  0  0
  8 29  1  0  0  0  0
  8 30  1  0  0  0  0
  9 10  1  0  0  0  0
  9 31  1  0  0  0  0
 10 11  1  0  0  0  0
 10 32  1  0  0  0  0
 10 33  1  0  0  0  0
 11 12  1  0  0  0  0
 11 13  1  0  0  0  0
 11 34  1  0  0  0  0
 12 35  1  0  0  0  0
 13 14  1  0  0  0  0
 13 36  1  0  0  0  0
 13 37  1  0  0  0  0
 14 19  1  0  0  0  0
 14 15  1  0  0  0  0
 14 47  1  0  0  0  0
 15 16  1  0  0  0  0
 15 38  1  0  0  0  0
 15 39  1  0  0  0  0
 16 17  1  0  0  0  0
 16 40  1  0  0  0  0
 16 41  1  0  0  0  0
 17 18  1  0  0  0  0
 18 19  1  0  0  0  0
 18 42  1  0  0  0  0
 18 43  1  0  0  0  0
 19 44  1  0  0  0  0
 19 45  1  0  0  0  0
 20 46  1  0  0  0  0
M  CHG  1  14   1
M  END
> <s_m_source_file>
AV-unprocessed.smi

> <i_m_source_file_index>
3031

> <i_lp_mmshare_version>
43012

> <i_f3d_flags>
0

> <s_epik_input>
W0NIM11jMVtjSF1ubihbY0hdMSlbQ0gyXVtDQEhdKFtDSDNdKVtOSF1bQ0gyXVtDQEhdKFtPSF0pW0NIMl1OMltDSDJdW0NIMl1PW0NIMl1bQ0gyXTI=

> <s_epik_cmdline>
J2VwaWtfcHl0aG9uJywgJy1waCcsICc3LjAnLCAnLXRuJywgJzgnLCAnLW1hJywgJzIwMCcsICctbWV0YWxfYmluZGluZycsICctaW1hZScsICc8aW5maWxlLm1hZT4nLCAnLW9tYWUnLCAnPG91dGZpbGUubWFlPic=

> <r_epik_Ionization_Penalty>
0.467051

> <r_epik_Ionization_Penalty_Charging>
0.202493

> <r_epik_Ionization_Penalty_Neutral>
0.264558

> <r_epik_State_Penalty>
1.34287

> <r_epik_Charging_Adjusted_Penalty>
1.54537

> <i_epik_Tot_Q>
1

> <i_epik_Tot_abs_Q>
1

> <r_epik_Metal_State_Penalty>
1.34281

> <b_epik_Metal_Only>
0

> <s_lp_Force_Field>
OPLS_2005

> <r_lp_Energy>
30.3871

> <b_lp_Chiralities_Consistent>
1

> <s_lp_Variant>
AV-unprocessed.smi:3031-7

> <Gold.Version>
5.8.1

> <Gold.Id.Protein>
6NUR|6NUR_protein|mol2

> <Gold.PLP.Fitness>
49.1168

> <Gold.PLP.PLP>
-40.0163

> <Gold.PLP.part.hbond>
-4.0539

> <Gold.PLP.part.metal>
0.0000

> <Gold.PLP.part.buried>
-4.4179

> <Gold.PLP.part.nonpolar>
-31.2420

> <Gold.PLP.part.repulsive>
0.1138

> <Gold.PLP.ligand.clash>
0.0000

> <Gold.PLP.ligand.torsion>
1.4159

> <Gold.PLP.Chemscore.Hbond>
2.9120

> <Gold.PLP.Chemscore.CHOScore>
1.0000

> <Gold.PLP.Chemscore.Metal>
0.0000

> <Gold.Chemscore.Hbonds>
donor molecule, donor type, donor heavy atom, donor atom, acceptor molecule, acceptor atom, score
      L1  H    12    35       P1  7948  0.65
      L1  H    14    47       P1  7948  2.00
      L1  C    20    46       P1  8028  1.00

> <Gold.PLP.Chemscore.Internal.Correction>
0.1964

> <Gold.Rescore>
     Score         DG    S(hbond)    S(metal)    S(lipo)     H(rot)  DE(clash)    DE(int)     intcor
     13.61     -16.68       2.14        0.00      92.82       2.65       0.24       2.83       ----

> <Gold.Chemscore.Fitness>
13.6140

> <Gold.Chemscore.DG>
-16.6837

> <Gold.Chemscore.ZeroCoef>
-5.4800

> <Gold.Chemscore.Hbond>
2.1355

> <Gold.Chemscore.Metal>
0.0000

> <Gold.Chemscore.Lipo>
92.8248

> <Gold.Chemscore.Internal_Hbond>
0.0000

> <Gold.Chemscore.DEClash>
0.2362

> <Gold.Chemscore.DEInternal>
2.8335

> <Gold.Chemscore.Rot>
2.6521

> <Gold.Chemscore.Internal.Correction>
   9.000000E+99

> <Gold.Chemscore.Hbonds>
donor molecule, donor type, donor heavy atom, donor atom, acceptor molecule, acceptor atom, score
      L1  H     9    31       P1  7957  0.04
      L1  H    12    35       P1  7948  0.63
      L1  H    14    47       P1  7948  0.99

> <Gold.Chemscore.Hbond.Weighted>
-7.1326

> <Gold.Chemscore.Metal.Weighted>
-0.0000

> <Gold.Chemscore.Lipo.Weighted>
-10.8605

> <Gold.Chemscore.Internal_Hbond.Weighted>
0.0000

> <Gold.Chemscore.DEClash.Weighted>
0.2362

> <Gold.Chemscore.DEInternal.Weighted>
2.8335

> <Gold.Chemscore.Rot.Weighted>
6.7894

> <Gold.Chemscore.Internal.Correction.Weighted>
   9.000000E+99

> <Gold.Protein.RotatedTorsions>
[ 6907 6896 6895 6894 ] final  -98.29 input  -60.11 | X-H torsion
[ 7974 7965 7964 7962 ] final   36.51 input  175.53 | X-H torsion
[ 8008 7997 7996 7995 ] final   54.18 input   59.86 | X-H torsion
[ 10167 10162 10161 10158 ] final  156.49 input  -65.29 | X-H torsion
[ 10718 10713 10712 10709 ] final  -26.23 input   66.30 | X-H torsion
[ 10763 10752 10751 10750 ] final -146.60 input  -60.55 | X-H torsion
[ 11005 11000 10999 10996 ] final   96.36 input  -57.11 | X-H torsion

> <Gold.Protein.ActiveResidues>
 VAL166  LYS551  ARG553  GLY616  TRP617  ASP618  TYR619  PRO620  LYS621  CYS622 
 ASP623  PHE694  ASN695  SER759  ASP760  ASP761  ALA762  ILE779  LEU786  VAL792 
 PHE793  MET794  SER795  GLU796  ALA797  LYS798  CYS799  TRP800  GLU811  SER814 

> <Gold.Protein.RotatedAtoms>
  150.7042  134.1217  159.4037 H   0  0  0  0  0  0  0  0  0  0  0  0  # atno 6907 bound_to 6896
  151.9204  135.0298  160.0531 H   0  0  0  0  0  0  0  0  0  0  0  0  # atno 6908 bound_to 6896
  152.2261  133.4986  159.5226 H   0  0  0  0  0  0  0  0  0  0  0  0  # atno 6909 bound_to 6896
  146.1206  139.6008  142.9292 H   0  0  0  0  0  0  0  0  0  0  0  0  # atno 7974 bound_to 7965
  155.4805  140.3468  155.4339 H   0  0  0  0  0  0  0  0  0  0  0  0  # atno 8008 bound_to 7997
  156.1042  140.1443  156.9455 H   0  0  0  0  0  0  0  0  0  0  0  0  # atno 8009 bound_to 7997
  154.4713  140.0900  156.7130 H   0  0  0  0  0  0  0  0  0  0  0  0  # atno 8010 bound_to 7997
  139.4821  144.5004  151.8177 H   0  0  0  0  0  0  0  0  0  0  0  0  # atno 10167 bound_to 10162
  156.4539  130.4489  149.6972 H   0  0  0  0  0  0  0  0  0  0  0  0  # atno 10718 bound_to 10713
  154.8328  135.3382  154.6686 H   0  0  0  0  0  0  0  0  0  0  0  0  # atno 10763 bound_to 10752
  153.7304  135.6952  153.4995 H   0  0  0  0  0  0  0  0  0  0  0  0  # atno 10764 bound_to 10752
  153.2316  135.4414  155.0553 H   0  0  0  0  0  0  0  0  0  0  0  0  # atno 10765 bound_to 10752
  139.8782  134.8946  156.4147 H   0  0  0  0  0  0  0  0  0  0  0  0  # atno 11005 bound_to 11000
  145.5475  141.0416  143.2297 LP  0  0  0  0  0  0  0  0  0  0  0  0  # atno 17320 bound_to 7965
  144.7593  139.6996  143.7241 LP  0  0  0  0  0  0  0  0  0  0  0  0  # atno 17321 bound_to 7965
  140.4496  144.1873  150.5896 LP  0  0  0  0  0  0  0  0  0  0  0  0  # atno 17342 bound_to 10162
  140.4598  143.2453  151.9235 LP  0  0  0  0  0  0  0  0  0  0  0  0  # atno 17343 bound_to 10162
  156.3787  130.7568  151.2559 LP  0  0  0  0  0  0  0  0  0  0  0  0  # atno 17370 bound_to 10713
  157.7501  131.0302  150.4126 LP  0  0  0  0  0  0  0  0  0  0  0  0  # atno 17371 bound_to 10713
  140.9176  133.7668  155.9867 LP  0  0  0  0  0  0  0  0  0  0  0  0  # atno 17394 bound_to 11000
  140.8476  134.2992  157.5288 LP  0  0  0  0  0  0  0  0  0  0  0  0  # atno 17395 bound_to 11000

$$$$
