#       Name:                AV-unprocessed.smi:1634
#       Creating user name   scv26
#       Creation time:       Fri Mar 27 07:21:55 2020


#       File generated by GOLD software.
#

@<TRIPOS>MOLECULE
AV-unprocessed.smi:1634
    44    44     1
SMALL
NO_CHARGES


@<TRIPOS>ATOM
      1 ****        -4.1207   1.0223  -1.8610 C.3            1 S1                 0.0000
      2 ****        -3.4293  -0.3404  -1.7066 C.3            1 S1                 0.0000
      3 ****        -3.9250  -1.0636  -0.4444 C.3            1 S1                 0.0000
      4 ****        -1.9000  -0.1860  -1.7033 C.3            1 S1                 0.0000
      5 ****        -1.2988  -1.4762  -1.7476 O.3            1 S1                 0.0000
      6 ****         0.1257  -1.4894  -1.7842 C.3            1 S1                 0.0000
      7 ****         0.5675  -2.9107  -2.1632 C.3            1 S1                 0.0000
      8 ****         0.6979  -1.0712  -0.4200 C.2            1 S1                 0.0000
      9 ****         0.5124  -1.7929   0.5594 O.2            1 S1                 0.0000
     10 ****         1.3485   0.1092  -0.4067 N.am           1 S1                 0.0000
     11 ****         1.9699   0.7824   0.6588 C.2            1 S1                 0.0000
     12 ****         2.2530   0.2365   1.8707 C.2            1 S1                 0.0000
     13 ****         2.9053   0.9945   2.9253 C.2            1 S1                 0.0000
     14 ****         3.1423   0.3984   4.3042 C.3            1 S1                 0.0000
     15 ****         3.1142   1.3391   5.2491 F              1 S1                 0.0000
     16 ****         2.2172  -0.5160   4.5960 F              1 S1                 0.0000
     17 ****         4.3355  -0.1929   4.3427 F              1 S1                 0.0000
     18 ****         3.2095   2.2748   2.6441 C.2            1 S1                 0.0000
     19 ****         2.9423   2.8372   1.3940 N.am           1 S1                 0.0000
     20 ****         2.3421   2.1790   0.3773 C.2            1 S1                 0.0000
     21 ****         2.1385   2.7467  -0.6953 O.2            1 S1                 0.0000
     22 ****         3.2167   3.7990   1.2553 H              1 S1                 0.0000
     23 ****        -3.8868   1.6830  -1.0255 H              1 S1                 0.0000
     24 ****        -5.2045   0.9103  -1.9035 H              1 S1                 0.0000
     25 ****        -3.8066   1.5214  -2.7782 H              1 S1                 0.0000
     26 ****        -3.7025  -0.9466  -2.5713 H              1 S1                 0.0000
     27 ****        -3.6716  -0.5057   0.4577 H              1 S1                 0.0000
     28 ****        -3.4814  -2.0558  -0.3567 H              1 S1                 0.0000
     29 ****        -5.0077  -1.1910  -0.4641 H              1 S1                 0.0000
     30 ****        -1.5814   0.3872  -2.5753 H              1 S1                 0.0000
     31 ****        -1.5880   0.3702  -0.8186 H              1 S1                 0.0000
     32 ****         0.4738  -0.8054  -2.5606 H              1 S1                 0.0000
     33 ****         1.6546  -2.9946  -2.1860 H              1 S1                 0.0000
     34 ****         0.1963  -3.1795  -3.1524 H              1 S1                 0.0000
     35 ****         0.1883  -3.6516  -1.4583 H              1 S1                 0.0000
     36 ****         1.3665   0.6117  -1.2828 H              1 S1                 0.0000
     37 ****         2.0171  -0.7915   2.0886 H              1 S1                 0.0000
     38 ****         3.6678   2.9588   3.3431 H              1 S1                 0.0000
     39 ****        -1.6321  -1.9433  -2.5666 LP             1 S1                 0.0000
     40 ****        -1.5906  -1.9800  -0.9345 LP             1 S1                 0.0000
     41 ****        -0.0063  -2.6424   0.4634 LP             1 S1                 0.0000
     42 ****         0.8805  -1.5299   1.4512 LP             1 S1                 0.0000
     43 ****         1.6936   2.2557  -1.4443 LP             1 S1                 0.0000
     44 ****         2.4180   3.6990  -0.8180 LP             1 S1                 0.0000
@<TRIPOS>BOND
    1    1    2 1     
    2    1   23 1     
    3    1   24 1     
    4    1   25 1     
    5    2    3 1     
    6    2    4 1     
    7    2   26 1     
    8    3   27 1     
    9    3   28 1     
   10    3   29 1     
   11    4    5 1     
   12    4   30 1     
   13    4   31 1     
   14    5    6 1     
   15    6    7 1     
   16    6    8 1     
   17    6   32 1     
   18    7   33 1     
   19    7   34 1     
   20    7   35 1     
   21    8    9 2     
   22    8   10 am    
   23   10   11 1     
   24   10   36 1     
   25   11   20 1     
   26   11   12 2     
   27   12   13 1     
   28   12   37 1     
   29   13   14 1     
   30   13   18 2     
   31   14   15 1     
   32   14   16 1     
   33   14   17 1     
   34   18   19 1     
   35   18   38 1     
   36   19   22 1     
   37   19   20 am    
   38   20   21 2     
   39    5   39 1     
   40    5   40 1     
   41    9   41 1     
   42    9   42 1     
   43   21   43 1     
   44   21   44 1     
@<TRIPOS>SUBSTRUCTURE
      1 S1             1
@<TRIPOS>SET
LONE_PAIRS      STATIC     ATOMS    <user>   **** ""
6 39 40 41 42 43 44
DONOR_HYDROGENS      STATIC     ATOMS    <user>   **** ""
2 36 22
ATOM$BLUE        STATIC     ATOMS    COLORGROUP SYSTEM
6 39 40 41 42 43 44
ATOM$RED        STATIC     ATOMS    COLORGROUP SYSTEM
2 36 22
