AV-unprocessed.smi:3331|AV-procd|sdf|12821|dock1
  -GOLD-   2272019193D 1   1.00000     0.00000
 Structure written by MMmdl.
 47 48  0  0  0  0  0  0  0  0  2 V2000
  151.6774  145.5983  160.1660 C   0  0  0  0  0  0  0  0  0  0  0  0
  151.7612  144.0690  160.0655 C   0  0  2  0  0  0  0  0  0  0  0  0
  152.7561  143.4871  161.0941 C   0  0  0  0  0  0  0  0  0  0  0  0
  152.9510  141.9631  160.9281 C   0  0  2  0  0  0  0  0  0  0  0  0
  154.0343  141.4273  161.8744 C   0  0  0  0  0  0  0  0  0  0  0  0
  153.2614  141.6206  159.4553 C   0  0  0  0  0  0  0  0  0  0  0  0
  152.1788  142.1452  158.6127 N   0  0  0  0  0  0  0  0  0  0  0  0
  151.2670  141.3381  158.0138 C   0  0  0  0  0  0  0  0  0  0  0  0
  151.3653  140.1098  158.0429 O   0  0  0  0  0  0  0  0  0  0  0  0
  150.0617  141.9506  157.2676 C   0  0  1  0  0  0  0  0  0  0  0  0
  150.0158  141.4338  155.8199 C   0  0  0  0  0  0  0  0  0  0  0  0
  148.7787  141.6341  157.9391 N   0  3  0  0  0  0  0  0  0  0  0  0
  147.6853  142.6002  157.6971 C   0  0  0  0  0  0  0  0  0  0  0  0
  146.4791  142.2956  158.5957 C   0  0  0  0  0  0  0  0  0  0  0  0
  146.4141  143.1960  159.7299 N   0  0  0  0  0  0  0  0  0  0  0  0
  146.4817  144.5732  159.7377 C   0  0  0  0  0  0  0  0  0  0  0  0
  146.3801  144.9768  161.0381 C   0  0  0  0  0  0  0  0  0  0  0  0
  146.2529  143.7581  161.7616 C   0  0  0  0  0  0  0  0  0  0  0  0
  146.2728  142.6938  160.9752 N   0  0  0  0  0  0  0  0  0  0  0  0
  152.1498  143.6131  158.6448 C   0  0  0  0  0  0  0  0  0  0  0  0
  152.6384  146.0638  159.9453 H   0  0  0  0  0  0  0  0  0  0  0  0
  151.3793  145.9096  161.1675 H   0  0  0  0  0  0  0  0  0  0  0  0
  150.9448  145.9988  159.4648 H   0  0  0  0  0  0  0  0  0  0  0  0
  150.7706  143.6695  160.2894 H   0  0  0  0  0  0  0  0  0  0  0  0
  153.7205  143.9840  160.9778 H   0  0  0  0  0  0  0  0  0  0  0  0
  152.4176  143.7108  162.1065 H   0  0  0  0  0  0  0  0  0  0  0  0
  152.0126  141.4748  161.1953 H   0  0  0  0  0  0  0  0  0  0  0  0
  155.0065  141.8704  161.6561 H   0  0  0  0  0  0  0  0  0  0  0  0
  154.1338  140.3452  161.7845 H   0  0  0  0  0  0  0  0  0  0  0  0
  153.7922  141.6500  162.9138 H   0  0  0  0  0  0  0  0  0  0  0  0
  154.2088  142.0692  159.1527 H   0  0  0  0  0  0  0  0  0  0  0  0
  153.3991  140.5441  159.3442 H   0  0  0  0  0  0  0  0  0  0  0  0
  150.1365  143.0377  157.2545 H   0  0  0  0  0  0  0  0  0  0  0  0
  150.9362  141.6576  155.2798 H   0  0  0  0  0  0  0  0  0  0  0  0
  149.1965  141.8943  155.2670 H   0  0  0  0  0  0  0  0  0  0  0  0
  149.8699  140.3532  155.7865 H   0  0  0  0  0  0  0  0  0  0  0  0
  148.4668  140.7334  157.6055 H   0  0  0  0  0  0  0  0  0  0  0  0
  148.0369  143.6147  157.8882 H   0  0  0  0  0  0  0  0  0  0  0  0
  147.3926  142.5543  156.6471 H   0  0  0  0  0  0  0  0  0  0  0  0
  145.5487  142.3793  158.0319 H   0  0  0  0  0  0  0  0  0  0  0  0
  146.5334  141.2720  158.9692 H   0  0  0  0  0  0  0  0  0  0  0  0
  146.5951  145.1455  158.8288 H   0  0  0  0  0  0  0  0  0  0  0  0
  146.3961  145.9885  161.4156 H   0  0  0  0  0  0  0  0  0  0  0  0
  146.1475  143.6169  162.8273 H   0  0  0  0  0  0  0  0  0  0  0  0
  151.4861  144.0554  157.9048 H   0  0  0  0  0  0  0  0  0  0  0  0
  153.1406  143.9933  158.3907 H   0  0  0  0  0  0  0  0  0  0  0  0
  148.9479  141.5693  158.9329 H   0  0  0  0  0  0  0  0  0  0  0  0
  1  2  1  0  0  0  0
  1 21  1  0  0  0  0
  1 22  1  0  0  0  0
  1 23  1  0  0  0  0
  2 20  1  0  0  0  0
  2  3  1  0  0  0  0
  2 24  1  0  0  0  0
  3  4  1  0  0  0  0
  3 25  1  0  0  0  0
  3 26  1  0  0  0  0
  4  5  1  0  0  0  0
  4  6  1  0  0  0  0
  4 27  1  0  0  0  0
  5 28  1  0  0  0  0
  5 29  1  0  0  0  0
  5 30  1  0  0  0  0
  6  7  1  0  0  0  0
  6 31  1  0  0  0  0
  6 32  1  0  0  0  0
  7  8  1  0  0  0  0
  7 20  1  0  0  0  0
  8  9  2  0  0  0  0
  8 10  1  0  0  0  0
 10 11  1  0  0  0  0
 10 12  1  0  0  0  0
 10 33  1  0  0  0  0
 11 34  1  0  0  0  0
 11 35  1  0  0  0  0
 11 36  1  0  0  0  0
 12 13  1  0  0  0  0
 12 37  1  0  0  0  0
 12 47  1  0  0  0  0
 13 14  1  0  0  0  0
 13 38  1  0  0  0  0
 13 39  1  0  0  0  0
 14 15  1  0  0  0  0
 14 40  1  0  0  0  0
 14 41  1  0  0  0  0
 15 19  1  0  0  0  0
 15 16  1  0  0  0  0
 16 17  2  0  0  0  0
 16 42  1  0  0  0  0
 17 18  1  0  0  0  0
 17 43  1  0  0  0  0
 18 19  2  0  0  0  0
 18 44  1  0  0  0  0
 20 45  1  0  0  0  0
 20 46  1  0  0  0  0
M  CHG  1  12   1
M  END
> <s_m_source_file>
AV-unprocessed.smi

> <i_m_source_file_index>
3331

> <i_lp_mmshare_version>
43012

> <i_f3d_flags>
0

> <s_epik_input>
W0NIM11bQ0BASF0xW0NIMl1bQ0BASF0oW0NIM10pW0NIMl1OKFtDSDJdMSlDKD1PKVtDQEhdKFtDSDNdKVtOSF1bQ0gyXVtDSDJdbjJbY0hdW2NIXVtjSF1uMg==

> <s_epik_cmdline>
J2VwaWtfcHl0aG9uJywgJy1waCcsICc3LjAnLCAnLXRuJywgJzgnLCAnLW1hJywgJzIwMCcsICctbWV0YWxfYmluZGluZycsICctaW1hZScsICc8aW5maWxlLm1hZT4nLCAnLW9tYWUnLCAnPG91dGZpbGUubWFlPic=

> <r_lp_tautomer_probability>
1

> <r_epik_Ionization_Penalty>
0.189706

> <r_epik_Ionization_Penalty_Charging>
0.189703

> <r_epik_Ionization_Penalty_Neutral>
2.45875e-06

> <r_epik_State_Penalty>
0.179341

> <r_epik_Charging_Adjusted_Penalty>
0.369044

> <i_epik_Tot_Q>
1

> <i_epik_Tot_abs_Q>
1

> <r_epik_Metal_State_Penalty>
0.179578

> <b_epik_Metal_Only>
0

> <s_lp_Force_Field>
OPLS_2005

> <r_lp_Energy>
26.0913

> <b_lp_Chiralities_Consistent>
1

> <s_lp_Variant>
AV-unprocessed.smi:3331-5

> <Gold.Version>
5.8.1

> <Gold.Id.Protein>
6NUR|6NUR_protein|mol2

> <Gold.PLP.Fitness>
50.8652

> <Gold.PLP.PLP>
-45.8462

> <Gold.PLP.part.hbond>
-1.7729

> <Gold.PLP.part.metal>
0.0000

> <Gold.PLP.part.buried>
-4.9778

> <Gold.PLP.part.nonpolar>
-38.4796

> <Gold.PLP.part.repulsive>
0.1454

> <Gold.PLP.ligand.clash>
0.0000

> <Gold.PLP.ligand.torsion>
0.7446

> <Gold.PLP.Chemscore.Hbond>
1.1389

> <Gold.PLP.Chemscore.CHOScore>
1.0000

> <Gold.PLP.Chemscore.Metal>
0.0000

> <Gold.Chemscore.Hbonds>
donor molecule, donor type, donor heavy atom, donor atom, acceptor molecule, acceptor atom, score
      P1  H  6933  6944       L1    19  0.14
      P1  H  6934  6946       L1    19  0.99
      L1  C    16    42       P1  8029  1.00

> <Gold.PLP.Chemscore.Internal.Correction>
0.0918

> <Gold.Rescore>
     Score         DG    S(hbond)    S(metal)    S(lipo)     H(rot)  DE(clash)    DE(int)     intcor
     15.60     -16.28       0.99        0.00     101.80       1.73       0.08       0.61       ----

> <Gold.Chemscore.Fitness>
15.6033

> <Gold.Chemscore.DG>
-16.2843

> <Gold.Chemscore.ZeroCoef>
-5.4800

> <Gold.Chemscore.Hbond>
0.9914

> <Gold.Chemscore.Metal>
0.0000

> <Gold.Chemscore.Lipo>
101.7966

> <Gold.Chemscore.Internal_Hbond>
0.0000

> <Gold.Chemscore.DEClash>
0.0756

> <Gold.Chemscore.DEInternal>
0.6053

> <Gold.Chemscore.Rot>
1.7254

> <Gold.Chemscore.Internal.Correction>
   9.000000E+99

> <Gold.Chemscore.Hbonds>
donor molecule, donor type, donor heavy atom, donor atom, acceptor molecule, acceptor atom, score
      P1  H  6934  6946       L1    19  0.32

> <Gold.Chemscore.Hbond.Weighted>
-3.3111

> <Gold.Chemscore.Metal.Weighted>
-0.0000

> <Gold.Chemscore.Lipo.Weighted>
-11.9102

> <Gold.Chemscore.Internal_Hbond.Weighted>
0.0000

> <Gold.Chemscore.DEClash.Weighted>
0.0756

> <Gold.Chemscore.DEInternal.Weighted>
0.6053

> <Gold.Chemscore.Rot.Weighted>
4.4170

> <Gold.Chemscore.Internal.Correction.Weighted>
   9.000000E+99

> <Gold.Protein.RotatedTorsions>
[ 6907 6896 6895 6894 ] final -139.28 input  -60.11 | X-H torsion
[ 7974 7965 7964 7962 ] final  -57.19 input  175.53 | X-H torsion
[ 8008 7997 7996 7995 ] final  -50.97 input   59.86 | X-H torsion
[ 10167 10162 10161 10158 ] final  -26.50 input  -65.29 | X-H torsion
[ 10718 10713 10712 10709 ] final  151.66 input   66.30 | X-H torsion
[ 10763 10752 10751 10750 ] final -122.61 input  -60.55 | X-H torsion
[ 11005 11000 10999 10996 ] final  -33.07 input  -57.11 | X-H torsion

> <Gold.Protein.ActiveResidues>
 VAL166  LYS551  ARG553  GLY616  TRP617  ASP618  TYR619  PRO620  LYS621  CYS622 
 ASP623  PHE694  ASN695  SER759  ASP760  ASP761  ALA762  ILE779  LEU786  VAL792 
 PHE793  MET794  SER795  GLU796  ALA797  LYS798  CYS799  TRP800  GLU811  SER814 

> <Gold.Protein.RotatedAtoms>
  151.0458  133.5666  159.2646 H   0  0  0  0  0  0  0  0  0  0  0  0  # atno 6907 bound_to 6896
  151.2696  135.0679  159.9139 H   0  0  0  0  0  0  0  0  0  0  0  0  # atno 6908 bound_to 6896
  152.5373  134.0191  159.8027 H   0  0  0  0  0  0  0  0  0  0  0  0  # atno 6909 bound_to 6896
  145.8539  140.8333  142.9971 H   0  0  0  0  0  0  0  0  0  0  0  0  # atno 7974 bound_to 7965
  154.4073  140.1259  156.4753 H   0  0  0  0  0  0  0  0  0  0  0  0  # atno 8008 bound_to 7997
  155.7139  140.3493  155.4966 H   0  0  0  0  0  0  0  0  0  0  0  0  # atno 8009 bound_to 7997
  155.9275  140.1064  157.1148 H   0  0  0  0  0  0  0  0  0  0  0  0  # atno 8010 bound_to 7997
  140.7282  143.4173  151.1008 H   0  0  0  0  0  0  0  0  0  0  0  0  # atno 10167 bound_to 10162
  157.2678  131.0811  151.1621 H   0  0  0  0  0  0  0  0  0  0  0  0  # atno 10718 bound_to 10713
  154.8693  135.4127  154.2810 H   0  0  0  0  0  0  0  0  0  0  0  0  # atno 10763 bound_to 10752
  153.3703  135.7007  153.6648 H   0  0  0  0  0  0  0  0  0  0  0  0  # atno 10764 bound_to 10752
  153.5513  135.3628  155.2732 H   0  0  0  0  0  0  0  0  0  0  0  0  # atno 10765 bound_to 10752
  140.9604  133.7167  156.1361 H   0  0  0  0  0  0  0  0  0  0  0  0  # atno 11005 bound_to 11000
  144.6728  140.0994  143.7461 LP  0  0  0  0  0  0  0  0  0  0  0  0  # atno 17320 bound_to 7965
  145.9326  139.2616  143.1316 LP  0  0  0  0  0  0  0  0  0  0  0  0  # atno 17321 bound_to 7965
  139.7814  143.8349  152.3138 LP  0  0  0  0  0  0  0  0  0  0  0  0  # atno 17342 bound_to 10162
  139.8302  144.7257  150.9460 LP  0  0  0  0  0  0  0  0  0  0  0  0  # atno 17343 bound_to 10162
  157.3105  130.6887  149.6213 LP  0  0  0  0  0  0  0  0  0  0  0  0  # atno 17370 bound_to 10713
  155.9663  130.4365  150.5136 LP  0  0  0  0  0  0  0  0  0  0  0  0  # atno 17371 bound_to 10713
  140.7475  134.4082  157.5546 LP  0  0  0  0  0  0  0  0  0  0  0  0  # atno 17394 bound_to 11000
  139.8876  134.8878  156.2518 LP  0  0  0  0  0  0  0  0  0  0  0  0  # atno 17395 bound_to 11000

$$$$
