AV-unprocessed.smi:671|AV-procd|sdf|3277|dock4
  -GOLD-   22720 0233D 1   1.00000     0.00000
 Structure written by MMmdl.
 49 50  0  0  0  0  0  0  0  0  1 V2000
  151.3726  138.1071  154.6910 C   0  0  0  0  0  0  0  0  0  0  0  0
  150.1740  138.8249  155.2435 C   0  0  0  0  0  0  0  0  0  0  0  0
  149.5253  139.6766  154.4676 N   0  0  0  0  0  0  0  0  0  0  0  0
  148.5231  140.1482  155.2359 N   0  0  0  0  0  0  0  0  0  0  0  0
  147.6023  141.1230  154.6840 C   0  0  0  0  0  0  0  0  0  0  0  0
  148.5370  139.5920  156.5001 C   0  0  0  0  0  0  0  0  0  0  0  0
  147.5233  139.9533  157.5378 C   0  0  0  0  0  0  0  0  0  0  0  0
  149.5967  138.7255  156.5443 C   0  0  0  0  0  0  0  0  0  0  0  0
  150.0644  137.8603  157.6864 C   0  0  0  0  0  0  0  0  0  0  0  0
  151.4732  138.2551  158.1837 C   0  0  2  0  0  0  0  0  0  0  0  0
  152.0482  137.2414  159.1853 C   0  0  0  0  0  0  0  0  0  0  0  0
  151.4426  139.5775  158.8146 N   0  0  0  0  0  0  0  0  0  0  0  0
  152.4474  140.4654  158.9327 C   0  0  0  0  0  0  0  0  0  0  0  0
  153.5731  140.2338  158.4963 O   0  0  0  0  0  0  0  0  0  0  0  0
  152.1128  141.6018  159.5667 N   0  0  0  0  0  0  0  0  0  0  0  0
  152.9991  142.7254  159.8659 C   0  0  2  0  0  0  0  0  0  0  0  0
  153.0846  142.9273  161.3917 C   0  0  0  0  0  0  0  0  0  0  0  0
  152.3388  144.2301  161.7139 C   0  0  0  0  0  0  0  0  0  0  0  0
  151.5858  144.6090  160.4387 C   0  0  0  0  0  0  0  0  0  0  0  0
  152.4567  144.0578  159.3092 C   0  0  2  0  0  0  0  0  0  0  0  0
  151.7448  143.9936  157.9469 C   0  0  0  0  0  0  0  0  0  0  0  0
  151.7568  137.3700  155.3943 H   0  0  0  0  0  0  0  0  0  0  0  0
  152.1811  138.8047  154.4726 H   0  0  0  0  0  0  0  0  0  0  0  0
  151.1258  137.5813  153.7684 H   0  0  0  0  0  0  0  0  0  0  0  0
  146.5979  140.7005  154.6512 H   0  0  0  0  0  0  0  0  0  0  0  0
  147.8993  141.4055  153.6730 H   0  0  0  0  0  0  0  0  0  0  0  0
  147.5938  142.0151  155.3106 H   0  0  0  0  0  0  0  0  0  0  0  0
  147.6001  139.3062  158.4112 H   0  0  0  0  0  0  0  0  0  0  0  0
  146.5116  139.8563  157.1437 H   0  0  0  0  0  0  0  0  0  0  0  0
  147.6607  140.9825  157.8700 H   0  0  0  0  0  0  0  0  0  0  0  0
  149.3505  137.9317  158.5072 H   0  0  0  0  0  0  0  0  0  0  0  0
  150.0616  136.8063  157.4072 H   0  0  0  0  0  0  0  0  0  0  0  0
  152.1566  138.2902  157.3337 H   0  0  0  0  0  0  0  0  0  0  0  0
  152.1643  136.2564  158.7327 H   0  0  0  0  0  0  0  0  0  0  0  0
  151.4020  137.1331  160.0571 H   0  0  0  0  0  0  0  0  0  0  0  0
  153.0324  137.5529  159.5368 H   0  0  0  0  0  0  0  0  0  0  0  0
  150.5601  139.8438  159.2270 H   0  0  0  0  0  0  0  0  0  0  0  0
  151.1581  141.6922  159.8816 H   0  0  0  0  0  0  0  0  0  0  0  0
  153.9951  142.5340  159.4625 H   0  0  0  0  0  0  0  0  0  0  0  0
  152.6505  142.0873  161.9361 H   0  0  0  0  0  0  0  0  0  0  0  0
  154.1238  143.0036  161.7125 H   0  0  0  0  0  0  0  0  0  0  0  0
  151.6698  144.1235  162.5682 H   0  0  0  0  0  0  0  0  0  0  0  0
  153.0593  145.0114  161.9581 H   0  0  0  0  0  0  0  0  0  0  0  0
  150.6096  144.1223  160.4291 H   0  0  0  0  0  0  0  0  0  0  0  0
  151.4218  145.6837  160.3565 H   0  0  0  0  0  0  0  0  0  0  0  0
  153.3101  144.7296  159.2020 H   0  0  0  0  0  0  0  0  0  0  0  0
  150.8310  143.4004  157.9922 H   0  0  0  0  0  0  0  0  0  0  0  0
  152.3934  143.5539  157.1888 H   0  0  0  0  0  0  0  0  0  0  0  0
  151.4692  144.9922  157.6074 H   0  0  0  0  0  0  0  0  0  0  0  0
  1  2  1  0  0  0  0
  1 22  1  0  0  0  0
  1 23  1  0  0  0  0
  1 24  1  0  0  0  0
  2  8  1  0  0  0  0
  2  3  2  0  0  0  0
  3  4  1  0  0  0  0
  4  5  1  0  0  0  0
  4  6  1  0  0  0  0
  5 25  1  0  0  0  0
  5 26  1  0  0  0  0
  5 27  1  0  0  0  0
  6  7  1  0  0  0  0
  6  8  2  0  0  0  0
  7 28  1  0  0  0  0
  7 29  1  0  0  0  0
  7 30  1  0  0  0  0
  8  9  1  0  0  0  0
  9 10  1  0  0  0  0
  9 31  1  0  0  0  0
  9 32  1  0  0  0  0
 10 11  1  0  0  0  0
 10 12  1  0  0  0  0
 10 33  1  0  0  0  0
 11 34  1  0  0  0  0
 11 35  1  0  0  0  0
 11 36  1  0  0  0  0
 12 13  1  0  0  0  0
 12 37  1  0  0  0  0
 13 14  2  0  0  0  0
 13 15  1  0  0  0  0
 15 16  1  0  0  0  0
 15 38  1  0  0  0  0
 16 20  1  0  0  0  0
 16 17  1  0  0  0  0
 16 39  1  0  0  0  0
 17 18  1  0  0  0  0
 17 40  1  0  0  0  0
 17 41  1  0  0  0  0
 18 19  1  0  0  0  0
 18 42  1  0  0  0  0
 18 43  1  0  0  0  0
 19 20  1  0  0  0  0
 19 44  1  0  0  0  0
 19 45  1  0  0  0  0
 20 21  1  0  0  0  0
 20 46  1  0  0  0  0
 21 47  1  0  0  0  0
 21 48  1  0  0  0  0
 21 49  1  0  0  0  0
M  END
> <s_m_source_file>
AV-unprocessed.smi

> <i_m_source_file_index>
671

> <i_lp_mmshare_version>
43012

> <i_f3d_flags>
0

> <s_epik_input>
W0NIM11jMW5uKFtDSDNdKWMoW0NIM10pYzFbQ0gyXVtDQEhdKFtDSDNdKVtOSF1DKD1PKVtOSF1bQ0BASF0yW0NIMl1bQ0gyXVtDSDJdW0NASF0yW0NIM10=

> <s_epik_cmdline>
J2VwaWtfcHl0aG9uJywgJy1waCcsICc3LjAnLCAnLXRuJywgJzgnLCAnLW1hJywgJzIwMCcsICctbWV0YWxfYmluZGluZycsICctaW1hZScsICc8aW5maWxlLm1hZT4nLCAnLW9tYWUnLCAnPG91dGZpbGUubWFlPic=

> <r_lp_tautomer_probability>
1

> <r_epik_Ionization_Penalty>
0.0126855

> <r_epik_Ionization_Penalty_Charging>
0

> <r_epik_Ionization_Penalty_Neutral>
0.0126855

> <r_epik_State_Penalty>
0.00977547

> <r_epik_Charging_Adjusted_Penalty>
0.00977547

> <i_epik_Tot_Q>
0

> <i_epik_Tot_abs_Q>
0

> <r_epik_Metal_State_Penalty>
0.00957132

> <b_epik_Metal_Only>
0

> <s_lp_Force_Field>
OPLS_2005

> <r_lp_Energy>
22.3824

> <b_lp_Chiralities_Consistent>
1

> <s_lp_Variant>
AV-unprocessed.smi:671-5

> <Gold.Version>
5.8.1

> <Gold.Id.Protein>
6NUR|6NUR_protein|mol2

> <Gold.PLP.Fitness>
47.5142

> <Gold.PLP.PLP>
-42.6956

> <Gold.PLP.part.hbond>
-2.0000

> <Gold.PLP.part.metal>
0.0000

> <Gold.PLP.part.buried>
-4.7259

> <Gold.PLP.part.nonpolar>
-37.3375

> <Gold.PLP.part.repulsive>
1.4424

> <Gold.PLP.ligand.clash>
0.0000

> <Gold.PLP.ligand.torsion>
0.4031

> <Gold.PLP.Chemscore.Hbond>
1.8560

> <Gold.PLP.Chemscore.CHOScore>
0.0000

> <Gold.PLP.Chemscore.Metal>
0.0000

> <Gold.Chemscore.Hbonds>
donor molecule, donor type, donor heavy atom, donor atom, acceptor molecule, acceptor atom, score
      P1  H  7997  8009       L1    14  0.91

> <Gold.PLP.Chemscore.Internal.Correction>
0.0567

> <Gold.Rescore>
     Score         DG    S(hbond)    S(metal)    S(lipo)     H(rot)  DE(clash)    DE(int)     intcor
     17.60     -19.42       1.26        0.00     114.86       1.45       1.28       0.54       ----

> <Gold.Chemscore.Fitness>
17.5981

> <Gold.Chemscore.DG>
-19.4210

> <Gold.Chemscore.ZeroCoef>
-5.4800

> <Gold.Chemscore.Hbond>
1.2618

> <Gold.Chemscore.Metal>
0.0000

> <Gold.Chemscore.Lipo>
114.8571

> <Gold.Chemscore.Internal_Hbond>
0.0000

> <Gold.Chemscore.DEClash>
1.2841

> <Gold.Chemscore.DEInternal>
0.5388

> <Gold.Chemscore.Rot>
1.4499

> <Gold.Chemscore.Internal.Correction>
   9.000000E+99

> <Gold.Chemscore.Hbonds>
donor molecule, donor type, donor heavy atom, donor atom, acceptor molecule, acceptor atom, score
      P1  H  7997  8009       L1    14  0.88

> <Gold.Chemscore.Hbond.Weighted>
-4.2145

> <Gold.Chemscore.Metal.Weighted>
-0.0000

> <Gold.Chemscore.Lipo.Weighted>
-13.4383

> <Gold.Chemscore.Internal_Hbond.Weighted>
0.0000

> <Gold.Chemscore.DEClash.Weighted>
1.2841

> <Gold.Chemscore.DEInternal.Weighted>
0.5388

> <Gold.Chemscore.Rot.Weighted>
3.7118

> <Gold.Chemscore.Internal.Correction.Weighted>
   9.000000E+99

> <Gold.Protein.RotatedTorsions>
[ 6907 6896 6895 6894 ] final  -45.29 input  -60.11 | X-H torsion
[ 7974 7965 7964 7962 ] final -151.29 input  175.53 | X-H torsion
[ 8008 7997 7996 7995 ] final  141.70 input   59.86 | X-H torsion
[ 10167 10162 10161 10158 ] final   46.05 input  -65.29 | X-H torsion
[ 10718 10713 10712 10709 ] final -174.55 input   66.30 | X-H torsion
[ 10763 10752 10751 10750 ] final  -86.64 input  -60.55 | X-H torsion
[ 11005 11000 10999 10996 ] final  -81.55 input  -57.11 | X-H torsion

> <Gold.Protein.ActiveResidues>
 VAL166  LYS551  ARG553  GLY616  TRP617  ASP618  TYR619  PRO620  LYS621  CYS622 
 ASP623  PHE694  ASN695  SER759  ASP760  ASP761  ALA762  ILE779  LEU786  VAL792 
 PHE793  MET794  SER795  GLU796  ALA797  LYS798  CYS799  TRP800  GLU811  SER814 

> <Gold.Protein.RotatedAtoms>
  150.9236  134.8653  159.7504 H   0  0  0  0  0  0  0  0  0  0  0  0  # atno 6907 bound_to 6896
  152.5004  134.4182  159.9482 H   0  0  0  0  0  0  0  0  0  0  0  0  # atno 6908 bound_to 6896
  151.4215  133.3657  159.2792 H   0  0  0  0  0  0  0  0  0  0  0  0  # atno 6909 bound_to 6896
  144.7858  140.4817  143.5807 H   0  0  0  0  0  0  0  0  0  0  0  0  # atno 7974 bound_to 7965
  156.2961  140.2308  156.4607 H   0  0  0  0  0  0  0  0  0  0  0  0  # atno 8008 bound_to 7997
  154.8021  140.0448  157.1301 H   0  0  0  0  0  0  0  0  0  0  0  0  # atno 8009 bound_to 7997
  154.9522  140.3043  155.5073 H   0  0  0  0  0  0  0  0  0  0  0  0  # atno 8010 bound_to 7997
  140.3179  144.2741  150.6188 H   0  0  0  0  0  0  0  0  0  0  0  0  # atno 10167 bound_to 10162
  156.7868  130.9503  151.3120 H   0  0  0  0  0  0  0  0  0  0  0  0  # atno 10718 bound_to 10713
  154.6247  135.5442  153.7614 H   0  0  0  0  0  0  0  0  0  0  0  0  # atno 10763 bound_to 10752
  153.0255  135.6421  154.1389 H   0  0  0  0  0  0  0  0  0  0  0  0  # atno 10764 bound_to 10752
  154.1322  135.2913  155.3162 H   0  0  0  0  0  0  0  0  0  0  0  0  # atno 10765 bound_to 10752
  141.1666  133.7202  156.8439 H   0  0  0  0  0  0  0  0  0  0  0  0  # atno 11005 bound_to 11000
  145.5925  139.1497  143.3174 LP  0  0  0  0  0  0  0  0  0  0  0  0  # atno 17320 bound_to 7965
  146.2089  140.6050  142.9068 LP  0  0  0  0  0  0  0  0  0  0  0  0  # atno 17321 bound_to 7965
  140.5510  143.2206  151.7927 LP  0  0  0  0  0  0  0  0  0  0  0  0  # atno 17342 bound_to 10162
  139.4880  144.4476  151.9691 LP  0  0  0  0  0  0  0  0  0  0  0  0  # atno 17343 bound_to 10162
  157.6620  130.8974  149.9850 LP  0  0  0  0  0  0  0  0  0  0  0  0  # atno 17370 bound_to 10713
  156.1184  130.3647  149.9929 LP  0  0  0  0  0  0  0  0  0  0  0  0  # atno 17371 bound_to 10713
  140.1964  134.8929  157.3119 LP  0  0  0  0  0  0  0  0  0  0  0  0  # atno 17394 bound_to 11000
  140.2235  134.3995  155.7555 LP  0  0  0  0  0  0  0  0  0  0  0  0  # atno 17395 bound_to 11000

$$$$
