AV-unprocessed.smi:2001|AV-procd|sdf|8110|dock8
  -GOLD-   2272010343D 1   1.00000     0.00000
 Structure written by MMmdl.
 50 51  0  0  0  0  0  0  0  0  3 V2000
  151.8873  144.3346  158.5255 C   0  0  0  0  0  0  0  0  0  0  0  0
  151.2047  143.1642  158.9373 O   0  0  0  0  0  0  0  0  0  0  0  0
  150.6219  142.4617  157.8520 C   0  0  0  0  0  0  0  0  0  0  0  0
  151.6979  142.1289  156.8057 C   0  0  0  0  0  0  0  0  0  0  0  0
  151.1983  141.2029  155.7828 N   0  0  0  0  0  0  0  0  0  0  0  0
  149.9914  141.5861  155.2216 N   0  0  0  0  0  0  0  0  0  0  0  0
  149.4347  140.8624  154.3046 C   0  0  0  0  0  0  0  0  0  0  0  0
  148.1202  141.2671  153.7095 C   0  0  0  0  0  0  0  0  0  0  0  0
  147.5257  140.3755  153.0881 O   0  0  0  0  0  0  0  0  0  0  0  0
  147.6803  142.5502  153.8813 N   0  5  0  0  0  0  0  0  0  0  0  0
  146.3329  143.0296  153.5811 C   0  0  0  0  0  0  0  0  0  0  0  0
  145.3221  142.3357  154.5141 C   0  0  0  0  0  0  0  0  0  0  0  0
  143.9843  142.9847  154.4764 N   0  3  1  0  0  0  0  0  0  0  0  0
  143.0473  142.4279  155.4820 C   0  0  0  0  0  0  0  0  0  0  0  0
  141.6515  143.0710  155.3619 C   0  0  2  0  0  0  0  0  0  0  0  0
  140.8535  142.5845  154.1393 C   0  0  0  0  0  0  0  0  0  0  0  0
  141.7552  144.4939  155.4071 O   0  0  0  0  0  0  0  0  0  0  0  0
  142.6223  145.0620  154.4290 C   0  0  1  0  0  0  0  0  0  0  0  0
  142.6163  146.5825  154.6221 C   0  0  0  0  0  0  0  0  0  0  0  0
  144.0316  144.4655  154.5881 C   0  0  0  0  0  0  0  0  0  0  0  0
  150.0756  139.6370  153.8423 C   0  0  0  0  0  0  0  0  0  0  0  0
  151.2526  139.2769  154.3987 C   0  0  0  0  0  0  0  0  0  0  0  0
  151.8942  140.0770  155.4418 C   0  0  0  0  0  0  0  0  0  0  0  0
  152.9637  139.7643  155.9647 O   0  0  0  0  0  0  0  0  0  0  0  0
  152.3238  144.8274  159.3939 H   0  0  0  0  0  0  0  0  0  0  0  0
  151.2075  145.0387  158.0444 H   0  0  0  0  0  0  0  0  0  0  0  0
  152.6948  144.0969  157.8323 H   0  0  0  0  0  0  0  0  0  0  0  0
  150.1781  141.5357  158.2203 H   0  0  0  0  0  0  0  0  0  0  0  0
  149.8196  143.0483  157.4013 H   0  0  0  0  0  0  0  0  0  0  0  0
  152.0893  143.0456  156.3610 H   0  0  0  0  0  0  0  0  0  0  0  0
  152.5507  141.6711  157.3099 H   0  0  0  0  0  0  0  0  0  0  0  0
  146.2433  144.1092  153.7086 H   0  0  0  0  0  0  0  0  0  0  0  0
  146.0569  142.8286  152.5454 H   0  0  0  0  0  0  0  0  0  0  0  0
  145.2334  141.2952  154.1968 H   0  0  0  0  0  0  0  0  0  0  0  0
  145.6931  142.3059  155.5403 H   0  0  0  0  0  0  0  0  0  0  0  0
  142.9671  141.3463  155.3640 H   0  0  0  0  0  0  0  0  0  0  0  0
  143.4518  142.6084  156.4794 H   0  0  0  0  0  0  0  0  0  0  0  0
  141.0786  142.7842  156.2445 H   0  0  0  0  0  0  0  0  0  0  0  0
  140.6702  141.5116  154.2003 H   0  0  0  0  0  0  0  0  0  0  0  0
  141.3772  142.7697  153.2019 H   0  0  0  0  0  0  0  0  0  0  0  0
  139.8842  143.0812  154.0858 H   0  0  0  0  0  0  0  0  0  0  0  0
  142.2436  144.8476  153.4294 H   0  0  0  0  0  0  0  0  0  0  0  0
  143.2589  147.0740  153.8912 H   0  0  0  0  0  0  0  0  0  0  0  0
  142.9700  146.8562  155.6165 H   0  0  0  0  0  0  0  0  0  0  0  0
  141.6103  146.9860  154.5039 H   0  0  0  0  0  0  0  0  0  0  0  0
  144.4530  144.7443  155.5553 H   0  0  0  0  0  0  0  0  0  0  0  0
  144.6902  144.8807  153.8244 H   0  0  0  0  0  0  0  0  0  0  0  0
  149.6365  139.0199  153.0728 H   0  0  0  0  0  0  0  0  0  0  0  0
  151.7366  138.3717  154.0632 H   0  0  0  0  0  0  0  0  0  0  0  0
  143.5932  142.7639  153.5715 H   0  0  0  0  0  0  0  0  0  0  0  0
  1  2  1  0  0  0  0
  1 25  1  0  0  0  0
  1 26  1  0  0  0  0
  1 27  1  0  0  0  0
  2  3  1  0  0  0  0
  3  4  1  0  0  0  0
  3 28  1  0  0  0  0
  3 29  1  0  0  0  0
  4  5  1  0  0  0  0
  4 30  1  0  0  0  0
  4 31  1  0  0  0  0
  5 23  1  0  0  0  0
  5  6  1  0  0  0  0
  6  7  2  0  0  0  0
  7  8  1  0  0  0  0
  7 21  1  0  0  0  0
  8  9  2  0  0  0  0
  8 10  1  0  0  0  0
 10 11  1  0  0  0  0
 11 12  1  0  0  0  0
 11 32  1  0  0  0  0
 11 33  1  0  0  0  0
 12 13  1  0  0  0  0
 12 34  1  0  0  0  0
 12 35  1  0  0  0  0
 13 20  1  0  0  0  0
 13 14  1  0  0  0  0
 13 50  1  0  0  0  0
 14 15  1  0  0  0  0
 14 36  1  0  0  0  0
 14 37  1  0  0  0  0
 15 16  1  0  0  0  0
 15 17  1  0  0  0  0
 15 38  1  0  0  0  0
 16 39  1  0  0  0  0
 16 40  1  0  0  0  0
 16 41  1  0  0  0  0
 17 18  1  0  0  0  0
 18 19  1  0  0  0  0
 18 20  1  0  0  0  0
 18 42  1  0  0  0  0
 19 43  1  0  0  0  0
 19 44  1  0  0  0  0
 19 45  1  0  0  0  0
 20 46  1  0  0  0  0
 20 47  1  0  0  0  0
 21 22  2  0  0  0  0
 21 48  1  0  0  0  0
 22 23  1  0  0  0  0
 22 49  1  0  0  0  0
 23 24  2  0  0  0  0
M  CHG  1  10  -1
M  CHG  1  13   1
M  END
> <s_m_source_file>
AV-unprocessed.smi

> <i_m_source_file_index>
2001

> <i_lp_mmshare_version>
43012

> <i_f3d_flags>
0

> <s_epik_input>
W0NIM11PW0NIMl1bQ0gyXW4xbmMoW2NIXVtjSF1jMT1PKUMoPU8pW05IXVtDSDJdW0NIMl1OMltDSDJdW0NAQEhdKFtDSDNdKU9bQ0BASF0oW0NIM10pW0NIMl0y

> <s_epik_cmdline>
J2VwaWtfcHl0aG9uJywgJy1waCcsICc3LjAnLCAnLXRuJywgJzgnLCAnLW1hJywgJzIwMCcsICctbWV0YWxfYmluZGluZycsICctaW1hZScsICc8aW5maWxlLm1hZT4nLCAnLW9tYWUnLCAnPG91dGZpbGUubWFlPic=

> <r_lp_tautomer_probability>
1

> <r_epik_Ionization_Penalty>
6.90846

> <r_epik_Ionization_Penalty_Charging>
6.90846

> <r_epik_Ionization_Penalty_Neutral>
1.08445e-11

> <r_epik_State_Penalty>
7.54671

> <r_epik_Charging_Adjusted_Penalty>
14.4552

> <i_epik_Tot_Q>
0

> <i_epik_Tot_abs_Q>
2

> <r_epik_Metal_State_Penalty>
3.46181

> <b_epik_Metal_Only>
1

> <s_lp_Force_Field>
OPLS_2005

> <r_lp_Energy>
44.3308

> <b_lp_Chiralities_Consistent>
1

> <s_lp_Variant>
AV-unprocessed.smi:2001-9

> <Gold.Version>
5.8.1

> <Gold.Id.Protein>
6NUR|6NUR_protein|mol2

> <Gold.PLP.Fitness>
50.0451

> <Gold.PLP.PLP>
-41.6294

> <Gold.PLP.part.hbond>
-2.0000

> <Gold.PLP.part.metal>
0.0000

> <Gold.PLP.part.buried>
-6.0741

> <Gold.PLP.part.nonpolar>
-34.3553

> <Gold.PLP.part.repulsive>
1.0187

> <Gold.PLP.ligand.clash>
0.0000

> <Gold.PLP.ligand.torsion>
0.3757

> <Gold.PLP.Chemscore.Hbond>
3.0000

> <Gold.PLP.Chemscore.CHOScore>
0.0000

> <Gold.PLP.Chemscore.Metal>
0.0000

> <Gold.Chemscore.Hbonds>
donor molecule, donor type, donor heavy atom, donor atom, acceptor molecule, acceptor atom, score
      L1  H    13    50       P1 10174  1.50
      P1  H  7997  8008       L1    24  0.81
      P1  H  8022  8030       L1    10  0.04

> <Gold.PLP.Chemscore.Internal.Correction>
0.1672

> <Gold.Rescore>
     Score         DG    S(hbond)    S(metal)    S(lipo)     H(rot)  DE(clash)    DE(int)     intcor
     13.77     -16.43       1.60        0.00      92.18       2.02       1.80       0.86       ----

> <Gold.Chemscore.Fitness>
13.7668

> <Gold.Chemscore.DG>
-16.4335

> <Gold.Chemscore.ZeroCoef>
-5.4800

> <Gold.Chemscore.Hbond>
1.5971

> <Gold.Chemscore.Metal>
0.0000

> <Gold.Chemscore.Lipo>
92.1781

> <Gold.Chemscore.Internal_Hbond>
0.0000

> <Gold.Chemscore.DEClash>
1.8043

> <Gold.Chemscore.DEInternal>
0.8623

> <Gold.Chemscore.Rot>
2.0179

> <Gold.Chemscore.Internal.Correction>
   9.000000E+99

> <Gold.Chemscore.Hbonds>
donor molecule, donor type, donor heavy atom, donor atom, acceptor molecule, acceptor atom, score
      L1  H    13    50       P1 10174  0.09
      P1  H  7997  8008       L1    24  0.80

> <Gold.Chemscore.Hbond.Weighted>
-5.3345

> <Gold.Chemscore.Metal.Weighted>
-0.0000

> <Gold.Chemscore.Lipo.Weighted>
-10.7848

> <Gold.Chemscore.Internal_Hbond.Weighted>
0.0000

> <Gold.Chemscore.DEClash.Weighted>
1.8043

> <Gold.Chemscore.DEInternal.Weighted>
0.8623

> <Gold.Chemscore.Rot.Weighted>
5.1659

> <Gold.Chemscore.Internal.Correction.Weighted>
   9.000000E+99

> <Gold.Protein.RotatedTorsions>
[ 6907 6896 6895 6894 ] final -143.19 input  -60.11 | X-H torsion
[ 7974 7965 7964 7962 ] final  131.15 input  175.53 | X-H torsion
[ 8008 7997 7996 7995 ] final  -31.27 input   59.86 | X-H torsion
[ 10167 10162 10161 10158 ] final  -28.95 input  -65.29 | X-H torsion
[ 10718 10713 10712 10709 ] final  -36.99 input   66.30 | X-H torsion
[ 10763 10752 10751 10750 ] final  -44.66 input  -60.55 | X-H torsion
[ 11005 11000 10999 10996 ] final  134.91 input  -57.11 | X-H torsion

> <Gold.Protein.ActiveResidues>
 VAL166  LYS551  ARG553  GLY616  TRP617  ASP618  TYR619  PRO620  LYS621  CYS622 
 ASP623  PHE694  ASN695  SER759  ASP760  ASP761  ALA762  ILE779  LEU786  VAL792 
 PHE793  MET794  SER795  GLU796  ALA797  LYS798  CYS799  TRP800  GLU811  SER814 

> <Gold.Protein.RotatedAtoms>
  151.0971  133.5272  159.2611 H   0  0  0  0  0  0  0  0  0  0  0  0  # atno 6907 bound_to 6896
  151.2117  135.0483  159.8924 H   0  0  0  0  0  0  0  0  0  0  0  0  # atno 6908 bound_to 6896
  152.5439  134.0785  159.8279 H   0  0  0  0  0  0  0  0  0  0  0  0  # atno 6909 bound_to 6896
  145.0104  139.4226  143.5248 H   0  0  0  0  0  0  0  0  0  0  0  0  # atno 7974 bound_to 7965
  154.4219  140.1769  156.1541 H   0  0  0  0  0  0  0  0  0  0  0  0  # atno 8008 bound_to 7997
  155.9891  140.3370  155.6712 H   0  0  0  0  0  0  0  0  0  0  0  0  # atno 8009 bound_to 7997
  155.6396  140.0678  157.2613 H   0  0  0  0  0  0  0  0  0  0  0  0  # atno 8010 bound_to 7997
  140.7265  143.3968  151.1333 H   0  0  0  0  0  0  0  0  0  0  0  0  # atno 10167 bound_to 10162
  156.3205  130.4265  149.7965 H   0  0  0  0  0  0  0  0  0  0  0  0  # atno 10718 bound_to 10713
  154.0157  135.6675  153.4768 H   0  0  0  0  0  0  0  0  0  0  0  0  # atno 10763 bound_to 10752
  153.0601  135.5032  154.8070 H   0  0  0  0  0  0  0  0  0  0  0  0  # atno 10764 bound_to 10752
  154.6968  135.3071  154.9364 H   0  0  0  0  0  0  0  0  0  0  0  0  # atno 10765 bound_to 10752
  139.9946  134.9502  156.9934 H   0  0  0  0  0  0  0  0  0  0  0  0  # atno 11005 bound_to 11000
  146.3469  139.9544  142.8725 LP  0  0  0  0  0  0  0  0  0  0  0  0  # atno 17320 bound_to 7965
  145.2031  140.9863  143.4144 LP  0  0  0  0  0  0  0  0  0  0  0  0  # atno 17321 bound_to 7965
  139.7582  143.8675  152.3094 LP  0  0  0  0  0  0  0  0  0  0  0  0  # atno 17342 bound_to 10162
  139.8552  144.7144  150.9165 LP  0  0  0  0  0  0  0  0  0  0  0  0  # atno 17343 bound_to 10162
  156.5275  130.8242  151.3225 LP  0  0  0  0  0  0  0  0  0  0  0  0  # atno 17370 bound_to 10713
  157.7410  130.9862  150.2420 LP  0  0  0  0  0  0  0  0  0  0  0  0  # atno 17371 bound_to 10713
  140.4843  134.1257  155.7222 LP  0  0  0  0  0  0  0  0  0  0  0  0  # atno 17394 bound_to 11000
  141.1593  133.8822  157.1891 LP  0  0  0  0  0  0  0  0  0  0  0  0  # atno 17395 bound_to 11000

$$$$
