AV-unprocessed.smi:1448|AV-procd|sdf|5894|dock4
  -GOLD-   22720 5573D 1   1.00000     0.00000
 Structure written by MMmdl.
 49 50  0  0  0  0  0  0  0  0  2 V2000
  143.9614  131.6024  150.4168 C   0  0  0  0  0  0  0  0  0  0  0  0
  144.3257  132.9226  151.0297 C   0  0  0  0  0  0  0  0  0  0  0  0
  145.6255  133.4154  151.3447 C   0  0  0  0  0  0  0  0  0  0  0  0
  145.3601  134.6498  151.8716 C   0  0  0  0  0  0  0  0  0  0  0  0
  146.2286  135.5818  152.3466 N   0  0  0  0  0  0  0  0  0  0  0  0
  146.1155  136.3524  153.4423 C   0  0  0  0  0  0  0  0  0  0  0  0
  145.1750  136.3321  154.2358 O   0  0  0  0  0  0  0  0  0  0  0  0
  147.1648  137.1781  153.5650 N   0  0  0  0  0  0  0  0  0  0  0  0
  147.3732  138.1498  154.6398 C   0  0  0  0  0  0  0  0  0  0  0  0
  148.8344  138.7023  154.7073 C   0  0  0  0  0  0  0  0  0  0  0  0
  149.7862  137.5372  154.5542 N   0  3  0  0  0  0  0  0  0  0  0  0
  149.6007  136.3966  155.4875 C   0  0  0  0  0  0  0  0  0  0  0  0
  151.2260  137.8981  154.4691 C   0  0  0  0  0  0  0  0  0  0  0  0
  149.0610  139.7529  153.5774 C   0  0  0  0  0  0  0  0  0  0  0  0
  148.2342  141.0437  153.7422 C   0  0  0  0  0  0  0  0  0  0  0  0
  148.4552  141.6950  155.1137 C   0  0  0  0  0  0  0  0  0  0  0  0
  148.1895  140.7004  156.2508 C   0  0  0  0  0  0  0  0  0  0  0  0
  149.0445  139.4321  156.0768 C   0  0  0  0  0  0  0  0  0  0  0  0
  143.9985  134.8556  151.8591 N   0  0  0  0  0  0  0  0  0  0  0  0
  143.2363  136.0045  152.3078 C   0  0  0  0  0  0  0  0  0  0  0  0
  143.3629  133.7835  151.3391 N   0  0  0  0  0  0  0  0  0  0  0  0
  144.8511  131.0185  150.1806 H   0  0  0  0  0  0  0  0  0  0  0  0
  143.4004  131.7397  149.4920 H   0  0  0  0  0  0  0  0  0  0  0  0
  143.3473  131.0106  151.0959 H   0  0  0  0  0  0  0  0  0  0  0  0
  146.5774  132.9283  151.1975 H   0  0  0  0  0  0  0  0  0  0  0  0
  147.0581  135.7183  151.7878 H   0  0  0  0  0  0  0  0  0  0  0  0
  147.8906  137.1219  152.8650 H   0  0  0  0  0  0  0  0  0  0  0  0
  146.6461  138.9577  154.5604 H   0  0  0  0  0  0  0  0  0  0  0  0
  147.1004  137.6434  155.5632 H   0  0  0  0  0  0  0  0  0  0  0  0
  149.6598  136.7194  156.5274 H   0  0  0  0  0  0  0  0  0  0  0  0
  150.3700  135.6396  155.3303 H   0  0  0  0  0  0  0  0  0  0  0  0
  148.6476  135.8939  155.3248 H   0  0  0  0  0  0  0  0  0  0  0  0
  151.6224  138.1863  155.4433 H   0  0  0  0  0  0  0  0  0  0  0  0
  151.4161  138.7111  153.7710 H   0  0  0  0  0  0  0  0  0  0  0  0
  151.8055  137.0431  154.1194 H   0  0  0  0  0  0  0  0  0  0  0  0
  150.1159  140.0276  153.5414 H   0  0  0  0  0  0  0  0  0  0  0  0
  148.8260  139.3291  152.6010 H   0  0  0  0  0  0  0  0  0  0  0  0
  148.5036  141.7510  152.9571 H   0  0  0  0  0  0  0  0  0  0  0  0
  147.1741  140.8337  153.6008 H   0  0  0  0  0  0  0  0  0  0  0  0
  149.4809  142.0601  155.1811 H   0  0  0  0  0  0  0  0  0  0  0  0
  147.8101  142.5676  155.2209 H   0  0  0  0  0  0  0  0  0  0  0  0
  148.4266  141.1715  157.2052 H   0  0  0  0  0  0  0  0  0  0  0  0
  147.1292  140.4539  156.2980 H   0  0  0  0  0  0  0  0  0  0  0  0
  148.8690  138.7530  156.9116 H   0  0  0  0  0  0  0  0  0  0  0  0
  150.0763  139.7681  156.1763 H   0  0  0  0  0  0  0  0  0  0  0  0
  143.4842  136.2265  153.3458 H   0  0  0  0  0  0  0  0  0  0  0  0
  142.1658  135.8080  152.2355 H   0  0  0  0  0  0  0  0  0  0  0  0
  143.4799  136.8689  151.6897 H   0  0  0  0  0  0  0  0  0  0  0  0
  149.5645  137.1549  153.6458 H   0  0  0  0  0  0  0  0  0  0  0  0
  1  2  1  0  0  0  0
  1 22  1  0  0  0  0
  1 23  1  0  0  0  0
  1 24  1  0  0  0  0
  2 21  2  0  0  0  0
  2  3  1  0  0  0  0
  3  4  2  0  0  0  0
  3 25  1  0  0  0  0
  4  5  1  0  0  0  0
  4 19  1  0  0  0  0
  5  6  1  0  0  0  0
  5 26  1  0  0  0  0
  6  7  2  0  0  0  0
  6  8  1  0  0  0  0
  8  9  1  0  0  0  0
  8 27  1  0  0  0  0
  9 10  1  0  0  0  0
  9 28  1  0  0  0  0
  9 29  1  0  0  0  0
 10 18  1  0  0  0  0
 10 11  1  0  0  0  0
 10 14  1  0  0  0  0
 11 12  1  0  0  0  0
 11 13  1  0  0  0  0
 11 49  1  0  0  0  0
 12 30  1  0  0  0  0
 12 31  1  0  0  0  0
 12 32  1  0  0  0  0
 13 33  1  0  0  0  0
 13 34  1  0  0  0  0
 13 35  1  0  0  0  0
 14 15  1  0  0  0  0
 14 36  1  0  0  0  0
 14 37  1  0  0  0  0
 15 16  1  0  0  0  0
 15 38  1  0  0  0  0
 15 39  1  0  0  0  0
 16 17  1  0  0  0  0
 16 40  1  0  0  0  0
 16 41  1  0  0  0  0
 17 18  1  0  0  0  0
 17 42  1  0  0  0  0
 17 43  1  0  0  0  0
 18 44  1  0  0  0  0
 18 45  1  0  0  0  0
 19 20  1  0  0  0  0
 19 21  1  0  0  0  0
 20 46  1  0  0  0  0
 20 47  1  0  0  0  0
 20 48  1  0  0  0  0
M  CHG  1  11   1
M  END
> <s_m_source_file>
AV-unprocessed.smi

> <i_m_source_file_index>
1448

> <i_lp_mmshare_version>
43012

> <i_f3d_flags>
0

> <s_epik_input>
W0NIM11jMVtjSF1jKG4objEpW0NIM10pW05IXUMoPU8pW05IXVtDSDJdQzIoTihbQ0gzXSlbQ0gzXSlbQ0gyXVtDSDJdW0NIMl1bQ0gyXVtDSDJdMg==

> <s_epik_cmdline>
J2VwaWtfcHl0aG9uJywgJy1waCcsICc3LjAnLCAnLXRuJywgJzgnLCAnLW1hJywgJzIwMCcsICctbWV0YWxfYmluZGluZycsICctaW1hZScsICc8aW5maWxlLm1hZT4nLCAnLW9tYWUnLCAnPG91dGZpbGUubWFlPic=

> <r_lp_tautomer_probability>
1

> <r_epik_Ionization_Penalty>
0.00238996

> <r_epik_Ionization_Penalty_Charging>
0.00230992

> <r_epik_Ionization_Penalty_Neutral>
8.00361e-05

> <r_epik_State_Penalty>
0.00159337

> <r_epik_Charging_Adjusted_Penalty>
0.00390329

> <i_epik_Tot_Q>
1

> <i_epik_Tot_abs_Q>
1

> <r_epik_Metal_State_Penalty>
-0

> <b_epik_Metal_Only>
0

> <s_lp_Force_Field>
OPLS_2005

> <r_lp_Energy>
34.408

> <b_lp_Chiralities_Consistent>
1

> <s_lp_Variant>
AV-unprocessed.smi:1448-1

> <Gold.Version>
5.8.1

> <Gold.Id.Protein>
6NUR|6NUR_protein|mol2

> <Gold.PLP.Fitness>
38.4683

> <Gold.PLP.PLP>
-27.9518

> <Gold.PLP.part.hbond>
-3.0000

> <Gold.PLP.part.metal>
0.0000

> <Gold.PLP.part.buried>
-2.4319

> <Gold.PLP.part.nonpolar>
-24.9904

> <Gold.PLP.part.repulsive>
0.7412

> <Gold.PLP.ligand.clash>
0.0000

> <Gold.PLP.ligand.torsion>
0.6438

> <Gold.PLP.Chemscore.Hbond>
3.8800

> <Gold.PLP.Chemscore.CHOScore>
0.0000

> <Gold.PLP.Chemscore.Metal>
0.0000

> <Gold.Chemscore.Hbonds>
donor molecule, donor type, donor heavy atom, donor atom, acceptor molecule, acceptor atom, score
      L1  H     5    26       P1  7948  0.91
      L1  H     8    27       P1  7948  1.00
      L1  H    11    49       P1  7948  1.79

> <Gold.PLP.Chemscore.Internal.Correction>
0.1641

> <Gold.Rescore>
     Score         DG    S(hbond)    S(metal)    S(lipo)     H(rot)  DE(clash)    DE(int)     intcor
     16.02     -18.10       2.58        0.00      66.47       1.47       1.12       0.96       ----

> <Gold.Chemscore.Fitness>
16.0212

> <Gold.Chemscore.DG>
-18.1038

> <Gold.Chemscore.ZeroCoef>
-5.4800

> <Gold.Chemscore.Hbond>
2.5797

> <Gold.Chemscore.Metal>
0.0000

> <Gold.Chemscore.Lipo>
66.4738

> <Gold.Chemscore.Internal_Hbond>
0.0000

> <Gold.Chemscore.DEClash>
1.1193

> <Gold.Chemscore.DEInternal>
0.9633

> <Gold.Chemscore.Rot>
1.4727

> <Gold.Chemscore.Internal.Correction>
   9.000000E+99

> <Gold.Chemscore.Hbonds>
donor molecule, donor type, donor heavy atom, donor atom, acceptor molecule, acceptor atom, score
      L1  H     5    26       P1  7948  0.88
      L1  H     8    27       P1  7948  0.97
      L1  H    11    49       P1  7948  0.77

> <Gold.Chemscore.Hbond.Weighted>
-8.6164

> <Gold.Chemscore.Metal.Weighted>
-0.0000

> <Gold.Chemscore.Lipo.Weighted>
-7.7774

> <Gold.Chemscore.Internal_Hbond.Weighted>
0.0000

> <Gold.Chemscore.DEClash.Weighted>
1.1193

> <Gold.Chemscore.DEInternal.Weighted>
0.9633

> <Gold.Chemscore.Rot.Weighted>
3.7700

> <Gold.Chemscore.Internal.Correction.Weighted>
   9.000000E+99

> <Gold.Protein.RotatedTorsions>
[ 6907 6896 6895 6894 ] final   39.39 input  -60.11 | X-H torsion
[ 7974 7965 7964 7962 ] final    0.75 input  175.53 | X-H torsion
[ 8008 7997 7996 7995 ] final   85.15 input   59.86 | X-H torsion
[ 10167 10162 10161 10158 ] final -153.63 input  -65.29 | X-H torsion
[ 10718 10713 10712 10709 ] final -141.62 input   66.30 | X-H torsion
[ 10763 10752 10751 10750 ] final -149.09 input  -60.55 | X-H torsion
[ 11005 11000 10999 10996 ] final  123.86 input  -57.11 | X-H torsion

> <Gold.Protein.ActiveResidues>
 VAL166  LYS551  ARG553  GLY616  TRP617  ASP618  TYR619  PRO620  LYS621  CYS622 
 ASP623  PHE694  ASN695  SER759  ASP760  ASP761  ALA762  ILE779  LEU786  VAL792 
 PHE793  MET794  SER795  GLU796  ALA797  LYS798  CYS799  TRP800  GLU811  SER814 

> <Gold.Protein.RotatedAtoms>
  152.1689  134.8851  160.0535 H   0  0  0  0  0  0  0  0  0  0  0  0  # atno 6907 bound_to 6896
  151.9818  133.3755  159.4118 H   0  0  0  0  0  0  0  0  0  0  0  0  # atno 6908 bound_to 6896
  150.6898  134.3953  159.5138 H   0  0  0  0  0  0  0  0  0  0  0  0  # atno 6909 bound_to 6896
  146.2436  140.1091  142.8344 H   0  0  0  0  0  0  0  0  0  0  0  0  # atno 7974 bound_to 7965
  155.9462  140.3404  155.6369 H   0  0  0  0  0  0  0  0  0  0  0  0  # atno 8008 bound_to 7997
  155.6977  140.0756  157.2441 H   0  0  0  0  0  0  0  0  0  0  0  0  # atno 8009 bound_to 7997
  154.4112  140.1645  156.2144 H   0  0  0  0  0  0  0  0  0  0  0  0  # atno 8010 bound_to 7997
  139.7081  143.9154  152.2457 H   0  0  0  0  0  0  0  0  0  0  0  0  # atno 10167 bound_to 10162
  156.3362  130.7613  151.1740 H   0  0  0  0  0  0  0  0  0  0  0  0  # atno 10718 bound_to 10713
  154.8197  135.3318  154.7074 H   0  0  0  0  0  0  0  0  0  0  0  0  # atno 10763 bound_to 10752
  153.7709  135.6925  153.4911 H   0  0  0  0  0  0  0  0  0  0  0  0  # atno 10764 bound_to 10752
  153.2045  135.4504  155.0255 H   0  0  0  0  0  0  0  0  0  0  0  0  # atno 10765 bound_to 10752
  139.9332  134.9641  156.8323 H   0  0  0  0  0  0  0  0  0  0  0  0  # atno 11005 bound_to 11000
  145.0502  140.9012  143.5000 LP  0  0  0  0  0  0  0  0  0  0  0  0  # atno 17320 bound_to 7965
  145.1188  139.2708  143.5599 LP  0  0  0  0  0  0  0  0  0  0  0  0  # atno 17321 bound_to 7965
  139.9015  144.6909  150.8660 LP  0  0  0  0  0  0  0  0  0  0  0  0  # atno 17342 bound_to 10162
  140.7726  143.3510  151.2014 LP  0  0  0  0  0  0  0  0  0  0  0  0  # atno 17343 bound_to 10162
  157.7439  131.0467  150.4908 LP  0  0  0  0  0  0  0  0  0  0  0  0  # atno 17370 bound_to 10713
  156.5081  130.4133  149.6316 LP  0  0  0  0  0  0  0  0  0  0  0  0  # atno 17371 bound_to 10713
  140.6146  134.0050  155.7591 LP  0  0  0  0  0  0  0  0  0  0  0  0  # atno 17394 bound_to 11000
  141.0932  133.9884  157.3203 LP  0  0  0  0  0  0  0  0  0  0  0  0  # atno 17395 bound_to 11000

$$$$
