AV-unprocessed.smi:3287|AV-procd|sdf|12605|dock1
  -GOLD-   2272018533D 1   1.00000     0.00000
 Structure written by MMmdl.
 43 44  0  0  0  0  0  0  0  0  2 V2000
  152.8300  142.8995  161.5025 C   0  0  0  0  0  0  0  0  0  0  0  0
  152.5632  142.9087  159.9867 C   0  0  1  0  0  0  0  0  0  0  0  0
  152.1481  141.4978  159.5222 C   0  0  0  0  0  0  0  0  0  0  0  0
  151.8689  141.4401  158.0139 C   0  0  0  0  0  0  0  0  0  0  0  0
  150.7909  142.4639  157.6126 C   0  0  2  0  0  0  0  0  0  0  0  0
  150.5340  142.4482  156.1554 N   0  3  0  0  0  0  0  0  0  0  0  0
  150.1559  141.1329  155.5940 C   0  0  0  0  0  0  0  0  0  0  0  0
  149.1907  141.2839  154.4056 C   0  0  1  0  0  0  0  0  0  0  0  0
  149.1078  140.0466  153.7251 O   0  0  0  0  0  0  0  0  0  0  0  0
  147.8254  141.7675  154.8691 C   0  0  0  0  0  0  0  0  0  0  0  0
  147.4830  141.7923  156.2388 C   0  0  0  0  0  0  0  0  0  0  0  0
  146.2061  142.2623  156.6059 C   0  0  0  0  0  0  0  0  0  0  0  0
  145.2906  142.6944  155.7127 N   0  0  0  0  0  0  0  0  0  0  0  0
  145.6236  142.6707  154.4046 C   0  0  0  0  0  0  0  0  0  0  0  0
  146.8725  142.2199  153.9323 C   0  0  0  0  0  0  0  0  0  0  0  0
  151.2219  143.8740  158.0508 C   0  0  0  0  0  0  0  0  0  0  0  0
  151.5000  143.9579  159.5663 C   0  0  2  0  0  0  0  0  0  0  0  0
  151.8942  145.3963  159.9469 C   0  0  0  0  0  0  0  0  0  0  0  0
  151.9117  142.7314  162.0661 H   0  0  0  0  0  0  0  0  0  0  0  0
  153.2669  143.8375  161.8436 H   0  0  0  0  0  0  0  0  0  0  0  0
  153.5316  142.1092  161.7713 H   0  0  0  0  0  0  0  0  0  0  0  0
  153.5018  143.1575  159.4893 H   0  0  0  0  0  0  0  0  0  0  0  0
  152.9308  140.7798  159.7703 H   0  0  0  0  0  0  0  0  0  0  0  0
  151.2575  141.1793  160.0659 H   0  0  0  0  0  0  0  0  0  0  0  0
  152.7909  141.6331  157.4636 H   0  0  0  0  0  0  0  0  0  0  0  0
  151.5579  140.4285  157.7537 H   0  0  0  0  0  0  0  0  0  0  0  0
  149.8578  142.2219  158.1242 H   0  0  0  0  0  0  0  0  0  0  0  0
  149.7691  143.0822  155.9740 H   0  0  0  0  0  0  0  0  0  0  0  0
  151.0462  140.5849  155.2850 H   0  0  0  0  0  0  0  0  0  0  0  0
  149.6756  140.5462  156.3783 H   0  0  0  0  0  0  0  0  0  0  0  0
  149.5946  142.0149  153.7035 H   0  0  0  0  0  0  0  0  0  0  0  0
  149.3775  140.1794  152.8286 H   0  0  0  0  0  0  0  0  0  0  0  0
  148.1799  141.4620  156.9952 H   0  0  0  0  0  0  0  0  0  0  0  0
  145.9133  142.2941  157.6449 H   0  0  0  0  0  0  0  0  0  0  0  0
  144.8730  143.0239  153.7132 H   0  0  0  0  0  0  0  0  0  0  0  0
  147.0883  142.2250  152.8739 H   0  0  0  0  0  0  0  0  0  0  0  0
  152.1155  144.1729  157.4999 H   0  0  0  0  0  0  0  0  0  0  0  0
  150.4435  144.5897  157.7825 H   0  0  0  0  0  0  0  0  0  0  0  0
  150.5694  143.7258  160.0866 H   0  0  0  0  0  0  0  0  0  0  0  0
  152.8560  145.6728  159.5139 H   0  0  0  0  0  0  0  0  0  0  0  0
  151.9627  145.5256  161.0266 H   0  0  0  0  0  0  0  0  0  0  0  0
  151.1531  146.1127  159.5911 H   0  0  0  0  0  0  0  0  0  0  0  0
  151.3521  142.7902  155.6713 H   0  0  0  0  0  0  0  0  0  0  0  0
  1  2  1  0  0  0  0
  1 19  1  0  0  0  0
  1 20  1  0  0  0  0
  1 21  1  0  0  0  0
  2 17  1  0  0  0  0
  2  3  1  0  0  0  0
  2 22  1  0  0  0  0
  3  4  1  0  0  0  0
  3 23  1  0  0  0  0
  3 24  1  0  0  0  0
  4  5  1  0  0  0  0
  4 25  1  0  0  0  0
  4 26  1  0  0  0  0
  5  6  1  0  0  0  0
  5 16  1  0  0  0  0
  5 27  1  0  0  0  0
  6  7  1  0  0  0  0
  6 28  1  0  0  0  0
  6 43  1  0  0  0  0
  7  8  1  0  0  0  0
  7 29  1  0  0  0  0
  7 30  1  0  0  0  0
  8  9  1  0  0  0  0
  8 10  1  0  0  0  0
  8 31  1  0  0  0  0
  9 32  1  0  0  0  0
 10 15  1  0  0  0  0
 10 11  2  0  0  0  0
 11 12  1  0  0  0  0
 11 33  1  0  0  0  0
 12 13  2  0  0  0  0
 12 34  1  0  0  0  0
 13 14  1  0  0  0  0
 14 15  2  0  0  0  0
 14 35  1  0  0  0  0
 15 36  1  0  0  0  0
 16 17  1  0  0  0  0
 16 37  1  0  0  0  0
 16 38  1  0  0  0  0
 17 18  1  0  0  0  0
 17 39  1  0  0  0  0
 18 40  1  0  0  0  0
 18 41  1  0  0  0  0
 18 42  1  0  0  0  0
M  CHG  1   6   1
M  END
> <s_m_source_file>
AV-unprocessed.smi

> <i_m_source_file_index>
3287

> <i_lp_mmshare_version>
43012

> <i_f3d_flags>
0

> <s_epik_input>
W0NIM11bQ0BASF0xW0NIMl1bQ0gyXVtDQEhdKFtDSDJdW0NASF0xW0NIM10pW05IXVtDSDJdW0NASF0oW09IXSljMltjSF1bY0hdbltjSF1bY0hdMg==

> <s_epik_cmdline>
J2VwaWtfcHl0aG9uJywgJy1waCcsICc3LjAnLCAnLXRuJywgJzgnLCAnLW1hJywgJzIwMCcsICctbWV0YWxfYmluZGluZycsICctaW1hZScsICc8aW5maWxlLm1hZT4nLCAnLW9tYWUnLCAnPG91dGZpbGUubWFlPic=

> <r_lp_tautomer_probability>
1

> <r_epik_Ionization_Penalty>
0.00537262

> <r_epik_Ionization_Penalty_Charging>
0.00321624

> <r_epik_Ionization_Penalty_Neutral>
0.00215638

> <r_epik_State_Penalty>
-0

> <r_epik_Charging_Adjusted_Penalty>
0.00321624

> <i_epik_Tot_Q>
1

> <i_epik_Tot_abs_Q>
1

> <r_epik_Metal_State_Penalty>
-0

> <b_epik_Metal_Only>
0

> <s_lp_Force_Field>
OPLS_2005

> <r_lp_Energy>
15.7065

> <b_lp_Chiralities_Consistent>
1

> <s_lp_Variant>
AV-unprocessed.smi:3287-16

> <Gold.Version>
5.8.1

> <Gold.Id.Protein>
6NUR|6NUR_protein|mol2

> <Gold.PLP.Fitness>
53.7594

> <Gold.PLP.PLP>
-45.4747

> <Gold.PLP.part.hbond>
-2.0000

> <Gold.PLP.part.metal>
0.0000

> <Gold.PLP.part.buried>
-5.3475

> <Gold.PLP.part.nonpolar>
-38.2326

> <Gold.PLP.part.repulsive>
0.2575

> <Gold.PLP.ligand.clash>
0.0000

> <Gold.PLP.ligand.torsion>
0.5107

> <Gold.PLP.Chemscore.Hbond>
3.0000

> <Gold.PLP.Chemscore.CHOScore>
0.0878

> <Gold.PLP.Chemscore.Metal>
0.0000

> <Gold.Chemscore.Hbonds>
donor molecule, donor type, donor heavy atom, donor atom, acceptor molecule, acceptor atom, score
      L1  H     6    28       P1  8028  2.00
      L1  H     9    32       P1  7957  1.00
      L1  C    14    35       P1 10174  0.09

> <Gold.PLP.Chemscore.Internal.Correction>
0.0426

> <Gold.Rescore>
     Score         DG    S(hbond)    S(metal)    S(lipo)     H(rot)  DE(clash)    DE(int)     intcor
     21.27     -21.73       1.99        0.00     123.83       1.90       0.03       0.42       ----

> <Gold.Chemscore.Fitness>
21.2743

> <Gold.Chemscore.DG>
-21.7308

> <Gold.Chemscore.ZeroCoef>
-5.4800

> <Gold.Chemscore.Hbond>
1.9868

> <Gold.Chemscore.Metal>
0.0000

> <Gold.Chemscore.Lipo>
123.8254

> <Gold.Chemscore.Internal_Hbond>
0.0000

> <Gold.Chemscore.DEClash>
0.0323

> <Gold.Chemscore.DEInternal>
0.4242

> <Gold.Chemscore.Rot>
1.9035

> <Gold.Chemscore.Internal.Correction>
   9.000000E+99

> <Gold.Chemscore.Hbonds>
donor molecule, donor type, donor heavy atom, donor atom, acceptor molecule, acceptor atom, score
      L1  H     6    28       P1  8028  0.99
      L1  H     9    32       P1  7957  1.00

> <Gold.Chemscore.Hbond.Weighted>
-6.6361

> <Gold.Chemscore.Metal.Weighted>
-0.0000

> <Gold.Chemscore.Lipo.Weighted>
-14.4876

> <Gold.Chemscore.Internal_Hbond.Weighted>
0.0000

> <Gold.Chemscore.DEClash.Weighted>
0.0323

> <Gold.Chemscore.DEInternal.Weighted>
0.4242

> <Gold.Chemscore.Rot.Weighted>
4.8729

> <Gold.Chemscore.Internal.Correction.Weighted>
   9.000000E+99

> <Gold.Protein.RotatedTorsions>
[ 6907 6896 6895 6894 ] final  148.13 input  -60.11 | X-H torsion
[ 7974 7965 7964 7962 ] final -123.40 input  175.53 | X-H torsion
[ 8008 7997 7996 7995 ] final  147.95 input   59.86 | X-H torsion
[ 10167 10162 10161 10158 ] final  114.45 input  -65.29 | X-H torsion
[ 10718 10713 10712 10709 ] final   18.32 input   66.30 | X-H torsion
[ 10763 10752 10751 10750 ] final  -66.62 input  -60.55 | X-H torsion
[ 11005 11000 10999 10996 ] final   26.15 input  -57.11 | X-H torsion

> <Gold.Protein.ActiveResidues>
 VAL166  LYS551  ARG553  GLY616  TRP617  ASP618  TYR619  PRO620  LYS621  CYS622 
 ASP623  PHE694  ASN695  SER759  ASP760  ASP761  ALA762  ILE779  LEU786  VAL792 
 PHE793  MET794  SER795  GLU796  ALA797  LYS798  CYS799  TRP800  GLU811  SER814 

> <Gold.Protein.RotatedAtoms>
  152.1455  133.4490  159.4787 H   0  0  0  0  0  0  0  0  0  0  0  0  # atno 6907 bound_to 6896
  150.6890  134.2252  159.4422 H   0  0  0  0  0  0  0  0  0  0  0  0  # atno 6908 bound_to 6896
  152.0146  134.9857  160.0619 H   0  0  0  0  0  0  0  0  0  0  0  0  # atno 6909 bound_to 6896
  145.0191  140.7973  143.4391 H   0  0  0  0  0  0  0  0  0  0  0  0  # atno 7974 bound_to 7965
  156.2807  140.2141  156.5621 H   0  0  0  0  0  0  0  0  0  0  0  0  # atno 8008 bound_to 7997
  154.7205  140.0504  157.0657 H   0  0  0  0  0  0  0  0  0  0  0  0  # atno 8009 bound_to 7997
  155.0485  140.3153  155.4703 H   0  0  0  0  0  0  0  0  0  0  0  0  # atno 8010 bound_to 7997
  139.6388  144.7122  151.2280 H   0  0  0  0  0  0  0  0  0  0  0  0  # atno 10167 bound_to 10162
  157.0947  130.6442  149.5857 H   0  0  0  0  0  0  0  0  0  0  0  0  # atno 10718 bound_to 10713
  154.3625  135.6113  153.5698 H   0  0  0  0  0  0  0  0  0  0  0  0  # atno 10763 bound_to 10752
  152.9793  135.5818  154.4616 H   0  0  0  0  0  0  0  0  0  0  0  0  # atno 10764 bound_to 10752
  154.4356  135.2849  155.1860 H   0  0  0  0  0  0  0  0  0  0  0  0  # atno 10765 bound_to 10752
  140.3401  134.2342  155.7691 H   0  0  0  0  0  0  0  0  0  0  0  0  # atno 11005 bound_to 11000
  145.1919  139.2296  143.5238 LP  0  0  0  0  0  0  0  0  0  0  0  0  # atno 17320 bound_to 7965
  146.3482  140.1717  142.8589 LP  0  0  0  0  0  0  0  0  0  0  0  0  # atno 17321 bound_to 7965
  140.7479  143.6349  150.8388 LP  0  0  0  0  0  0  0  0  0  0  0  0  # atno 17342 bound_to 10162
  139.9983  143.5771  152.2885 LP  0  0  0  0  0  0  0  0  0  0  0  0  # atno 17343 bound_to 10162
  155.9889  130.4934  150.7190 LP  0  0  0  0  0  0  0  0  0  0  0  0  # atno 17370 bound_to 10713
  157.4692  131.0891  151.0661 LP  0  0  0  0  0  0  0  0  0  0  0  0  # atno 17371 bound_to 10713
  141.2041  133.7896  157.0307 LP  0  0  0  0  0  0  0  0  0  0  0  0  # atno 17394 bound_to 11000
  140.0788  134.9660  157.1590 LP  0  0  0  0  0  0  0  0  0  0  0  0  # atno 17395 bound_to 11000

$$$$
