AV-unprocessed.smi:2546|AV-procd|sdf|9997|dock6
  -GOLD-   2272014 43D 1   1.00000     0.00000
 Structure written by MMmdl.
 17 17  0  0  0  0  0  0  0  0  2 V2000
  143.5053  133.4531  148.5725 N   0  3  0  0  0  0  0  0  0  0  0  0
  143.8399  132.3931  149.5383 C   0  0  0  0  0  0  0  0  0  0  0  0
  144.0667  132.9657  150.9443 C   0  0  0  0  0  0  0  0  0  0  0  0
  144.9621  134.1600  150.9225 C   0  0  0  0  0  0  0  0  0  0  0  0
  146.2346  134.0755  151.3137 N   0  0  0  0  0  0  0  0  0  0  0  0
  146.6552  135.3525  151.1829 N   0  0  0  0  0  0  0  0  0  0  0  0
  145.6382  136.0970  150.7517 C   0  0  0  0  0  0  0  0  0  0  0  0
  144.5200  135.4061  150.5715 N   0  0  0  0  0  0  0  0  0  0  0  0
  144.3234  134.0196  148.3986 H   0  0  0  0  0  0  0  0  0  0  0  0
  142.7692  134.0337  148.9482 H   0  0  0  0  0  0  0  0  0  0  0  0
  143.0284  131.6643  149.5522 H   0  0  0  0  0  0  0  0  0  0  0  0
  144.7341  131.8739  149.1920 H   0  0  0  0  0  0  0  0  0  0  0  0
  143.1133  133.2431  151.3967 H   0  0  0  0  0  0  0  0  0  0  0  0
  144.5075  132.2067  151.5923 H   0  0  0  0  0  0  0  0  0  0  0  0
  145.7153  137.1592  150.5712 H   0  0  0  0  0  0  0  0  0  0  0  0
  143.1964  133.0356  147.7061 H   0  0  0  0  0  0  0  0  0  0  0  0
  147.5965  135.6525  151.3943 H   0  0  0  0  0  0  0  0  0  0  0  0
  1  2  1  0  0  0  0
  1  9  1  0  0  0  0
  1 10  1  0  0  0  0
  1 16  1  0  0  0  0
  2  3  1  0  0  0  0
  2 11  1  0  0  0  0
  2 12  1  0  0  0  0
  3 13  1  0  0  0  0
  3 14  1  0  0  0  0
  3  4  1  0  0  0  0
  4  8  1  0  0  0  0
  4  5  2  0  0  0  0
  5  6  1  0  0  0  0
  6  7  1  0  0  0  0
  6 17  1  0  0  0  0
  7  8  2  0  0  0  0
  7 15  1  0  0  0  0
M  CHG  1   1   1
M  END
> <s_m_source_file>
AV-unprocessed.smi

> <i_m_source_file_index>
2546

> <i_lp_mmshare_version>
43012

> <i_f3d_flags>
0

> <s_epik_input>
W05IMl1bQ0gyXVtDSDJdYzFubltjSF1bbkhdMQ==

> <s_epik_cmdline>
J2VwaWtfcHl0aG9uJywgJy1waCcsICc3LjAnLCAnLXRuJywgJzgnLCAnLW1hJywgJzIwMCcsICctbWV0YWxfYmluZGluZycsICctaW1hZScsICc8aW5maWxlLm1hZT4nLCAnLW9tYWUnLCAnPG91dGZpbGUubWFlPic=

> <r_lp_tautomer_probability>
0.948284

> <r_epik_Ionization_Penalty>
0.0140863

> <r_epik_Ionization_Penalty_Charging>
0.00364136

> <r_epik_Ionization_Penalty_Neutral>
0.0104449

> <r_epik_State_Penalty>
0.423825

> <r_epik_Charging_Adjusted_Penalty>
0.427466

> <i_epik_Tot_Q>
1

> <i_epik_Tot_abs_Q>
1

> <r_epik_Metal_State_Penalty>
0.652581

> <b_epik_Metal_Only>
0

> <s_lp_Force_Field>
OPLS_2005

> <r_lp_Energy>
-0.0945918

> <b_lp_Chiralities_Consistent>
1

> <s_lp_Variant>
AV-unprocessed.smi:2546-1

> <Gold.Version>
5.8.1

> <Gold.Id.Protein>
6NUR|6NUR_protein|mol2

> <Gold.PLP.Fitness>
30.8397

> <Gold.PLP.PLP>
-16.6055

> <Gold.PLP.part.hbond>
-3.0000

> <Gold.PLP.part.metal>
0.0000

> <Gold.PLP.part.buried>
-4.0967

> <Gold.PLP.part.nonpolar>
-10.7375

> <Gold.PLP.part.repulsive>
0.6216

> <Gold.PLP.ligand.clash>
0.0000

> <Gold.PLP.ligand.torsion>
0.2775

> <Gold.PLP.Chemscore.Hbond>
4.0000

> <Gold.PLP.Chemscore.CHOScore>
0.9278

> <Gold.PLP.Chemscore.Metal>
0.0000

> <Gold.Chemscore.Hbonds>
donor molecule, donor type, donor heavy atom, donor atom, acceptor molecule, acceptor atom, score
      L1  H     1     9       P1  7921  0.81
      L1  H     1    10       P1 10186  2.00
      L1  H     6    17       P1  7948  0.91
      L1  C     7    15       P1 10171  0.90

> <Gold.PLP.Chemscore.Internal.Correction>
0.0060

> <Gold.Rescore>
     Score         DG    S(hbond)    S(metal)    S(lipo)     H(rot)  DE(clash)    DE(int)     intcor
     15.41     -15.72       3.55        0.00      22.64       1.67       0.09       0.22       ----

> <Gold.Chemscore.Fitness>
15.4130

> <Gold.Chemscore.DG>
-15.7248

> <Gold.Chemscore.ZeroCoef>
-5.4800

> <Gold.Chemscore.Hbond>
3.5525

> <Gold.Chemscore.Metal>
0.0000

> <Gold.Chemscore.Lipo>
22.6420

> <Gold.Chemscore.Internal_Hbond>
0.0000

> <Gold.Chemscore.DEClash>
0.0880

> <Gold.Chemscore.DEInternal>
0.2238

> <Gold.Chemscore.Rot>
1.6679

> <Gold.Chemscore.Internal.Correction>
   9.000000E+99

> <Gold.Chemscore.Hbonds>
donor molecule, donor type, donor heavy atom, donor atom, acceptor molecule, acceptor atom, score
      L1  H     1     9       P1  7921  0.80
      L1  H     1    10       P1 10186  0.98
      L1  H     6    17       P1  7948  0.79

> <Gold.Chemscore.Hbond.Weighted>
-11.8654

> <Gold.Chemscore.Metal.Weighted>
-0.0000

> <Gold.Chemscore.Lipo.Weighted>
-2.6491

> <Gold.Chemscore.Internal_Hbond.Weighted>
0.0000

> <Gold.Chemscore.DEClash.Weighted>
0.0880

> <Gold.Chemscore.DEInternal.Weighted>
0.2238

> <Gold.Chemscore.Rot.Weighted>
4.2697

> <Gold.Chemscore.Internal.Correction.Weighted>
   9.000000E+99

> <Gold.Protein.RotatedTorsions>
[ 6907 6896 6895 6894 ] final   60.32 input  -60.11 | X-H torsion
[ 7974 7965 7964 7962 ] final   32.07 input  175.53 | X-H torsion
[ 8008 7997 7996 7995 ] final -128.26 input   59.86 | X-H torsion
[ 10167 10162 10161 10158 ] final  -24.95 input  -65.29 | X-H torsion
[ 10718 10713 10712 10709 ] final   41.75 input   66.30 | X-H torsion
[ 10763 10752 10751 10750 ] final  129.90 input  -60.55 | X-H torsion
[ 11005 11000 10999 10996 ] final   53.66 input  -57.11 | X-H torsion

> <Gold.Protein.ActiveResidues>
 VAL166  LYS551  ARG553  GLY616  TRP617  ASP618  TYR619  PRO620  LYS621  CYS622 
 ASP623  PHE694  ASN695  SER759  ASP760  ASP761  ALA762  ILE779  LEU786  VAL792 
 PHE793  MET794  SER795  GLU796  ALA797  LYS798  CYS799  TRP800  GLU811  SER814 

> <Gold.Protein.RotatedAtoms>
  152.3992  134.6314  160.0076 H   0  0  0  0  0  0  0  0  0  0  0  0  # atno 6907 bound_to 6896
  151.6524  133.3315  159.3163 H   0  0  0  0  0  0  0  0  0  0  0  0  # atno 6908 bound_to 6896
  150.7895  134.6950  159.6563 H   0  0  0  0  0  0  0  0  0  0  0  0  # atno 6909 bound_to 6896
  146.1510  139.6573  142.9099 H   0  0  0  0  0  0  0  0  0  0  0  0  # atno 7974 bound_to 7965
  155.2598  140.0435  157.2996 H   0  0  0  0  0  0  0  0  0  0  0  0  # atno 8008 bound_to 7997
  154.5718  140.2376  155.8150 H   0  0  0  0  0  0  0  0  0  0  0  0  # atno 8009 bound_to 7997
  156.2128  140.2994  155.9778 H   0  0  0  0  0  0  0  0  0  0  0  0  # atno 8010 bound_to 7997
  140.7287  143.4308  151.0805 H   0  0  0  0  0  0  0  0  0  0  0  0  # atno 10167 bound_to 10162
  157.3971  130.7839  149.7317 H   0  0  0  0  0  0  0  0  0  0  0  0  # atno 10718 bound_to 10713
  153.7493  135.3212  155.3318 H   0  0  0  0  0  0  0  0  0  0  0  0  # atno 10763 bound_to 10752
  154.8268  135.4563  154.0948 H   0  0  0  0  0  0  0  0  0  0  0  0  # atno 10764 bound_to 10752
  153.2146  135.6940  153.8155 H   0  0  0  0  0  0  0  0  0  0  0  0  # atno 10765 bound_to 10752
  140.0749  134.5418  155.9007 H   0  0  0  0  0  0  0  0  0  0  0  0  # atno 11005 bound_to 11000
  145.4824  141.0438  143.2638 LP  0  0  0  0  0  0  0  0  0  0  0  0  # atno 17320 bound_to 7965
  144.7904  139.6341  143.7116 LP  0  0  0  0  0  0  0  0  0  0  0  0  # atno 17321 bound_to 7965
  139.7965  143.8145  152.3158 LP  0  0  0  0  0  0  0  0  0  0  0  0  # atno 17342 bound_to 10162
  139.8146  144.7321  150.9651 LP  0  0  0  0  0  0  0  0  0  0  0  0  # atno 17343 bound_to 10162
  155.9813  130.4020  150.3478 LP  0  0  0  0  0  0  0  0  0  0  0  0  # atno 17370 bound_to 10713
  157.1601  131.0343  151.2845 LP  0  0  0  0  0  0  0  0  0  0  0  0  # atno 17371 bound_to 10713
  141.2026  133.6626  156.6013 LP  0  0  0  0  0  0  0  0  0  0  0  0  # atno 17394 bound_to 11000
  140.3572  134.7718  157.4509 LP  0  0  0  0  0  0  0  0  0  0  0  0  # atno 17395 bound_to 11000

$$$$
