AV-unprocessed.smi:3330|AV-procd|sdf|12810|dock6
  -GOLD-   2272019173D 1   1.00000     0.00000
 Structure written by MMmdl.
 38 39  0  0  0  0  0  0  0  0  3 V2000
  147.6020  133.4509  153.0621 C   0  0  0  0  0  0  0  0  0  0  0  0
  146.4946  134.5157  152.9584 C   0  0  1  0  0  0  0  0  0  0  0  0
  147.0290  135.8036  153.4555 N   0  3  0  0  0  0  0  0  0  0  0  0
  147.4545  135.7995  154.8690 C   0  0  0  0  0  0  0  0  0  0  0  0
  148.4170  136.9622  155.1503 C   0  0  0  0  0  0  0  0  0  0  0  0
  149.4430  136.5761  156.1221 N   0  0  0  0  0  0  0  0  0  0  0  0
  150.7395  136.4294  155.8335 C   0  0  0  0  0  0  0  0  0  0  0  0
  151.2937  136.5886  154.7458 O   0  0  0  0  0  0  0  0  0  0  0  0
  151.4426  136.0072  157.1024 C   0  0  0  0  0  0  0  0  0  0  0  0
  150.3533  135.9406  158.0507 N   0  5  0  0  0  0  0  0  0  0  0  0
  149.2090  136.2822  157.4150 C   0  0  0  0  0  0  0  0  0  0  0  0
  148.0797  136.3266  157.9023 O   0  0  0  0  0  0  0  0  0  0  0  0
  145.9412  134.6743  151.5152 C   0  0  2  0  0  0  0  0  0  0  0  0
  145.0853  135.9420  151.3311 C   0  0  0  0  0  0  0  0  0  0  0  0
  145.1896  133.5025  151.0834 N   0  0  0  0  0  0  0  0  0  0  0  0
  145.6479  132.2143  150.8963 C   0  0  0  0  0  0  0  0  0  0  0  0
  144.5875  131.4590  150.4847 C   0  0  0  0  0  0  0  0  0  0  0  0
  143.5084  132.3849  150.4429 C   0  0  0  0  0  0  0  0  0  0  0  0
  143.8712  133.6059  150.8001 N   0  0  0  0  0  0  0  0  0  0  0  0
  147.2354  132.4566  152.8066 H   0  0  0  0  0  0  0  0  0  0  0  0
  147.9947  133.3931  154.0779 H   0  0  0  0  0  0  0  0  0  0  0  0
  148.4351  133.6799  152.3967 H   0  0  0  0  0  0  0  0  0  0  0  0
  145.6819  134.1929  153.6118 H   0  0  0  0  0  0  0  0  0  0  0  0
  147.8322  136.0501  152.8952 H   0  0  0  0  0  0  0  0  0  0  0  0
  146.5788  135.8750  155.5145 H   0  0  0  0  0  0  0  0  0  0  0  0
  147.9388  134.8481  155.0939 H   0  0  0  0  0  0  0  0  0  0  0  0
  148.8854  137.2928  154.2216 H   0  0  0  0  0  0  0  0  0  0  0  0
  147.8633  137.8252  155.5244 H   0  0  0  0  0  0  0  0  0  0  0  0
  151.9405  135.0492  156.9498 H   0  0  0  0  0  0  0  0  0  0  0  0
  152.2016  136.7430  157.3697 H   0  0  0  0  0  0  0  0  0  0  0  0
  146.7945  134.7578  150.8401 H   0  0  0  0  0  0  0  0  0  0  0  0
  145.6717  136.8476  151.4865 H   0  0  0  0  0  0  0  0  0  0  0  0
  144.2466  135.9645  152.0279 H   0  0  0  0  0  0  0  0  0  0  0  0
  144.6778  135.9949  150.3209 H   0  0  0  0  0  0  0  0  0  0  0  0
  146.6790  131.9438  151.0701 H   0  0  0  0  0  0  0  0  0  0  0  0
  144.5832  130.4054  150.2471 H   0  0  0  0  0  0  0  0  0  0  0  0
  142.4798  132.2074  150.1652 H   0  0  0  0  0  0  0  0  0  0  0  0
  146.3214  136.5133  153.3308 H   0  0  0  0  0  0  0  0  0  0  0  0
  1  2  1  0  0  0  0
  1 20  1  0  0  0  0
  1 21  1  0  0  0  0
  1 22  1  0  0  0  0
  2  3  1  0  0  0  0
  2 13  1  0  0  0  0
  2 23  1  0  0  0  0
  3  4  1  0  0  0  0
  3 24  1  0  0  0  0
  3 38  1  0  0  0  0
  4  5  1  0  0  0  0
  4 25  1  0  0  0  0
  4 26  1  0  0  0  0
  5  6  1  0  0  0  0
  5 27  1  0  0  0  0
  5 28  1  0  0  0  0
  6 11  1  0  0  0  0
  6  7  1  0  0  0  0
  7  8  2  0  0  0  0
  7  9  1  0  0  0  0
  9 10  1  0  0  0  0
  9 29  1  0  0  0  0
  9 30  1  0  0  0  0
 10 11  1  0  0  0  0
 11 12  2  0  0  0  0
 13 14  1  0  0  0  0
 13 15  1  0  0  0  0
 13 31  1  0  0  0  0
 14 32  1  0  0  0  0
 14 33  1  0  0  0  0
 14 34  1  0  0  0  0
 15 19  1  0  0  0  0
 15 16  1  0  0  0  0
 16 17  2  0  0  0  0
 16 35  1  0  0  0  0
 17 18  1  0  0  0  0
 17 36  1  0  0  0  0
 18 19  2  0  0  0  0
 18 37  1  0  0  0  0
M  CHG  1   3   1
M  CHG  1  10  -1
M  END
> <s_m_source_file>
AV-unprocessed.smi

> <i_m_source_file_index>
3330

> <i_lp_mmshare_version>
43012

> <i_f3d_flags>
0

> <s_epik_input>
bjFbY0hdW2NIXVtjSF1uMVtDQEBIXShbQ0gzXSlbQ0BIXShbQ0gzXSlbTkhdW0NIMl1bQ0gyXU4yQyg9TylbQ0gyXVtOSF1DMj1P

> <s_epik_cmdline>
J2VwaWtfcHl0aG9uJywgJy1waCcsICc3LjAnLCAnLXRuJywgJzgnLCAnLW1hJywgJzIwMCcsICctbWV0YWxfYmluZGluZycsICctaW1hZScsICc8aW5maWxlLm1hZT4nLCAnLW9tYWUnLCAnPG91dGZpbGUubWFlPic=

> <r_lp_tautomer_probability>
1

> <r_epik_Ionization_Penalty>
5.18149

> <r_epik_Ionization_Penalty_Charging>
5.18148

> <r_epik_Ionization_Penalty_Neutral>
9.83265e-06

> <r_epik_State_Penalty>
5.18201

> <r_epik_Charging_Adjusted_Penalty>
10.3635

> <i_epik_Tot_Q>
0

> <i_epik_Tot_abs_Q>
2

> <r_epik_Metal_State_Penalty>
1.25422

> <b_epik_Metal_Only>
1

> <s_lp_Force_Field>
OPLS_2005

> <r_lp_Energy>
16.6991

> <b_lp_Chiralities_Consistent>
1

> <s_lp_Variant>
AV-unprocessed.smi:3330-10

> <Gold.Version>
5.8.1

> <Gold.Id.Protein>
6NUR|6NUR_protein|mol2

> <Gold.PLP.Fitness>
44.6629

> <Gold.PLP.PLP>
-26.1211

> <Gold.PLP.part.hbond>
-2.9986

> <Gold.PLP.part.metal>
0.0000

> <Gold.PLP.part.buried>
-3.7824

> <Gold.PLP.part.nonpolar>
-20.2162

> <Gold.PLP.part.repulsive>
0.3456

> <Gold.PLP.ligand.clash>
0.0000

> <Gold.PLP.ligand.torsion>
0.6593

> <Gold.PLP.Chemscore.Hbond>
4.5680

> <Gold.PLP.Chemscore.CHOScore>
1.9888

> <Gold.PLP.Chemscore.Metal>
0.0000

> <Gold.Chemscore.Hbonds>
donor molecule, donor type, donor heavy atom, donor atom, acceptor molecule, acceptor atom, score
      L1  H     3    24       P1  7948  2.00
      P1  H  6896  6907       L1    10  1.57
      P1  H 10752 10763       L1     8  1.00
      L1  C    16    35       P1 10747  0.67
      L1  C    18    37       P1 10186  0.39
      L1  C    18    37       P1 10952  0.94

> <Gold.PLP.Chemscore.Internal.Correction>
0.1901

> <Gold.Rescore>
     Score         DG    S(hbond)    S(metal)    S(lipo)     H(rot)  DE(clash)    DE(int)     intcor
     13.59     -14.16       2.64        0.00      55.54       2.59       0.01       0.56       ----

> <Gold.Chemscore.Fitness>
13.5921

> <Gold.Chemscore.DG>
-14.1632

> <Gold.Chemscore.ZeroCoef>
-5.4800

> <Gold.Chemscore.Hbond>
2.6394

> <Gold.Chemscore.Metal>
0.0000

> <Gold.Chemscore.Lipo>
55.5428

> <Gold.Chemscore.Internal_Hbond>
0.0000

> <Gold.Chemscore.DEClash>
0.0102

> <Gold.Chemscore.DEInternal>
0.5609

> <Gold.Chemscore.Rot>
2.5903

> <Gold.Chemscore.Internal.Correction>
   9.000000E+99

> <Gold.Chemscore.Hbonds>
donor molecule, donor type, donor heavy atom, donor atom, acceptor molecule, acceptor atom, score
      L1  H     3    24       P1  7948  0.93
      P1  H  6896  6907       L1    10  0.61
      P1  H 10752 10763       L1     8  0.91

> <Gold.Chemscore.Hbond.Weighted>
-8.8157

> <Gold.Chemscore.Metal.Weighted>
-0.0000

> <Gold.Chemscore.Lipo.Weighted>
-6.4985

> <Gold.Chemscore.Internal_Hbond.Weighted>
0.0000

> <Gold.Chemscore.DEClash.Weighted>
0.0102

> <Gold.Chemscore.DEInternal.Weighted>
0.5609

> <Gold.Chemscore.Rot.Weighted>
6.6311

> <Gold.Chemscore.Internal.Correction.Weighted>
   9.000000E+99

> <Gold.Protein.RotatedTorsions>
[ 6907 6896 6895 6894 ] final  -55.03 input  -60.11 | X-H torsion
[ 7974 7965 7964 7962 ] final -105.96 input  175.53 | X-H torsion
[ 8008 7997 7996 7995 ] final -155.37 input   59.86 | X-H torsion
[ 10167 10162 10161 10158 ] final -114.81 input  -65.29 | X-H torsion
[ 10718 10713 10712 10709 ] final  -57.98 input   66.30 | X-H torsion
[ 10763 10752 10751 10750 ] final   31.93 input  -60.55 | X-H torsion
[ 11005 11000 10999 10996 ] final -132.36 input  -57.11 | X-H torsion

> <Gold.Protein.ActiveResidues>
 VAL166  LYS551  ARG553  GLY616  TRP617  ASP618  TYR619  PRO620  LYS621  CYS622 
 ASP623  PHE694  ASN695  SER759  ASP760  ASP761  ALA762  ILE779  LEU786  VAL792 
 PHE793  MET794  SER795  GLU796  ALA797  LYS798  CYS799  TRP800  GLU811  SER814 

> <Gold.Protein.RotatedAtoms>
  150.8286  134.7529  159.6834 H   0  0  0  0  0  0  0  0  0  0  0  0  # atno 6907 bound_to 6896
  152.4394  134.5618  159.9906 H   0  0  0  0  0  0  0  0  0  0  0  0  # atno 6908 bound_to 6896
  151.5784  133.3343  159.3039 H   0  0  0  0  0  0  0  0  0  0  0  0  # atno 6909 bound_to 6896
  145.2239  140.9145  143.3244 H   0  0  0  0  0  0  0  0  0  0  0  0  # atno 7974 bound_to 7965
  155.7008  140.0766  157.2411 H   0  0  0  0  0  0  0  0  0  0  0  0  # atno 8008 bound_to 7997
  154.4073  140.1648  156.2241 H   0  0  0  0  0  0  0  0  0  0  0  0  # atno 8009 bound_to 7997
  155.9370  140.3387  155.6298 H   0  0  0  0  0  0  0  0  0  0  0  0  # atno 8010 bound_to 7997
  140.0969  143.4649  152.1836 H   0  0  0  0  0  0  0  0  0  0  0  0  # atno 10167 bound_to 10162
  156.1169  130.4169  150.0515 H   0  0  0  0  0  0  0  0  0  0  0  0  # atno 10718 bound_to 10713
  153.0289  135.6426  154.1276 H   0  0  0  0  0  0  0  0  0  0  0  0  # atno 10763 bound_to 10752
  154.1001  135.2860  155.3255 H   0  0  0  0  0  0  0  0  0  0  0  0  # atno 10764 bound_to 10752
  154.6405  135.5461  153.7846 H   0  0  0  0  0  0  0  0  0  0  0  0  # atno 10765 bound_to 10752
  140.9177  134.1486  157.4339 H   0  0  0  0  0  0  0  0  0  0  0  0  # atno 11005 bound_to 11000
  144.9740  139.3851  143.6295 LP  0  0  0  0  0  0  0  0  0  0  0  0  # atno 17320 bound_to 7965
  146.3369  139.8850  142.8818 LP  0  0  0  0  0  0  0  0  0  0  0  0  # atno 17321 bound_to 7965
  139.5693  144.7453  151.3935 LP  0  0  0  0  0  0  0  0  0  0  0  0  # atno 17342 bound_to 10162
  140.6999  143.7658  150.7386 LP  0  0  0  0  0  0  0  0  0  0  0  0  # atno 17343 bound_to 10162
  156.8464  130.9443  151.3628 LP  0  0  0  0  0  0  0  0  0  0  0  0  # atno 17370 bound_to 10713
  157.6352  130.8761  149.9347 LP  0  0  0  0  0  0  0  0  0  0  0  0  # atno 17371 bound_to 10713
  139.8769  134.9959  156.5770 LP  0  0  0  0  0  0  0  0  0  0  0  0  # atno 17394 bound_to 11000
  140.8029  133.8491  155.8742 LP  0  0  0  0  0  0  0  0  0  0  0  0  # atno 17395 bound_to 11000

$$$$
