AV-unprocessed.smi:384|AV-procd|sdf|2466|dock2
  -GOLD-   2262022403D 1   1.00000     0.00000
 Structure written by MMmdl.
 32 33  0  0  0  0  0  0  0  0  2 V2000
  152.4832  143.4593  161.6556 C   0  0  0  0  0  0  0  0  0  0  0  0
  152.3477  142.8373  160.2619 C   0  0  1  0  0  0  0  0  0  0  0  0
  152.7826  141.3596  160.2426 C   0  0  0  0  0  0  0  0  0  0  0  0
  152.5472  140.7868  158.9238 N   0  0  0  0  0  0  0  0  0  0  0  0
  153.0285  139.4763  158.7939 C   0  0  0  0  0  0  0  0  0  0  0  0
  153.0448  138.6386  159.9276 C   0  0  0  0  0  0  0  0  0  0  0  0
  153.5280  137.3228  159.7908 C   0  0  0  0  0  0  0  0  0  0  0  0
  153.9794  136.8828  158.5265 C   0  0  0  0  0  0  0  0  0  0  0  0
  154.5033  135.4880  158.3296 C   0  0  0  0  0  0  0  0  0  0  0  0
  154.9725  135.1714  157.2139 O   0  0  0  0  0  0  0  0  0  0  0  0
  154.4542  134.6854  159.2881 O   0  5  0  0  0  0  0  0  0  0  0  0
  153.9201  137.8021  157.4541 C   0  0  0  0  0  0  0  0  0  0  0  0
  153.4586  139.0655  157.5777 N   0  0  0  0  0  0  0  0  0  0  0  0
  151.1653  140.9445  158.4891 C   0  0  0  0  0  0  0  0  0  0  0  0
  150.7628  142.4304  158.5405 C   0  0  1  0  0  0  0  0  0  0  0  0
  149.2876  142.6406  158.1834 C   0  0  0  0  0  0  0  0  0  0  0  0
  150.9819  142.9263  159.8599 O   0  0  0  0  0  0  0  0  0  0  0  0
  153.5162  143.4240  162.0020 H   0  0  0  0  0  0  0  0  0  0  0  0
  151.8669  142.9329  162.3851 H   0  0  0  0  0  0  0  0  0  0  0  0
  152.1714  144.5040  161.6480 H   0  0  0  0  0  0  0  0  0  0  0  0
  152.9625  143.4101  159.5653 H   0  0  0  0  0  0  0  0  0  0  0  0
  153.8402  141.2748  160.4959 H   0  0  0  0  0  0  0  0  0  0  0  0
  152.2245  140.7971  160.9928 H   0  0  0  0  0  0  0  0  0  0  0  0
  152.6947  138.9941  160.8856 H   0  0  0  0  0  0  0  0  0  0  0  0
  153.5469  136.6692  160.6509 H   0  0  0  0  0  0  0  0  0  0  0  0
  154.2498  137.5273  156.4628 H   0  0  0  0  0  0  0  0  0  0  0  0
  151.0540  140.5587  157.4750 H   0  0  0  0  0  0  0  0  0  0  0  0
  150.5074  140.3581  159.1323 H   0  0  0  0  0  0  0  0  0  0  0  0
  151.3737  143.0011  157.8389 H   0  0  0  0  0  0  0  0  0  0  0  0
  149.0739  142.2854  157.1751 H   0  0  0  0  0  0  0  0  0  0  0  0
  149.0232  143.6973  158.2257 H   0  0  0  0  0  0  0  0  0  0  0  0
  148.6339  142.1056  158.8728 H   0  0  0  0  0  0  0  0  0  0  0  0
  1  2  1  0  0  0  0
  1 18  1  0  0  0  0
  1 19  1  0  0  0  0
  1 20  1  0  0  0  0
  2 17  1  0  0  0  0
  2  3  1  0  0  0  0
  2 21  1  0  0  0  0
  3  4  1  0  0  0  0
  3 22  1  0  0  0  0
  3 23  1  0  0  0  0
  4  5  1  0  0  0  0
  4 14  1  0  0  0  0
  5 13  1  0  0  0  0
  5  6  2  0  0  0  0
  6  7  1  0  0  0  0
  6 24  1  0  0  0  0
  7  8  2  0  0  0  0
  7 25  1  0  0  0  0
  8  9  1  0  0  0  0
  8 12  1  0  0  0  0
  9 10  2  0  0  0  0
  9 11  1  0  0  0  0
 12 13  2  0  0  0  0
 12 26  1  0  0  0  0
 14 15  1  0  0  0  0
 14 27  1  0  0  0  0
 14 28  1  0  0  0  0
 15 16  1  0  0  0  0
 15 17  1  0  0  0  0
 15 29  1  0  0  0  0
 16 30  1  0  0  0  0
 16 31  1  0  0  0  0
 16 32  1  0  0  0  0
M  CHG  1  11  -1
M  END
> <s_m_source_file>
AV-unprocessed.smi

> <i_m_source_file_index>
384

> <i_lp_mmshare_version>
43012

> <i_f3d_flags>
0

> <s_epik_input>
W0NIM11bQ0BASF0xW0NIMl1OKFtDSDJdW0NASF0oTzEpW0NIM10pYzJbY0hdW2NIXWMoW2NIXW4yKUMoPU8pW09IXQ==

> <s_epik_cmdline>
J2VwaWtfcHl0aG9uJywgJy1waCcsICc3LjAnLCAnLXRuJywgJzgnLCAnLW1hJywgJzIwMCcsICctbWV0YWxfYmluZGluZycsICctaW1hZScsICc8aW5maWxlLm1hZT4nLCAnLW9tYWUnLCAnPG91dGZpbGUubWFlPic=

> <r_epik_Ionization_Penalty>
0.0114922

> <r_epik_Ionization_Penalty_Charging>
0.000195896

> <r_epik_Ionization_Penalty_Neutral>
0.0112963

> <r_epik_State_Penalty>
0.00868573

> <r_epik_Charging_Adjusted_Penalty>
0.00888162

> <i_epik_Tot_Q>
-1

> <i_epik_Tot_abs_Q>
1

> <r_epik_Metal_State_Penalty>
8.74964e-06

> <b_epik_Metal_Only>
0

> <s_lp_Force_Field>
OPLS_2005

> <r_lp_Energy>
16.9609

> <b_lp_Chiralities_Consistent>
1

> <s_lp_Variant>
AV-unprocessed.smi:384-2

> <Gold.Version>
5.8.1

> <Gold.Id.Protein>
6NUR|6NUR_protein|mol2

> <Gold.PLP.Fitness>
40.9931

> <Gold.PLP.PLP>
-27.2642

> <Gold.PLP.part.hbond>
-4.0000

> <Gold.PLP.part.metal>
0.0000

> <Gold.PLP.part.buried>
-3.9927

> <Gold.PLP.part.nonpolar>
-19.5131

> <Gold.PLP.part.repulsive>
0.0170

> <Gold.PLP.ligand.clash>
0.0000

> <Gold.PLP.ligand.torsion>
0.6836

> <Gold.PLP.Chemscore.Hbond>
5.0000

> <Gold.PLP.Chemscore.CHOScore>
0.0000

> <Gold.PLP.Chemscore.Metal>
0.0000

> <Gold.Chemscore.Hbonds>
donor molecule, donor type, donor heavy atom, donor atom, acceptor molecule, acceptor atom, score
      P1  H  6896  6907       L1    11  2.00
      P1  H  7997  8009       L1    13  1.00
      P1  H 10752 10764       L1    10  2.00

> <Gold.PLP.Chemscore.Internal.Correction>
0.0961

> <Gold.Rescore>
     Score         DG    S(hbond)    S(metal)    S(lipo)     H(rot)  DE(clash)    DE(int)     intcor
     19.71     -20.42       2.79        0.00      69.96       1.00       0.00       0.71       ----

> <Gold.Chemscore.Fitness>
19.7089

> <Gold.Chemscore.DG>
-20.4218

> <Gold.Chemscore.ZeroCoef>
-5.4800

> <Gold.Chemscore.Hbond>
2.7893

> <Gold.Chemscore.Metal>
0.0000

> <Gold.Chemscore.Lipo>
69.9627

> <Gold.Chemscore.Internal_Hbond>
0.0000

> <Gold.Chemscore.DEClash>
0.0029

> <Gold.Chemscore.DEInternal>
0.7100

> <Gold.Chemscore.Rot>
1.0000

> <Gold.Chemscore.Internal.Correction>
   9.000000E+99

> <Gold.Chemscore.Hbonds>
donor molecule, donor type, donor heavy atom, donor atom, acceptor molecule, acceptor atom, score
      P1  H  6896  6907       L1    11  0.83
      P1  H  7997  8009       L1    13  0.42
      P1  H 10752 10764       L1    10  0.96

> <Gold.Chemscore.Hbond.Weighted>
-9.3162

> <Gold.Chemscore.Metal.Weighted>
-0.0000

> <Gold.Chemscore.Lipo.Weighted>
-8.1856

> <Gold.Chemscore.Internal_Hbond.Weighted>
0.0000

> <Gold.Chemscore.DEClash.Weighted>
0.0029

> <Gold.Chemscore.DEInternal.Weighted>
0.7100

> <Gold.Chemscore.Rot.Weighted>
2.5600

> <Gold.Chemscore.Internal.Correction.Weighted>
   9.000000E+99

> <Gold.Protein.RotatedTorsions>
[ 6907 6896 6895 6894 ] final   82.94 input  -60.11 | X-H torsion
[ 7974 7965 7964 7962 ] final  138.59 input  175.53 | X-H torsion
[ 8008 7997 7996 7995 ] final  153.50 input   59.86 | X-H torsion
[ 10167 10162 10161 10158 ] final  128.35 input  -65.29 | X-H torsion
[ 10718 10713 10712 10709 ] final  175.28 input   66.30 | X-H torsion
[ 10763 10752 10751 10750 ] final   34.38 input  -60.55 | X-H torsion
[ 11005 11000 10999 10996 ] final   96.95 input  -57.11 | X-H torsion

> <Gold.Protein.ActiveResidues>
 VAL166  LYS551  ARG553  GLY616  TRP617  ASP618  TYR619  PRO620  LYS621  CYS622 
 ASP623  PHE694  ASN695  SER759  ASP760  ASP761  ALA762  ILE779  LEU786  VAL792 
 PHE793  MET794  SER795  GLU796  ALA797  LYS798  CYS799  TRP800  GLU811  SER814 

> <Gold.Protein.RotatedAtoms>
  152.5313  134.2972  159.9064 H   0  0  0  0  0  0  0  0  0  0  0  0  # atno 6907 bound_to 6896
  151.2923  133.4153  159.2641 H   0  0  0  0  0  0  0  0  0  0  0  0  # atno 6908 bound_to 6896
  151.0190  134.9471  159.8106 H   0  0  0  0  0  0  0  0  0  0  0  0  # atno 6909 bound_to 6896
  144.9358  139.4991  143.5596 H   0  0  0  0  0  0  0  0  0  0  0  0  # atno 7974 bound_to 7965
  156.2578  140.1992  156.6500 H   0  0  0  0  0  0  0  0  0  0  0  0  # atno 8008 bound_to 7997
  154.6544  140.0568  157.0017 H   0  0  0  0  0  0  0  0  0  0  0  0  # atno 8009 bound_to 7997
  155.1369  140.3239  155.4464 H   0  0  0  0  0  0  0  0  0  0  0  0  # atno 8010 bound_to 7997
  139.5532  144.6829  151.4262 H   0  0  0  0  0  0  0  0  0  0  0  0  # atno 10167 bound_to 10162
  156.9371  130.9989  151.2976 H   0  0  0  0  0  0  0  0  0  0  0  0  # atno 10718 bound_to 10713
  153.0167  135.6362  154.1660 H   0  0  0  0  0  0  0  0  0  0  0  0  # atno 10763 bound_to 10752
  154.1398  135.2835  155.3165 H   0  0  0  0  0  0  0  0  0  0  0  0  # atno 10764 bound_to 10752
  154.6133  135.5549  153.7557 H   0  0  0  0  0  0  0  0  0  0  0  0  # atno 10765 bound_to 10752
  139.8778  134.8976  156.4235 H   0  0  0  0  0  0  0  0  0  0  0  0  # atno 11005 bound_to 11000
  146.3266  139.8341  142.8903 LP  0  0  0  0  0  0  0  0  0  0  0  0  # atno 17320 bound_to 7965
  145.3070  141.0209  143.3576 LP  0  0  0  0  0  0  0  0  0  0  0  0  # atno 17321 bound_to 7965
  140.6799  143.8106  150.7107 LP  0  0  0  0  0  0  0  0  0  0  0  0  # atno 17342 bound_to 10162
  140.1556  143.4320  152.2102 LP  0  0  0  0  0  0  0  0  0  0  0  0  # atno 17343 bound_to 10162
  157.5809  130.8375  149.8521 LP  0  0  0  0  0  0  0  0  0  0  0  0  # atno 17370 bound_to 10713
  156.0421  130.3736  150.1410 LP  0  0  0  0  0  0  0  0  0  0  0  0  # atno 17371 bound_to 10713
  140.9117  133.7707  155.9799 LP  0  0  0  0  0  0  0  0  0  0  0  0  # atno 17394 bound_to 11000
  140.8539  134.2921  157.5264 LP  0  0  0  0  0  0  0  0  0  0  0  0  # atno 17395 bound_to 11000

$$$$
