#       Name:                AV-unprocessed.smi:3031
#       Creating user name   scv26
#       Creation time:       Fri Mar 27 16:51:46 2020


#       File generated by GOLD software.
#

@<TRIPOS>MOLECULE
AV-unprocessed.smi:3031
    53    54     1
SMALL
NO_CHARGES


@<TRIPOS>ATOM
      1 ****        -5.1229   2.7957  -1.4490 C.3            1 S1                 0.0000
      2 ****        -4.3326   1.5208  -1.3822 C.2            1 S1                 0.0000
      3 ****        -3.5820   0.8993  -2.4203 C.2            1 S1                 0.0000
      4 ****        -3.0028  -0.2253  -2.0330 N.2            1 S1                 0.0000
      5 ****        -3.3446  -0.3531  -0.7327 N.pl3          1 S1                 0.0000
      6 ****        -2.8923  -1.5106   0.0224 C.3            1 S1                 0.0000
      7 ****        -2.1980  -1.1554   1.3613 C.3            1 S1                 0.0000
      8 ****        -2.2692  -2.3440   2.3305 C.3            1 S1                 0.0000
      9 ****        -0.7905  -0.7694   1.1999 N.3            1 S1                 0.0000
     10 ****        -0.5389   0.4723   0.4695 C.3            1 S1                 0.0000
     11 ****         0.9483   0.8575   0.5188 C.3            1 S1                 0.0000
     12 ****         1.0588   2.1624  -0.0111 O.3            1 S1                 0.0000
     13 ****         1.8225  -0.0854  -0.3370 C.3            1 S1                 0.0000
     14 ****         3.2676   0.1296  -0.2441 N.3            1 S1                 0.0000
     15 ****         3.9720  -0.6365  -1.2669 C.3            1 S1                 0.0000
     16 ****         5.4941  -0.4264  -1.1978 C.3            1 S1                 0.0000
     17 ****         5.9625  -0.7788   0.0994 O.3            1 S1                 0.0000
     18 ****         5.3345  -0.0256   1.1317 C.3            1 S1                 0.0000
     19 ****         3.8095  -0.2237   1.0670 C.3            1 S1                 0.0000
     20 ****        -4.1645   0.6772  -0.3210 C.2            1 S1                 0.0000
     21 ****        -5.0101   3.2935  -2.4125 H              1 S1                 0.0000
     22 ****        -4.8071   3.5044  -0.6831 H              1 S1                 0.0000
     23 ****        -6.1881   2.6164  -1.3027 H              1 S1                 0.0000
     24 ****        -3.4452   1.2286  -3.4399 H              1 S1                 0.0000
     25 ****        -3.7783  -2.1163   0.2165 H              1 S1                 0.0000
     26 ****        -2.2361  -2.1236  -0.5982 H              1 S1                 0.0000
     27 ****        -2.7381  -0.3358   1.8365 H              1 S1                 0.0000
     28 ****        -3.3030  -2.6206   2.5396 H              1 S1                 0.0000
     29 ****        -1.7978  -2.1046   3.2844 H              1 S1                 0.0000
     30 ****        -1.7666  -3.2212   1.9213 H              1 S1                 0.0000
     31 ****        -0.3508  -0.7155   2.1132 H              1 S1                 0.0000
     32 ****        -0.8471   0.3805  -0.5704 H              1 S1                 0.0000
     33 ****        -1.1337   1.2751   0.9075 H              1 S1                 0.0000
     34 ****         1.2734   0.8799   1.5583 H              1 S1                 0.0000
     35 ****         0.7900   2.1412  -0.9168 H              1 S1                 0.0000
     36 ****         1.6051  -1.1206  -0.0696 H              1 S1                 0.0000
     37 ****         1.5100   0.0180  -1.3773 H              1 S1                 0.0000
     38 ****         3.7502  -1.6987  -1.1519 H              1 S1                 0.0000
     39 ****         3.6149  -0.3491  -2.2565 H              1 S1                 0.0000
     40 ****         5.9970  -1.0470  -1.9395 H              1 S1                 0.0000
     41 ****         5.7523   0.6107  -1.4179 H              1 S1                 0.0000
     42 ****         5.7187  -0.3553   2.0970 H              1 S1                 0.0000
     43 ****         5.5910   1.0299   1.0280 H              1 S1                 0.0000
     44 ****         3.3511   0.3837   1.8461 H              1 S1                 0.0000
     45 ****         3.5710  -1.2628   1.2986 H              1 S1                 0.0000
     46 ****        -4.5536   0.7283   0.6852 H              1 S1                 0.0000
     47 ****        -2.4381  -0.8427  -2.5807 LP             1 S1                 0.0000
     48 ****        -0.3940  -1.4869   0.6272 LP             1 S1                 0.0000
     49 ****         2.0071   2.4733   0.0523 LP             1 S1                 0.0000
     50 ****         0.4686   2.7860   0.5016 LP             1 S1                 0.0000
     51 ****         3.4110   1.1090  -0.3861 LP             1 S1                 0.0000
     52 ****         6.9484  -0.6164   0.1389 LP             1 S1                 0.0000
     53 ****         5.7781  -1.7495   0.2537 LP             1 S1                 0.0000
@<TRIPOS>BOND
    1    1    2 1     
    2    1   21 1     
    3    1   22 1     
    4    1   23 1     
    5    2   20 2     
    6    2    3 1     
    7    3    4 2     
    8    3   24 1     
    9    4    5 1     
   10    5    6 1     
   11    5   20 1     
   12    6    7 1     
   13    6   25 1     
   14    6   26 1     
   15    7    8 1     
   16    7    9 1     
   17    7   27 1     
   18    8   28 1     
   19    8   29 1     
   20    8   30 1     
   21    9   10 1     
   22    9   31 1     
   23   10   11 1     
   24   10   32 1     
   25   10   33 1     
   26   11   12 1     
   27   11   13 1     
   28   11   34 1     
   29   12   35 1     
   30   13   14 1     
   31   13   36 1     
   32   13   37 1     
   33   14   19 1     
   34   14   15 1     
   35   15   16 1     
   36   15   38 1     
   37   15   39 1     
   38   16   17 1     
   39   16   40 1     
   40   16   41 1     
   41   17   18 1     
   42   18   19 1     
   43   18   42 1     
   44   18   43 1     
   45   19   44 1     
   46   19   45 1     
   47   20   46 1     
   48    4   47 1     
   49    9   48 1     
   50   12   49 1     
   51   12   50 1     
   52   14   51 1     
   53   17   52 1     
   54   17   53 1     
@<TRIPOS>SUBSTRUCTURE
      1 S1             1
@<TRIPOS>SET
LONE_PAIRS      STATIC     ATOMS    <user>   **** ""
7 47 48 49 50 51 52 53
DONOR_HYDROGENS      STATIC     ATOMS    <user>   **** ""
2 31 35
ATOM$BLUE        STATIC     ATOMS    COLORGROUP SYSTEM
7 47 48 49 50 51 52 53
ATOM$RED        STATIC     ATOMS    COLORGROUP SYSTEM
2 31 35
