AV-unprocessed.smi:40|AV-procd|sdf|369|dock9
  -GOLD-   2262016213D 1   1.00000     0.00000
 Structure written by MMmdl.
 47 48  0  0  0  0  0  0  0  0  1 V2000
  151.9463  145.6135  159.2768 C   0  0  0  0  0  0  0  0  0  0  0  0
  152.0154  144.0896  159.1303 C   0  0  0  0  0  0  0  0  0  0  0  0
  151.5231  143.6060  157.7587 C   0  0  0  0  0  0  0  0  0  0  0  0
  151.2781  142.0918  157.7213 C   0  0  0  0  0  0  0  0  0  0  0  0
  151.1468  141.5576  156.2867 C   0  0  0  0  0  0  0  0  0  0  0  0
  150.6152  140.2399  156.2869 O   0  0  0  0  0  0  0  0  0  0  0  0
  149.8326  139.8071  155.2729 C   0  0  0  0  0  0  0  0  0  0  0  0
  149.9210  140.2006  154.1102 O   0  0  0  0  0  0  0  0  0  0  0  0
  148.9028  138.7956  155.7324 N   0  0  0  0  0  0  0  0  0  0  0  0
  147.9808  138.1521  154.9845 C   0  0  0  0  0  0  0  0  0  0  0  0
  147.7002  138.6563  153.7970 N   0  0  0  0  0  0  0  0  0  0  0  0
  146.7967  138.1006  152.9308 C   0  0  0  0  0  0  0  0  0  0  0  0
  146.6015  138.5954  151.8215 O   0  0  0  0  0  0  0  0  0  0  0  0
  146.1165  136.9363  153.3580 N   0  0  0  0  0  0  0  0  0  0  0  0
  145.1310  136.2793  152.4215 C   0  0  2  0  0  0  0  0  0  0  0  0
  144.5329  135.1981  153.0809 O   0  0  0  0  0  0  0  0  0  0  0  0
  144.6064  134.0195  152.2843 C   0  0  1  0  0  0  0  0  0  0  0  0
  143.2836  133.8588  151.5131 C   0  0  0  0  0  0  0  0  0  0  0  0
  145.8540  134.2480  151.4246 C   0  0  1  0  0  0  0  0  0  0  0  0
  145.9162  133.4665  150.2469 O   0  0  0  0  0  0  0  0  0  0  0  0
  145.8601  135.7508  151.1742 C   0  0  1  0  0  0  0  0  0  0  0  0
  145.1784  136.1165  149.9883 O   0  0  0  0  0  0  0  0  0  0  0  0
  146.3945  136.3942  154.6040 C   0  0  0  0  0  0  0  0  0  0  0  0
  147.2952  136.9549  155.4386 C   0  0  0  0  0  0  0  0  0  0  0  0
  147.5270  136.4167  156.6489 F   0  0  0  0  0  0  0  0  0  0  0  0
  144.3633  137.0240  152.2048 H   0  0  0  0  0  0  0  0  0  0  0  0
  144.7433  133.1519  152.9308 H   0  0  0  0  0  0  0  0  0  0  0  0
  146.7273  134.0012  152.0302 H   0  0  0  0  0  0  0  0  0  0  0  0
  146.8768  136.1422  151.1156 H   0  0  0  0  0  0  0  0  0  0  0  0
  152.2973  145.9253  160.2608 H   0  0  0  0  0  0  0  0  0  0  0  0
  150.9244  145.9748  159.1582 H   0  0  0  0  0  0  0  0  0  0  0  0
  152.5669  146.1094  158.5299 H   0  0  0  0  0  0  0  0  0  0  0  0
  153.0433  143.7604  159.2871 H   0  0  0  0  0  0  0  0  0  0  0  0
  151.4195  143.6261  159.9173 H   0  0  0  0  0  0  0  0  0  0  0  0
  150.6012  144.1281  157.4989 H   0  0  0  0  0  0  0  0  0  0  0  0
  152.2553  143.8729  156.9955 H   0  0  0  0  0  0  0  0  0  0  0  0
  152.0983  141.5776  158.2237 H   0  0  0  0  0  0  0  0  0  0  0  0
  150.3743  141.8579  158.2851 H   0  0  0  0  0  0  0  0  0  0  0  0
  150.5364  142.2246  155.6758 H   0  0  0  0  0  0  0  0  0  0  0  0
  152.1312  141.5220  155.8195 H   0  0  0  0  0  0  0  0  0  0  0  0
  148.9325  138.6077  156.7238 H   0  0  0  0  0  0  0  0  0  0  0  0
  143.2977  132.9687  150.8838 H   0  0  0  0  0  0  0  0  0  0  0  0
  143.0732  134.7164  150.8749 H   0  0  0  0  0  0  0  0  0  0  0  0
  142.4477  133.7551  152.2052 H   0  0  0  0  0  0  0  0  0  0  0  0
  146.1218  134.0394  149.5236 H   0  0  0  0  0  0  0  0  0  0  0  0
  145.4467  135.5306  149.2966 H   0  0  0  0  0  0  0  0  0  0  0  0
  145.8870  135.4992  154.9331 H   0  0  0  0  0  0  0  0  0  0  0  0
  1  2  1  0  0  0  0
  1 30  1  0  0  0  0
  1 31  1  0  0  0  0
  1 32  1  0  0  0  0
  2  3  1  0  0  0  0
  2 33  1  0  0  0  0
  2 34  1  0  0  0  0
  3  4  1  0  0  0  0
  3 35  1  0  0  0  0
  3 36  1  0  0  0  0
  4  5  1  0  0  0  0
  4 37  1  0  0  0  0
  4 38  1  0  0  0  0
  5  6  1  0  0  0  0
  5 39  1  0  0  0  0
  5 40  1  0  0  0  0
  6  7  1  0  0  0  0
  7  8  2  0  0  0  0
  7  9  1  0  0  0  0
  9 10  1  0  0  0  0
  9 41  1  0  0  0  0
 10 24  1  0  0  0  0
 10 11  2  0  0  0  0
 11 12  1  0  0  0  0
 12 13  2  0  0  0  0
 12 14  1  0  0  0  0
 14 15  1  0  0  0  0
 14 23  1  0  0  0  0
 15 26  1  0  0  0  0
 15 21  1  0  0  0  0
 15 16  1  0  0  0  0
 16 17  1  0  0  0  0
 17 27  1  0  0  0  0
 17 18  1  0  0  0  0
 17 19  1  0  0  0  0
 18 42  1  0  0  0  0
 18 43  1  0  0  0  0
 18 44  1  0  0  0  0
 19 28  1  0  0  0  0
 19 20  1  0  0  0  0
 19 21  1  0  0  0  0
 20 45  1  0  0  0  0
 21 29  1  0  0  0  0
 21 22  1  0  0  0  0
 22 46  1  0  0  0  0
 23 24  2  0  0  0  0
 23 47  1  0  0  0  0
 24 25  1  0  0  0  0
M  END
> <s_m_source_file>
AV-unprocessed.smi

> <i_m_source_file_index>
40

> <i_lp_mmshare_version>
43012

> <i_f3d_flags>
0

> <s_epik_input>
W0NIM11bQ0gyXVtDSDJdW0NIMl1bQ0gyXU9DKD1PKVtOSF1jMW5jKD1PKW4oW2NIXWMxRilbQ0BASF0yT1tDQEhdKFtDSDNdKVtDQEBIXShbT0hdKVtDQEhdMltPSF0=

> <s_epik_cmdline>
J2VwaWtfcHl0aG9uJywgJy1waCcsICc3LjAnLCAnLXRuJywgJzgnLCAnLW1hJywgJzIwMCcsICctbWV0YWxfYmluZGluZycsICctaW1hZScsICc8aW5maWxlLm1hZT4nLCAnLW9tYWUnLCAnPG91dGZpbGUubWFlPic=

> <r_lp_tautomer_probability>
1

> <r_epik_Ionization_Penalty>
2.29506e-06

> <r_epik_Ionization_Penalty_Charging>
8.26867e-09

> <r_epik_Ionization_Penalty_Neutral>
2.2868e-06

> <r_epik_State_Penalty>
-0

> <r_epik_Charging_Adjusted_Penalty>
8.26867e-09

> <i_epik_Tot_Q>
0

> <i_epik_Tot_abs_Q>
0

> <r_epik_Metal_State_Penalty>
-0

> <b_epik_Metal_Only>
0

> <s_epik_Chemistry_Notes>
This compound has an ester and may undergo hydrolysis at high or low pH. This compound contains an acetal/aminal-like group ( X-CH(R)-Y where X, Y are N, S, or O) that may be acid/base labile, releasing an aldehyde.

> <s_lp_Force_Field>
OPLS_2005

> <r_lp_Energy>
36.9864

> <b_lp_Chiralities_Consistent>
1

> <s_lp_Variant>
AV-unprocessed.smi:40-3

> <Gold.Version>
5.8.1

> <Gold.Id.Protein>
6NUR|6NUR_protein|mol2

> <Gold.PLP.Fitness>
41.7032

> <Gold.PLP.PLP>
-34.8484

> <Gold.PLP.part.hbond>
-4.0000

> <Gold.PLP.part.metal>
0.0000

> <Gold.PLP.part.buried>
-4.8787

> <Gold.PLP.part.nonpolar>
-28.0071

> <Gold.PLP.part.repulsive>
1.8331

> <Gold.PLP.ligand.clash>
0.0000

> <Gold.PLP.ligand.torsion>
0.8224

> <Gold.PLP.Chemscore.Hbond>
2.8160

> <Gold.PLP.Chemscore.CHOScore>
0.0000

> <Gold.PLP.Chemscore.Metal>
0.0000

> <Gold.Chemscore.Hbonds>
donor molecule, donor type, donor heavy atom, donor atom, acceptor molecule, acceptor atom, score
      L1  H    20    45       P1  7921  0.79
      L1  H    22    46       P1  7921  1.00
      P1  H  7989  7998       L1     8  0.86

> <Gold.PLP.Chemscore.Internal.Correction>
0.0515

> <Gold.Rescore>
     Score         DG    S(hbond)    S(metal)    S(lipo)     H(rot)  DE(clash)    DE(int)     intcor
      8.09     -11.57       2.03        0.00      74.84       3.70       0.98       2.49       ----

> <Gold.Chemscore.Fitness>
8.0944

> <Gold.Chemscore.DG>
-11.5652

> <Gold.Chemscore.ZeroCoef>
-5.4800

> <Gold.Chemscore.Hbond>
2.0330

> <Gold.Chemscore.Metal>
0.0000

> <Gold.Chemscore.Lipo>
74.8384

> <Gold.Chemscore.Internal_Hbond>
0.0000

> <Gold.Chemscore.DEClash>
0.9777

> <Gold.Chemscore.DEInternal>
2.4930

> <Gold.Chemscore.Rot>
3.6957

> <Gold.Chemscore.Internal.Correction>
   9.000000E+99

> <Gold.Chemscore.Hbonds>
donor molecule, donor type, donor heavy atom, donor atom, acceptor molecule, acceptor atom, score
      L1  H    20    45       P1  7921  0.11
      L1  H    22    46       P1  7921  0.99
      P1  H  7989  7998       L1     8  0.82

> <Gold.Chemscore.Hbond.Weighted>
-6.7901

> <Gold.Chemscore.Metal.Weighted>
-0.0000

> <Gold.Chemscore.Lipo.Weighted>
-8.7561

> <Gold.Chemscore.Internal_Hbond.Weighted>
0.0000

> <Gold.Chemscore.DEClash.Weighted>
0.9777

> <Gold.Chemscore.DEInternal.Weighted>
2.4930

> <Gold.Chemscore.Rot.Weighted>
9.4610

> <Gold.Chemscore.Internal.Correction.Weighted>
   9.000000E+99

> <Gold.Protein.RotatedTorsions>
[ 6907 6896 6895 6894 ] final -110.82 input  -60.11 | X-H torsion
[ 7974 7965 7964 7962 ] final    6.44 input  175.53 | X-H torsion
[ 8008 7997 7996 7995 ] final -132.36 input   59.86 | X-H torsion
[ 10167 10162 10161 10158 ] final   10.98 input  -65.29 | X-H torsion
[ 10718 10713 10712 10709 ] final  -41.79 input   66.30 | X-H torsion
[ 10763 10752 10751 10750 ] final  147.73 input  -60.55 | X-H torsion
[ 11005 11000 10999 10996 ] final  163.94 input  -57.11 | X-H torsion

> <Gold.Protein.ActiveResidues>
 VAL166  LYS551  ARG553  GLY616  TRP617  ASP618  TYR619  PRO620  LYS621  CYS622 
 ASP623  PHE694  ASN695  SER759  ASP760  ASP761  ALA762  ILE779  LEU786  VAL792 
 PHE793  MET794  SER795  GLU796  ALA797  LYS798  CYS799  TRP800  GLU811  SER814 

> <Gold.Protein.RotatedAtoms>
  150.7649  133.9326  159.3431 H   0  0  0  0  0  0  0  0  0  0  0  0  # atno 6907 bound_to 6896
  151.7226  135.0889  160.0296 H   0  0  0  0  0  0  0  0  0  0  0  0  # atno 6908 bound_to 6896
  152.3640  133.6295  159.6072 H   0  0  0  0  0  0  0  0  0  0  0  0  # atno 6909 bound_to 6896
  146.2434  140.0234  142.8396 H   0  0  0  0  0  0  0  0  0  0  0  0  # atno 7974 bound_to 7965
  155.3276  140.0465  157.3041 H   0  0  0  0  0  0  0  0  0  0  0  0  # atno 8008 bound_to 7997
  154.5346  140.2268  155.8711 H   0  0  0  0  0  0  0  0  0  0  0  0  # atno 8009 bound_to 7997
  156.1822  140.3071  155.9176 H   0  0  0  0  0  0  0  0  0  0  0  0  # atno 8010 bound_to 7997
  140.6161  143.8306  150.7120 H   0  0  0  0  0  0  0  0  0  0  0  0  # atno 10167 bound_to 10162
  156.2666  130.4202  149.8484 H   0  0  0  0  0  0  0  0  0  0  0  0  # atno 10718 bound_to 10713
  154.0432  135.2888  155.3352 H   0  0  0  0  0  0  0  0  0  0  0  0  # atno 10763 bound_to 10752
  154.6916  135.5224  153.8404 H   0  0  0  0  0  0  0  0  0  0  0  0  # atno 10764 bound_to 10752
  153.0591  135.6607  154.0634 H   0  0  0  0  0  0  0  0  0  0  0  0  # atno 10765 bound_to 10752
  140.2409  134.8052  157.3409 H   0  0  0  0  0  0  0  0  0  0  0  0  # atno 11005 bound_to 11000
  145.1220  140.9468  143.4594 LP  0  0  0  0  0  0  0  0  0  0  0  0  # atno 17320 bound_to 7965
  145.0471  139.3212  143.5947 LP  0  0  0  0  0  0  0  0  0  0  0  0  # atno 17321 bound_to 7965
  140.1885  143.4056  152.1881 LP  0  0  0  0  0  0  0  0  0  0  0  0  # atno 17342 bound_to 10162
  139.5399  144.7247  151.4767 LP  0  0  0  0  0  0  0  0  0  0  0  0  # atno 17343 bound_to 10162
  156.5980  130.8535  151.3425 LP  0  0  0  0  0  0  0  0  0  0  0  0  # atno 17370 bound_to 10713
  157.7269  130.9636  150.1677 LP  0  0  0  0  0  0  0  0  0  0  0  0  # atno 17371 bound_to 10713
  140.1655  134.4675  155.7866 LP  0  0  0  0  0  0  0  0  0  0  0  0  # atno 17394 bound_to 11000
  141.2210  133.6919  156.7617 LP  0  0  0  0  0  0  0  0  0  0  0  0  # atno 17395 bound_to 11000

$$$$
