AV-unprocessed.smi:2124|AV-procd|sdf|8654|dock2
  -GOLD-   2272011403D 1   1.00000     0.00000
 Structure written by MMmdl.
 47 49  0  0  0  0  0  0  0  0  1 V2000
  148.1735  140.3672  153.5992 C   0  0  0  0  0  0  0  0  0  0  0  0
  149.1897  139.8154  154.5762 C   0  0  0  0  0  0  0  0  0  0  0  0
  150.4306  139.6040  154.2828 N   0  0  0  0  0  0  0  0  0  0  0  0
  151.2802  139.0938  155.2743 C   0  0  0  0  0  0  0  0  0  0  0  0
  152.7241  138.8810  154.8536 C   0  0  0  0  0  0  0  0  0  0  0  0
  150.8248  138.8106  156.5299 C   0  0  0  0  0  0  0  0  0  0  0  0
  151.7197  138.2615  157.6396 C   0  0  0  0  0  0  0  0  0  0  0  0
  152.7488  139.2384  158.2152 C   0  0  0  0  0  0  0  0  0  0  0  0
  153.9411  138.9354  158.2645 O   0  0  0  0  0  0  0  0  0  0  0  0
  152.2676  140.4154  158.6428 N   0  0  0  0  0  0  0  0  0  0  0  0
  153.0623  141.5123  159.1929 C   0  0  2  0  0  0  0  0  0  0  0  0
  153.7699  141.0225  160.4691 C   0  0  0  0  0  0  0  0  0  0  0  0
  152.1456  142.7357  159.4417 C   0  0  2  0  0  0  0  0  0  0  0  0
  151.1568  143.0171  158.2812 C   0  0  0  0  0  0  0  0  0  0  0  0
  151.4117  144.4969  157.9467 C   0  0  1  0  0  0  0  0  0  0  0  0
  150.9027  145.3825  159.0981 C   0  0  0  0  0  0  0  0  0  0  0  0
  151.9405  145.1240  160.2061 C   0  0  0  0  0  0  0  0  0  0  0  0
  152.8843  144.0936  159.5557 C   0  0  2  0  0  0  0  0  0  0  0  0
  152.9220  144.5897  158.1138 C   0  0  0  0  0  0  0  0  0  0  0  0
  149.4066  139.0560  156.8541 C   0  0  0  0  0  0  0  0  0  0  0  0
  148.8971  138.8449  157.9536 O   0  0  0  0  0  0  0  0  0  0  0  0
  148.6633  139.5522  155.8398 N   0  0  0  0  0  0  0  0  0  0  0  0
  147.6867  139.7406  156.0124 H   0  0  0  0  0  0  0  0  0  0  0  0
  148.4989  141.3401  153.2301 H   0  0  0  0  0  0  0  0  0  0  0  0
  147.1931  140.4888  154.0622 H   0  0  0  0  0  0  0  0  0  0  0  0
  148.0681  139.6946  152.7478 H   0  0  0  0  0  0  0  0  0  0  0  0
  152.9579  137.8168  154.8248 H   0  0  0  0  0  0  0  0  0  0  0  0
  153.4069  139.3679  155.5501 H   0  0  0  0  0  0  0  0  0  0  0  0
  152.9123  139.2935  153.8617 H   0  0  0  0  0  0  0  0  0  0  0  0
  151.0997  137.8730  158.4493 H   0  0  0  0  0  0  0  0  0  0  0  0
  152.2646  137.3941  157.2682 H   0  0  0  0  0  0  0  0  0  0  0  0
  151.2738  140.5742  158.5619 H   0  0  0  0  0  0  0  0  0  0  0  0
  153.8254  141.7977  158.4668 H   0  0  0  0  0  0  0  0  0  0  0  0
  154.4450  141.7753  160.8740 H   0  0  0  0  0  0  0  0  0  0  0  0
  154.3708  140.1349  160.2678 H   0  0  0  0  0  0  0  0  0  0  0  0
  153.0513  140.7652  161.2477 H   0  0  0  0  0  0  0  0  0  0  0  0
  151.5836  142.5510  160.3589 H   0  0  0  0  0  0  0  0  0  0  0  0
  151.3775  142.4019  157.4074 H   0  0  0  0  0  0  0  0  0  0  0  0
  150.1208  142.8263  158.5632 H   0  0  0  0  0  0  0  0  0  0  0  0
  151.0369  144.7936  156.9666 H   0  0  0  0  0  0  0  0  0  0  0  0
  150.9025  146.4345  158.8106 H   0  0  0  0  0  0  0  0  0  0  0  0
  149.8900  145.1181  159.4054 H   0  0  0  0  0  0  0  0  0  0  0  0
  152.4784  146.0419  160.4463 H   0  0  0  0  0  0  0  0  0  0  0  0
  151.4868  144.7547  161.1265 H   0  0  0  0  0  0  0  0  0  0  0  0
  153.8562  144.0473  160.0453 H   0  0  0  0  0  0  0  0  0  0  0  0
  153.4745  143.9336  157.4393 H   0  0  0  0  0  0  0  0  0  0  0  0
  153.3064  145.6066  158.0158 H   0  0  0  0  0  0  0  0  0  0  0  0
  1  2  1  0  0  0  0
  1 24  1  0  0  0  0
  1 25  1  0  0  0  0
  1 26  1  0  0  0  0
  2 22  1  0  0  0  0
  2  3  2  0  0  0  0
  3  4  1  0  0  0  0
  4  5  1  0  0  0  0
  4  6  2  0  0  0  0
  5 27  1  0  0  0  0
  5 28  1  0  0  0  0
  5 29  1  0  0  0  0
  6  7  1  0  0  0  0
  6 20  1  0  0  0  0
  7  8  1  0  0  0  0
  7 30  1  0  0  0  0
  7 31  1  0  0  0  0
  8  9  2  0  0  0  0
  8 10  1  0  0  0  0
 10 11  1  0  0  0  0
 10 32  1  0  0  0  0
 11 12  1  0  0  0  0
 11 13  1  0  0  0  0
 11 33  1  0  0  0  0
 12 34  1  0  0  0  0
 12 35  1  0  0  0  0
 12 36  1  0  0  0  0
 13 18  1  0  0  0  0
 13 14  1  0  0  0  0
 13 37  1  0  0  0  0
 14 15  1  0  0  0  0
 14 38  1  0  0  0  0
 14 39  1  0  0  0  0
 15 19  1  0  0  0  0
 15 16  1  0  0  0  0
 15 40  1  0  0  0  0
 16 17  1  0  0  0  0
 16 41  1  0  0  0  0
 16 42  1  0  0  0  0
 17 18  1  0  0  0  0
 17 43  1  0  0  0  0
 17 44  1  0  0  0  0
 18 19  1  0  0  0  0
 18 45  1  0  0  0  0
 19 46  1  0  0  0  0
 19 47  1  0  0  0  0
 20 21  2  0  0  0  0
 20 22  1  0  0  0  0
 22 23  1  0  0  0  0
M  END
> <s_m_source_file>
AV-unprocessed.smi

> <i_m_source_file_index>
2124

> <i_lp_mmshare_version>
43012

> <i_f3d_flags>
0

> <s_epik_input>
W0NIM11jMW5jKFtDSDNdKWMoYyg9TylbbkhdMSlbQ0gyXUMoPU8pW05IXVtDQEhdKFtDSDNdKVtDQEhdKFtDSDJdW0NASF0yMylbQ0BIXShbQ0gyXTMpW0NIMl1bQ0gyXTI=

> <s_epik_cmdline>
J2VwaWtfcHl0aG9uJywgJy1waCcsICc3LjAnLCAnLXRuJywgJzgnLCAnLW1hJywgJzIwMCcsICctbWV0YWxfYmluZGluZycsICctaW1hZScsICc8aW5maWxlLm1hZT4nLCAnLW9tYWUnLCAnPG91dGZpbGUubWFlPic=

> <r_lp_tautomer_probability>
0.839158

> <r_epik_Ionization_Penalty>
0.000383628

> <r_epik_Ionization_Penalty_Charging>
0.00035045

> <r_epik_Ionization_Penalty_Neutral>
3.31781e-05

> <r_epik_State_Penalty>
0.09125

> <r_epik_Charging_Adjusted_Penalty>
0.0916005

> <i_epik_Tot_Q>
0

> <i_epik_Tot_abs_Q>
0

> <r_epik_Metal_State_Penalty>
0.255229

> <b_epik_Metal_Only>
0

> <s_lp_Force_Field>
OPLS_2005

> <r_lp_Energy>
52.554

> <b_lp_Chiralities_Consistent>
1

> <s_lp_Variant>
AV-unprocessed.smi:2124-5

> <Gold.Version>
5.8.1

> <Gold.Id.Protein>
6NUR|6NUR_protein|mol2

> <Gold.PLP.Fitness>
51.0240

> <Gold.PLP.PLP>
-45.9139

> <Gold.PLP.part.hbond>
-2.0000

> <Gold.PLP.part.metal>
0.0000

> <Gold.PLP.part.buried>
-3.6370

> <Gold.PLP.part.nonpolar>
-40.7971

> <Gold.PLP.part.repulsive>
0.2607

> <Gold.PLP.ligand.clash>
0.0000

> <Gold.PLP.ligand.torsion>
0.4606

> <Gold.PLP.Chemscore.Hbond>
2.0000

> <Gold.PLP.Chemscore.CHOScore>
0.0000

> <Gold.PLP.Chemscore.Metal>
0.0000

> <Gold.Chemscore.Hbonds>
donor molecule, donor type, donor heavy atom, donor atom, acceptor molecule, acceptor atom, score
      P1  H  7989  7998       L1     3  0.95
      P1  H  7997  8008       L1     9  0.99

> <Gold.PLP.Chemscore.Internal.Correction>
0.0311

> <Gold.Rescore>
     Score         DG    S(hbond)    S(metal)    S(lipo)     H(rot)  DE(clash)    DE(int)     intcor
     19.93     -20.60       1.02        0.00     136.36       1.65       0.12       0.55       ----

> <Gold.Chemscore.Fitness>
19.9265

> <Gold.Chemscore.DG>
-20.5973

> <Gold.Chemscore.ZeroCoef>
-5.4800

> <Gold.Chemscore.Hbond>
1.0169

> <Gold.Chemscore.Metal>
0.0000

> <Gold.Chemscore.Lipo>
136.3560

> <Gold.Chemscore.Internal_Hbond>
0.0000

> <Gold.Chemscore.DEClash>
0.1181

> <Gold.Chemscore.DEInternal>
0.5528

> <Gold.Chemscore.Rot>
1.6534

> <Gold.Chemscore.Internal.Correction>
   9.000000E+99

> <Gold.Chemscore.Hbonds>
donor molecule, donor type, donor heavy atom, donor atom, acceptor molecule, acceptor atom, score
      P1  H  7989  7998       L1     3  0.21
      P1  H  7997  8008       L1     9  0.88

> <Gold.Chemscore.Hbond.Weighted>
-3.3963

> <Gold.Chemscore.Metal.Weighted>
-0.0000

> <Gold.Chemscore.Lipo.Weighted>
-15.9537

> <Gold.Chemscore.Internal_Hbond.Weighted>
0.0000

> <Gold.Chemscore.DEClash.Weighted>
0.1181

> <Gold.Chemscore.DEInternal.Weighted>
0.5528

> <Gold.Chemscore.Rot.Weighted>
4.2326

> <Gold.Chemscore.Internal.Correction.Weighted>
   9.000000E+99

> <Gold.Protein.RotatedTorsions>
[ 6907 6896 6895 6894 ] final  -56.91 input  -60.11 | X-H torsion
[ 7974 7965 7964 7962 ] final -142.88 input  175.53 | X-H torsion
[ 8008 7997 7996 7995 ] final -119.10 input   59.86 | X-H torsion
[ 10167 10162 10161 10158 ] final  -16.74 input  -65.29 | X-H torsion
[ 10718 10713 10712 10709 ] final  132.99 input   66.30 | X-H torsion
[ 10763 10752 10751 10750 ] final   71.52 input  -60.55 | X-H torsion
[ 11005 11000 10999 10996 ] final   33.65 input  -57.11 | X-H torsion

> <Gold.Protein.ActiveResidues>
 VAL166  LYS551  ARG553  GLY616  TRP617  ASP618  TYR619  PRO620  LYS621  CYS622 
 ASP623  PHE694  ASN695  SER759  ASP760  ASP761  ALA762  ILE779  LEU786  VAL792 
 PHE793  MET794  SER795  GLU796  ALA797  LYS798  CYS799  TRP800  GLU811  SER814 

> <Gold.Protein.RotatedAtoms>
  150.8128  134.7293  159.6703 H   0  0  0  0  0  0  0  0  0  0  0  0  # atno 6907 bound_to 6896
  152.4248  134.5885  159.9977 H   0  0  0  0  0  0  0  0  0  0  0  0  # atno 6908 bound_to 6896
  151.6090  133.3312  159.3099 H   0  0  0  0  0  0  0  0  0  0  0  0  # atno 6909 bound_to 6896
  144.8411  140.5904  143.5452 H   0  0  0  0  0  0  0  0  0  0  0  0  # atno 7974 bound_to 7965
  155.1103  140.0397  157.2722 H   0  0  0  0  0  0  0  0  0  0  0  0  # atno 8008 bound_to 7997
  154.6690  140.2608  155.7002 H   0  0  0  0  0  0  0  0  0  0  0  0  # atno 8009 bound_to 7997
  156.2650  140.2801  156.1192 H   0  0  0  0  0  0  0  0  0  0  0  0  # atno 8010 bound_to 7997
  140.7238  143.5086  150.9778 H   0  0  0  0  0  0  0  0  0  0  0  0  # atno 10167 bound_to 10162
  157.4817  131.1086  150.9672 H   0  0  0  0  0  0  0  0  0  0  0  0  # atno 10718 bound_to 10713
  153.0404  135.5134  154.7606 H   0  0  0  0  0  0  0  0  0  0  0  0  # atno 10763 bound_to 10752
  154.6548  135.2930  154.9944 H   0  0  0  0  0  0  0  0  0  0  0  0  # atno 10764 bound_to 10752
  154.0815  135.6663  153.4891 H   0  0  0  0  0  0  0  0  0  0  0  0  # atno 10765 bound_to 10752
  140.2609  134.3193  155.7858 H   0  0  0  0  0  0  0  0  0  0  0  0  # atno 11005 bound_to 11000
  145.4693  139.1505  143.3823 LP  0  0  0  0  0  0  0  0  0  0  0  0  # atno 17320 bound_to 7965
  146.2703  140.4825  142.8817 LP  0  0  0  0  0  0  0  0  0  0  0  0  # atno 17321 bound_to 7965
  139.8798  143.7086  152.3158 LP  0  0  0  0  0  0  0  0  0  0  0  0  # atno 17342 bound_to 10162
  139.7364  144.7570  151.0721 LP  0  0  0  0  0  0  0  0  0  0  0  0  # atno 17343 bound_to 10162
  157.0403  130.5746  149.5355 LP  0  0  0  0  0  0  0  0  0  0  0  0  # atno 17370 bound_to 10713
  156.0125  130.5218  150.8033 LP  0  0  0  0  0  0  0  0  0  0  0  0  # atno 17371 bound_to 10713
  141.2190  133.7409  156.9186 LP  0  0  0  0  0  0  0  0  0  0  0  0  # atno 17394 bound_to 11000
  140.1465  134.9259  157.2536 LP  0  0  0  0  0  0  0  0  0  0  0  0  # atno 17395 bound_to 11000

$$$$
