AV-unprocessed.smi:3312|AV-procd|sdf|12727|dock10
  -GOLD-   2272019 73D 1   1.00000     0.00000
 Structure written by MMmdl.
 39 40  0  0  0  0  0  0  0  0  2 V2000
  145.3459  133.3214  150.3626 C   0  0  0  0  0  0  0  0  0  0  0  0
  145.0457  134.5851  151.1159 C   0  0  0  0  0  0  0  0  0  0  0  0
  143.7723  135.0864  151.5083 C   0  0  0  0  0  0  0  0  0  0  0  0
  143.8513  136.2346  152.1601 N   0  0  0  0  0  0  0  0  0  0  0  0
  145.1732  136.5022  152.2158 N   0  0  0  0  0  0  0  0  0  0  0  0
  145.6382  137.7115  152.8722 C   0  0  0  0  0  0  0  0  0  0  0  0
  146.4967  138.5852  151.9434 C   0  0  0  0  0  0  0  0  0  0  0  0
  147.8299  138.8433  152.5292 N   0  3  0  0  0  0  0  0  0  0  0  0
  147.8088  139.5708  153.8167 C   0  0  0  0  0  0  0  0  0  0  0  0
  149.2025  140.0518  154.2578 C   0  0  0  0  0  0  0  0  0  0  0  0
  149.5643  141.1875  153.9445 O   0  0  0  0  0  0  0  0  0  0  0  0
  149.9874  139.2190  154.9815 N   0  0  0  0  0  0  0  0  0  0  0  0
  149.6524  137.8508  155.3881 C   0  0  0  0  0  0  0  0  0  0  0  0
  150.6314  136.8886  154.6921 C   0  0  0  0  0  0  0  0  0  0  0  0
  151.9693  137.2313  155.0458 O   0  0  0  0  0  0  0  0  0  0  0  0
  152.3182  138.5689  154.6961 C   0  0  0  0  0  0  0  0  0  0  0  0
  151.3562  139.5544  155.3843 C   0  0  0  0  0  0  0  0  0  0  0  0
  145.9169  135.5271  151.5854 C   0  0  0  0  0  0  0  0  0  0  0  0
  144.4672  132.9446  149.8385 H   0  0  0  0  0  0  0  0  0  0  0  0
  145.6881  132.5282  151.0277 H   0  0  0  0  0  0  0  0  0  0  0  0
  146.1242  133.4724  149.6142 H   0  0  0  0  0  0  0  0  0  0  0  0
  142.7979  134.6528  151.3378 H   0  0  0  0  0  0  0  0  0  0  0  0
  144.7749  138.2720  153.2339 H   0  0  0  0  0  0  0  0  0  0  0  0
  146.2151  137.4209  153.7511 H   0  0  0  0  0  0  0  0  0  0  0  0
  146.6261  138.0898  150.9808 H   0  0  0  0  0  0  0  0  0  0  0  0
  145.9850  139.5275  151.7434 H   0  0  0  0  0  0  0  0  0  0  0  0
  148.2929  137.9583  152.6827 H   0  0  0  0  0  0  0  0  0  0  0  0
  147.1711  140.4468  153.6931 H   0  0  0  0  0  0  0  0  0  0  0  0
  147.3547  138.9383  154.5807 H   0  0  0  0  0  0  0  0  0  0  0  0
  149.7541  137.7647  156.4710 H   0  0  0  0  0  0  0  0  0  0  0  0
  148.6269  137.5609  155.1657 H   0  0  0  0  0  0  0  0  0  0  0  0
  150.4365  135.8617  155.0015 H   0  0  0  0  0  0  0  0  0  0  0  0
  150.5098  136.9260  153.6082 H   0  0  0  0  0  0  0  0  0  0  0  0
  153.3439  138.7604  155.0113 H   0  0  0  0  0  0  0  0  0  0  0  0
  152.2884  138.6899  153.6120 H   0  0  0  0  0  0  0  0  0  0  0  0
  151.6375  140.5776  155.1322 H   0  0  0  0  0  0  0  0  0  0  0  0
  151.4458  139.4746  156.4686 H   0  0  0  0  0  0  0  0  0  0  0  0
  146.9942  135.5803  151.5253 H   0  0  0  0  0  0  0  0  0  0  0  0
  148.3656  139.3786  151.8614 H   0  0  0  0  0  0  0  0  0  0  0  0
  1  2  1  0  0  0  0
  1 19  1  0  0  0  0
  1 20  1  0  0  0  0
  1 21  1  0  0  0  0
  2 18  2  0  0  0  0
  2  3  1  0  0  0  0
  3  4  2  0  0  0  0
  3 22  1  0  0  0  0
  4  5  1  0  0  0  0
  5  6  1  0  0  0  0
  5 18  1  0  0  0  0
  6  7  1  0  0  0  0
  6 23  1  0  0  0  0
  6 24  1  0  0  0  0
  7  8  1  0  0  0  0
  7 25  1  0  0  0  0
  7 26  1  0  0  0  0
  8  9  1  0  0  0  0
  8 27  1  0  0  0  0
  8 39  1  0  0  0  0
  9 10  1  0  0  0  0
  9 28  1  0  0  0  0
  9 29  1  0  0  0  0
 10 11  2  0  0  0  0
 10 12  1  0  0  0  0
 12 17  1  0  0  0  0
 12 13  1  0  0  0  0
 13 14  1  0  0  0  0
 13 30  1  0  0  0  0
 13 31  1  0  0  0  0
 14 15  1  0  0  0  0
 14 32  1  0  0  0  0
 14 33  1  0  0  0  0
 15 16  1  0  0  0  0
 16 17  1  0  0  0  0
 16 34  1  0  0  0  0
 16 35  1  0  0  0  0
 17 36  1  0  0  0  0
 17 37  1  0  0  0  0
 18 38  1  0  0  0  0
M  CHG  1   8   1
M  END
> <s_m_source_file>
AV-unprocessed.smi

> <i_m_source_file_index>
3312

> <i_lp_mmshare_version>
43012

> <i_f3d_flags>
0

> <s_epik_input>
W0NIM11jMVtjSF1ubihbY0hdMSlbQ0gyXVtDSDJdW05IXVtDSDJdQyg9TylOMltDSDJdW0NIMl1PW0NIMl1bQ0gyXTI=

> <s_epik_cmdline>
J2VwaWtfcHl0aG9uJywgJy1waCcsICc3LjAnLCAnLXRuJywgJzgnLCAnLW1hJywgJzIwMCcsICctbWV0YWxfYmluZGluZycsICctaW1hZScsICc8aW5maWxlLm1hZT4nLCAnLW9tYWUnLCAnPG91dGZpbGUubWFlPic=

> <r_lp_tautomer_probability>
1

> <r_epik_Ionization_Penalty>
0.325402

> <r_epik_Ionization_Penalty_Charging>
0.325398

> <r_epik_Ionization_Penalty_Neutral>
4.45308e-06

> <r_epik_State_Penalty>
0.321221

> <r_epik_Charging_Adjusted_Penalty>
0.646619

> <i_epik_Tot_Q>
1

> <i_epik_Tot_abs_Q>
1

> <r_epik_Metal_State_Penalty>
0.321643

> <b_epik_Metal_Only>
0

> <s_lp_Force_Field>
OPLS_2005

> <r_lp_Energy>
21.6744

> <b_lp_Chiralities_Consistent>
1

> <s_lp_Variant>
AV-unprocessed.smi:3312-1

> <Gold.Version>
5.8.1

> <Gold.Id.Protein>
6NUR|6NUR_protein|mol2

> <Gold.PLP.Fitness>
52.8665

> <Gold.PLP.PLP>
-34.9750

> <Gold.PLP.part.hbond>
-4.9461

> <Gold.PLP.part.metal>
0.0000

> <Gold.PLP.part.buried>
-2.2657

> <Gold.PLP.part.nonpolar>
-29.1998

> <Gold.PLP.part.repulsive>
1.2900

> <Gold.PLP.ligand.clash>
0.0000

> <Gold.PLP.ligand.torsion>
0.7906

> <Gold.PLP.Chemscore.Hbond>
4.8672

> <Gold.PLP.Chemscore.CHOScore>
1.6183

> <Gold.PLP.Chemscore.Metal>
0.0000

> <Gold.Chemscore.Hbonds>
donor molecule, donor type, donor heavy atom, donor atom, acceptor molecule, acceptor atom, score
      L1  H     8    27       P1  7948  1.82
      L1  H     8    39       P1  7957  1.00
      P1  H  7989  7998       L1    11  0.27
      P1  H  8011  8017       L1    11  0.82
      P1  H 10752 10765       L1    15  0.93
      L1  C     3    22       P1 10186  0.56
      L1  C    18    38       P1  7948  1.00

> <Gold.PLP.Chemscore.Internal.Correction>
0.0162

> <Gold.Rescore>
     Score         DG    S(hbond)    S(metal)    S(lipo)     H(rot)  DE(clash)    DE(int)     intcor
     19.20     -20.76       3.55        0.00      70.46       1.89       0.76       0.80       ----

> <Gold.Chemscore.Fitness>
19.1979

> <Gold.Chemscore.DG>
-20.7586

> <Gold.Chemscore.ZeroCoef>
-5.4800

> <Gold.Chemscore.Hbond>
3.5529

> <Gold.Chemscore.Metal>
0.0000

> <Gold.Chemscore.Lipo>
70.4586

> <Gold.Chemscore.Internal_Hbond>
0.0000

> <Gold.Chemscore.DEClash>
0.7608

> <Gold.Chemscore.DEInternal>
0.7999

> <Gold.Chemscore.Rot>
1.8874

> <Gold.Chemscore.Internal.Correction>
   9.000000E+99

> <Gold.Chemscore.Hbonds>
donor molecule, donor type, donor heavy atom, donor atom, acceptor molecule, acceptor atom, score
      L1  H     8    27       P1  7948  0.86
      L1  H     8    39       P1  7957  0.94
      P1  H  7989  7998       L1    11  0.11
      P1  H  8011  8017       L1    11  0.75
      P1  H 10752 10765       L1    15  0.31

> <Gold.Chemscore.Hbond.Weighted>
-11.8666

> <Gold.Chemscore.Metal.Weighted>
-0.0000

> <Gold.Chemscore.Lipo.Weighted>
-8.2437

> <Gold.Chemscore.Internal_Hbond.Weighted>
0.0000

> <Gold.Chemscore.DEClash.Weighted>
0.7608

> <Gold.Chemscore.DEInternal.Weighted>
0.7999

> <Gold.Chemscore.Rot.Weighted>
4.8317

> <Gold.Chemscore.Internal.Correction.Weighted>
   9.000000E+99

> <Gold.Protein.RotatedTorsions>
[ 6907 6896 6895 6894 ] final -135.03 input  -60.11 | X-H torsion
[ 7974 7965 7964 7962 ] final  -50.60 input  175.53 | X-H torsion
[ 8008 7997 7996 7995 ] final  154.93 input   59.86 | X-H torsion
[ 10167 10162 10161 10158 ] final  -82.55 input  -65.29 | X-H torsion
[ 10718 10713 10712 10709 ] final   21.87 input   66.30 | X-H torsion
[ 10763 10752 10751 10750 ] final  173.78 input  -60.55 | X-H torsion
[ 11005 11000 10999 10996 ] final -167.42 input  -57.11 | X-H torsion

> <Gold.Protein.ActiveResidues>
 VAL166  LYS551  ARG553  GLY616  TRP617  ASP618  TYR619  PRO620  LYS621  CYS622 
 ASP623  PHE694  ASN695  SER759  ASP760  ASP761  ALA762  ILE779  LEU786  VAL792 
 PHE793  MET794  SER795  GLU796  ALA797  LYS798  CYS799  TRP800  GLU811  SER814 

> <Gold.Protein.RotatedAtoms>
  150.9930  133.6131  159.2705 H   0  0  0  0  0  0  0  0  0  0  0  0  # atno 6907 bound_to 6896
  151.3345  135.0848  159.9360 H   0  0  0  0  0  0  0  0  0  0  0  0  # atno 6908 bound_to 6896
  152.5251  133.9553  159.7745 H   0  0  0  0  0  0  0  0  0  0  0  0  # atno 6909 bound_to 6896
  145.9281  140.7774  142.9613 H   0  0  0  0  0  0  0  0  0  0  0  0  # atno 7974 bound_to 7965
  156.2505  140.1953  156.6723 H   0  0  0  0  0  0  0  0  0  0  0  0  # atno 8008 bound_to 7997
  154.6383  140.0587  156.9841 H   0  0  0  0  0  0  0  0  0  0  0  0  # atno 8009 bound_to 7997
  155.1602  140.3259  155.4415 H   0  0  0  0  0  0  0  0  0  0  0  0  # atno 8010 bound_to 7997
  140.4309  143.2549  151.8760 H   0  0  0  0  0  0  0  0  0  0  0  0  # atno 10167 bound_to 10162
  157.1444  130.6647  149.5991 H   0  0  0  0  0  0  0  0  0  0  0  0  # atno 10718 bound_to 10713
  154.4448  135.2763  155.1822 H   0  0  0  0  0  0  0  0  0  0  0  0  # atno 10763 bound_to 10752
  154.3674  135.6116  153.5725 H   0  0  0  0  0  0  0  0  0  0  0  0  # atno 10764 bound_to 10752
  152.9843  135.5849  154.4782 H   0  0  0  0  0  0  0  0  0  0  0  0  # atno 10765 bound_to 10752
  140.5535  134.5405  157.5128 H   0  0  0  0  0  0  0  0  0  0  0  0  # atno 11005 bound_to 11000
  144.6761  140.2083  143.7380 LP  0  0  0  0  0  0  0  0  0  0  0  0  # atno 17320 bound_to 7965
  145.8462  139.2153  143.1799 LP  0  0  0  0  0  0  0  0  0  0  0  0  # atno 17321 bound_to 7965
  139.4785  144.5335  151.8632 LP  0  0  0  0  0  0  0  0  0  0  0  0  # atno 17342 bound_to 10162
  140.4428  144.1963  150.5892 LP  0  0  0  0  0  0  0  0  0  0  0  0  # atno 17343 bound_to 10162
  155.9782  130.4766  150.6642 LP  0  0  0  0  0  0  0  0  0  0  0  0  # atno 17370 bound_to 10713
  157.4277  131.0845  151.1069 LP  0  0  0  0  0  0  0  0  0  0  0  0  # atno 17371 bound_to 10713
  139.9443  134.7730  156.0600 LP  0  0  0  0  0  0  0  0  0  0  0  0  # atno 17394 bound_to 11000
  141.1157  133.6628  156.3089 LP  0  0  0  0  0  0  0  0  0  0  0  0  # atno 17395 bound_to 11000

$$$$
