AV-unprocessed.smi:1273|AV-procd|sdf|5339|dock4
  -GOLD-   22720 4473D 1   1.00000     0.00000
 Structure written by MMmdl.
 40 41  0  0  0  0  0  0  0  0  1 V2000
  155.6915  143.7587  166.2154 C   0  0  0  0  0  0  0  0  0  0  0  0
  154.9812  142.3973  166.1380 C   0  0  1  0  0  0  0  0  0  0  0  0
  154.6768  141.9969  164.6879 C   0  0  0  0  0  0  0  0  0  0  0  0
  155.1857  140.9825  164.2111 O   0  0  0  0  0  0  0  0  0  0  0  0
  153.8304  142.8050  164.0224 N   0  0  0  0  0  0  0  0  0  0  0  0
  153.3865  142.6943  162.6783 C   0  0  0  0  0  0  0  0  0  0  0  0
  152.5782  143.7220  162.1555 C   0  0  0  0  0  0  0  0  0  0  0  0
  152.1479  143.6453  160.8173 C   0  0  0  0  0  0  0  0  0  0  0  0
  152.5468  142.5420  160.0262 C   0  0  0  0  0  0  0  0  0  0  0  0
  152.1286  142.4427  158.6813 N   0  0  0  0  0  0  0  0  0  0  0  0
  151.5909  143.6677  158.0940 C   0  0  0  0  0  0  0  0  0  0  0  0
  151.4587  143.5184  156.5683 C   0  0  0  0  0  0  0  0  0  0  0  0
  150.6792  142.3676  156.2604 O   0  0  0  0  0  0  0  0  0  0  0  0
  151.2848  141.1739  156.7450 C   0  0  0  0  0  0  0  0  0  0  0  0
  151.4032  141.2395  158.2769 C   0  0  0  0  0  0  0  0  0  0  0  0
  153.3435  141.5649  160.5249 N   0  0  0  0  0  0  0  0  0  0  0  0
  153.7505  141.6394  161.8093 C   0  0  0  0  0  0  0  0  0  0  0  0
  156.0193  141.0968  166.9566 S   0  0  0  0  0  0  0  0  0  0  0  0
  156.2246  141.7414  168.6704 C   0  0  0  0  0  0  0  0  0  0  0  0
  155.2499  139.8450  167.0301 O   0  0  0  0  0  0  0  0  0  0  0  0
  157.3391  141.0937  166.3071 O   0  0  0  0  0  0  0  0  0  0  0  0
  155.1230  144.5336  165.6998 H   0  0  0  0  0  0  0  0  0  0  0  0
  156.6857  143.7181  165.7684 H   0  0  0  0  0  0  0  0  0  0  0  0
  155.8108  144.0752  167.2517 H   0  0  0  0  0  0  0  0  0  0  0  0
  154.0473  142.4624  166.6975 H   0  0  0  0  0  0  0  0  0  0  0  0
  153.4090  143.5491  164.5590 H   0  0  0  0  0  0  0  0  0  0  0  0
  152.2878  144.5615  162.7702 H   0  0  0  0  0  0  0  0  0  0  0  0
  151.5355  144.4367  160.4117 H   0  0  0  0  0  0  0  0  0  0  0  0
  150.6135  143.8684  158.5345 H   0  0  0  0  0  0  0  0  0  0  0  0
  152.2195  144.5299  158.3114 H   0  0  0  0  0  0  0  0  0  0  0  0
  150.9730  144.3984  156.1464 H   0  0  0  0  0  0  0  0  0  0  0  0
  152.4408  143.4415  156.0988 H   0  0  0  0  0  0  0  0  0  0  0  0
  150.6730  140.3205  156.4523 H   0  0  0  0  0  0  0  0  0  0  0  0
  152.2646  141.0366  156.2843 H   0  0  0  0  0  0  0  0  0  0  0  0
  151.9183  140.3480  158.6372 H   0  0  0  0  0  0  0  0  0  0  0  0
  150.4097  141.2477  158.7276 H   0  0  0  0  0  0  0  0  0  0  0  0
  154.4027  140.8399  162.1248 H   0  0  0  0  0  0  0  0  0  0  0  0
  156.9043  141.0893  169.2188 H   0  0  0  0  0  0  0  0  0  0  0  0
  155.2617  141.7582  169.1801 H   0  0  0  0  0  0  0  0  0  0  0  0
  156.6406  142.7479  168.6368 H   0  0  0  0  0  0  0  0  0  0  0  0
  1  2  1  0  0  0  0
  1 22  1  0  0  0  0
  1 23  1  0  0  0  0
  1 24  1  0  0  0  0
  2  3  1  0  0  0  0
  2 18  1  0  0  0  0
  2 25  1  0  0  0  0
  3  4  2  0  0  0  0
  3  5  1  0  0  0  0
  5  6  1  0  0  0  0
  5 26  1  0  0  0  0
  6 17  1  0  0  0  0
  6  7  2  0  0  0  0
  7  8  1  0  0  0  0
  7 27  1  0  0  0  0
  8  9  2  0  0  0  0
  8 28  1  0  0  0  0
  9 10  1  0  0  0  0
  9 16  1  0  0  0  0
 10 15  1  0  0  0  0
 10 11  1  0  0  0  0
 11 12  1  0  0  0  0
 11 29  1  0  0  0  0
 11 30  1  0  0  0  0
 12 13  1  0  0  0  0
 12 31  1  0  0  0  0
 12 32  1  0  0  0  0
 13 14  1  0  0  0  0
 14 15  1  0  0  0  0
 14 33  1  0  0  0  0
 14 34  1  0  0  0  0
 15 35  1  0  0  0  0
 15 36  1  0  0  0  0
 16 17  2  0  0  0  0
 17 37  1  0  0  0  0
 18 19  1  0  0  0  0
 18 20  2  0  0  0  0
 18 21  2  0  0  0  0
 19 38  1  0  0  0  0
 19 39  1  0  0  0  0
 19 40  1  0  0  0  0
M  END
> <s_m_source_file>
AV-unprocessed.smi

> <i_m_source_file_index>
1273

> <i_lp_mmshare_version>
43012

> <i_f3d_flags>
0

> <s_epik_input>
W0NIM11TKD1PKSg9TylbQ0BIXShbQ0gzXSlDKD1PKVtOSF1jMVtjSF1bY0hdYyhuW2NIXTEpTjJbQ0gyXVtDSDJdT1tDSDJdW0NIMl0y

> <s_epik_cmdline>
J2VwaWtfcHl0aG9uJywgJy1waCcsICc3LjAnLCAnLXRuJywgJzgnLCAnLW1hJywgJzIwMCcsICctbWV0YWxfYmluZGluZycsICctaW1hZScsICc8aW5maWxlLm1hZT4nLCAnLW9tYWUnLCAnPG91dGZpbGUubWFlPic=

> <r_lp_tautomer_probability>
1

> <r_epik_Ionization_Penalty>
0.000253983

> <r_epik_Ionization_Penalty_Charging>
0

> <r_epik_Ionization_Penalty_Neutral>
0.000253983

> <r_epik_State_Penalty>
-0

> <r_epik_Charging_Adjusted_Penalty>
0

> <i_epik_Tot_Q>
0

> <i_epik_Tot_abs_Q>
0

> <r_epik_Metal_State_Penalty>
-0

> <b_epik_Metal_Only>
0

> <s_lp_Force_Field>
OPLS_2005

> <r_lp_Energy>
19.0029

> <b_lp_Chiralities_Consistent>
1

> <s_lp_Variant>
AV-unprocessed.smi:1273-2

> <Gold.Version>
5.8.1

> <Gold.Id.Protein>
6NUR|6NUR_protein|mol2

> <Gold.PLP.Fitness>
38.9931

> <Gold.PLP.PLP>
-39.1292

> <Gold.PLP.part.hbond>
-1.0000

> <Gold.PLP.part.metal>
0.0000

> <Gold.PLP.part.buried>
-3.9321

> <Gold.PLP.part.nonpolar>
-33.2131

> <Gold.PLP.part.repulsive>
0.7484

> <Gold.PLP.ligand.clash>
0.0000

> <Gold.PLP.ligand.torsion>
0.3173

> <Gold.PLP.Chemscore.Hbond>
0.0000

> <Gold.PLP.Chemscore.CHOScore>
0.0000

> <Gold.PLP.Chemscore.Metal>
0.0000

> <Gold.PLP.Chemscore.Internal.Correction>
0.4985

> <Gold.Rescore>
     Score         DG    S(hbond)    S(metal)    S(lipo)     H(rot)  DE(clash)    DE(int)     intcor
      9.32     -13.04       0.00        0.00      98.76       1.56       0.73       2.98       ----

> <Gold.Chemscore.Fitness>
9.3200

> <Gold.Chemscore.DG>
-13.0352

> <Gold.Chemscore.ZeroCoef>
-5.4800

> <Gold.Chemscore.Hbond>
0.0000

> <Gold.Chemscore.Metal>
0.0000

> <Gold.Chemscore.Lipo>
98.7596

> <Gold.Chemscore.Internal_Hbond>
0.0000

> <Gold.Chemscore.DEClash>
0.7340

> <Gold.Chemscore.DEInternal>
2.9813

> <Gold.Chemscore.Rot>
1.5624

> <Gold.Chemscore.Internal.Correction>
   9.000000E+99

> <Gold.Chemscore.Hbond.Weighted>
-0.0000

> <Gold.Chemscore.Metal.Weighted>
-0.0000

> <Gold.Chemscore.Lipo.Weighted>
-11.5549

> <Gold.Chemscore.Internal_Hbond.Weighted>
0.0000

> <Gold.Chemscore.DEClash.Weighted>
0.7340

> <Gold.Chemscore.DEInternal.Weighted>
2.9813

> <Gold.Chemscore.Rot.Weighted>
3.9996

> <Gold.Chemscore.Internal.Correction.Weighted>
   9.000000E+99

> <Gold.Protein.RotatedTorsions>
[ 6907 6896 6895 6894 ] final  -41.93 input  -60.11 | X-H torsion
[ 7974 7965 7964 7962 ] final -155.21 input  175.53 | X-H torsion
[ 8008 7997 7996 7995 ] final   66.52 input   59.86 | X-H torsion
[ 10167 10162 10161 10158 ] final  -86.35 input  -65.29 | X-H torsion
[ 10718 10713 10712 10709 ] final   79.96 input   66.30 | X-H torsion
[ 10763 10752 10751 10750 ] final -137.65 input  -60.55 | X-H torsion
[ 11005 11000 10999 10996 ] final  -58.59 input  -57.11 | X-H torsion

> <Gold.Protein.ActiveResidues>
 VAL166  LYS551  ARG553  GLY616  TRP617  ASP618  TYR619  PRO620  LYS621  CYS622 
 ASP623  PHE694  ASN695  SER759  ASP760  ASP761  ALA762  ILE779  LEU786  VAL792 
 PHE793  MET794  SER795  GLU796  ALA797  LYS798  CYS799  TRP800  GLU811  SER814 

> <Gold.Protein.RotatedAtoms>
  150.9611  134.8998  159.7730 H   0  0  0  0  0  0  0  0  0  0  0  0  # atno 6907 bound_to 6896
  152.5156  134.3672  159.9315 H   0  0  0  0  0  0  0  0  0  0  0  0  # atno 6908 bound_to 6896
  151.3684  133.3823  159.2732 H   0  0  0  0  0  0  0  0  0  0  0  0  # atno 6909 bound_to 6896
  144.7651  140.4280  143.5948 H   0  0  0  0  0  0  0  0  0  0  0  0  # atno 7974 bound_to 7965
  155.6787  140.3496  155.4847 H   0  0  0  0  0  0  0  0  0  0  0  0  # atno 8008 bound_to 7997
  155.9625  140.1140  157.0905 H   0  0  0  0  0  0  0  0  0  0  0  0  # atno 8009 bound_to 7997
  154.4146  140.1173  156.5185 H   0  0  0  0  0  0  0  0  0  0  0  0  # atno 8010 bound_to 7997
  140.3950  143.2688  151.9216 H   0  0  0  0  0  0  0  0  0  0  0  0  # atno 10167 bound_to 10162
  157.6792  130.9938  150.2010 H   0  0  0  0  0  0  0  0  0  0  0  0  # atno 10718 bound_to 10713
  154.8656  135.3635  154.5258 H   0  0  0  0  0  0  0  0  0  0  0  0  # atno 10763 bound_to 10752
  153.5886  135.7016  153.5437 H   0  0  0  0  0  0  0  0  0  0  0  0  # atno 10764 bound_to 10752
  153.3393  135.4102  155.1521 H   0  0  0  0  0  0  0  0  0  0  0  0  # atno 10765 bound_to 10752
  141.1214  133.6613  156.4944 H   0  0  0  0  0  0  0  0  0  0  0  0  # atno 11005 bound_to 11000
  145.6496  139.1563  143.2870 LP  0  0  0  0  0  0  0  0  0  0  0  0  # atno 17320 bound_to 7965
  146.1751  140.6586  142.9215 LP  0  0  0  0  0  0  0  0  0  0  0  0  # atno 17321 bound_to 7965
  139.4787  144.5690  151.8118 LP  0  0  0  0  0  0  0  0  0  0  0  0  # atno 17342 bound_to 10162
  140.4800  144.1463  150.5931 LP  0  0  0  0  0  0  0  0  0  0  0  0  # atno 17343 bound_to 10162
  156.2700  130.3721  149.8041 LP  0  0  0  0  0  0  0  0  0  0  0  0  # atno 17370 bound_to 10713
  156.5760  130.8445  151.3370 LP  0  0  0  0  0  0  0  0  0  0  0  0  # atno 17371 bound_to 10713
  140.4497  134.6940  157.5033 LP  0  0  0  0  0  0  0  0  0  0  0  0  # atno 17394 bound_to 11000
  140.0174  134.6599  155.9290 LP  0  0  0  0  0  0  0  0  0  0  0  0  # atno 17395 bound_to 11000

$$$$
