AV-unprocessed.smi:2902|AV-procd|sdf|11154|dock3
  -GOLD-   2272016 33D 1   1.00000     0.00000
 Structure written by MMmdl.
 47 48  0  0  0  0  0  0  0  0  1 V2000
  149.0637  140.3579  157.8089 C   0  0  0  0  0  0  0  0  0  0  0  0
  149.5375  141.3593  156.7481 C   0  0  0  0  0  0  0  0  0  0  0  0
  151.0588  141.3080  156.5157 C   0  0  1  0  0  0  0  0  0  0  0  0
  151.6992  141.5136  157.7750 O   0  0  0  0  0  0  0  0  0  0  0  0
  151.4436  142.7538  158.4285 C   0  0  0  0  0  0  0  0  0  0  0  0
  151.7112  143.9495  157.5030 C   0  0  0  0  0  0  0  0  0  0  0  0
  152.2982  145.0597  158.3889 C   0  0  0  0  0  0  0  0  0  0  0  0
  152.4172  144.4681  159.7977 C   0  0  0  0  0  0  0  0  0  0  0  0
  152.4157  142.9553  159.5887 C   0  0  0  0  0  0  0  0  0  0  0  0
  151.4824  139.9642  155.8997 C   0  0  0  0  0  0  0  0  0  0  0  0
  151.7944  139.8933  154.7108 O   0  0  0  0  0  0  0  0  0  0  0  0
  151.4644  138.9057  156.7238 N   0  0  0  0  0  0  0  0  0  0  0  0
  151.7619  137.5233  156.3521 C   0  0  1  0  0  0  0  0  0  0  0  0
  152.8745  136.9861  157.2722 C   0  0  0  0  0  0  0  0  0  0  0  0
  150.4625  136.6777  156.4128 C   0  0  2  0  0  0  0  0  0  0  0  0
  149.4705  137.0001  155.2796 C   0  0  0  0  0  0  0  0  0  0  0  0
  149.7981  136.8271  157.7027 N   0  0  0  0  0  0  0  0  0  0  0  0
  148.5918  137.3074  158.0151 C   0  0  0  0  0  0  0  0  0  0  0  0
  148.3332  137.3054  159.3150 N   0  0  0  0  0  0  0  0  0  0  0  0
  149.5087  136.7893  159.7808 C   0  0  0  0  0  0  0  0  0  0  0  0
  150.4217  136.4893  158.8571 N   0  0  0  0  0  0  0  0  0  0  0  0
  147.9864  140.4321  157.9584 H   0  0  0  0  0  0  0  0  0  0  0  0
  149.5461  140.5429  158.7687 H   0  0  0  0  0  0  0  0  0  0  0  0
  149.2875  139.3329  157.5127 H   0  0  0  0  0  0  0  0  0  0  0  0
  149.0112  141.1666  155.8121 H   0  0  0  0  0  0  0  0  0  0  0  0
  149.2462  142.3628  157.0623 H   0  0  0  0  0  0  0  0  0  0  0  0
  151.3379  142.1190  155.8397 H   0  0  0  0  0  0  0  0  0  0  0  0
  150.4281  142.8068  158.8259 H   0  0  0  0  0  0  0  0  0  0  0  0
  152.4392  143.6752  156.7384 H   0  0  0  0  0  0  0  0  0  0  0  0
  150.8064  144.2692  156.9860 H   0  0  0  0  0  0  0  0  0  0  0  0
  153.2822  145.3467  158.0160 H   0  0  0  0  0  0  0  0  0  0  0  0
  151.6776  145.9559  158.3863 H   0  0  0  0  0  0  0  0  0  0  0  0
  153.3050  144.8175  160.3253 H   0  0  0  0  0  0  0  0  0  0  0  0
  151.5464  144.7547  160.3888 H   0  0  0  0  0  0  0  0  0  0  0  0
  152.1224  142.4045  160.4829 H   0  0  0  0  0  0  0  0  0  0  0  0
  153.4149  142.6234  159.3025 H   0  0  0  0  0  0  0  0  0  0  0  0
  151.1869  139.0643  157.6819 H   0  0  0  0  0  0  0  0  0  0  0  0
  152.1307  137.5074  155.3246 H   0  0  0  0  0  0  0  0  0  0  0  0
  153.2124  135.9983  156.9599 H   0  0  0  0  0  0  0  0  0  0  0  0
  152.5344  136.9139  158.3057 H   0  0  0  0  0  0  0  0  0  0  0  0
  153.7493  137.6370  157.2569 H   0  0  0  0  0  0  0  0  0  0  0  0
  150.7372  135.6262  156.3080 H   0  0  0  0  0  0  0  0  0  0  0  0
  149.8760  136.7368  154.3031 H   0  0  0  0  0  0  0  0  0  0  0  0
  149.2150  138.0599  155.2605 H   0  0  0  0  0  0  0  0  0  0  0  0
  148.5445  136.4366  155.4002 H   0  0  0  0  0  0  0  0  0  0  0  0
  147.8896  137.6674  157.2776 H   0  0  0  0  0  0  0  0  0  0  0  0
  149.6992  136.6343  160.8326 H   0  0  0  0  0  0  0  0  0  0  0  0
  1  2  1  0  0  0  0
  1 22  1  0  0  0  0
  1 23  1  0  0  0  0
  1 24  1  0  0  0  0
  2  3  1  0  0  0  0
  2 25  1  0  0  0  0
  2 26  1  0  0  0  0
  3  4  1  0  0  0  0
  3 10  1  0  0  0  0
  3 27  1  0  0  0  0
  4  5  1  0  0  0  0
  5  9  1  0  0  0  0
  5  6  1  0  0  0  0
  5 28  1  0  0  0  0
  6  7  1  0  0  0  0
  6 29  1  0  0  0  0
  6 30  1  0  0  0  0
  7  8  1  0  0  0  0
  7 31  1  0  0  0  0
  7 32  1  0  0  0  0
  8  9  1  0  0  0  0
  8 33  1  0  0  0  0
  8 34  1  0  0  0  0
  9 35  1  0  0  0  0
  9 36  1  0  0  0  0
 10 11  2  0  0  0  0
 10 12  1  0  0  0  0
 12 13  1  0  0  0  0
 12 37  1  0  0  0  0
 13 14  1  0  0  0  0
 13 15  1  0  0  0  0
 13 38  1  0  0  0  0
 14 39  1  0  0  0  0
 14 40  1  0  0  0  0
 14 41  1  0  0  0  0
 15 16  1  0  0  0  0
 15 17  1  0  0  0  0
 15 42  1  0  0  0  0
 16 43  1  0  0  0  0
 16 44  1  0  0  0  0
 16 45  1  0  0  0  0
 17 21  1  0  0  0  0
 17 18  1  0  0  0  0
 18 19  2  0  0  0  0
 18 46  1  0  0  0  0
 19 20  1  0  0  0  0
 20 21  2  0  0  0  0
 20 47  1  0  0  0  0
M  END
> <s_m_source_file>
AV-unprocessed.smi

> <i_m_source_file_index>
2902

> <i_lp_mmshare_version>
43012

> <i_f3d_flags>
0

> <s_epik_input>
W0NIMl0xW0NIMl1bQ0gyXVtDSDJdW0NIXTFPW0NAQEhdKFtDSDJdW0NIM10pQyg9TylbTkhdW0NASF0oW0NIM10pW0NASF0oW0NIM10pbjJbY0hdbltjSF1uMg==

> <s_epik_cmdline>
J2VwaWtfcHl0aG9uJywgJy1waCcsICc3LjAnLCAnLXRuJywgJzgnLCAnLW1hJywgJzIwMCcsICctbWV0YWxfYmluZGluZycsICctaW1hZScsICc8aW5maWxlLm1hZT4nLCAnLW9tYWUnLCAnPG91dGZpbGUubWFlPic=

> <r_lp_tautomer_probability>
1

> <r_epik_Ionization_Penalty>
6.95617e-05

> <r_epik_Ionization_Penalty_Charging>
0

> <r_epik_Ionization_Penalty_Neutral>
6.95617e-05

> <r_epik_State_Penalty>
-0

> <r_epik_Charging_Adjusted_Penalty>
0

> <i_epik_Tot_Q>
0

> <i_epik_Tot_abs_Q>
0

> <r_epik_Metal_State_Penalty>
-0

> <b_epik_Metal_Only>
0

> <s_lp_Force_Field>
OPLS_2005

> <r_lp_Energy>
29.0587

> <b_lp_Chiralities_Consistent>
1

> <s_lp_Variant>
AV-unprocessed.smi:2902-4

> <Gold.Version>
5.8.1

> <Gold.Id.Protein>
6NUR|6NUR_protein|mol2

> <Gold.PLP.Fitness>
39.8915

> <Gold.PLP.PLP>
-34.9467

> <Gold.PLP.part.hbond>
-2.1061

> <Gold.PLP.part.metal>
0.0000

> <Gold.PLP.part.buried>
-6.7571

> <Gold.PLP.part.nonpolar>
-27.3927

> <Gold.PLP.part.repulsive>
0.1195

> <Gold.PLP.ligand.clash>
0.0000

> <Gold.PLP.ligand.torsion>
0.6170

> <Gold.PLP.Chemscore.Hbond>
1.9920

> <Gold.PLP.Chemscore.CHOScore>
0.0000

> <Gold.PLP.Chemscore.Metal>
0.0000

> <Gold.Chemscore.Hbonds>
donor molecule, donor type, donor heavy atom, donor atom, acceptor molecule, acceptor atom, score
      P1  H  6896  6908       L1    21  0.65
      P1  H  7989  7998       L1    11  1.00

> <Gold.PLP.Chemscore.Internal.Correction>
0.2028

> <Gold.Rescore>
     Score         DG    S(hbond)    S(metal)    S(lipo)     H(rot)  DE(clash)    DE(int)     intcor
     13.81     -14.82       1.81        0.00      87.13       2.69       0.00       1.02       ----

> <Gold.Chemscore.Fitness>
13.8059

> <Gold.Chemscore.DG>
-14.8243

> <Gold.Chemscore.ZeroCoef>
-5.4800

> <Gold.Chemscore.Hbond>
1.8101

> <Gold.Chemscore.Metal>
0.0000

> <Gold.Chemscore.Lipo>
87.1280

> <Gold.Chemscore.Internal_Hbond>
0.0000

> <Gold.Chemscore.DEClash>
0.0021

> <Gold.Chemscore.DEInternal>
1.0163

> <Gold.Chemscore.Rot>
2.6935

> <Gold.Chemscore.Internal.Correction>
   9.000000E+99

> <Gold.Chemscore.Hbonds>
donor molecule, donor type, donor heavy atom, donor atom, acceptor molecule, acceptor atom, score
      P1  H  6896  6908       L1    21  0.06
      P1  H  7989  7998       L1    11  0.90

> <Gold.Chemscore.Hbond.Weighted>
-6.0457

> <Gold.Chemscore.Metal.Weighted>
-0.0000

> <Gold.Chemscore.Lipo.Weighted>
-10.1940

> <Gold.Chemscore.Internal_Hbond.Weighted>
0.0000

> <Gold.Chemscore.DEClash.Weighted>
0.0021

> <Gold.Chemscore.DEInternal.Weighted>
1.0163

> <Gold.Chemscore.Rot.Weighted>
6.8954

> <Gold.Chemscore.Internal.Correction.Weighted>
   9.000000E+99

> <Gold.Protein.RotatedTorsions>
[ 6907 6896 6895 6894 ] final -159.32 input  -60.11 | X-H torsion
[ 7974 7965 7964 7962 ] final  -55.09 input  175.53 | X-H torsion
[ 8008 7997 7996 7995 ] final   13.86 input   59.86 | X-H torsion
[ 10167 10162 10161 10158 ] final -140.40 input  -65.29 | X-H torsion
[ 10718 10713 10712 10709 ] final  144.37 input   66.30 | X-H torsion
[ 10763 10752 10751 10750 ] final  -79.49 input  -60.55 | X-H torsion
[ 11005 11000 10999 10996 ] final  111.04 input  -57.11 | X-H torsion

> <Gold.Protein.ActiveResidues>
 VAL166  LYS551  ARG553  GLY616  TRP617  ASP618  TYR619  PRO620  LYS621  CYS622 
 ASP623  PHE694  ASN695  SER759  ASP760  ASP761  ALA762  ILE779  LEU786  VAL792 
 PHE793  MET794  SER795  GLU796  ALA797  LYS798  CYS799  TRP800  GLU811  SER814 

> <Gold.Protein.RotatedAtoms>
  151.3318  133.3997  159.2663 H   0  0  0  0  0  0  0  0  0  0  0  0  # atno 6907 bound_to 6896
  150.9949  134.9276  159.7931 H   0  0  0  0  0  0  0  0  0  0  0  0  # atno 6908 bound_to 6896
  152.5258  134.3283  159.9226 H   0  0  0  0  0  0  0  0  0  0  0  0  # atno 6909 bound_to 6896
  145.8781  140.8165  142.9854 H   0  0  0  0  0  0  0  0  0  0  0  0  # atno 7974 bound_to 7965
  154.8403  140.2913  155.5664 H   0  0  0  0  0  0  0  0  0  0  0  0  # atno 8008 bound_to 7997
  156.3011  140.2515  156.3276 H   0  0  0  0  0  0  0  0  0  0  0  0  # atno 8009 bound_to 7997
  154.9133  140.0388  157.1947 H   0  0  0  0  0  0  0  0  0  0  0  0  # atno 8010 bound_to 7997
  139.8286  143.7478  152.2666 H   0  0  0  0  0  0  0  0  0  0  0  0  # atno 10167 bound_to 10162
  157.3580  131.0961  151.0941 H   0  0  0  0  0  0  0  0  0  0  0  0  # atno 10718 bound_to 10713
  154.5393  135.5694  153.6825 H   0  0  0  0  0  0  0  0  0  0  0  0  # atno 10763 bound_to 10752
  152.9959  135.6224  154.2524 H   0  0  0  0  0  0  0  0  0  0  0  0  # atno 10764 bound_to 10752
  154.2454  135.2861  155.2817 H   0  0  0  0  0  0  0  0  0  0  0  0  # atno 10765 bound_to 10752
  139.8895  134.9498  156.6371 H   0  0  0  0  0  0  0  0  0  0  0  0  # atno 11005 bound_to 11000
  144.6726  140.1342  143.7441 LP  0  0  0  0  0  0  0  0  0  0  0  0  # atno 17320 bound_to 7965
  145.9056  139.2456  143.1468 LP  0  0  0  0  0  0  0  0  0  0  0  0  # atno 17321 bound_to 7965
  139.7678  144.7486  151.0269 LP  0  0  0  0  0  0  0  0  0  0  0  0  # atno 17342 bound_to 10162
  140.7808  143.4678  151.0187 LP  0  0  0  0  0  0  0  0  0  0  0  0  # atno 17343 bound_to 10162
  157.2091  130.6429  149.5767 LP  0  0  0  0  0  0  0  0  0  0  0  0  # atno 17370 bound_to 10713
  155.9732  130.4666  150.6294 LP  0  0  0  0  0  0  0  0  0  0  0  0  # atno 17371 bound_to 10713
  140.7622  133.8808  155.8427 LP  0  0  0  0  0  0  0  0  0  0  0  0  # atno 17394 bound_to 11000
  140.9912  134.1276  157.4406 LP  0  0  0  0  0  0  0  0  0  0  0  0  # atno 17395 bound_to 11000

$$$$
