AV-unprocessed.smi:1|AV-procd|sdf|16|dock4
  -GOLD-   2262015113D 1   1.00000     0.00000
 Structure written by MMmdl.
 57 62  0  0  0  0  0  0  0  0  1 V2000
  153.3178  140.0060  158.7725 O   0  0  0  0  0  0  0  0  0  0  0  0
  152.6445  140.9450  158.3387 C   0  0  0  0  0  0  0  0  0  0  0  0
  151.8637  140.9987  157.1913 N   0  0  0  0  0  0  0  0  0  0  0  0
  150.7682  140.3055  157.1151 C   0  0  0  0  0  0  0  0  0  0  0  0
  150.1281  139.4438  158.0155 N   0  0  0  0  0  0  0  0  0  0  0  0
  148.9162  138.7715  157.7921 C   0  0  0  0  0  0  0  0  0  0  0  0
  148.2080  138.8517  156.6972 N   0  0  0  0  0  0  0  0  0  0  0  0
  148.8072  139.6871  155.7651 C   0  0  0  0  0  0  0  0  0  0  0  0
  149.9836  140.3974  155.8651 C   0  0  0  0  0  0  0  0  0  0  0  0
  150.2307  141.1102  154.6970 N   0  0  0  0  0  0  0  0  0  0  0  0
  149.1856  140.7942  153.9365 C   0  0  0  0  0  0  0  0  0  0  0  0
  148.2973  139.9495  154.4974 N   0  0  0  0  0  0  0  0  0  0  0  0
  147.0284  139.4074  153.9086 C   0  0  1  0  0  0  0  0  0  0  0  0
  147.0417  138.0146  154.0210 O   0  0  0  0  0  0  0  0  0  0  0  0
  146.2273  137.6188  155.1160 C   0  0  2  0  0  0  0  0  0  0  0  0
  145.8250  136.1419  155.0058 C   0  0  0  0  0  0  0  0  0  0  0  0
  145.7343  135.7545  153.6438 O   0  0  0  0  0  0  0  0  0  0  0  0
  146.1302  134.5255  153.2623 C   0  0  0  0  0  0  0  0  0  0  0  0
  147.0206  133.8886  153.8289 O   0  0  0  0  0  0  0  0  0  0  0  0
  145.3737  134.0137  152.0834 C   0  0  0  0  0  0  0  0  0  0  0  0
  145.4694  132.6450  151.7393 C   0  0  0  0  0  0  0  0  0  0  0  0
  144.7636  132.1320  150.6337 C   0  0  0  0  0  0  0  0  0  0  0  0
  143.9543  132.9820  149.8575 C   0  0  0  0  0  0  0  0  0  0  0  0
  143.8518  134.3458  150.1884 C   0  0  0  0  0  0  0  0  0  0  0  0
  144.5561  134.8604  151.2943 C   0  0  0  0  0  0  0  0  0  0  0  0
  145.0741  138.6238  155.0919 C   0  0  1  0  0  0  0  0  0  0  0  0
  144.4965  138.8037  156.3730 O   0  0  0  0  0  0  0  0  0  0  0  0
  145.2304  140.1049  157.1203 S   0  0  0  0  0  0  0  0  0  0  0  0
  144.1964  141.1066  157.4215 O   0  0  0  0  0  0  0  0  0  0  0  0
  146.1561  139.5897  158.1406 O   0  0  0  0  0  0  0  0  0  0  0  0
  146.1347  140.6563  155.8308 O   0  0  0  0  0  0  0  0  0  0  0  0
  145.7837  139.9186  154.6689 C   0  0  1  0  0  0  0  0  0  0  0  0
  152.5916  142.2003  159.1474 C   0  0  0  0  0  0  0  0  0  0  0  0
  152.4046  143.4449  158.5089 C   0  0  0  0  0  0  0  0  0  0  0  0
  152.3616  144.6298  159.2696 C   0  0  0  0  0  0  0  0  0  0  0  0
  152.5072  144.5745  160.6693 C   0  0  0  0  0  0  0  0  0  0  0  0
  152.6978  143.3342  161.3090 C   0  0  0  0  0  0  0  0  0  0  0  0
  152.7405  142.1483  160.5498 C   0  0  0  0  0  0  0  0  0  0  0  0
  148.5918  138.1527  158.6301 H   0  0  0  0  0  0  0  0  0  0  0  0
  149.0681  141.1930  152.9399 H   0  0  0  0  0  0  0  0  0  0  0  0
  147.0618  139.7076  152.8608 H   0  0  0  0  0  0  0  0  0  0  0  0
  146.8107  137.7568  156.0272 H   0  0  0  0  0  0  0  0  0  0  0  0
  146.5548  135.5153  155.5200 H   0  0  0  0  0  0  0  0  0  0  0  0
  144.8612  135.9890  155.4937 H   0  0  0  0  0  0  0  0  0  0  0  0
  146.0843  131.9731  152.3206 H   0  0  0  0  0  0  0  0  0  0  0  0
  144.8435  131.0849  150.3814 H   0  0  0  0  0  0  0  0  0  0  0  0
  143.4132  132.5887  149.0096 H   0  0  0  0  0  0  0  0  0  0  0  0
  143.2312  134.9993  149.5933 H   0  0  0  0  0  0  0  0  0  0  0  0
  144.4550  135.9119  151.5201 H   0  0  0  0  0  0  0  0  0  0  0  0
  144.3164  138.3537  154.3559 H   0  0  0  0  0  0  0  0  0  0  0  0
  145.1646  140.5328  154.0145 H   0  0  0  0  0  0  0  0  0  0  0  0
  152.2945  143.4956  157.4353 H   0  0  0  0  0  0  0  0  0  0  0  0
  152.2184  145.5814  158.7789 H   0  0  0  0  0  0  0  0  0  0  0  0
  152.4749  145.4836  161.2516 H   0  0  0  0  0  0  0  0  0  0  0  0
  152.8121  143.2921  162.3821 H   0  0  0  0  0  0  0  0  0  0  0  0
  152.8889  141.2008  161.0478 H   0  0  0  0  0  0  0  0  0  0  0  0
  150.5775  139.2986  158.9082 H   0  0  0  0  0  0  0  0  0  0  0  0
  1  2  2  0  0  0  0
  2  3  1  0  0  0  0
  2 33  1  0  0  0  0
  3  4  2  0  0  0  0
  4  9  1  0  0  0  0
  4  5  1  0  0  0  0
  5  6  1  0  0  0  0
  5 57  1  0  0  0  0
  6  7  2  0  0  0  0
  6 39  1  0  0  0  0
  7  8  1  0  0  0  0
  8 12  1  0  0  0  0
  8  9  2  0  0  0  0
  9 10  1  0  0  0  0
 10 11  2  0  0  0  0
 11 12  1  0  0  0  0
 11 40  1  0  0  0  0
 12 13  1  0  0  0  0
 13 32  1  0  0  0  0
 13 14  1  0  0  0  0
 13 41  1  0  0  0  0
 14 15  1  0  0  0  0
 15 16  1  0  0  0  0
 15 26  1  0  0  0  0
 15 42  1  0  0  0  0
 16 17  1  0  0  0  0
 16 43  1  0  0  0  0
 16 44  1  0  0  0  0
 17 18  1  0  0  0  0
 18 19  2  0  0  0  0
 18 20  1  0  0  0  0
 20 25  1  0  0  0  0
 20 21  2  0  0  0  0
 21 22  1  0  0  0  0
 21 45  1  0  0  0  0
 22 23  2  0  0  0  0
 22 46  1  0  0  0  0
 23 24  1  0  0  0  0
 23 47  1  0  0  0  0
 24 25  2  0  0  0  0
 24 48  1  0  0  0  0
 25 49  1  0  0  0  0
 26 32  1  0  0  0  0
 26 27  1  0  0  0  0
 26 50  1  0  0  0  0
 27 28  1  0  0  0  0
 28 29  2  0  0  0  0
 28 30  2  0  0  0  0
 28 31  1  0  0  0  0
 31 32  1  0  0  0  0
 32 51  1  0  0  0  0
 33 38  1  0  0  0  0
 33 34  2  0  0  0  0
 34 35  1  0  0  0  0
 34 52  1  0  0  0  0
 35 36  2  0  0  0  0
 35 53  1  0  0  0  0
 36 37  1  0  0  0  0
 36 54  1  0  0  0  0
 37 38  2  0  0  0  0
 37 55  1  0  0  0  0
 38 56  1  0  0  0  0
M  END
> <s_m_source_file>
AV-unprocessed.smi

> <i_m_source_file_index>
1

> <i_lp_mmshare_version>
43012

> <i_f3d_flags>
0

> <s_epik_input>
W2NIXTFbY0hdW2NIXVtjSF1bY0hdYzFDKD1PKVtOSF1jKG5bY0hdbjIpYyhjMjMpbltjSF1uM1tDQEBIXShbQ0BIXShbQ0BIXTQ1KU9TKE81KSg9Tyk9TylPW0NASF00W0NIMl1PQyg9TyljNltjSF1bY0hdW2NIXVtjSF1bY0hdNg==

> <s_epik_cmdline>
J2VwaWtfcHl0aG9uJywgJy1waCcsICc3LjAnLCAnLXRuJywgJzgnLCAnLW1hJywgJzIwMCcsICctbWV0YWxfYmluZGluZycsICctaW1hZScsICc8aW5maWxlLm1hZT4nLCAnLW9tYWUnLCAnPG91dGZpbGUubWFlPic=

> <r_epik_Ionization_Penalty>
0.122545

> <r_epik_Ionization_Penalty_Charging>
0.122545

> <r_epik_Ionization_Penalty_Neutral>
7.8935e-16

> <r_epik_State_Penalty>
2.69178

> <r_epik_Charging_Adjusted_Penalty>
2.81433

> <i_epik_Tot_Q>
0

> <i_epik_Tot_abs_Q>
0

> <r_epik_Metal_State_Penalty>
3.02665

> <b_epik_Metal_Only>
0

> <s_epik_Chemistry_Notes>
This compound has an ester and may undergo hydrolysis at high or low pH. This compound contains an acetal/aminal-like group ( X-CH(R)-Y where X, Y are N, S, or O) that may be acid/base labile, releasing an aldehyde.

> <s_lp_Force_Field>
OPLS_2005

> <r_lp_Energy>
59.1261

> <b_lp_Chiralities_Consistent>
1

> <s_lp_Variant>
AV-unprocessed.smi:1-16

> <Gold.Version>
5.8.1

> <Gold.Id.Protein>
6NUR|6NUR_protein|mol2

> <Gold.PLP.Fitness>
53.9150

> <Gold.PLP.PLP>
-51.0111

> <Gold.PLP.part.hbond>
-2.7138

> <Gold.PLP.part.metal>
0.0000

> <Gold.PLP.part.buried>
-5.2311

> <Gold.PLP.part.nonpolar>
-42.3108

> <Gold.PLP.part.repulsive>
0.6233

> <Gold.PLP.ligand.clash>
0.0000

> <Gold.PLP.ligand.torsion>
2.1778

> <Gold.PLP.Chemscore.Hbond>
1.4356

> <Gold.PLP.Chemscore.CHOScore>
0.8510

> <Gold.PLP.Chemscore.Metal>
0.0000

> <Gold.Chemscore.Hbonds>
donor molecule, donor type, donor heavy atom, donor atom, acceptor molecule, acceptor atom, score
      P1  H  7989  7998       L1    10  0.61
      P1  H  7997  8009       L1     1  0.48
      L1  C    11    40       P1  7957  0.86

> <Gold.PLP.Chemscore.Internal.Correction>
0.3996

> <Gold.Rescore>
     Score         DG    S(hbond)    S(metal)    S(lipo)     H(rot)  DE(clash)    DE(int)     intcor
      9.57     -16.88       0.75        0.00     122.75       2.13       0.15       7.16       ----

> <Gold.Chemscore.Fitness>
9.5660

> <Gold.Chemscore.DG>
-16.8751

> <Gold.Chemscore.ZeroCoef>
-5.4800

> <Gold.Chemscore.Hbond>
0.7468

> <Gold.Chemscore.Metal>
0.0000

> <Gold.Chemscore.Lipo>
122.7529

> <Gold.Chemscore.Internal_Hbond>
0.0000

> <Gold.Chemscore.DEClash>
0.1487

> <Gold.Chemscore.DEInternal>
7.1604

> <Gold.Chemscore.Rot>
2.1333

> <Gold.Chemscore.Internal.Correction>
   9.000000E+99

> <Gold.Chemscore.Hbonds>
donor molecule, donor type, donor heavy atom, donor atom, acceptor molecule, acceptor atom, score
      P1  H  7989  7998       L1    10  0.18
      P1  H  7997  8009       L1     1  0.04

> <Gold.Chemscore.Hbond.Weighted>
-2.4944

> <Gold.Chemscore.Metal.Weighted>
-0.0000

> <Gold.Chemscore.Lipo.Weighted>
-14.3621

> <Gold.Chemscore.Internal_Hbond.Weighted>
0.0000

> <Gold.Chemscore.DEClash.Weighted>
0.1487

> <Gold.Chemscore.DEInternal.Weighted>
7.1604

> <Gold.Chemscore.Rot.Weighted>
5.4614

> <Gold.Chemscore.Internal.Correction.Weighted>
   9.000000E+99

> <Gold.Protein.RotatedTorsions>
[ 6907 6896 6895 6894 ] final  142.47 input  -60.11 | X-H torsion
[ 7974 7965 7964 7962 ] final -120.62 input  175.53 | X-H torsion
[ 8008 7997 7996 7995 ] final  148.05 input   59.86 | X-H torsion
[ 10167 10162 10161 10158 ] final   11.46 input  -65.29 | X-H torsion
[ 10718 10713 10712 10709 ] final  -92.19 input   66.30 | X-H torsion
[ 10763 10752 10751 10750 ] final  -82.52 input  -60.55 | X-H torsion
[ 11005 11000 10999 10996 ] final   51.61 input  -57.11 | X-H torsion

> <Gold.Protein.ActiveResidues>
 VAL166  LYS551  ARG553  GLY616  TRP617  ASP618  TYR619  PRO620  LYS621  CYS622 
 ASP623  PHE694  ASN695  SER759  ASP760  ASP761  ALA762  ILE779  LEU786  VAL792 
 PHE793  MET794  SER795  GLU796  ALA797  LYS798  CYS799  TRP800  GLU811  SER814 

> <Gold.Protein.RotatedAtoms>
  152.2182  133.4963  159.5147 H   0  0  0  0  0  0  0  0  0  0  0  0  # atno 6907 bound_to 6896
  150.7006  134.1377  159.4102 H   0  0  0  0  0  0  0  0  0  0  0  0  # atno 6908 bound_to 6896
  151.9297  135.0262  160.0579 H   0  0  0  0  0  0  0  0  0  0  0  0  # atno 6909 bound_to 6896
  145.0493  140.8206  143.4219 H   0  0  0  0  0  0  0  0  0  0  0  0  # atno 7974 bound_to 7965
  156.2804  140.2139  156.5636 H   0  0  0  0  0  0  0  0  0  0  0  0  # atno 8008 bound_to 7997
  154.7193  140.0505  157.0647 H   0  0  0  0  0  0  0  0  0  0  0  0  # atno 8009 bound_to 7997
  155.0500  140.3155  155.4698 H   0  0  0  0  0  0  0  0  0  0  0  0  # atno 8010 bound_to 7997
  140.6131  143.8366  150.7087 H   0  0  0  0  0  0  0  0  0  0  0  0  # atno 10167 bound_to 10162
  156.0000  130.4977  150.5588 H   0  0  0  0  0  0  0  0  0  0  0  0  # atno 10718 bound_to 10713
  154.5768  135.5588  153.7147 H   0  0  0  0  0  0  0  0  0  0  0  0  # atno 10763 bound_to 10752
  153.0067  135.6310  154.2038 H   0  0  0  0  0  0  0  0  0  0  0  0  # atno 10764 bound_to 10752
  154.1979  135.2879  155.2980 H   0  0  0  0  0  0  0  0  0  0  0  0  # atno 10765 bound_to 10752
  140.0918  134.5199  155.8845 H   0  0  0  0  0  0  0  0  0  0  0  0  # atno 11005 bound_to 11000
  145.1547  139.2493  143.5422 LP  0  0  0  0  0  0  0  0  0  0  0  0  # atno 17320 bound_to 7965
  146.3516  140.1259  142.8598 LP  0  0  0  0  0  0  0  0  0  0  0  0  # atno 17321 bound_to 7965
  140.1939  143.4014  152.1842 LP  0  0  0  0  0  0  0  0  0  0  0  0  # atno 17342 bound_to 10162
  139.5376  144.7225  151.4839 LP  0  0  0  0  0  0  0  0  0  0  0  0  # atno 17343 bound_to 10162
  157.3500  131.0732  151.1720 LP  0  0  0  0  0  0  0  0  0  0  0  0  # atno 17370 bound_to 10713
  157.2540  130.6627  149.5944 LP  0  0  0  0  0  0  0  0  0  0  0  0  # atno 17371 bound_to 10713
  141.2080  133.6669  156.6343 LP  0  0  0  0  0  0  0  0  0  0  0  0  # atno 17394 bound_to 11000
  140.3341  134.7904  157.4349 LP  0  0  0  0  0  0  0  0  0  0  0  0  # atno 17395 bound_to 11000

$$$$
