AV-unprocessed.smi:3268|AV-procd|sdf|12509|dock10
  -GOLD-   2272018413D 1   1.00000     0.00000
 Structure written by MMmdl.
 40 41  0  0  0  0  0  0  0  0  2 V2000
  146.9832  137.9923  153.6706 C   0  0  0  0  0  0  0  0  0  0  0  0
  147.7001  137.7278  155.0105 C   0  0  1  0  0  0  0  0  0  0  0  0
  147.7826  136.2320  155.3637 C   0  0  0  0  0  0  0  0  0  0  0  0
  147.3956  135.8187  156.4576 O   0  0  0  0  0  0  0  0  0  0  0  0
  148.3001  135.4234  154.4243 N   0  0  0  0  0  0  0  0  0  0  0  0
  148.4289  133.9765  154.5492 C   0  0  0  0  0  0  0  0  0  0  0  0
  149.0167  133.3467  153.2715 C   0  0  0  0  0  0  0  0  0  0  0  0
  147.9925  132.6381  152.4626 N   0  3  0  0  0  0  0  0  0  0  0  0
  147.0697  133.5818  151.7780 C   0  0  0  0  0  0  0  0  0  0  0  0
  146.1095  132.8384  150.8339 C   0  0  0  0  0  0  0  0  0  0  0  0
  145.3226  131.7590  151.5878 C   0  0  0  0  0  0  0  0  0  0  0  0
  146.2916  130.8170  152.3130 C   0  0  0  0  0  0  0  0  0  0  0  0
  147.2448  131.6042  153.2283 C   0  0  0  0  0  0  0  0  0  0  0  0
  149.0240  138.3382  155.0414 N   0  0  0  0  0  0  0  0  0  0  0  0
  149.8443  138.6621  154.0396 C   0  0  0  0  0  0  0  0  0  0  0  0
  150.9705  139.2411  154.4311 N   0  0  0  0  0  0  0  0  0  0  0  0
  150.7663  139.2475  155.7817 C   0  0  0  0  0  0  0  0  0  0  0  0
  149.6128  138.7267  156.2001 N   0  0  0  0  0  0  0  0  0  0  0  0
  145.9654  137.6008  153.6828 H   0  0  0  0  0  0  0  0  0  0  0  0
  147.5049  137.5318  152.8305 H   0  0  0  0  0  0  0  0  0  0  0  0
  146.9177  139.0621  153.4703 H   0  0  0  0  0  0  0  0  0  0  0  0
  147.1086  138.2047  155.7937 H   0  0  0  0  0  0  0  0  0  0  0  0
  148.5984  135.8375  153.5529 H   0  0  0  0  0  0  0  0  0  0  0  0
  149.0449  133.7304  155.4159 H   0  0  0  0  0  0  0  0  0  0  0  0
  147.4338  133.5844  154.7549 H   0  0  0  0  0  0  0  0  0  0  0  0
  149.5146  134.1013  152.6606 H   0  0  0  0  0  0  0  0  0  0  0  0
  149.7867  132.6319  153.5657 H   0  0  0  0  0  0  0  0  0  0  0  0
  146.5049  134.1445  152.5232 H   0  0  0  0  0  0  0  0  0  0  0  0
  147.6435  134.3080  151.2006 H   0  0  0  0  0  0  0  0  0  0  0  0
  145.4208  133.5452  150.3698 H   0  0  0  0  0  0  0  0  0  0  0  0
  146.6760  132.3798  150.0224 H   0  0  0  0  0  0  0  0  0  0  0  0
  144.6522  132.2268  152.3099 H   0  0  0  0  0  0  0  0  0  0  0  0
  144.6949  131.1960  150.8962 H   0  0  0  0  0  0  0  0  0  0  0  0
  145.7324  130.0855  152.8971 H   0  0  0  0  0  0  0  0  0  0  0  0
  146.8702  130.2514  151.5814 H   0  0  0  0  0  0  0  0  0  0  0  0
  147.9334  130.9034  153.6982 H   0  0  0  0  0  0  0  0  0  0  0  0
  146.6829  132.0812  154.0328 H   0  0  0  0  0  0  0  0  0  0  0  0
  149.6115  138.4740  153.0017 H   0  0  0  0  0  0  0  0  0  0  0  0
  151.4866  139.6534  156.4765 H   0  0  0  0  0  0  0  0  0  0  0  0
  148.4933  132.1566  151.7292 H   0  0  0  0  0  0  0  0  0  0  0  0
  1  2  1  0  0  0  0
  1 19  1  0  0  0  0
  1 20  1  0  0  0  0
  1 21  1  0  0  0  0
  2  3  1  0  0  0  0
  2 14  1  0  0  0  0
  2 22  1  0  0  0  0
  3  4  2  0  0  0  0
  3  5  1  0  0  0  0
  5  6  1  0  0  0  0
  5 23  1  0  0  0  0
  6  7  1  0  0  0  0
  6 24  1  0  0  0  0
  6 25  1  0  0  0  0
  7  8  1  0  0  0  0
  7 26  1  0  0  0  0
  7 27  1  0  0  0  0
  8 13  1  0  0  0  0
  8  9  1  0  0  0  0
  8 40  1  0  0  0  0
  9 10  1  0  0  0  0
  9 28  1  0  0  0  0
  9 29  1  0  0  0  0
 10 11  1  0  0  0  0
 10 30  1  0  0  0  0
 10 31  1  0  0  0  0
 11 12  1  0  0  0  0
 11 32  1  0  0  0  0
 11 33  1  0  0  0  0
 12 13  1  0  0  0  0
 12 34  1  0  0  0  0
 12 35  1  0  0  0  0
 13 36  1  0  0  0  0
 13 37  1  0  0  0  0
 14 18  1  0  0  0  0
 14 15  1  0  0  0  0
 15 16  2  0  0  0  0
 15 38  1  0  0  0  0
 16 17  1  0  0  0  0
 17 18  2  0  0  0  0
 17 39  1  0  0  0  0
M  CHG  1   8   1
M  END
> <s_m_source_file>
AV-unprocessed.smi

> <i_m_source_file_index>
3268

> <i_lp_mmshare_version>
43012

> <i_f3d_flags>
0

> <s_epik_input>
bjFbY0hdbltjSF1uMVtDQEhdKFtDSDNdKUMoPU8pW05IXVtDSDJdW0NIMl1OMltDSDJdW0NIMl1bQ0gyXVtDSDJdW0NIMl0y

> <s_epik_cmdline>
J2VwaWtfcHl0aG9uJywgJy1waCcsICc3LjAnLCAnLXRuJywgJzgnLCAnLW1hJywgJzIwMCcsICctbWV0YWxfYmluZGluZycsICctaW1hZScsICc8aW5maWxlLm1hZT4nLCAnLW9tYWUnLCAnPG91dGZpbGUubWFlPic=

> <r_lp_tautomer_probability>
1

> <r_epik_Ionization_Penalty>
0.00266407

> <r_epik_Ionization_Penalty_Charging>
0.00265606

> <r_epik_Ionization_Penalty_Neutral>
8.01095e-06

> <r_epik_State_Penalty>
0.00184955

> <r_epik_Charging_Adjusted_Penalty>
0.00450561

> <i_epik_Tot_Q>
1

> <i_epik_Tot_abs_Q>
1

> <r_epik_Metal_State_Penalty>
-0

> <b_epik_Metal_Only>
0

> <s_lp_Force_Field>
OPLS_2005

> <r_lp_Energy>
21.812

> <b_lp_Chiralities_Consistent>
1

> <s_lp_Variant>
AV-unprocessed.smi:3268-2

> <Gold.Version>
5.8.1

> <Gold.Id.Protein>
6NUR|6NUR_protein|mol2

> <Gold.PLP.Fitness>
37.2630

> <Gold.PLP.PLP>
-24.6974

> <Gold.PLP.part.hbond>
-3.0000

> <Gold.PLP.part.metal>
0.0000

> <Gold.PLP.part.buried>
-1.9577

> <Gold.PLP.part.nonpolar>
-18.7335

> <Gold.PLP.part.repulsive>
0.1447

> <Gold.PLP.ligand.clash>
0.0000

> <Gold.PLP.ligand.torsion>
1.2103

> <Gold.PLP.Chemscore.Hbond>
3.0000

> <Gold.PLP.Chemscore.CHOScore>
1.9511

> <Gold.PLP.Chemscore.Metal>
0.0000

> <Gold.Chemscore.Hbonds>
donor molecule, donor type, donor heavy atom, donor atom, acceptor molecule, acceptor atom, score
      L1  H     5    23       P1  7948  1.00
      L1  H     8    40       P1 10747  1.00
      P1  H  7989  7998       L1    16  1.00
      L1  C    15    38       P1  7948  0.92
      L1  C    15    38       P1  7957  0.98

> <Gold.PLP.Chemscore.Internal.Correction>
0.1328

> <Gold.Rescore>
     Score         DG    S(hbond)    S(metal)    S(lipo)     H(rot)  DE(clash)    DE(int)     intcor
     14.24     -15.06       2.99        0.00      52.76       2.57       0.18       0.65       ----

> <Gold.Chemscore.Fitness>
14.2391

> <Gold.Chemscore.DG>
-15.0619

> <Gold.Chemscore.ZeroCoef>
-5.4800

> <Gold.Chemscore.Hbond>
2.9897

> <Gold.Chemscore.Metal>
0.0000

> <Gold.Chemscore.Lipo>
52.7610

> <Gold.Chemscore.Internal_Hbond>
0.0000

> <Gold.Chemscore.DEClash>
0.1759

> <Gold.Chemscore.DEInternal>
0.6469

> <Gold.Chemscore.Rot>
2.5690

> <Gold.Chemscore.Internal.Correction>
   9.000000E+99

> <Gold.Chemscore.Hbonds>
donor molecule, donor type, donor heavy atom, donor atom, acceptor molecule, acceptor atom, score
      L1  H     5    23       P1  7948  1.00
      L1  H     8    40       P1 10747  0.97
      P1  H  7989  7998       L1    16  0.94

> <Gold.Chemscore.Hbond.Weighted>
-9.9855

> <Gold.Chemscore.Metal.Weighted>
-0.0000

> <Gold.Chemscore.Lipo.Weighted>
-6.1730

> <Gold.Chemscore.Internal_Hbond.Weighted>
0.0000

> <Gold.Chemscore.DEClash.Weighted>
0.1759

> <Gold.Chemscore.DEInternal.Weighted>
0.6469

> <Gold.Chemscore.Rot.Weighted>
6.5766

> <Gold.Chemscore.Internal.Correction.Weighted>
   9.000000E+99

> <Gold.Protein.RotatedTorsions>
[ 6907 6896 6895 6894 ] final  -56.26 input  -60.11 | X-H torsion
[ 7974 7965 7964 7962 ] final  -16.62 input  175.53 | X-H torsion
[ 8008 7997 7996 7995 ] final   51.04 input   59.86 | X-H torsion
[ 10167 10162 10161 10158 ] final   49.72 input  -65.29 | X-H torsion
[ 10718 10713 10712 10709 ] final   42.30 input   66.30 | X-H torsion
[ 10763 10752 10751 10750 ] final   46.06 input  -60.55 | X-H torsion
[ 11005 11000 10999 10996 ] final   -6.91 input  -57.11 | X-H torsion

> <Gold.Protein.ActiveResidues>
 VAL166  LYS551  ARG553  GLY616  TRP617  ASP618  TYR619  PRO620  LYS621  CYS622 
 ASP623  PHE694  ASN695  SER759  ASP760  ASP761  ALA762  ILE779  LEU786  VAL792 
 PHE793  MET794  SER795  GLU796  ALA797  LYS798  CYS799  TRP800  GLU811  SER814 

> <Gold.Protein.RotatedAtoms>
  150.8183  134.7376  159.6749 H   0  0  0  0  0  0  0  0  0  0  0  0  # atno 6907 bound_to 6896
  152.4300  134.5792  159.9953 H   0  0  0  0  0  0  0  0  0  0  0  0  # atno 6908 bound_to 6896
  151.5983  133.3321  159.3078 H   0  0  0  0  0  0  0  0  0  0  0  0  # atno 6909 bound_to 6896
  146.1979  140.3663  142.8434 H   0  0  0  0  0  0  0  0  0  0  0  0  # atno 7974 bound_to 7965
  155.4288  140.3449  155.4278 H   0  0  0  0  0  0  0  0  0  0  0  0  # atno 8008 bound_to 7997
  156.1349  140.1525  156.9040 H   0  0  0  0  0  0  0  0  0  0  0  0  # atno 8009 bound_to 7997
  154.4924  140.0837  156.7603 H   0  0  0  0  0  0  0  0  0  0  0  0  # atno 8010 bound_to 7997
  140.2799  144.3168  150.6267 H   0  0  0  0  0  0  0  0  0  0  0  0  # atno 10167 bound_to 10162
  157.4033  130.7872  149.7367 H   0  0  0  0  0  0  0  0  0  0  0  0  # atno 10718 bound_to 10713
  152.9816  135.6020  154.3537 H   0  0  0  0  0  0  0  0  0  0  0  0  # atno 10763 bound_to 10752
  154.3225  135.2769  155.2514 H   0  0  0  0  0  0  0  0  0  0  0  0  # atno 10764 bound_to 10752
  154.4675  135.5950  153.6354 H   0  0  0  0  0  0  0  0  0  0  0  0  # atno 10765 bound_to 10752
  140.7071  133.8940  155.8724 H   0  0  0  0  0  0  0  0  0  0  0  0  # atno 11005 bound_to 11000
  144.8619  140.7152  143.6102 LP  0  0  0  0  0  0  0  0  0  0  0  0  # atno 17320 bound_to 7965
  145.3583  139.1688  143.4397 LP  0  0  0  0  0  0  0  0  0  0  0  0  # atno 17321 bound_to 7965
  140.5820  143.2172  151.7410 LP  0  0  0  0  0  0  0  0  0  0  0  0  # atno 17342 bound_to 10162
  139.4965  144.4066  152.0125 LP  0  0  0  0  0  0  0  0  0  0  0  0  # atno 17343 bound_to 10162
  155.9829  130.4005  150.3391 LP  0  0  0  0  0  0  0  0  0  0  0  0  # atno 17370 bound_to 10713
  157.1521  131.0323  151.2880 LP  0  0  0  0  0  0  0  0  0  0  0  0  # atno 17371 bound_to 10713
  141.0115  134.1013  157.4216 LP  0  0  0  0  0  0  0  0  0  0  0  0  # atno 17394 bound_to 11000
  139.8881  135.0095  156.6602 LP  0  0  0  0  0  0  0  0  0  0  0  0  # atno 17395 bound_to 11000

$$$$
