AV-unprocessed.smi:290|AV-procd|sdf|2238|dock8
  -GOLD-   2262022113D 1   1.00000     0.00000
 Structure written by MMmdl.
 59 62  0  0  0  0  0  0  0  0  2 V2000
  153.7480  141.2754  159.5915 C   0  0  0  0  0  0  0  0  0  0  0  0
  152.5990  142.2955  159.6027 C   0  0  1  0  0  0  0  0  0  0  0  0
  153.1705  143.5991  159.5382 O   0  0  0  0  0  0  0  0  0  0  0  0
  152.2446  144.4675  158.9106 C   0  0  0  0  0  0  0  0  0  0  0  0
  151.7060  143.6030  157.7809 C   0  0  0  0  0  0  0  0  0  0  0  0
  151.5821  142.2248  158.4277 C   0  0  2  0  0  0  0  0  0  0  0  0
  150.2852  142.1262  158.9911 O   0  0  0  0  0  0  0  0  0  0  0  0
  151.7619  141.0519  157.4273 C   0  0  0  0  0  0  0  0  0  0  0  0
  150.5870  140.8065  156.6041 N   0  0  0  0  0  0  0  0  0  0  0  0
  149.8573  141.7468  155.9119 C   0  0  0  0  0  0  0  0  0  0  0  0
  148.8383  141.2801  155.2434 N   0  0  0  0  0  0  0  0  0  0  0  0
  148.8713  139.9128  155.4875 C   0  0  0  0  0  0  0  0  0  0  0  0
  148.0680  138.8091  155.0837 C   0  0  0  0  0  0  0  0  0  0  0  0
  146.9844  138.8921  154.2823 N   0  0  0  0  0  0  0  0  0  0  0  0
  147.2358  139.2705  152.8950 C   0  0  0  0  0  0  0  0  0  0  0  0
  146.3045  138.4084  152.0405 C   0  0  0  0  0  0  0  0  0  0  0  0
  146.1229  137.1523  152.8994 C   0  0  2  0  0  0  0  0  0  0  0  0
  144.9690  136.2776  152.5350 N   0  3  1  0  0  0  0  0  0  0  0  0
  145.1808  135.5558  151.2541 C   0  0  0  0  0  0  0  0  0  0  0  0
  144.5891  135.3525  153.6395 C   0  0  0  0  0  0  0  0  0  0  0  0
  143.1840  134.7453  153.4690 C   0  0  0  0  0  0  0  0  0  0  0  0
  142.6794  134.3133  154.7143 O   0  0  0  0  0  0  0  0  0  0  0  0
  146.0747  137.7505  154.3244 C   0  0  2  0  0  0  0  0  0  0  0  0
  144.6800  138.2284  154.7706 C   0  0  0  0  0  0  0  0  0  0  0  0
  148.4159  137.5745  155.5196 N   0  0  0  0  0  0  0  0  0  0  0  0
  149.4818  137.4218  156.3114 C   0  0  0  0  0  0  0  0  0  0  0  0
  150.3186  138.3536  156.7740 N   0  0  0  0  0  0  0  0  0  0  0  0
  149.9712  139.5969  156.3336 C   0  0  0  0  0  0  0  0  0  0  0  0
  147.0303  136.5548  152.7996 H   0  0  0  0  0  0  0  0  0  0  0  0
  146.4287  137.0110  155.0449 H   0  0  0  0  0  0  0  0  0  0  0  0
  153.3736  140.2529  159.6424 H   0  0  0  0  0  0  0  0  0  0  0  0
  154.4020  141.4263  160.4505 H   0  0  0  0  0  0  0  0  0  0  0  0
  154.3616  141.3719  158.6957 H   0  0  0  0  0  0  0  0  0  0  0  0
  152.0791  142.2156  160.5596 H   0  0  0  0  0  0  0  0  0  0  0  0
  151.4547  144.7396  159.6127 H   0  0  0  0  0  0  0  0  0  0  0  0
  152.7238  145.3793  158.5544 H   0  0  0  0  0  0  0  0  0  0  0  0
  150.7736  143.9801  157.3583 H   0  0  0  0  0  0  0  0  0  0  0  0
  152.4468  143.5765  156.9807 H   0  0  0  0  0  0  0  0  0  0  0  0
  149.8282  141.4130  158.5719 H   0  0  0  0  0  0  0  0  0  0  0  0
  152.5934  141.2532  156.7516 H   0  0  0  0  0  0  0  0  0  0  0  0
  152.0094  140.1304  157.9560 H   0  0  0  0  0  0  0  0  0  0  0  0
  150.1038  142.7986  155.9224 H   0  0  0  0  0  0  0  0  0  0  0  0
  147.0386  140.3323  152.7451 H   0  0  0  0  0  0  0  0  0  0  0  0
  148.2755  139.0884  152.6198 H   0  0  0  0  0  0  0  0  0  0  0  0
  145.3508  138.9191  151.9005 H   0  0  0  0  0  0  0  0  0  0  0  0
  146.7287  138.2026  151.0572 H   0  0  0  0  0  0  0  0  0  0  0  0
  146.0657  134.9203  151.3078 H   0  0  0  0  0  0  0  0  0  0  0  0
  145.3078  136.2481  150.4224 H   0  0  0  0  0  0  0  0  0  0  0  0
  144.3306  134.9273  150.9949 H   0  0  0  0  0  0  0  0  0  0  0  0
  145.3327  134.5575  153.7127 H   0  0  0  0  0  0  0  0  0  0  0  0
  144.6129  135.8706  154.5979 H   0  0  0  0  0  0  0  0  0  0  0  0
  142.4809  135.4376  153.0085 H   0  0  0  0  0  0  0  0  0  0  0  0
  143.2405  133.8786  152.8099 H   0  0  0  0  0  0  0  0  0  0  0  0
  142.4726  133.3926  154.6535 H   0  0  0  0  0  0  0  0  0  0  0  0
  143.9823  137.3986  154.8692 H   0  0  0  0  0  0  0  0  0  0  0  0
  144.2515  138.9449  154.0695 H   0  0  0  0  0  0  0  0  0  0  0  0
  144.7341  138.7153  155.7448 H   0  0  0  0  0  0  0  0  0  0  0  0
  149.6942  136.4086  156.6200 H   0  0  0  0  0  0  0  0  0  0  0  0
  144.1811  136.8947  152.3953 H   0  0  0  0  0  0  0  0  0  0  0  0
  1  2  1  0  0  0  0
  1 31  1  0  0  0  0
  1 32  1  0  0  0  0
  1 33  1  0  0  0  0
  2  6  1  0  0  0  0
  2  3  1  0  0  0  0
  2 34  1  0  0  0  0
  3  4  1  0  0  0  0
  4  5  1  0  0  0  0
  4 35  1  0  0  0  0
  4 36  1  0  0  0  0
  5  6  1  0  0  0  0
  5 37  1  0  0  0  0
  5 38  1  0  0  0  0
  6  7  1  0  0  0  0
  6  8  1  0  0  0  0
  7 39  1  0  0  0  0
  8  9  1  0  0  0  0
  8 40  1  0  0  0  0
  8 41  1  0  0  0  0
  9 28  1  0  0  0  0
  9 10  1  0  0  0  0
 10 11  2  0  0  0  0
 10 42  1  0  0  0  0
 11 12  1  0  0  0  0
 12 28  2  0  0  0  0
 12 13  1  0  0  0  0
 13 14  1  0  0  0  0
 13 25  2  0  0  0  0
 14 23  1  0  0  0  0
 14 15  1  0  0  0  0
 15 16  1  0  0  0  0
 15 43  1  0  0  0  0
 15 44  1  0  0  0  0
 16 17  1  0  0  0  0
 16 45  1  0  0  0  0
 16 46  1  0  0  0  0
 17 29  1  0  0  0  0
 17 18  1  0  0  0  0
 17 23  1  0  0  0  0
 18 19  1  0  0  0  0
 18 20  1  0  0  0  0
 18 59  1  0  0  0  0
 19 47  1  0  0  0  0
 19 48  1  0  0  0  0
 19 49  1  0  0  0  0
 20 21  1  0  0  0  0
 20 50  1  0  0  0  0
 20 51  1  0  0  0  0
 21 22  1  0  0  0  0
 21 52  1  0  0  0  0
 21 53  1  0  0  0  0
 22 54  1  0  0  0  0
 23 30  1  0  0  0  0
 23 24  1  0  0  0  0
 24 55  1  0  0  0  0
 24 56  1  0  0  0  0
 24 57  1  0  0  0  0
 25 26  1  0  0  0  0
 26 27  2  0  0  0  0
 26 58  1  0  0  0  0
 27 28  1  0  0  0  0
M  CHG  1  18   1
M  END
> <s_m_source_file>
AV-unprocessed.smi

> <i_m_source_file_index>
290

> <i_lp_mmshare_version>
43012

> <i_f3d_flags>
0

> <s_epik_input>
W0NIMl0xW0NIMl1PW0NAQEhdKFtDSDNdKVtDQEBdMShbT0hdKVtDSDJdbihbY0hdbjIpYyhjMjMpbltjSF1uYzNONFtDSDJdW0NIMl1bQ0BIXShbQ0BIXTRbQ0gzXSlOKFtDSDNdKVtDSDJdW0NIMl1bT0hd

> <s_epik_cmdline>
J2VwaWtfcHl0aG9uJywgJy1waCcsICc3LjAnLCAnLXRuJywgJzgnLCAnLW1hJywgJzIwMCcsICctbWV0YWxfYmluZGluZycsICctaW1hZScsICc8aW5maWxlLm1hZT4nLCAnLW9tYWUnLCAnPG91dGZpbGUubWFlPic=

> <r_lp_tautomer_probability>
1

> <r_epik_Ionization_Penalty>
0.0036983

> <r_epik_Ionization_Penalty_Charging>
0.0032725

> <r_epik_Ionization_Penalty_Neutral>
0.000425798

> <r_epik_State_Penalty>
-0

> <r_epik_Charging_Adjusted_Penalty>
0.0032725

> <i_epik_Tot_Q>
1

> <i_epik_Tot_abs_Q>
1

> <r_epik_Metal_State_Penalty>
-0

> <b_epik_Metal_Only>
0

> <s_lp_Force_Field>
OPLS_2005

> <r_lp_Energy>
65.2736

> <b_lp_Chiralities_Consistent>
1

> <s_lp_Variant>
AV-unprocessed.smi:290-24

> <Gold.Version>
5.8.1

> <Gold.Id.Protein>
6NUR|6NUR_protein|mol2

> <Gold.PLP.Fitness>
42.6825

> <Gold.PLP.PLP>
-38.6649

> <Gold.PLP.part.hbond>
-2.1672

> <Gold.PLP.part.metal>
0.0000

> <Gold.PLP.part.buried>
-0.8740

> <Gold.PLP.part.nonpolar>
-35.6127

> <Gold.PLP.part.repulsive>
0.3326

> <Gold.PLP.ligand.clash>
0.0000

> <Gold.PLP.ligand.torsion>
1.0779

> <Gold.PLP.Chemscore.Hbond>
1.0000

> <Gold.PLP.Chemscore.CHOScore>
0.9938

> <Gold.PLP.Chemscore.Metal>
0.0000

> <Gold.Chemscore.Hbonds>
donor molecule, donor type, donor heavy atom, donor atom, acceptor molecule, acceptor atom, score
      L1  H    22    54       P1 10957  1.00
      L1  C    10    42       P1  8028  1.00

> <Gold.PLP.Chemscore.Internal.Correction>
0.1918

> <Gold.Rescore>
     Score         DG    S(hbond)    S(metal)    S(lipo)     H(rot)  DE(clash)    DE(int)     intcor
      9.36     -11.35       1.00        0.00     101.93       3.67       0.92       1.08       ----

> <Gold.Chemscore.Fitness>
9.3576

> <Gold.Chemscore.DG>
-11.3533

> <Gold.Chemscore.ZeroCoef>
-5.4800

> <Gold.Chemscore.Hbond>
0.9974

> <Gold.Chemscore.Metal>
0.0000

> <Gold.Chemscore.Lipo>
101.9339

> <Gold.Chemscore.Internal_Hbond>
0.0000

> <Gold.Chemscore.DEClash>
0.9161

> <Gold.Chemscore.DEInternal>
1.0796

> <Gold.Chemscore.Rot>
3.6658

> <Gold.Chemscore.Internal.Correction>
   9.000000E+99

> <Gold.Chemscore.Hbonds>
donor molecule, donor type, donor heavy atom, donor atom, acceptor molecule, acceptor atom, score
      L1  H    22    54       P1 10957  0.99

> <Gold.Chemscore.Hbond.Weighted>
-3.3314

> <Gold.Chemscore.Metal.Weighted>
-0.0000

> <Gold.Chemscore.Lipo.Weighted>
-11.9263

> <Gold.Chemscore.Internal_Hbond.Weighted>
0.0000

> <Gold.Chemscore.DEClash.Weighted>
0.9161

> <Gold.Chemscore.DEInternal.Weighted>
1.0796

> <Gold.Chemscore.Rot.Weighted>
9.3844

> <Gold.Chemscore.Internal.Correction.Weighted>
   9.000000E+99

> <Gold.Protein.RotatedTorsions>
[ 6907 6896 6895 6894 ] final    5.89 input  -60.11 | X-H torsion
[ 7974 7965 7964 7962 ] final  170.13 input  175.53 | X-H torsion
[ 8008 7997 7996 7995 ] final -100.82 input   59.86 | X-H torsion
[ 10167 10162 10161 10158 ] final   34.39 input  -65.29 | X-H torsion
[ 10718 10713 10712 10709 ] final  -25.49 input   66.30 | X-H torsion
[ 10763 10752 10751 10750 ] final   40.54 input  -60.55 | X-H torsion
[ 11005 11000 10999 10996 ] final   35.17 input  -57.11 | X-H torsion

> <Gold.Protein.ActiveResidues>
 VAL166  LYS551  ARG553  GLY616  TRP617  ASP618  TYR619  PRO620  LYS621  CYS622 
 ASP623  PHE694  ASN695  SER759  ASP760  ASP761  ALA762  ILE779  LEU786  VAL792 
 PHE793  MET794  SER795  GLU796  ALA797  LYS798  CYS799  TRP800  GLU811  SER814 

> <Gold.Protein.RotatedAtoms>
  151.6648  135.0984  160.0186 H   0  0  0  0  0  0  0  0  0  0  0  0  # atno 6907 bound_to 6896
  152.3926  133.6696  159.6258 H   0  0  0  0  0  0  0  0  0  0  0  0  # atno 6908 bound_to 6896
  150.7839  133.8845  159.3336 H   0  0  0  0  0  0  0  0  0  0  0  0  # atno 6909 bound_to 6896
  144.7333  139.9157  143.6417 H   0  0  0  0  0  0  0  0  0  0  0  0  # atno 7974 bound_to 7965
  154.8340  140.0438  157.1496 H   0  0  0  0  0  0  0  0  0  0  0  0  # atno 8008 bound_to 7997
  154.9121  140.3015  155.5240 H   0  0  0  0  0  0  0  0  0  0  0  0  # atno 8009 bound_to 7997
  156.2988  140.2356  156.4161 H   0  0  0  0  0  0  0  0  0  0  0  0  # atno 8010 bound_to 7997
  140.4320  144.1311  150.6161 H   0  0  0  0  0  0  0  0  0  0  0  0  # atno 10167 bound_to 10162
  156.4637  130.4509  149.6912 H   0  0  0  0  0  0  0  0  0  0  0  0  # atno 10718 bound_to 10713
  152.9933  135.6188  154.2643 H   0  0  0  0  0  0  0  0  0  0  0  0  # atno 10763 bound_to 10752
  154.2378  135.2789  155.2867 H   0  0  0  0  0  0  0  0  0  0  0  0  # atno 10764 bound_to 10752
  154.5395  135.5765  153.6885 H   0  0  0  0  0  0  0  0  0  0  0  0  # atno 10765 bound_to 10752
  140.2454  134.3365  155.7910 H   0  0  0  0  0  0  0  0  0  0  0  0  # atno 11005 bound_to 11000
  146.0967  139.3960  143.0372 LP  0  0  0  0  0  0  0  0  0  0  0  0  # atno 17320 bound_to 7965
  145.7635  140.9925  143.1187 LP  0  0  0  0  0  0  0  0  0  0  0  0  # atno 17321 bound_to 7965
  140.4416  143.2524  151.9465 LP  0  0  0  0  0  0  0  0  0  0  0  0  # atno 17342 bound_to 10162
  139.4785  144.5648  151.8182 LP  0  0  0  0  0  0  0  0  0  0  0  0  # atno 17343 bound_to 10162
  156.3690  130.7520  151.2501 LP  0  0  0  0  0  0  0  0  0  0  0  0  # atno 17370 bound_to 10713
  157.7496  131.0328  150.4245 LP  0  0  0  0  0  0  0  0  0  0  0  0  # atno 17371 bound_to 10713
  141.2206  133.7323  156.8952 LP  0  0  0  0  0  0  0  0  0  0  0  0  # atno 17394 bound_to 11000
  140.1611  134.9165  157.2716 LP  0  0  0  0  0  0  0  0  0  0  0  0  # atno 17395 bound_to 11000

$$$$
