#       Name:                AV-unprocessed.smi:1115
#       Creating user name   scv26
#       Creation time:       Fri Mar 27 03:35:30 2020


#       File generated by GOLD software.
#

@<TRIPOS>MOLECULE
AV-unprocessed.smi:1115
    56    57     1
SMALL
NO_CHARGES


@<TRIPOS>ATOM
      1 ****        -5.9786   4.5601   0.4791 C.3            1 S1                 0.0000
      2 ****        -4.7343   4.6417  -0.2742 N.pl3          1 S1                 0.0000
      3 ****        -4.6025   5.5916  -1.3731 C.3            1 S1                 0.0000
      4 ****        -3.7154   3.6918  -0.0450 C.ar           1 S1                 0.0000
      5 ****        -3.7828   2.7144   0.9781 C.ar           1 S1                 0.0000
      6 ****        -2.7242   1.7979   1.1435 C.ar           1 S1                 0.0000
      7 ****        -1.5992   1.8646   0.2966 C.ar           1 S1                 0.0000
      8 ****        -0.5691   0.9041   0.4869 N.am           1 S1                 0.0000
      9 ****         0.7300   0.9697   0.1439 C.2            1 S1                 0.0000
     10 ****         1.1876   1.9908  -0.3811 O.2            1 S1                 0.0000
     11 ****         1.4000  -0.1694   0.4633 N.pl3          1 S1                -1.0000
     12 ****         2.8341  -0.3801   0.2352 C.3            1 S1                 0.0000
     13 ****         3.2644  -1.8323   0.6470 C.3            1 S1                 0.0000
     14 ****         4.7583  -2.0717   0.2898 C.3            1 S1                 0.0000
     15 ****         3.1785  -1.9511   2.2011 C.3            1 S1                 0.0000
     16 ****         2.3712  -2.8335  -0.0594 N.4            1 S1                 1.0000
     17 ****         2.7231  -3.1526  -1.4771 C.3            1 S1                 0.0000
     18 ****         1.6027  -3.9657  -2.1404 C.3            1 S1                 0.0000
     19 ****         1.4103  -5.1708  -1.4140 O.3            1 S1                 0.0000
     20 ****         1.0003  -4.9157  -0.0783 C.3            1 S1                 0.0000
     21 ****         2.0741  -4.1017   0.6656 C.3            1 S1                 0.0000
     22 ****        -1.5833   2.8501  -0.7182 C.ar           1 S1                 0.0000
     23 ****        -2.6189   3.7082  -0.8418 N.pl3          1 S1                 1.0000
     24 ****        -6.4438   3.5830   0.3474 H              1 S1                 0.0000
     25 ****        -6.6921   5.3156   0.1497 H              1 S1                 0.0000
     26 ****        -5.7935   4.7182   1.5418 H              1 S1                 0.0000
     27 ****        -4.5557   5.0675  -2.3280 H              1 S1                 0.0000
     28 ****        -3.6969   6.1877  -1.2585 H              1 S1                 0.0000
     29 ****        -5.4489   6.2778  -1.4076 H              1 S1                 0.0000
     30 ****        -4.6314   2.6502   1.6423 H              1 S1                 0.0000
     31 ****        -2.7768   1.0510   1.9222 H              1 S1                 0.0000
     32 ****        -0.8366   0.0767   0.9994 H              1 S1                 0.0000
     33 ****         3.0864  -0.2239  -0.8142 H              1 S1                 0.0000
     34 ****         3.4385   0.3427   0.7845 H              1 S1                 0.0000
     35 ****         5.4251  -1.4208   0.8594 H              1 S1                 0.0000
     36 ****         4.9887  -1.9077  -0.7647 H              1 S1                 0.0000
     37 ****         5.0521  -3.0954   0.5242 H              1 S1                 0.0000
     38 ****         3.7800  -1.1961   2.7127 H              1 S1                 0.0000
     39 ****         3.5649  -2.9093   2.5503 H              1 S1                 0.0000
     40 ****         2.1592  -1.8573   2.5817 H              1 S1                 0.0000
     41 ****         2.8868  -2.2475  -2.0616 H              1 S1                 0.0000
     42 ****         3.6487  -3.7285  -1.5141 H              1 S1                 0.0000
     43 ****         0.6751  -3.3925  -2.1854 H              1 S1                 0.0000
     44 ****         1.8758  -4.2136  -3.1663 H              1 S1                 0.0000
     45 ****         0.0454  -4.3876  -0.0762 H              1 S1                 0.0000
     46 ****         0.8356  -5.8675   0.4268 H              1 S1                 0.0000
     47 ****         2.9885  -4.6865   0.7744 H              1 S1                 0.0000
     48 ****         1.6847  -3.9130   1.6645 H              1 S1                 0.0000
     49 ****        -0.7954   2.9812  -1.4444 H              1 S1                 0.0000
     50 ****        -2.5730   4.4074  -1.5830 H              1 S1                 0.0000
     51 ****         1.4835  -2.3511  -0.1025 H              1 S1                 0.0000
     52 ****         0.5911   2.7747  -0.5534 LP             1 S1                 0.0000
     53 ****         2.1542   2.0330  -0.6337 LP             1 S1                 0.0000
     54 ****         0.8802  -0.9141   0.8820 LP             1 S1                 0.0000
     55 ****         2.2702  -5.6809  -1.3978 LP             1 S1                 0.0000
     56 ****         0.7076  -5.7165  -1.8707 LP             1 S1                 0.0000
@<TRIPOS>BOND
    1    1    2 1     
    2    1   24 1     
    3    1   25 1     
    4    1   26 1     
    5    2    3 1     
    6    2    4 1     
    7    3   27 1     
    8    3   28 1     
    9    3   29 1     
   10    4   23 ar    
   11    4    5 ar    
   12    5    6 ar    
   13    5   30 1     
   14    6    7 ar    
   15    6   31 1     
   16    7    8 1     
   17    7   22 ar    
   18    8    9 am    
   19    8   32 1     
   20    9   10 2     
   21    9   11 1     
   22   11   12 1     
   23   12   13 1     
   24   12   33 1     
   25   12   34 1     
   26   13   14 1     
   27   13   15 1     
   28   13   16 1     
   29   14   35 1     
   30   14   36 1     
   31   14   37 1     
   32   15   38 1     
   33   15   39 1     
   34   15   40 1     
   35   16   21 1     
   36   16   17 1     
   37   16   51 1     
   38   17   18 1     
   39   17   41 1     
   40   17   42 1     
   41   18   19 1     
   42   18   43 1     
   43   18   44 1     
   44   19   20 1     
   45   20   21 1     
   46   20   45 1     
   47   20   46 1     
   48   21   47 1     
   49   21   48 1     
   50   22   23 ar    
   51   22   49 1     
   52   23   50 1     
   53   10   52 1     
   54   10   53 1     
   55   11   54 1     
   56   19   55 1     
   57   19   56 1     
@<TRIPOS>SUBSTRUCTURE
      1 S1             1
@<TRIPOS>SET
LONE_PAIRS      STATIC     ATOMS    <user>   **** ""
5 52 53 54 55 56
DONOR_HYDROGENS      STATIC     ATOMS    <user>   **** ""
3 32 51 50
ATOM$BLUE        STATIC     ATOMS    COLORGROUP SYSTEM
5 52 53 54 55 56
ATOM$RED        STATIC     ATOMS    COLORGROUP SYSTEM
3 32 51 50
