AV-unprocessed.smi:3151|AV-procd|sdf|12016|dock6
  -GOLD-   2272017423D 1   1.00000     0.00000
 Structure written by MMmdl.
 35 36  0  0  0  0  0  0  0  0  1 V2000
  149.8800  142.8488  159.0149 O   0  0  0  0  0  0  0  0  0  0  0  0
  150.7656  143.1909  158.2309 C   0  0  0  0  0  0  0  0  0  0  0  0
  151.8017  144.2419  158.6435 C   0  0  0  0  0  0  0  0  0  0  0  0
  152.7267  143.7756  159.7872 C   0  0  0  0  0  0  0  0  0  0  0  0
  153.1875  142.3164  159.6872 C   0  0  0  0  0  0  0  0  0  0  0  0
  153.6081  141.9265  161.1094 C   0  0  0  0  0  0  0  0  0  0  0  0
  152.9265  142.9288  162.0532 C   0  0  0  0  0  0  0  0  0  0  0  0
  152.0664  143.8343  161.1663 C   0  0  0  0  0  0  0  0  0  0  0  0
  150.8909  142.6808  156.9962 N   0  0  0  0  0  0  0  0  0  0  0  0
  150.0074  141.6780  156.4132 C   0  0  0  0  0  0  0  0  0  0  0  0
  149.6061  142.0452  154.9751 C   0  0  0  0  0  0  0  0  0  0  0  0
  148.7235  141.0498  154.4018 N   0  0  0  0  0  0  0  0  0  0  0  0
  147.4880  141.2670  153.8062 C   0  0  0  0  0  0  0  0  0  0  0  0
  147.0181  140.0332  153.4161 C   0  0  0  0  0  0  0  0  0  0  0  0
  147.9420  139.0490  153.7607 N   0  0  0  0  0  0  0  0  0  0  0  0
  148.9249  139.7265  154.3400 C   0  0  0  0  0  0  0  0  0  0  0  0
  152.4009  144.4832  157.7649 H   0  0  0  0  0  0  0  0  0  0  0  0
  151.2938  145.1636  158.9322 H   0  0  0  0  0  0  0  0  0  0  0  0
  153.6126  144.4126  159.8178 H   0  0  0  0  0  0  0  0  0  0  0  0
  152.3550  141.6860  159.3708 H   0  0  0  0  0  0  0  0  0  0  0  0
  153.9946  142.1805  158.9665 H   0  0  0  0  0  0  0  0  0  0  0  0
  153.3234  140.8985  161.3356 H   0  0  0  0  0  0  0  0  0  0  0  0
  154.6913  141.9952  161.2165 H   0  0  0  0  0  0  0  0  0  0  0  0
  152.3293  142.4320  162.8183 H   0  0  0  0  0  0  0  0  0  0  0  0
  153.6846  143.5221  162.5659 H   0  0  0  0  0  0  0  0  0  0  0  0
  151.9967  144.8512  161.5538 H   0  0  0  0  0  0  0  0  0  0  0  0
  151.0539  143.4316  161.1120 H   0  0  0  0  0  0  0  0  0  0  0  0
  151.6473  143.0160  156.4174 H   0  0  0  0  0  0  0  0  0  0  0  0
  150.4875  140.6979  156.4393 H   0  0  0  0  0  0  0  0  0  0  0  0
  149.1184  141.6041  157.0400 H   0  0  0  0  0  0  0  0  0  0  0  0
  149.1010  143.0117  154.9536 H   0  0  0  0  0  0  0  0  0  0  0  0
  150.4866  142.1324  154.3369 H   0  0  0  0  0  0  0  0  0  0  0  0
  147.0572  142.2530  153.7124 H   0  0  0  0  0  0  0  0  0  0  0  0
  146.0934  139.7798  152.9188 H   0  0  0  0  0  0  0  0  0  0  0  0
  149.8117  139.2487  154.7304 H   0  0  0  0  0  0  0  0  0  0  0  0
  1  2  2  0  0  0  0
  2  3  1  0  0  0  0
  2  9  1  0  0  0  0
  3  4  1  0  0  0  0
  3 17  1  0  0  0  0
  3 18  1  0  0  0  0
  4  8  1  0  0  0  0
  4  5  1  0  0  0  0
  4 19  1  0  0  0  0
  5  6  1  0  0  0  0
  5 20  1  0  0  0  0
  5 21  1  0  0  0  0
  6  7  1  0  0  0  0
  6 22  1  0  0  0  0
  6 23  1  0  0  0  0
  7  8  1  0  0  0  0
  7 24  1  0  0  0  0
  7 25  1  0  0  0  0
  8 26  1  0  0  0  0
  8 27  1  0  0  0  0
  9 10  1  0  0  0  0
  9 28  1  0  0  0  0
 10 11  1  0  0  0  0
 10 29  1  0  0  0  0
 10 30  1  0  0  0  0
 11 12  1  0  0  0  0
 11 31  1  0  0  0  0
 11 32  1  0  0  0  0
 12 16  1  0  0  0  0
 12 13  1  0  0  0  0
 13 14  2  0  0  0  0
 13 33  1  0  0  0  0
 14 15  1  0  0  0  0
 14 34  1  0  0  0  0
 15 16  2  0  0  0  0
 16 35  1  0  0  0  0
M  END
> <s_m_source_file>
AV-unprocessed.smi

> <i_m_source_file_index>
3151

> <i_lp_mmshare_version>
43012

> <i_f3d_flags>
0

> <s_epik_input>
W0NIMl0xW0NIMl1bQ0gyXVtDSDJdW0NIXTFbQ0gyXUMoPU8pW05IXVtDSDJdW0NIMl1uMltjSF1bY0hdbltjSF0y

> <s_epik_cmdline>
J2VwaWtfcHl0aG9uJywgJy1waCcsICc3LjAnLCAnLXRuJywgJzgnLCAnLW1hJywgJzIwMCcsICctbWV0YWxfYmluZGluZycsICctaW1hZScsICc8aW5maWxlLm1hZT4nLCAnLW9tYWUnLCAnPG91dGZpbGUubWFlPic=

> <r_lp_tautomer_probability>
1

> <r_epik_Ionization_Penalty>
0.596413

> <r_epik_Ionization_Penalty_Charging>
0.596413

> <r_epik_Ionization_Penalty_Neutral>
2.16921e-08

> <r_epik_State_Penalty>
0.610423

> <r_epik_Charging_Adjusted_Penalty>
1.20684

> <i_epik_Tot_Q>
0

> <i_epik_Tot_abs_Q>
0

> <r_epik_Metal_State_Penalty>
0.300145

> <b_epik_Metal_Only>
0

> <s_lp_Force_Field>
OPLS_2005

> <r_lp_Energy>
20.9474

> <b_lp_Chiralities_Consistent>
1

> <s_lp_Variant>
AV-unprocessed.smi:3151-2

> <Gold.Version>
5.8.1

> <Gold.Id.Protein>
6NUR|6NUR_protein|mol2

> <Gold.PLP.Fitness>
43.6168

> <Gold.PLP.PLP>
-41.2543

> <Gold.PLP.part.hbond>
-1.4856

> <Gold.PLP.part.metal>
0.0000

> <Gold.PLP.part.buried>
-2.1093

> <Gold.PLP.part.nonpolar>
-37.8386

> <Gold.PLP.part.repulsive>
0.3170

> <Gold.PLP.ligand.clash>
0.0000

> <Gold.PLP.ligand.torsion>
0.3405

> <Gold.PLP.Chemscore.Hbond>
0.0000

> <Gold.PLP.Chemscore.CHOScore>
1.0000

> <Gold.PLP.Chemscore.Metal>
0.0000

> <Gold.Chemscore.Hbonds>
donor molecule, donor type, donor heavy atom, donor atom, acceptor molecule, acceptor atom, score
      L1  C    14    34       P1 10175  0.96

> <Gold.PLP.Chemscore.Internal.Correction>
0.0436

> <Gold.Rescore>
     Score         DG    S(hbond)    S(metal)    S(lipo)     H(rot)  DE(clash)    DE(int)     intcor
     11.79     -12.11       0.00        0.00     100.22       1.99       0.00       0.32       ----

> <Gold.Chemscore.Fitness>
11.7866

> <Gold.Chemscore.DG>
-12.1061

> <Gold.Chemscore.ZeroCoef>
-5.4800

> <Gold.Chemscore.Hbond>
0.0000

> <Gold.Chemscore.Metal>
0.0000

> <Gold.Chemscore.Lipo>
100.2192

> <Gold.Chemscore.Internal_Hbond>
0.0000

> <Gold.Chemscore.DEClash>
0.0038

> <Gold.Chemscore.DEInternal>
0.3157

> <Gold.Chemscore.Rot>
1.9920

> <Gold.Chemscore.Internal.Correction>
   9.000000E+99

> <Gold.Chemscore.Hbond.Weighted>
-0.0000

> <Gold.Chemscore.Metal.Weighted>
-0.0000

> <Gold.Chemscore.Lipo.Weighted>
-11.7256

> <Gold.Chemscore.Internal_Hbond.Weighted>
0.0000

> <Gold.Chemscore.DEClash.Weighted>
0.0038

> <Gold.Chemscore.DEInternal.Weighted>
0.3157

> <Gold.Chemscore.Rot.Weighted>
5.0996

> <Gold.Chemscore.Internal.Correction.Weighted>
   9.000000E+99

> <Gold.Protein.RotatedTorsions>
[ 6907 6896 6895 6894 ] final  158.99 input  -60.11 | X-H torsion
[ 7974 7965 7964 7962 ] final   26.75 input  175.53 | X-H torsion
[ 8008 7997 7996 7995 ] final  -84.67 input   59.86 | X-H torsion
[ 10167 10162 10161 10158 ] final -173.12 input  -65.29 | X-H torsion
[ 10718 10713 10712 10709 ] final   54.24 input   66.30 | X-H torsion
[ 10763 10752 10751 10750 ] final  176.44 input  -60.55 | X-H torsion
[ 11005 11000 10999 10996 ] final  -70.59 input  -57.11 | X-H torsion

> <Gold.Protein.ActiveResidues>
 VAL166  LYS551  ARG553  GLY616  TRP617  ASP618  TYR619  PRO620  LYS621  CYS622 
 ASP623  PHE694  ASN695  SER759  ASP760  ASP761  ALA762  ILE779  LEU786  VAL792 
 PHE793  MET794  SER795  GLU796  ALA797  LYS798  CYS799  TRP800  GLU811  SER814 

> <Gold.Protein.RotatedAtoms>
  151.9922  133.3795  159.4148 H   0  0  0  0  0  0  0  0  0  0  0  0  # atno 6907 bound_to 6896
  150.6920  134.3924  159.5091 H   0  0  0  0  0  0  0  0  0  0  0  0  # atno 6908 bound_to 6896
  152.1659  134.8874  160.0589 H   0  0  0  0  0  0  0  0  0  0  0  0  # atno 6909 bound_to 6896
  146.1821  139.7286  142.8893 H   0  0  0  0  0  0  0  0  0  0  0  0  # atno 7974 bound_to 7965
  154.6323  140.0602  156.9747 H   0  0  0  0  0  0  0  0  0  0  0  0  # atno 8008 bound_to 7997
  155.1646  140.3285  155.4386 H   0  0  0  0  0  0  0  0  0  0  0  0  # atno 8009 bound_to 7997
  156.2489  140.1925  156.6752 H   0  0  0  0  0  0  0  0  0  0  0  0  # atno 8010 bound_to 7997
  139.5706  144.1651  152.1378 H   0  0  0  0  0  0  0  0  0  0  0  0  # atno 10167 bound_to 10162
  157.5239  130.8584  149.8596 H   0  0  0  0  0  0  0  0  0  0  0  0  # atno 10718 bound_to 10713
  154.4812  135.2775  155.1569 H   0  0  0  0  0  0  0  0  0  0  0  0  # atno 10763 bound_to 10752
  154.3278  135.6196  153.5541 H   0  0  0  0  0  0  0  0  0  0  0  0  # atno 10764 bound_to 10752
  152.9875  135.5758  154.5213 H   0  0  0  0  0  0  0  0  0  0  0  0  # atno 10765 bound_to 10752
  141.1577  133.6794  156.6777 H   0  0  0  0  0  0  0  0  0  0  0  0  # atno 11005 bound_to 11000
  145.4046  141.0389  143.3051 LP  0  0  0  0  0  0  0  0  0  0  0  0  # atno 17320 bound_to 7965
  144.8333  139.5592  143.6934 LP  0  0  0  0  0  0  0  0  0  0  0  0  # atno 17321 bound_to 7965
  140.1183  144.5396  150.6879 LP  0  0  0  0  0  0  0  0  0  0  0  0  # atno 17342 bound_to 10162
  140.6990  143.2422  151.4919 LP  0  0  0  0  0  0  0  0  0  0  0  0  # atno 17343 bound_to 10162
  156.0373  130.3748  150.1526 LP  0  0  0  0  0  0  0  0  0  0  0  0  # atno 17370 bound_to 10713
  156.9713  130.9835  151.3458 LP  0  0  0  0  0  0  0  0  0  0  0  0  # atno 17371 bound_to 10713
  140.3126  134.8073  157.4189 LP  0  0  0  0  0  0  0  0  0  0  0  0  # atno 17394 bound_to 11000
  140.1165  134.5276  155.8220 LP  0  0  0  0  0  0  0  0  0  0  0  0  # atno 17395 bound_to 11000

$$$$
