AV-unprocessed.smi:2965|AV-procd|sdf|11323|dock3
  -GOLD-   2272016233D 1   1.00000     0.00000
 Structure written by MMmdl.
 36 37  0  0  0  0  0  0  0  0  1 V2000
  152.8501  139.4850  155.9831 O   0  0  0  0  0  0  0  0  0  0  0  0
  151.7428  139.3445  156.5041 C   0  0  0  0  0  0  0  0  0  0  0  0
  151.6019  139.2344  158.0287 C   0  0  0  0  0  0  0  0  0  0  0  0
  152.3439  140.2792  158.7539 N   0  0  0  0  0  0  0  0  0  0  0  0
  151.9747  141.6163  158.5086 C   0  0  0  0  0  0  0  0  0  0  0  0
  152.5792  142.6640  159.1008 C   0  0  0  0  0  0  0  0  0  0  0  0
  152.1150  144.0923  158.8605 C   0  0  0  0  0  0  0  0  0  0  0  0
  152.3412  144.4678  157.6014 F   0  0  0  0  0  0  0  0  0  0  0  0
  150.8068  144.1885  159.0939 F   0  0  0  0  0  0  0  0  0  0  0  0
  152.7438  144.9440  159.6713 F   0  0  0  0  0  0  0  0  0  0  0  0
  153.6317  142.3510  160.0476 C   0  0  0  0  0  0  0  0  0  0  0  0
  153.9876  141.0769  160.3041 C   0  0  0  0  0  0  0  0  0  0  0  0
  153.3313  139.9488  159.6396 C   0  0  0  0  0  0  0  0  0  0  0  0
  153.6475  138.7803  159.8657 O   0  0  0  0  0  0  0  0  0  0  0  0
  150.6025  139.2679  155.8015 N   0  0  0  0  0  0  0  0  0  0  0  0
  150.4925  139.3814  154.3509 C   0  0  0  0  0  0  0  0  0  0  0  0
  149.2458  140.1822  153.9373 C   0  0  1  0  0  0  0  0  0  0  0  0
  147.9888  139.9035  154.7616 C   0  0  0  0  0  0  0  0  0  0  0  0
  147.1899  141.1643  154.5256 C   0  0  0  0  0  0  0  0  0  0  0  0
  148.2799  142.2336  154.5112 C   0  0  0  0  0  0  0  0  0  0  0  0
  149.4782  141.5779  154.1009 O   0  0  0  0  0  0  0  0  0  0  0  0
  150.5454  139.2712  158.3019 H   0  0  0  0  0  0  0  0  0  0  0  0
  151.9394  138.2418  158.3304 H   0  0  0  0  0  0  0  0  0  0  0  0
  151.1566  141.7365  157.8134 H   0  0  0  0  0  0  0  0  0  0  0  0
  154.1461  143.1512  160.5588 H   0  0  0  0  0  0  0  0  0  0  0  0
  154.7766  140.8809  161.0154 H   0  0  0  0  0  0  0  0  0  0  0  0
  149.7404  139.1431  156.3122 H   0  0  0  0  0  0  0  0  0  0  0  0
  151.3927  139.8232  153.9203 H   0  0  0  0  0  0  0  0  0  0  0  0
  150.4252  138.3719  153.9448 H   0  0  0  0  0  0  0  0  0  0  0  0
  149.0267  140.0097  152.8822 H   0  0  0  0  0  0  0  0  0  0  0  0
  147.4645  138.9998  154.4495 H   0  0  0  0  0  0  0  0  0  0  0  0
  148.2346  139.8101  155.8204 H   0  0  0  0  0  0  0  0  0  0  0  0
  146.6977  141.1156  153.5532 H   0  0  0  0  0  0  0  0  0  0  0  0
  146.4288  141.3404  155.2861 H   0  0  0  0  0  0  0  0  0  0  0  0
  148.0341  143.0623  153.8465 H   0  0  0  0  0  0  0  0  0  0  0  0
  148.4337  142.6375  155.5124 H   0  0  0  0  0  0  0  0  0  0  0  0
  1  2  2  0  0  0  0
  2  3  1  0  0  0  0
  2 15  1  0  0  0  0
  3  4  1  0  0  0  0
  3 22  1  0  0  0  0
  3 23  1  0  0  0  0
  4 13  1  0  0  0  0
  4  5  1  0  0  0  0
  5  6  2  0  0  0  0
  5 24  1  0  0  0  0
  6  7  1  0  0  0  0
  6 11  1  0  0  0  0
  7  8  1  0  0  0  0
  7  9  1  0  0  0  0
  7 10  1  0  0  0  0
 11 12  2  0  0  0  0
 11 25  1  0  0  0  0
 12 13  1  0  0  0  0
 12 26  1  0  0  0  0
 13 14  2  0  0  0  0
 15 16  1  0  0  0  0
 15 27  1  0  0  0  0
 16 17  1  0  0  0  0
 16 28  1  0  0  0  0
 16 29  1  0  0  0  0
 17 21  1  0  0  0  0
 17 18  1  0  0  0  0
 17 30  1  0  0  0  0
 18 19  1  0  0  0  0
 18 31  1  0  0  0  0
 18 32  1  0  0  0  0
 19 20  1  0  0  0  0
 19 33  1  0  0  0  0
 19 34  1  0  0  0  0
 20 21  1  0  0  0  0
 20 35  1  0  0  0  0
 20 36  1  0  0  0  0
M  END
> <s_m_source_file>
AV-unprocessed.smi

> <i_m_source_file_index>
2965

> <i_lp_mmshare_version>
43012

> <i_f3d_flags>
0

> <s_epik_input>
TzFbQ0gyXVtDSDJdW0NIMl1bQ0BIXTFbQ0gyXVtOSF1DKD1PKVtDSDJdbjJbY0hdYyhDKEYpKEYpRilbY0hdW2NIXWMyPU8=

> <s_epik_cmdline>
J2VwaWtfcHl0aG9uJywgJy1waCcsICc3LjAnLCAnLXRuJywgJzgnLCAnLW1hJywgJzIwMCcsICctbWV0YWxfYmluZGluZycsICctaW1hZScsICc8aW5maWxlLm1hZT4nLCAnLW9tYWUnLCAnPG91dGZpbGUubWFlPic=

> <r_lp_tautomer_probability>
1

> <r_epik_Ionization_Penalty>
4.53327e-08

> <r_epik_Ionization_Penalty_Charging>
1.84737e-08

> <r_epik_Ionization_Penalty_Neutral>
2.6859e-08

> <r_epik_State_Penalty>
-0

> <r_epik_Charging_Adjusted_Penalty>
1.84737e-08

> <i_epik_Tot_Q>
0

> <i_epik_Tot_abs_Q>
0

> <r_epik_Metal_State_Penalty>
-0

> <b_epik_Metal_Only>
0

> <s_lp_Force_Field>
OPLS_2005

> <r_lp_Energy>
29.2256

> <b_lp_Chiralities_Consistent>
1

> <s_lp_Variant>
AV-unprocessed.smi:2965-2

> <Gold.Version>
5.8.1

> <Gold.Id.Protein>
6NUR|6NUR_protein|mol2

> <Gold.PLP.Fitness>
50.7086

> <Gold.PLP.PLP>
-46.5103

> <Gold.PLP.part.hbond>
-3.0000

> <Gold.PLP.part.metal>
0.0000

> <Gold.PLP.part.buried>
-2.1340

> <Gold.PLP.part.nonpolar>
-40.7968

> <Gold.PLP.part.repulsive>
0.2341

> <Gold.PLP.ligand.clash>
0.0000

> <Gold.PLP.ligand.torsion>
0.5458

> <Gold.PLP.Chemscore.Hbond>
1.7380

> <Gold.PLP.Chemscore.CHOScore>
0.0000

> <Gold.PLP.Chemscore.Metal>
0.0000

> <Gold.Chemscore.Hbonds>
donor molecule, donor type, donor heavy atom, donor atom, acceptor molecule, acceptor atom, score
      P1  H  7997  8009       L1     1  1.00
      P1  H  8011  8017       L1    21  0.61

> <Gold.PLP.Chemscore.Internal.Correction>
0.0758

> <Gold.Rescore>
     Score         DG    S(hbond)    S(metal)    S(lipo)     H(rot)  DE(clash)    DE(int)     intcor
     13.95     -15.06       1.29        0.00      86.01       1.87       0.27       0.84       ----

> <Gold.Chemscore.Fitness>
13.9475

> <Gold.Chemscore.DG>
-15.0605

> <Gold.Chemscore.ZeroCoef>
-5.4800

> <Gold.Chemscore.Hbond>
1.2873

> <Gold.Chemscore.Metal>
0.0000

> <Gold.Chemscore.Lipo>
86.0105

> <Gold.Chemscore.Internal_Hbond>
0.0000

> <Gold.Chemscore.DEClash>
0.2721

> <Gold.Chemscore.DEInternal>
0.8409

> <Gold.Chemscore.Rot>
1.8681

> <Gold.Chemscore.Internal.Correction>
   9.000000E+99

> <Gold.Chemscore.Hbonds>
donor molecule, donor type, donor heavy atom, donor atom, acceptor molecule, acceptor atom, score
      P1  H  7997  8009       L1     1  0.98
      P1  H  8011  8017       L1    21  0.13

> <Gold.Chemscore.Hbond.Weighted>
-4.2995

> <Gold.Chemscore.Metal.Weighted>
-0.0000

> <Gold.Chemscore.Lipo.Weighted>
-10.0632

> <Gold.Chemscore.Internal_Hbond.Weighted>
0.0000

> <Gold.Chemscore.DEClash.Weighted>
0.2721

> <Gold.Chemscore.DEInternal.Weighted>
0.8409

> <Gold.Chemscore.Rot.Weighted>
4.7822

> <Gold.Chemscore.Internal.Correction.Weighted>
   9.000000E+99

> <Gold.Protein.RotatedTorsions>
[ 6907 6896 6895 6894 ] final   38.94 input  -60.11 | X-H torsion
[ 7974 7965 7964 7962 ] final  -93.30 input  175.53 | X-H torsion
[ 8008 7997 7996 7995 ] final -140.06 input   59.86 | X-H torsion
[ 10167 10162 10161 10158 ] final -159.44 input  -65.29 | X-H torsion
[ 10718 10713 10712 10709 ] final -170.65 input   66.30 | X-H torsion
[ 10763 10752 10751 10750 ] final   52.76 input  -60.55 | X-H torsion
[ 11005 11000 10999 10996 ] final   27.66 input  -57.11 | X-H torsion

> <Gold.Protein.ActiveResidues>
 VAL166  LYS551  ARG553  GLY616  TRP617  ASP618  TYR619  PRO620  LYS621  CYS622 
 ASP623  PHE694  ASN695  SER759  ASP760  ASP761  ALA762  ILE779  LEU786  VAL792 
 PHE793  MET794  SER795  GLU796  ALA797  LYS798  CYS799  TRP800  GLU811  SER814 

> <Gold.Protein.RotatedAtoms>
  152.1631  134.8896  160.0539 H   0  0  0  0  0  0  0  0  0  0  0  0  # atno 6907 bound_to 6896
  151.9884  133.3777  159.4143 H   0  0  0  0  0  0  0  0  0  0  0  0  # atno 6908 bound_to 6896
  150.6890  134.3885  159.5110 H   0  0  0  0  0  0  0  0  0  0  0  0  # atno 6909 bound_to 6896
  145.3883  140.9525  143.2354 H   0  0  0  0  0  0  0  0  0  0  0  0  # atno 7974 bound_to 7965
  155.4551  140.0541  157.2997 H   0  0  0  0  0  0  0  0  0  0  0  0  # atno 8008 bound_to 7997
  154.4761  140.2061  155.9831 H   0  0  0  0  0  0  0  0  0  0  0  0  # atno 8009 bound_to 7997
  156.1133  140.3200  155.8108 H   0  0  0  0  0  0  0  0  0  0  0  0  # atno 8010 bound_to 7997
  139.6615  143.9905  152.2228 H   0  0  0  0  0  0  0  0  0  0  0  0  # atno 10167 bound_to 10162
  156.7294  130.9300  151.3103 H   0  0  0  0  0  0  0  0  0  0  0  0  # atno 10718 bound_to 10713
  152.9791  135.5801  154.4631 H   0  0  0  0  0  0  0  0  0  0  0  0  # atno 10763 bound_to 10752
  154.4205  135.2771  155.1981 H   0  0  0  0  0  0  0  0  0  0  0  0  # atno 10764 bound_to 10752
  154.3732  135.6163  153.5805 H   0  0  0  0  0  0  0  0  0  0  0  0  # atno 10765 bound_to 10752
  140.3239  134.2513  155.7712 H   0  0  0  0  0  0  0  0  0  0  0  0  # atno 11005 bound_to 11000
  144.8458  139.5399  143.6879 LP  0  0  0  0  0  0  0  0  0  0  0  0  # atno 17320 bound_to 7965
  146.2809  139.6876  142.9229 LP  0  0  0  0  0  0  0  0  0  0  0  0  # atno 17321 bound_to 7965
  139.9645  144.6535  150.8048 LP  0  0  0  0  0  0  0  0  0  0  0  0  # atno 17342 bound_to 10162
  140.7582  143.3102  151.2864 LP  0  0  0  0  0  0  0  0  0  0  0  0  # atno 17343 bound_to 10162
  157.6865  130.9191  150.0400 LP  0  0  0  0  0  0  0  0  0  0  0  0  # atno 17370 bound_to 10713
  156.1540  130.3643  149.9397 LP  0  0  0  0  0  0  0  0  0  0  0  0  # atno 17371 bound_to 10713
  141.2080  133.7790  157.0086 LP  0  0  0  0  0  0  0  0  0  0  0  0  # atno 17394 bound_to 11000
  140.0918  134.9588  157.1788 LP  0  0  0  0  0  0  0  0  0  0  0  0  # atno 17395 bound_to 11000

$$$$
