AV-unprocessed.smi:1692|AV-procd|sdf|6780|dock4
  -GOLD-   22720 7543D 1   1.00000     0.00000
 Structure written by MMmdl.
 46 47  0  0  0  0  0  0  0  0  2 V2000
  143.4204  145.4984  155.5243 C   0  0  0  0  0  0  0  0  0  0  0  0
  144.2558  144.2254  155.6997 C   0  0  2  0  0  0  0  0  0  0  0  0
  144.2560  143.3518  154.4286 C   0  0  0  0  0  0  0  0  0  0  0  0
  145.0008  142.0874  154.6447 N   0  3  1  0  0  0  0  0  0  0  0  0
  146.4783  142.2543  154.6075 C   0  0  0  0  0  0  0  0  0  0  0  0
  147.2204  140.9085  154.5484 C   0  0  0  0  0  0  0  0  0  0  0  0
  148.7375  141.0887  154.3738 C   0  0  0  0  0  0  0  0  0  0  0  0
  149.2659  142.1091  155.2720 N   0  0  0  0  0  0  0  0  0  0  0  0
  150.0781  141.8703  156.3121 C   0  0  0  0  0  0  0  0  0  0  0  0
  150.4750  140.7446  156.6157 O   0  0  0  0  0  0  0  0  0  0  0  0
  150.3906  143.0074  156.9581 N   0  0  0  0  0  0  0  0  0  0  0  0
  151.2240  143.1700  158.0969 C   0  0  0  0  0  0  0  0  0  0  0  0
  151.3725  144.5025  158.5437 C   0  0  0  0  0  0  0  0  0  0  0  0
  152.1788  144.7712  159.6667 C   0  0  0  0  0  0  0  0  0  0  0  0
  152.8171  143.6990  160.3148 C   0  0  0  0  0  0  0  0  0  0  0  0
  152.6174  142.4026  159.8053 C   0  0  0  0  0  0  0  0  0  0  0  0
  151.8452  142.1428  158.7289 N   0  0  0  0  0  0  0  0  0  0  0  0
  144.4813  141.3819  155.8445 C   0  0  0  0  0  0  0  0  0  0  0  0
  144.4511  142.3062  157.0811 C   0  0  2  0  0  0  0  0  0  0  0  0
  143.7992  141.6264  158.2901 C   0  0  0  0  0  0  0  0  0  0  0  0
  143.6986  143.4752  156.7735 O   0  0  0  0  0  0  0  0  0  0  0  0
  143.8131  146.1176  154.7171 H   0  0  0  0  0  0  0  0  0  0  0  0
  143.4277  146.0975  156.4352 H   0  0  0  0  0  0  0  0  0  0  0  0
  142.3821  145.2614  155.2903 H   0  0  0  0  0  0  0  0  0  0  0  0
  145.2755  144.5179  155.9551 H   0  0  0  0  0  0  0  0  0  0  0  0
  143.2288  143.0997  154.1606 H   0  0  0  0  0  0  0  0  0  0  0  0
  144.6668  143.8978  153.5784 H   0  0  0  0  0  0  0  0  0  0  0  0
  146.7462  142.8211  153.7150 H   0  0  0  0  0  0  0  0  0  0  0  0
  146.8242  142.8439  155.4565 H   0  0  0  0  0  0  0  0  0  0  0  0
  147.0329  140.3369  155.4567 H   0  0  0  0  0  0  0  0  0  0  0  0
  146.8290  140.3131  153.7224 H   0  0  0  0  0  0  0  0  0  0  0  0
  149.2512  140.1510  154.5880 H   0  0  0  0  0  0  0  0  0  0  0  0
  148.9763  141.3441  153.3400 H   0  0  0  0  0  0  0  0  0  0  0  0
  148.9869  143.0630  155.0938 H   0  0  0  0  0  0  0  0  0  0  0  0
  149.9841  143.8566  156.5946 H   0  0  0  0  0  0  0  0  0  0  0  0
  150.8746  145.3148  158.0346 H   0  0  0  0  0  0  0  0  0  0  0  0
  152.3044  145.7826  160.0236 H   0  0  0  0  0  0  0  0  0  0  0  0
  153.4431  143.8652  161.1789 H   0  0  0  0  0  0  0  0  0  0  0  0
  153.0897  141.5518  160.2734 H   0  0  0  0  0  0  0  0  0  0  0  0
  143.4672  141.0474  155.6211 H   0  0  0  0  0  0  0  0  0  0  0  0
  145.0552  140.4799  156.0515 H   0  0  0  0  0  0  0  0  0  0  0  0
  145.4640  142.5964  157.3627 H   0  0  0  0  0  0  0  0  0  0  0  0
  144.3454  140.7272  158.5762 H   0  0  0  0  0  0  0  0  0  0  0  0
  142.7696  141.3392  158.0749 H   0  0  0  0  0  0  0  0  0  0  0  0
  143.7851  142.2939  159.1521 H   0  0  0  0  0  0  0  0  0  0  0  0
  144.7837  141.5021  153.8507 H   0  0  0  0  0  0  0  0  0  0  0  0
  1  2  1  0  0  0  0
  1 22  1  0  0  0  0
  1 23  1  0  0  0  0
  1 24  1  0  0  0  0
  2 21  1  0  0  0  0
  2  3  1  0  0  0  0
  2 25  1  0  0  0  0
  3  4  1  0  0  0  0
  3 26  1  0  0  0  0
  3 27  1  0  0  0  0
  4  5  1  0  0  0  0
  4 18  1  0  0  0  0
  4 46  1  0  0  0  0
  5  6  1  0  0  0  0
  5 28  1  0  0  0  0
  5 29  1  0  0  0  0
  6  7  1  0  0  0  0
  6 30  1  0  0  0  0
  6 31  1  0  0  0  0
  7  8  1  0  0  0  0
  7 32  1  0  0  0  0
  7 33  1  0  0  0  0
  8  9  1  0  0  0  0
  8 34  1  0  0  0  0
  9 10  2  0  0  0  0
  9 11  1  0  0  0  0
 11 12  1  0  0  0  0
 11 35  1  0  0  0  0
 12 17  1  0  0  0  0
 12 13  2  0  0  0  0
 13 14  1  0  0  0  0
 13 36  1  0  0  0  0
 14 15  2  0  0  0  0
 14 37  1  0  0  0  0
 15 16  1  0  0  0  0
 15 38  1  0  0  0  0
 16 17  2  0  0  0  0
 16 39  1  0  0  0  0
 18 19  1  0  0  0  0
 18 40  1  0  0  0  0
 18 41  1  0  0  0  0
 19 20  1  0  0  0  0
 19 21  1  0  0  0  0
 19 42  1  0  0  0  0
 20 43  1  0  0  0  0
 20 44  1  0  0  0  0
 20 45  1  0  0  0  0
M  CHG  1   4   1
M  END
> <s_m_source_file>
AV-unprocessed.smi

> <i_m_source_file_index>
1692

> <i_lp_mmshare_version>
43012

> <i_f3d_flags>
0

> <s_epik_input>
W0NIM11bQ0BASF0xW0NIMl1OKFtDSDJdW0NASF0oTzEpW0NIM10pW0NIMl1bQ0gyXVtDSDJdW05IXUMoPU8pW05IXWMyW2NIXVtjSF1bY0hdW2NIXW4y

> <s_epik_cmdline>
J2VwaWtfcHl0aG9uJywgJy1waCcsICc3LjAnLCAnLXRuJywgJzgnLCAnLW1hJywgJzIwMCcsICctbWV0YWxfYmluZGluZycsICctaW1hZScsICc8aW5maWxlLm1hZT4nLCAnLW9tYWUnLCAnPG91dGZpbGUubWFlPic=

> <r_epik_Ionization_Penalty>
0.270538

> <r_epik_Ionization_Penalty_Charging>
0.270496

> <r_epik_Ionization_Penalty_Neutral>
4.22978e-05

> <r_epik_State_Penalty>
0.262618

> <r_epik_Charging_Adjusted_Penalty>
0.533114

> <i_epik_Tot_Q>
1

> <i_epik_Tot_abs_Q>
1

> <r_epik_Metal_State_Penalty>
0.262618

> <b_epik_Metal_Only>
0

> <s_lp_Force_Field>
OPLS_2005

> <r_lp_Energy>
18.3

> <b_lp_Chiralities_Consistent>
1

> <s_lp_Variant>
AV-unprocessed.smi:1692-3

> <Gold.Version>
5.8.1

> <Gold.Id.Protein>
6NUR|6NUR_protein|mol2

> <Gold.PLP.Fitness>
46.7339

> <Gold.PLP.PLP>
-34.9052

> <Gold.PLP.part.hbond>
-3.0000

> <Gold.PLP.part.metal>
0.0000

> <Gold.PLP.part.buried>
-5.0515

> <Gold.PLP.part.nonpolar>
-29.3521

> <Gold.PLP.part.repulsive>
0.2319

> <Gold.PLP.ligand.clash>
0.0000

> <Gold.PLP.ligand.torsion>
0.1317

> <Gold.PLP.Chemscore.Hbond>
4.0000

> <Gold.PLP.Chemscore.CHOScore>
0.0000

> <Gold.PLP.Chemscore.Metal>
0.0000

> <Gold.Chemscore.Hbonds>
donor molecule, donor type, donor heavy atom, donor atom, acceptor molecule, acceptor atom, score
      L1  H     4    46       P1 10175  1.90
      L1  H     8    34       P1  8028  0.99
      L1  H    11    35       P1  8028  1.00

> <Gold.PLP.Chemscore.Internal.Correction>
0.0921

> <Gold.Rescore>
     Score         DG    S(hbond)    S(metal)    S(lipo)     H(rot)  DE(clash)    DE(int)     intcor
     16.64     -18.87       2.52        0.00      81.38       1.78       0.79       1.43       ----

> <Gold.Chemscore.Fitness>
16.6448

> <Gold.Chemscore.DG>
-18.8651

> <Gold.Chemscore.ZeroCoef>
-5.4800

> <Gold.Chemscore.Hbond>
2.5221

> <Gold.Chemscore.Metal>
0.0000

> <Gold.Chemscore.Lipo>
81.3810

> <Gold.Chemscore.Internal_Hbond>
0.0000

> <Gold.Chemscore.DEClash>
0.7853

> <Gold.Chemscore.DEInternal>
1.4350

> <Gold.Chemscore.Rot>
1.7814

> <Gold.Chemscore.Internal.Correction>
   9.000000E+99

> <Gold.Chemscore.Hbonds>
donor molecule, donor type, donor heavy atom, donor atom, acceptor molecule, acceptor atom, score
      L1  H     4    46       P1 10175  0.20
      L1  H     8    34       P1  8028  0.94
      L1  H    11    35       P1  8028  0.98

> <Gold.Chemscore.Hbond.Weighted>
-8.4238

> <Gold.Chemscore.Metal.Weighted>
-0.0000

> <Gold.Chemscore.Lipo.Weighted>
-9.5216

> <Gold.Chemscore.Internal_Hbond.Weighted>
0.0000

> <Gold.Chemscore.DEClash.Weighted>
0.7853

> <Gold.Chemscore.DEInternal.Weighted>
1.4350

> <Gold.Chemscore.Rot.Weighted>
4.5603

> <Gold.Chemscore.Internal.Correction.Weighted>
   9.000000E+99

> <Gold.Protein.RotatedTorsions>
[ 6907 6896 6895 6894 ] final -130.20 input  -60.11 | X-H torsion
[ 7974 7965 7964 7962 ] final  133.99 input  175.53 | X-H torsion
[ 8008 7997 7996 7995 ] final  178.41 input   59.86 | X-H torsion
[ 10167 10162 10161 10158 ] final  147.47 input  -65.29 | X-H torsion
[ 10718 10713 10712 10709 ] final  -31.44 input   66.30 | X-H torsion
[ 10763 10752 10751 10750 ] final   42.86 input  -60.55 | X-H torsion
[ 11005 11000 10999 10996 ] final -167.48 input  -57.11 | X-H torsion

> <Gold.Protein.ActiveResidues>
 VAL166  LYS551  ARG553  GLY616  TRP617  ASP618  TYR619  PRO620  LYS621  CYS622 
 ASP623  PHE694  ASN695  SER759  ASP760  ASP761  ALA762  ILE779  LEU786  VAL792 
 PHE793  MET794  SER795  GLU796  ALA797  LYS798  CYS799  TRP800  GLU811  SER814 

> <Gold.Protein.RotatedAtoms>
  150.9371  133.6699  159.2798 H   0  0  0  0  0  0  0  0  0  0  0  0  # atno 6907 bound_to 6896
  151.4101  135.0982  159.9592 H   0  0  0  0  0  0  0  0  0  0  0  0  # atno 6908 bound_to 6896
  152.5052  133.8846  159.7418 H   0  0  0  0  0  0  0  0  0  0  0  0  # atno 6909 bound_to 6896
  144.9809  139.4506  143.5387 H   0  0  0  0  0  0  0  0  0  0  0  0  # atno 7974 bound_to 7965
  156.0550  140.1334  157.0007 H   0  0  0  0  0  0  0  0  0  0  0  0  # atno 8008 bound_to 7997
  154.4453  140.1003  156.6502 H   0  0  0  0  0  0  0  0  0  0  0  0  # atno 8009 bound_to 7997
  155.5466  140.3462  155.4461 H   0  0  0  0  0  0  0  0  0  0  0  0  # atno 8010 bound_to 7997
  139.4889  144.5753  151.6977 H   0  0  0  0  0  0  0  0  0  0  0  0  # atno 10167 bound_to 10162
  156.3873  130.4366  149.7422 H   0  0  0  0  0  0  0  0  0  0  0  0  # atno 10718 bound_to 10713
  152.9873  135.6119  154.3017 H   0  0  0  0  0  0  0  0  0  0  0  0  # atno 10763 bound_to 10752
  154.2737  135.2779  155.2729 H   0  0  0  0  0  0  0  0  0  0  0  0  # atno 10764 bound_to 10752
  154.5099  135.5844  153.6653 H   0  0  0  0  0  0  0  0  0  0  0  0  # atno 10765 bound_to 10752
  140.5527  134.5412  157.5126 H   0  0  0  0  0  0  0  0  0  0  0  0  # atno 11005 bound_to 11000
  146.3408  139.9080  142.8784 LP  0  0  0  0  0  0  0  0  0  0  0  0  # atno 17320 bound_to 7965
  145.2423  141.0014  143.3929 LP  0  0  0  0  0  0  0  0  0  0  0  0  # atno 17321 bound_to 7965
  140.5348  144.0673  150.6066 LP  0  0  0  0  0  0  0  0  0  0  0  0  # atno 17342 bound_to 10162
  140.3676  143.2873  152.0315 LP  0  0  0  0  0  0  0  0  0  0  0  0  # atno 17343 bound_to 10162
  156.4489  130.7897  151.2918 LP  0  0  0  0  0  0  0  0  0  0  0  0  # atno 17370 bound_to 10713
  157.7496  131.0101  150.3295 LP  0  0  0  0  0  0  0  0  0  0  0  0  # atno 17371 bound_to 10713
  139.9447  134.7724  156.0591 LP  0  0  0  0  0  0  0  0  0  0  0  0  # atno 17394 bound_to 11000
  141.1162  133.6627  156.3099 LP  0  0  0  0  0  0  0  0  0  0  0  0  # atno 17395 bound_to 11000

$$$$
