AV-unprocessed.smi:2748|AV-procd|sdf|10584|dock7
  -GOLD-   2272015 33D 1   1.00000     0.00000
 Structure written by MMmdl.
 29 31  0  0  0  0  0  0  0  0  2 V2000
  150.2827  135.4106  154.5510 O   0  0  0  0  0  0  0  0  0  0  0  0
  150.6297  136.5725  154.7586 C   0  0  0  0  0  0  0  0  0  0  0  0
  151.9401  136.9432  154.8584 N   0  5  0  0  0  0  0  0  0  0  0  0
  152.3455  138.2306  155.0869 C   0  0  0  0  0  0  0  0  0  0  0  0
  153.5336  138.5399  155.1821 O   0  0  0  0  0  0  0  0  0  0  0  0
  151.3973  139.2055  155.2145 N   0  0  0  0  0  0  0  0  0  0  0  0
  151.7422  140.6119  155.4621 C   0  0  0  0  0  0  0  0  0  0  0  0
  150.9325  141.2002  156.6329 C   0  0  1  0  0  0  0  0  0  0  0  0
  151.5455  140.8498  158.0152 C   0  0  0  0  0  0  0  0  0  0  0  0
  151.8236  142.1995  158.5778 C   0  0  0  0  0  0  0  0  0  0  0  0
  152.3884  142.5275  159.8222 C   0  0  0  0  0  0  0  0  0  0  0  0
  152.5571  143.8956  160.1293 C   0  0  0  0  0  0  0  0  0  0  0  0
  152.1664  144.8920  159.2023 C   0  0  0  0  0  0  0  0  0  0  0  0
  151.6017  144.5329  157.9575 C   0  0  0  0  0  0  0  0  0  0  0  0
  151.4392  143.1668  157.6667 C   0  0  0  0  0  0  0  0  0  0  0  0
  150.9115  142.6373  156.5240 O   0  0  0  0  0  0  0  0  0  0  0  0
  150.0341  138.8762  155.1278 C   0  0  0  0  0  0  0  0  0  0  0  0
  149.6160  137.6145  154.9085 C   0  0  0  0  0  0  0  0  0  0  0  0
  147.9325  137.2385  154.8096 Cl  0  0  0  0  0  0  0  0  0  0  0  0
  152.8104  140.7020  155.6664 H   0  0  0  0  0  0  0  0  0  0  0  0
  151.5753  141.2075  154.5633 H   0  0  0  0  0  0  0  0  0  0  0  0
  149.9028  140.8420  156.5972 H   0  0  0  0  0  0  0  0  0  0  0  0
  150.8415  140.3083  158.6475 H   0  0  0  0  0  0  0  0  0  0  0  0
  152.4682  140.2738  157.9366 H   0  0  0  0  0  0  0  0  0  0  0  0
  152.6843  141.7586  160.5207 H   0  0  0  0  0  0  0  0  0  0  0  0
  152.9874  144.1839  161.0771 H   0  0  0  0  0  0  0  0  0  0  0  0
  152.3006  145.9350  159.4484 H   0  0  0  0  0  0  0  0  0  0  0  0
  151.3014  145.2885  157.2467 H   0  0  0  0  0  0  0  0  0  0  0  0
  149.3547  139.7060  155.2564 H   0  0  0  0  0  0  0  0  0  0  0  0
  1  2  2  0  0  0  0
  2 18  1  0  0  0  0
  2  3  1  0  0  0  0
  3  4  1  0  0  0  0
  4  5  2  0  0  0  0
  4  6  1  0  0  0  0
  6  7  1  0  0  0  0
  6 17  1  0  0  0  0
  7  8  1  0  0  0  0
  7 20  1  0  0  0  0
  7 21  1  0  0  0  0
  8 16  1  0  0  0  0
  8  9  1  0  0  0  0
  8 22  1  0  0  0  0
  9 10  1  0  0  0  0
  9 23  1  0  0  0  0
  9 24  1  0  0  0  0
 10 15  2  0  0  0  0
 10 11  1  0  0  0  0
 11 12  2  0  0  0  0
 11 25  1  0  0  0  0
 12 13  1  0  0  0  0
 12 26  1  0  0  0  0
 13 14  2  0  0  0  0
 13 27  1  0  0  0  0
 14 15  1  0  0  0  0
 14 28  1  0  0  0  0
 15 16  1  0  0  0  0
 17 18  2  0  0  0  0
 17 29  1  0  0  0  0
 18 19  1  0  0  0  0
M  CHG  1   3  -1
M  END
> <s_m_source_file>
AV-unprocessed.smi

> <i_m_source_file_index>
2748

> <i_lp_mmshare_version>
43012

> <i_f3d_flags>
0

> <s_epik_input>
Tz1jMVtuSF1jKD1PKW4oW2NIXWMxQ2wpW0NIMl1bQ0BIXShbQ0gyXTIpT2MoYzIzKVtjSF1bY0hdW2NIXVtjSF0z

> <s_epik_cmdline>
J2VwaWtfcHl0aG9uJywgJy1waCcsICc3LjAnLCAnLXRuJywgJzgnLCAnLW1hJywgJzIwMCcsICctbWV0YWxfYmluZGluZycsICctaW1hZScsICc8aW5maWxlLm1hZT4nLCAnLW9tYWUnLCAnPG91dGZpbGUubWFlPic=

> <r_lp_tautomer_probability>
1

> <r_epik_Ionization_Penalty>
2.00749

> <r_epik_Ionization_Penalty_Charging>
2.26533e-08

> <r_epik_Ionization_Penalty_Neutral>
2.00749

> <r_epik_State_Penalty>
2.13675

> <r_epik_Charging_Adjusted_Penalty>
2.13675

> <i_epik_Tot_Q>
-1

> <i_epik_Tot_abs_Q>
1

> <r_epik_Metal_State_Penalty>
0.0208594

> <b_epik_Metal_Only>
0

> <s_lp_Force_Field>
OPLS_2005

> <r_lp_Energy>
29.9215

> <b_lp_Chiralities_Consistent>
1

> <s_lp_Variant>
AV-unprocessed.smi:2748-4

> <Gold.Version>
5.8.1

> <Gold.Id.Protein>
6NUR|6NUR_protein|mol2

> <Gold.PLP.Fitness>
46.6671

> <Gold.PLP.PLP>
-38.9718

> <Gold.PLP.part.hbond>
-2.0000

> <Gold.PLP.part.metal>
0.0000

> <Gold.PLP.part.buried>
-4.5074

> <Gold.PLP.part.nonpolar>
-32.9231

> <Gold.PLP.part.repulsive>
0.3795

> <Gold.PLP.ligand.clash>
0.0000

> <Gold.PLP.ligand.torsion>
0.3288

> <Gold.PLP.Chemscore.Hbond>
2.7840

> <Gold.PLP.Chemscore.CHOScore>
0.0000

> <Gold.PLP.Chemscore.Metal>
0.0000

> <Gold.Chemscore.Hbonds>
donor molecule, donor type, donor heavy atom, donor atom, acceptor molecule, acceptor atom, score
      P1  H  7997  8009       L1     5  0.86
      P1  H 10752 10763       L1     3  1.89

> <Gold.PLP.Chemscore.Internal.Correction>
0.0009

> <Gold.Rescore>
     Score         DG    S(hbond)    S(metal)    S(lipo)     H(rot)  DE(clash)    DE(int)     intcor
     18.83     -19.32       1.69        0.00      98.30       1.29       0.16       0.32       ----

> <Gold.Chemscore.Fitness>
18.8349

> <Gold.Chemscore.DG>
-19.3157

> <Gold.Chemscore.ZeroCoef>
-5.4800

> <Gold.Chemscore.Hbond>
1.6911

> <Gold.Chemscore.Metal>
0.0000

> <Gold.Chemscore.Lipo>
98.2962

> <Gold.Chemscore.Internal_Hbond>
0.0000

> <Gold.Chemscore.DEClash>
0.1558

> <Gold.Chemscore.DEInternal>
0.3250

> <Gold.Chemscore.Rot>
1.2942

> <Gold.Chemscore.Internal.Correction>
   9.000000E+99

> <Gold.Chemscore.Hbonds>
donor molecule, donor type, donor heavy atom, donor atom, acceptor molecule, acceptor atom, score
      P1  H  7997  8009       L1     5  0.81
      P1  H 10752 10763       L1     3  0.71

> <Gold.Chemscore.Hbond.Weighted>
-5.6481

> <Gold.Chemscore.Metal.Weighted>
-0.0000

> <Gold.Chemscore.Lipo.Weighted>
-11.5007

> <Gold.Chemscore.Internal_Hbond.Weighted>
0.0000

> <Gold.Chemscore.DEClash.Weighted>
0.1558

> <Gold.Chemscore.DEInternal.Weighted>
0.3250

> <Gold.Chemscore.Rot.Weighted>
3.3131

> <Gold.Chemscore.Internal.Correction.Weighted>
   9.000000E+99

> <Gold.Protein.RotatedTorsions>
[ 6907 6896 6895 6894 ] final  152.34 input  -60.11 | X-H torsion
[ 7974 7965 7964 7962 ] final  130.63 input  175.53 | X-H torsion
[ 8008 7997 7996 7995 ] final -142.92 input   59.86 | X-H torsion
[ 10167 10162 10161 10158 ] final  -97.43 input  -65.29 | X-H torsion
[ 10718 10713 10712 10709 ] final  -53.37 input   66.30 | X-H torsion
[ 10763 10752 10751 10750 ] final   67.10 input  -60.55 | X-H torsion
[ 11005 11000 10999 10996 ] final -114.31 input  -57.11 | X-H torsion

> <Gold.Protein.ActiveResidues>
 VAL166  LYS551  ARG553  GLY616  TRP617  ASP618  TYR619  PRO620  LYS621  CYS622 
 ASP623  PHE694  ASN695  SER759  ASP760  ASP761  ALA762  ILE779  LEU786  VAL792 
 PHE793  MET794  SER795  GLU796  ALA797  LYS798  CYS799  TRP800  GLU811  SER814 

> <Gold.Protein.RotatedAtoms>
  152.0881  133.4186  159.4531 H   0  0  0  0  0  0  0  0  0  0  0  0  # atno 6907 bound_to 6896
  150.6862  134.2904  159.4673 H   0  0  0  0  0  0  0  0  0  0  0  0  # atno 6908 bound_to 6896
  152.0752  134.9507  160.0625 H   0  0  0  0  0  0  0  0  0  0  0  0  # atno 6909 bound_to 6896
  145.0158  139.4177  143.5222 H   0  0  0  0  0  0  0  0  0  0  0  0  # atno 7974 bound_to 7965
  155.5020  140.0576  157.2937 H   0  0  0  0  0  0  0  0  0  0  0  0  # atno 8008 bound_to 7997
  154.4583  140.1984  156.0265 H   0  0  0  0  0  0  0  0  0  0  0  0  # atno 8009 bound_to 7997
  156.0842  140.3242  155.7737 H   0  0  0  0  0  0  0  0  0  0  0  0  # atno 8010 bound_to 7997
  140.2835  143.3267  152.0418 H   0  0  0  0  0  0  0  0  0  0  0  0  # atno 10167 bound_to 10162
  156.1541  130.4150  149.9897 H   0  0  0  0  0  0  0  0  0  0  0  0  # atno 10718 bound_to 10713
  153.0170  135.5296  154.6927 H   0  0  0  0  0  0  0  0  0  0  0  0  # atno 10763 bound_to 10752
  154.6057  135.2873  155.0489 H   0  0  0  0  0  0  0  0  0  0  0  0  # atno 10764 bound_to 10752
  154.1530  135.6560  153.5020 H   0  0  0  0  0  0  0  0  0  0  0  0  # atno 10765 bound_to 10752
  141.0560  133.9612  157.2753 H   0  0  0  0  0  0  0  0  0  0  0  0  # atno 11005 bound_to 11000
  146.3477  139.9628  142.8715 LP  0  0  0  0  0  0  0  0  0  0  0  0  # atno 17320 bound_to 7965
  145.1961  140.9833  143.4183 LP  0  0  0  0  0  0  0  0  0  0  0  0  # atno 17321 bound_to 7965
  139.4956  144.6575  151.6539 LP  0  0  0  0  0  0  0  0  0  0  0  0  # atno 17342 bound_to 10162
  140.5792  143.9975  150.6259 LP  0  0  0  0  0  0  0  0  0  0  0  0  # atno 17343 bound_to 10162
  156.7746  130.9199  151.3645 LP  0  0  0  0  0  0  0  0  0  0  0  0  # atno 17370 bound_to 10713
  157.6681  130.9026  149.9977 LP  0  0  0  0  0  0  0  0  0  0  0  0  # atno 17371 bound_to 10713
  139.9390  135.0193  156.8649 LP  0  0  0  0  0  0  0  0  0  0  0  0  # atno 17394 bound_to 11000
  140.5963  134.0214  155.7519 LP  0  0  0  0  0  0  0  0  0  0  0  0  # atno 17395 bound_to 11000

$$$$
