#       Name:                AV-unprocessed.smi:221
#       Creating user name   scv26
#       Creation time:       Thu Mar 26 20:13:47 2020


#       File generated by GOLD software.
#

@<TRIPOS>MOLECULE
AV-unprocessed.smi:221
    60    63     1
SMALL
NO_CHARGES


@<TRIPOS>ATOM
      1 ****        -3.7309   2.5357  -1.5987 N.am           1 S1                 0.0000
      2 ****        -3.0746   3.6472  -1.9455 C.2            1 S1                 0.0000
      3 ****        -3.1098   4.0860  -3.0935 O.2            1 S1                 0.0000
      4 ****        -2.2694   4.3754  -0.8487 C.3            1 S1                 0.0000
      5 ****        -1.2669   5.4210  -1.3550 C.3            1 S1                 0.0000
      6 ****        -0.3882   5.6780  -0.1287 C.3            1 S1                 0.0000
      7 ****         0.8915   5.8112  -0.4773 F              1 S1                 0.0000
      8 ****        -0.6073   4.4654   0.7926 C.3            1 S1                 0.0000
      9 ****        -1.5029   3.5466   0.0923 N.3            1 S1                 0.0000
     10 ****        -0.8587   2.4439  -0.3695 C.ar           1 S1                 0.0000
     11 ****         0.0516   2.5354  -1.3756 N.ar           1 S1                 0.0000
     12 ****         0.6770   1.4388  -1.8143 C.ar           1 S1                 0.0000
     13 ****         0.5482   0.1787  -1.3918 N.ar           1 S1                 0.0000
     14 ****        -0.3607   0.0878  -0.3791 C.ar           1 S1                 0.0000
     15 ****        -1.1016   1.1616   0.1873 C.ar           1 S1                 0.0000
     16 ****        -1.9324   0.6909   1.1959 N.2            1 S1                 0.0000
     17 ****        -1.6933  -0.5922   1.2272 C.2            1 S1                 0.0000
     18 ****        -0.7591  -1.0376   0.3187 N.pl3          1 S1                 0.0000
     19 ****        -0.3023  -2.4040   0.1376 C.3            1 S1                 0.0000
     20 ****         1.1289  -2.6502   0.6771 C.3            1 S1                 0.0000
     21 ****         1.3204  -2.1407   2.1261 C.3            1 S1                 0.0000
     22 ****         0.4649  -2.8128   3.0275 O.3            1 S1                 0.0000
     23 ****         1.5456  -4.1333   0.5101 C.3            1 S1                 0.0000
     24 ****         2.9744  -4.4514   0.9138 C.3            1 S1                 0.0000
     25 ****         3.2143  -5.7858   0.2171 C.3            1 S1                 0.0000
     26 ****         2.4547  -5.7313  -0.9846 O.3            1 S1                 0.0000
     27 ****         1.5487  -4.6332  -0.9387 C.3            1 S1                 0.0000
     28 ****        -3.0143   4.8957  -0.2442 H              1 S1                 0.0000
     29 ****        -0.6812   6.5982   0.3775 H              1 S1                 0.0000
     30 ****        -4.2665   2.0332  -2.2916 H              1 S1                 0.0000
     31 ****        -3.6879   2.2016  -0.6467 H              1 S1                 0.0000
     32 ****        -0.6689   5.0231  -2.1762 H              1 S1                 0.0000
     33 ****        -1.7533   6.3295  -1.7114 H              1 S1                 0.0000
     34 ****         0.3401   4.0031   1.0792 H              1 S1                 0.0000
     35 ****        -1.0938   4.7781   1.7172 H              1 S1                 0.0000
     36 ****         1.3818   1.5934  -2.6179 H              1 S1                 0.0000
     37 ****        -2.1892  -1.2532   1.9235 H              1 S1                 0.0000
     38 ****        -1.0100  -3.0712   0.6315 H              1 S1                 0.0000
     39 ****        -0.3562  -2.6326  -0.9270 H              1 S1                 0.0000
     40 ****         1.8050  -2.0579   0.0586 H              1 S1                 0.0000
     41 ****         2.3507  -2.2772   2.4534 H              1 S1                 0.0000
     42 ****         1.1284  -1.0697   2.1930 H              1 S1                 0.0000
     43 ****         0.6224  -2.4773   3.8970 H              1 S1                 0.0000
     44 ****         0.8756  -4.7687   1.0921 H              1 S1                 0.0000
     45 ****         3.6595  -3.6970   0.5243 H              1 S1                 0.0000
     46 ****         3.1135  -4.5167   1.9933 H              1 S1                 0.0000
     47 ****         4.2699  -5.9686   0.0156 H              1 S1                 0.0000
     48 ****         2.8381  -6.6067   0.8288 H              1 S1                 0.0000
     49 ****         0.5567  -4.9310  -1.2787 H              1 S1                 0.0000
     50 ****         1.9181  -3.8606  -1.6147 H              1 S1                 0.0000
     51 ****        -3.6391   3.6089  -3.7951 LP             1 S1                 0.0000
     52 ****        -2.6092   4.9200  -3.3256 LP             1 S1                 0.0000
     53 ****        -2.1713   3.0969   0.6848 LP             1 S1                 0.0000
     54 ****         0.2532   3.4240  -1.7875 LP             1 S1                 0.0000
     55 ****         1.0528  -0.5978  -1.7691 LP             1 S1                 0.0000
     56 ****        -2.5665   1.2135   1.7658 LP             1 S1                 0.0000
     57 ****         0.6551  -3.7943   3.0050 LP             1 S1                 0.0000
     58 ****        -0.4883  -2.6521   2.7714 LP             1 S1                 0.0000
     59 ****         1.9392  -6.5818  -1.0894 LP             1 S1                 0.0000
     60 ****         3.0730  -5.6182  -1.7624 LP             1 S1                 0.0000
@<TRIPOS>BOND
    1    1    2 am    
    2    1   30 1     
    3    1   31 1     
    4    2    3 2     
    5    2    4 1     
    6    4   28 1     
    7    4    9 1     
    8    4    5 1     
    9    5    6 1     
   10    5   32 1     
   11    5   33 1     
   12    6   29 1     
   13    6    7 1     
   14    6    8 1     
   15    8    9 1     
   16    8   34 1     
   17    8   35 1     
   18    9   10 1     
   19   10   15 ar    
   20   10   11 ar    
   21   11   12 ar    
   22   12   13 ar    
   23   12   36 1     
   24   13   14 ar    
   25   14   18 1     
   26   14   15 ar    
   27   15   16 1     
   28   16   17 2     
   29   17   18 1     
   30   17   37 1     
   31   18   19 1     
   32   19   20 1     
   33   19   38 1     
   34   19   39 1     
   35   20   21 1     
   36   20   23 1     
   37   20   40 1     
   38   21   22 1     
   39   21   41 1     
   40   21   42 1     
   41   22   43 1     
   42   23   27 1     
   43   23   24 1     
   44   23   44 1     
   45   24   25 1     
   46   24   45 1     
   47   24   46 1     
   48   25   26 1     
   49   25   47 1     
   50   25   48 1     
   51   26   27 1     
   52   27   49 1     
   53   27   50 1     
   54    3   51 1     
   55    3   52 1     
   56    9   53 1     
   57   11   54 1     
   58   13   55 1     
   59   16   56 1     
   60   22   57 1     
   61   22   58 1     
   62   26   59 1     
   63   26   60 1     
@<TRIPOS>SUBSTRUCTURE
      1 S1             1
@<TRIPOS>SET
LONE_PAIRS      STATIC     ATOMS    <user>   **** ""
10 51 52 53 54 55 56 57 58 59 60
DONOR_HYDROGENS      STATIC     ATOMS    <user>   **** ""
3 30 31 43
ATOM$BLUE        STATIC     ATOMS    COLORGROUP SYSTEM
10 51 52 53 54 55 56 57 58 59 60
ATOM$RED        STATIC     ATOMS    COLORGROUP SYSTEM
3 30 31 43
