AV-unprocessed.smi:1350|AV-procd|sdf|5523|dock9
  -GOLD-   22720 5113D 1   1.00000     0.00000
 Structure written by MMmdl.
 44 46  0  0  0  0  0  0  0  0  2 V2000
  154.5590  139.0419  161.0028 C   0  0  0  0  0  0  0  0  0  0  0  0
  153.8766  139.2872  159.7817 O   0  0  0  0  0  0  0  0  0  0  0  0
  153.2416  140.5018  159.6158 C   0  0  0  0  0  0  0  0  0  0  0  0
  153.3691  141.5788  160.5309 C   0  0  0  0  0  0  0  0  0  0  0  0
  152.7060  142.7987  160.3013 C   0  0  0  0  0  0  0  0  0  0  0  0
  151.9111  142.9631  159.1542 C   0  0  0  0  0  0  0  0  0  0  0  0
  151.7745  141.9031  158.2406 C   0  0  0  0  0  0  0  0  0  0  0  0
  152.4256  140.6710  158.4694 C   0  0  0  0  0  0  0  0  0  0  0  0
  152.2740  139.5459  157.4557 C   0  0  0  0  0  0  0  0  0  0  0  0
  153.0521  139.7630  156.2884 O   0  0  0  0  0  0  0  0  0  0  0  0
  153.2374  138.5863  155.5190 C   0  0  0  0  0  0  0  0  0  0  0  0
  152.2498  138.5974  154.3413 C   0  0  1  0  0  0  0  0  0  0  0  0
  152.5789  137.5370  153.4654 O   0  0  0  0  0  0  0  0  0  0  0  0
  150.7912  138.4334  154.8119 C   0  0  0  0  0  0  0  0  0  0  0  0
  150.0505  139.7035  154.8194 N   0  0  0  0  0  0  0  0  0  0  0  0
  150.3602  140.8804  155.4282 C   0  0  0  0  0  0  0  0  0  0  0  0
  149.3651  141.7656  155.1454 N   0  3  0  0  0  0  0  0  0  0  0  0
  148.4055  141.1469  154.3417 C   0  0  0  0  0  0  0  0  0  0  0  0
  147.2207  141.6358  153.8001 C   0  0  0  0  0  0  0  0  0  0  0  0
  146.4658  140.7390  153.0162 C   0  0  0  0  0  0  0  0  0  0  0  0
  146.8966  139.4149  152.7953 C   0  0  0  0  0  0  0  0  0  0  0  0
  148.0992  138.9294  153.3503 C   0  0  0  0  0  0  0  0  0  0  0  0
  148.8396  139.8213  154.1262 C   0  0  0  0  0  0  0  0  0  0  0  0
  154.9900  138.0413  160.9783 H   0  0  0  0  0  0  0  0  0  0  0  0
  153.8799  139.0862  161.8551 H   0  0  0  0  0  0  0  0  0  0  0  0
  155.3760  139.7489  161.1526 H   0  0  0  0  0  0  0  0  0  0  0  0
  153.9750  141.4968  161.4201 H   0  0  0  0  0  0  0  0  0  0  0  0
  152.8117  143.6110  161.0052 H   0  0  0  0  0  0  0  0  0  0  0  0
  151.4072  143.9011  158.9737 H   0  0  0  0  0  0  0  0  0  0  0  0
  151.1649  142.0435  157.3599 H   0  0  0  0  0  0  0  0  0  0  0  0
  152.5721  138.6124  157.9348 H   0  0  0  0  0  0  0  0  0  0  0  0
  151.2278  139.4446  157.1648 H   0  0  0  0  0  0  0  0  0  0  0  0
  154.2681  138.4950  155.1718 H   0  0  0  0  0  0  0  0  0  0  0  0
  153.0348  137.7250  156.1576 H   0  0  0  0  0  0  0  0  0  0  0  0
  152.3388  139.5406  153.8005 H   0  0  0  0  0  0  0  0  0  0  0  0
  151.8580  137.4047  152.8693 H   0  0  0  0  0  0  0  0  0  0  0  0
  150.2565  137.7011  154.2068 H   0  0  0  0  0  0  0  0  0  0  0  0
  150.7741  138.0537  155.8343 H   0  0  0  0  0  0  0  0  0  0  0  0
  151.2378  141.0765  156.0274 H   0  0  0  0  0  0  0  0  0  0  0  0
  146.8894  142.6504  153.9665 H   0  0  0  0  0  0  0  0  0  0  0  0
  145.5386  141.0740  152.5741 H   0  0  0  0  0  0  0  0  0  0  0  0
  146.2927  138.7575  152.1867 H   0  0  0  0  0  0  0  0  0  0  0  0
  148.4193  137.9142  153.1698 H   0  0  0  0  0  0  0  0  0  0  0  0
  149.3463  142.7217  155.4766 H   0  0  0  0  0  0  0  0  0  0  0  0
  1  2  1  0  0  0  0
  1 24  1  0  0  0  0
  1 25  1  0  0  0  0
  1 26  1  0  0  0  0
  2  3  1  0  0  0  0
  3  8  1  0  0  0  0
  3  4  2  0  0  0  0
  4  5  1  0  0  0  0
  4 27  1  0  0  0  0
  5  6  2  0  0  0  0
  5 28  1  0  0  0  0
  6  7  1  0  0  0  0
  6 29  1  0  0  0  0
  7  8  2  0  0  0  0
  7 30  1  0  0  0  0
  8  9  1  0  0  0  0
  9 10  1  0  0  0  0
  9 31  1  0  0  0  0
  9 32  1  0  0  0  0
 10 11  1  0  0  0  0
 11 12  1  0  0  0  0
 11 33  1  0  0  0  0
 11 34  1  0  0  0  0
 12 13  1  0  0  0  0
 12 14  1  0  0  0  0
 12 35  1  0  0  0  0
 13 36  1  0  0  0  0
 14 15  1  0  0  0  0
 14 37  1  0  0  0  0
 14 38  1  0  0  0  0
 15 23  1  0  0  0  0
 15 16  1  0  0  0  0
 16 17  2  0  0  0  0
 16 39  1  0  0  0  0
 17 18  1  0  0  0  0
 17 44  1  0  0  0  0
 18 23  2  0  0  0  0
 18 19  1  0  0  0  0
 19 20  2  0  0  0  0
 19 40  1  0  0  0  0
 20 21  1  0  0  0  0
 20 41  1  0  0  0  0
 21 22  2  0  0  0  0
 21 42  1  0  0  0  0
 22 23  1  0  0  0  0
 22 43  1  0  0  0  0
M  CHG  1  17   1
M  END
> <s_m_source_file>
AV-unprocessed.smi

> <i_m_source_file_index>
1350

> <i_lp_mmshare_version>
43012

> <i_f3d_flags>
0

> <s_epik_input>
W0NIM11PYzFbY0hdW2NIXVtjSF1bY0hdYzFbQ0gyXU9bQ0gyXVtDQEhdKFtPSF0pW0NIMl1uKFtjSF1uMiljKGMyMylbY0hdW2NIXVtjSF1bY0hdMw==

> <s_epik_cmdline>
J2VwaWtfcHl0aG9uJywgJy1waCcsICc3LjAnLCAnLXRuJywgJzgnLCAnLW1hJywgJzIwMCcsICctbWV0YWxfYmluZGluZycsICctaW1hZScsICc8aW5maWxlLm1hZT4nLCAnLW9tYWUnLCAnPG91dGZpbGUubWFlPic=

> <r_lp_tautomer_probability>
1

> <r_epik_Ionization_Penalty>
1.28975

> <r_epik_Ionization_Penalty_Charging>
1.28975

> <r_epik_Ionization_Penalty_Neutral>
1.07667e-06

> <r_epik_State_Penalty>
1.36276

> <r_epik_Charging_Adjusted_Penalty>
2.65251

> <i_epik_Tot_Q>
1

> <i_epik_Tot_abs_Q>
1

> <r_epik_Metal_State_Penalty>
5.39298

> <b_epik_Metal_Only>
0

> <s_lp_Force_Field>
OPLS_2005

> <r_lp_Energy>
25.8807

> <b_lp_Chiralities_Consistent>
1

> <s_lp_Variant>
AV-unprocessed.smi:1350-4

> <Gold.Version>
5.8.1

> <Gold.Id.Protein>
6NUR|6NUR_protein|mol2

> <Gold.PLP.Fitness>
59.5838

> <Gold.PLP.PLP>
-48.7303

> <Gold.PLP.part.hbond>
-4.0000

> <Gold.PLP.part.metal>
0.0000

> <Gold.PLP.part.buried>
-3.2429

> <Gold.PLP.part.nonpolar>
-42.7644

> <Gold.PLP.part.repulsive>
0.1867

> <Gold.PLP.ligand.clash>
0.0000

> <Gold.PLP.ligand.torsion>
1.3014

> <Gold.PLP.Chemscore.Hbond>
4.4632

> <Gold.PLP.Chemscore.CHOScore>
0.0000

> <Gold.PLP.Chemscore.Metal>
0.0000

> <Gold.Chemscore.Hbonds>
donor molecule, donor type, donor heavy atom, donor atom, acceptor molecule, acceptor atom, score
      L1  H    13    36       P1  7949  0.68
      L1  H    17    44       P1  8028  1.89
      P1  H  7997  8009       L1    10  0.39
      P1  H 10752 10765       L1    13  0.82

> <Gold.PLP.Chemscore.Internal.Correction>
0.0667

> <Gold.Rescore>
     Score         DG    S(hbond)    S(metal)    S(lipo)     H(rot)  DE(clash)    DE(int)     intcor
     21.32     -24.19       3.13        0.00     130.47       2.74       1.50       1.37       ----

> <Gold.Chemscore.Fitness>
21.3202

> <Gold.Chemscore.DG>
-24.1853

> <Gold.Chemscore.ZeroCoef>
-5.4800

> <Gold.Chemscore.Hbond>
3.1294

> <Gold.Chemscore.Metal>
0.0000

> <Gold.Chemscore.Lipo>
130.4699

> <Gold.Chemscore.Internal_Hbond>
0.0000

> <Gold.Chemscore.DEClash>
1.4997

> <Gold.Chemscore.DEInternal>
1.3655

> <Gold.Chemscore.Rot>
2.7390

> <Gold.Chemscore.Internal.Correction>
   9.000000E+99

> <Gold.Chemscore.Hbonds>
donor molecule, donor type, donor heavy atom, donor atom, acceptor molecule, acceptor atom, score
      L1  H    13    36       P1  7949  0.65
      L1  H    17    44       P1  8028  0.90
      P1  H  7997  8009       L1    10  0.04
      P1  H 10752 10765       L1    13  0.31

> <Gold.Chemscore.Hbond.Weighted>
-10.4522

> <Gold.Chemscore.Metal.Weighted>
-0.0000

> <Gold.Chemscore.Lipo.Weighted>
-15.2650

> <Gold.Chemscore.Internal_Hbond.Weighted>
0.0000

> <Gold.Chemscore.DEClash.Weighted>
1.4997

> <Gold.Chemscore.DEInternal.Weighted>
1.3655

> <Gold.Chemscore.Rot.Weighted>
7.0118

> <Gold.Chemscore.Internal.Correction.Weighted>
   9.000000E+99

> <Gold.Protein.RotatedTorsions>
[ 6907 6896 6895 6894 ] final  -20.52 input  -60.11 | X-H torsion
[ 7974 7965 7964 7962 ] final  -44.07 input  175.53 | X-H torsion
[ 8008 7997 7996 7995 ] final -153.29 input   59.86 | X-H torsion
[ 10167 10162 10161 10158 ] final  -83.18 input  -65.29 | X-H torsion
[ 10718 10713 10712 10709 ] final -152.44 input   66.30 | X-H torsion
[ 10763 10752 10751 10750 ] final  141.04 input  -60.55 | X-H torsion
[ 11005 11000 10999 10996 ] final -130.78 input  -57.11 | X-H torsion

> <Gold.Protein.ActiveResidues>
 VAL166  LYS551  ARG553  GLY616  TRP617  ASP618  TYR619  PRO620  LYS621  CYS622 
 ASP623  PHE694  ASN695  SER759  ASP760  ASP761  ALA762  ILE779  LEU786  VAL792 
 PHE793  MET794  SER795  GLU796  ALA797  LYS798  CYS799  TRP800  GLU811  SER814 

> <Gold.Protein.RotatedAtoms>
  151.2469  135.0608  159.9046 H   0  0  0  0  0  0  0  0  0  0  0  0  # atno 6907 bound_to 6896
  152.5385  134.0374  159.8062 H   0  0  0  0  0  0  0  0  0  0  0  0  # atno 6908 bound_to 6896
  151.0576  133.5522  159.2668 H   0  0  0  0  0  0  0  0  0  0  0  0  # atno 6909 bound_to 6896
  145.9956  140.7132  142.9295 H   0  0  0  0  0  0  0  0  0  0  0  0  # atno 7974 bound_to 7965
  155.6685  140.0730  157.2529 H   0  0  0  0  0  0  0  0  0  0  0  0  # atno 8008 bound_to 7997
  154.4128  140.1703  156.1904 H   0  0  0  0  0  0  0  0  0  0  0  0  # atno 8009 bound_to 7997
  155.9637  140.3368  155.6516 H   0  0  0  0  0  0  0  0  0  0  0  0  # atno 8010 bound_to 7997
  140.4250  143.2570  151.8837 H   0  0  0  0  0  0  0  0  0  0  0  0  # atno 10167 bound_to 10162
  156.4725  130.8265  151.2494 H   0  0  0  0  0  0  0  0  0  0  0  0  # atno 10718 bound_to 10713
  153.9327  135.2988  155.3445 H   0  0  0  0  0  0  0  0  0  0  0  0  # atno 10763 bound_to 10752
  154.7518  135.4976  153.9306 H   0  0  0  0  0  0  0  0  0  0  0  0  # atno 10764 bound_to 10752
  153.1083  135.6752  153.9651 H   0  0  0  0  0  0  0  0  0  0  0  0  # atno 10765 bound_to 10752
  140.9316  134.1312  157.4230 H   0  0  0  0  0  0  0  0  0  0  0  0  # atno 11005 bound_to 11000
  144.6903  140.3145  143.7242 LP  0  0  0  0  0  0  0  0  0  0  0  0  # atno 17320 bound_to 7965
  145.7564  139.1810  143.2292 LP  0  0  0  0  0  0  0  0  0  0  0  0  # atno 17321 bound_to 7965
  139.4783  144.5396  151.8548 LP  0  0  0  0  0  0  0  0  0  0  0  0  # atno 17342 bound_to 10162
  140.4491  144.1880  150.5896 LP  0  0  0  0  0  0  0  0  0  0  0  0  # atno 17343 bound_to 10162
  157.7490  131.0071  150.3178 LP  0  0  0  0  0  0  0  0  0  0  0  0  # atno 17370 bound_to 10713
  156.3603  130.3846  149.7256 LP  0  0  0  0  0  0  0  0  0  0  0  0  # atno 17371 bound_to 10713
  139.8797  135.0007  156.6024 LP  0  0  0  0  0  0  0  0  0  0  0  0  # atno 17394 bound_to 11000
  140.7855  133.8625  155.8603 LP  0  0  0  0  0  0  0  0  0  0  0  0  # atno 17395 bound_to 11000

$$$$
