AV-unprocessed.smi:160|AV-procd|sdf|1361|dock1
  -GOLD-   2262019 73D 1   1.00000     0.00000
 Structure written by MMmdl.
 28 29  0  0  0  0  0  0  0  0  2 V2000
  155.0454  135.9273  157.2049 N   0  5  0  0  0  0  0  0  0  0  0  0
  153.8700  135.8156  157.8615 C   0  0  0  0  0  0  0  0  0  0  0  0
  153.6917  135.2609  158.9456 O   0  0  0  0  0  0  0  0  0  0  0  0
  152.6958  136.4520  157.1563 C   0  0  0  0  0  0  0  0  0  0  0  0
  151.4160  136.0642  157.4432 N   0  0  0  0  0  0  0  0  0  0  0  0
  150.7606  136.8687  156.6172 C   0  0  0  0  0  0  0  0  0  0  0  0
  151.5445  137.6830  155.9047 N   0  0  0  0  0  0  0  0  0  0  0  0
  151.1703  138.6912  154.8604 C   0  0  2  0  0  0  0  0  0  0  0  0
  151.6167  139.9400  155.2966 O   0  0  0  0  0  0  0  0  0  0  0  0
  150.5391  140.6576  155.8891 C   0  0  1  0  0  0  0  0  0  0  0  0
  150.8465  142.1640  155.9648 C   0  0  0  0  0  0  0  0  0  0  0  0
  149.8485  142.8280  156.7104 O   0  0  0  0  0  0  0  0  0  0  0  0
  149.3597  140.2643  154.9886 C   0  0  1  0  0  0  0  0  0  0  0  0
  149.3362  141.0685  153.8193 O   0  0  0  0  0  0  0  0  0  0  0  0
  149.6412  138.7912  154.6822 C   0  0  1  0  0  0  0  0  0  0  0  0
  149.2045  138.4100  153.3900 O   0  0  0  0  0  0  0  0  0  0  0  0
  152.8320  137.4089  156.2333 N   0  0  0  0  0  0  0  0  0  0  0  0
  151.7083  138.3790  153.9644 H   0  0  0  0  0  0  0  0  0  0  0  0
  150.3506  140.2698  156.8915 H   0  0  0  0  0  0  0  0  0  0  0  0
  148.4052  140.3891  155.5011 H   0  0  0  0  0  0  0  0  0  0  0  0
  149.1332  138.1608  155.4125 H   0  0  0  0  0  0  0  0  0  0  0  0
  155.8239  136.4054  157.6742 H   0  0  0  0  0  0  0  0  0  0  0  0
  149.6840  136.8645  156.5304 H   0  0  0  0  0  0  0  0  0  0  0  0
  151.8284  142.3496  156.4014 H   0  0  0  0  0  0  0  0  0  0  0  0
  150.8465  142.5970  154.9641 H   0  0  0  0  0  0  0  0  0  0  0  0
  149.5171  143.5473  156.1953 H   0  0  0  0  0  0  0  0  0  0  0  0
  149.3960  140.4981  153.0681 H   0  0  0  0  0  0  0  0  0  0  0  0
  149.6510  138.9473  152.7536 H   0  0  0  0  0  0  0  0  0  0  0  0
  1  2  1  0  0  0  0
  1 22  1  0  0  0  0
  2  3  2  0  0  0  0
  2  4  1  0  0  0  0
  4 17  2  0  0  0  0
  4  5  1  0  0  0  0
  5  6  2  0  0  0  0
  6  7  1  0  0  0  0
  6 23  1  0  0  0  0
  7  8  1  0  0  0  0
  7 17  1  0  0  0  0
  8 18  1  0  0  0  0
  8 15  1  0  0  0  0
  8  9  1  0  0  0  0
  9 10  1  0  0  0  0
 10 19  1  0  0  0  0
 10 11  1  0  0  0  0
 10 13  1  0  0  0  0
 11 12  1  0  0  0  0
 11 24  1  0  0  0  0
 11 25  1  0  0  0  0
 12 26  1  0  0  0  0
 13 20  1  0  0  0  0
 13 14  1  0  0  0  0
 13 15  1  0  0  0  0
 14 27  1  0  0  0  0
 15 21  1  0  0  0  0
 15 16  1  0  0  0  0
 16 28  1  0  0  0  0
M  CHG  1   1  -1
M  END
> <s_m_source_file>
AV-unprocessed.smi

> <i_m_source_file_index>
160

> <i_lp_mmshare_version>
43012

> <i_f3d_flags>
0

> <s_epik_input>
W05IMl1DKD1PKWMxbltjSF1uKG4xKVtDQEBIXTJPW0NASF0oW0NIMl1bT0hdKVtDQEBIXShbT0hdKVtDQEhdMltPSF0=

> <s_epik_cmdline>
J2VwaWtfcHl0aG9uJywgJy1waCcsICc3LjAnLCAnLXRuJywgJzgnLCAnLW1hJywgJzIwMCcsICctbWV0YWxfYmluZGluZycsICctaW1hZScsICc8aW5maWxlLm1hZT4nLCAnLW9tYWUnLCAnPG91dGZpbGUubWFlPic=

> <r_lp_tautomer_probability>
1

> <r_epik_Ionization_Penalty>
6.6993

> <r_epik_Ionization_Penalty_Charging>
6.6993

> <r_epik_Ionization_Penalty_Neutral>
6.01698e-06

> <r_epik_State_Penalty>
6.69929

> <r_epik_Charging_Adjusted_Penalty>
13.3986

> <i_epik_Tot_Q>
-1

> <i_epik_Tot_abs_Q>
1

> <r_epik_Metal_State_Penalty>
2.62798

> <b_epik_Metal_Only>
1

> <s_epik_Chemistry_Notes>
This compound contains an acetal/aminal-like group ( X-CH(R)-Y where X, Y are N, S, or O) that may be acid/base labile, releasing an aldehyde.

> <s_lp_Force_Field>
OPLS_2005

> <r_lp_Energy>
44.8838

> <b_lp_Chiralities_Consistent>
1

> <s_lp_Variant>
AV-unprocessed.smi:160-19

> <Gold.Version>
5.8.1

> <Gold.Id.Protein>
6NUR|6NUR_protein|mol2

> <Gold.PLP.Fitness>
45.2077

> <Gold.PLP.PLP>
-25.6507

> <Gold.PLP.part.hbond>
-10.4441

> <Gold.PLP.part.metal>
0.0000

> <Gold.PLP.part.buried>
-4.7017

> <Gold.PLP.part.nonpolar>
-12.2619

> <Gold.PLP.part.repulsive>
0.0220

> <Gold.PLP.ligand.clash>
0.0000

> <Gold.PLP.ligand.torsion>
0.2623

> <Gold.PLP.Chemscore.Hbond>
6.6855

> <Gold.PLP.Chemscore.CHOScore>
0.0000

> <Gold.PLP.Chemscore.Metal>
0.0000

> <Gold.Chemscore.Hbonds>
donor molecule, donor type, donor heavy atom, donor atom, acceptor molecule, acceptor atom, score
      L1  H    12    26       P1  8028  0.76
      L1  H    14    27       P1  7957  1.00
      L1  H    16    28       P1  7957  1.00
      P1  H  6896  6907       L1     3  0.85
      P1  H  7989  7998       L1     9  0.86
      P1  H 10752 10763       L1     1  1.43

> <Gold.PLP.Chemscore.Internal.Correction>
0.0251

> <Gold.Rescore>
     Score         DG    S(hbond)    S(metal)    S(lipo)     H(rot)  DE(clash)    DE(int)     intcor
     12.77     -13.63       4.61        0.00      26.39       4.04       0.45       0.40       ----

> <Gold.Chemscore.Fitness>
12.7718

> <Gold.Chemscore.DG>
-13.6253

> <Gold.Chemscore.ZeroCoef>
-5.4800

> <Gold.Chemscore.Hbond>
4.6110

> <Gold.Chemscore.Metal>
0.0000

> <Gold.Chemscore.Lipo>
26.3903

> <Gold.Chemscore.Internal_Hbond>
0.0000

> <Gold.Chemscore.DEClash>
0.4525

> <Gold.Chemscore.DEInternal>
0.4009

> <Gold.Chemscore.Rot>
4.0403

> <Gold.Chemscore.Internal.Correction>
   9.000000E+99

> <Gold.Chemscore.Hbonds>
donor molecule, donor type, donor heavy atom, donor atom, acceptor molecule, acceptor atom, score
      L1  H    12    26       P1  8028  0.75
      L1  H    14    27       P1  7957  0.97
      L1  H    16    28       P1  7957  0.85
      P1  H  6896  6907       L1     3  0.85
      P1  H  7989  7998       L1     9  0.03
      P1  H 10752 10763       L1     1  0.21

> <Gold.Chemscore.Hbond.Weighted>
-15.4007

> <Gold.Chemscore.Metal.Weighted>
-0.0000

> <Gold.Chemscore.Lipo.Weighted>
-3.0877

> <Gold.Chemscore.Internal_Hbond.Weighted>
0.0000

> <Gold.Chemscore.DEClash.Weighted>
0.4525

> <Gold.Chemscore.DEInternal.Weighted>
0.4009

> <Gold.Chemscore.Rot.Weighted>
10.3431

> <Gold.Chemscore.Internal.Correction.Weighted>
   9.000000E+99

> <Gold.Protein.RotatedTorsions>
[ 6907 6896 6895 6894 ] final   77.37 input  -60.11 | X-H torsion
[ 7974 7965 7964 7962 ] final   61.93 input  175.53 | X-H torsion
[ 8008 7997 7996 7995 ] final  -68.83 input   59.86 | X-H torsion
[ 10167 10162 10161 10158 ] final -142.16 input  -65.29 | X-H torsion
[ 10718 10713 10712 10709 ] final -176.72 input   66.30 | X-H torsion
[ 10763 10752 10751 10750 ] final  174.99 input  -60.55 | X-H torsion
[ 11005 11000 10999 10996 ] final  149.35 input  -57.11 | X-H torsion

> <Gold.Protein.ActiveResidues>
 VAL166  LYS551  ARG553  GLY616  TRP617  ASP618  TYR619  PRO620  LYS621  CYS622 
 ASP623  PHE694  ASN695  SER759  ASP760  ASP761  ALA762  ILE779  LEU786  VAL792 
 PHE793  MET794  SER795  GLU796  ALA797  LYS798  CYS799  TRP800  GLU811  SER814 

> <Gold.Protein.RotatedAtoms>
  152.5115  134.3826  159.9356 H   0  0  0  0  0  0  0  0  0  0  0  0  # atno 6907 bound_to 6896
  151.3784  133.3824  159.2715 H   0  0  0  0  0  0  0  0  0  0  0  0  # atno 6908 bound_to 6896
  150.9524  134.8942  159.7738 H   0  0  0  0  0  0  0  0  0  0  0  0  # atno 6909 bound_to 6896
  145.8791  139.3431  143.0717 H   0  0  0  0  0  0  0  0  0  0  0  0  # atno 7974 bound_to 7965
  154.4896  140.0865  156.7563 H   0  0  0  0  0  0  0  0  0  0  0  0  # atno 8008 bound_to 7997
  155.4265  140.3448  155.4258 H   0  0  0  0  0  0  0  0  0  0  0  0  # atno 8009 bound_to 7997
  156.1310  140.1501  156.9053 H   0  0  0  0  0  0  0  0  0  0  0  0  # atno 8010 bound_to 7997
  139.8115  143.7697  152.2663 H   0  0  0  0  0  0  0  0  0  0  0  0  # atno 10167 bound_to 10162
  156.8188  130.9612  151.3112 H   0  0  0  0  0  0  0  0  0  0  0  0  # atno 10718 bound_to 10713
  154.4615  135.2768  155.1709 H   0  0  0  0  0  0  0  0  0  0  0  0  # atno 10763 bound_to 10752
  154.3495  135.6153  153.5639 H   0  0  0  0  0  0  0  0  0  0  0  0  # atno 10764 bound_to 10752
  152.9855  135.5808  154.4978 H   0  0  0  0  0  0  0  0  0  0  0  0  # atno 10765 bound_to 10752
  140.1037  134.8967  157.1834 H   0  0  0  0  0  0  0  0  0  0  0  0  # atno 11005 bound_to 11000
  145.9045  140.9221  143.0486 LP  0  0  0  0  0  0  0  0  0  0  0  0  # atno 17320 bound_to 7965
  144.6727  140.1077  143.7457 LP  0  0  0  0  0  0  0  0  0  0  0  0  # atno 17321 bound_to 7965
  139.7847  144.7432  151.0039 LP  0  0  0  0  0  0  0  0  0  0  0  0  # atno 17342 bound_to 10162
  140.7817  143.4505  151.0420 LP  0  0  0  0  0  0  0  0  0  0  0  0  # atno 17343 bound_to 10162
  157.6468  130.8850  149.9553 LP  0  0  0  0  0  0  0  0  0  0  0  0  # atno 17370 bound_to 10713
  156.1001  130.3656  150.0234 LP  0  0  0  0  0  0  0  0  0  0  0  0  # atno 17371 bound_to 10713
  140.3185  134.2943  155.7251 LP  0  0  0  0  0  0  0  0  0  0  0  0  # atno 17394 bound_to 11000
  141.2112  133.7695  156.9877 LP  0  0  0  0  0  0  0  0  0  0  0  0  # atno 17395 bound_to 11000

$$$$
