#       Name:                AV-unprocessed.smi:3287
#       Creating user name   scv26
#       Creation time:       Fri Mar 27 18:51:57 2020


#       File generated by GOLD software.
#

@<TRIPOS>MOLECULE
AV-unprocessed.smi:3287
    46    47     1
SMALL
NO_CHARGES


@<TRIPOS>ATOM
      1 ****        -3.9054   1.9487  -1.4850 C.3            1 S1                 0.0000
      2 ****        -2.9536   2.5558  -0.4345 C.3            1 S1                 0.0000
      3 ****        -3.1026   1.8647   0.9366 C.3            1 S1                 0.0000
      4 ****        -2.4861   0.4555   0.9511 C.3            1 S1                 0.0000
      5 ****        -1.0057   0.4814   0.5312 C.3            1 S1                 0.0000
      6 ****        -0.4586  -0.8937   0.5383 N.4            1 S1                 1.0000
      7 ****         1.0170  -0.9888   0.4925 C.3            1 S1                 0.0000
      8 ****         1.4953  -2.4409   0.6644 C.3            1 S1                 0.0000
      9 ****         0.9936  -3.2168  -0.4067 O.3            1 S1                 0.0000
     10 ****         3.0122  -2.5096   0.7502 C.ar           1 S1                 0.0000
     11 ****         3.8159  -2.4105  -0.4066 C.ar           1 S1                 0.0000
     12 ****         5.2163  -2.4720  -0.2617 C.ar           1 S1                 0.0000
     13 ****         5.8322  -2.6180   0.9306 N.ar           1 S1                 0.0000
     14 ****         5.0595  -2.7097   2.0337 C.ar           1 S1                 0.0000
     15 ****         3.6514  -2.6601   1.9987 C.ar           1 S1                 0.0000
     16 ****        -0.8483   1.1570  -0.8481 C.3            1 S1                 0.0000
     17 ****        -1.4636   2.5715  -0.8618 C.3            1 S1                 0.0000
     18 ****        -1.2212   3.2867  -2.2012 C.3            1 S1                 0.0000
     19 ****        -3.6369   0.9250  -1.7431 H              1 S1                 0.0000
     20 ****        -3.9085   2.5322  -2.4053 H              1 S1                 0.0000
     21 ****        -4.9316   1.9354  -1.1171 H              1 S1                 0.0000
     22 ****        -3.2668   3.5924  -0.3021 H              1 S1                 0.0000
     23 ****        -2.6137   2.4728   1.6987 H              1 S1                 0.0000
     24 ****        -4.1538   1.8148   1.2228 H              1 S1                 0.0000
     25 ****        -2.5808   0.0305   1.9511 H              1 S1                 0.0000
     26 ****        -3.0512  -0.2003   0.2876 H              1 S1                 0.0000
     27 ****        -0.4586   1.0640   1.2742 H              1 S1                 0.0000
     28 ****        -0.7621  -1.3381   1.3930 H              1 S1                 0.0000
     29 ****         1.3903  -0.5818  -0.4475 H              1 S1                 0.0000
     30 ****         1.4306  -0.3748   1.2939 H              1 S1                 0.0000
     31 ****         1.0795  -2.8511   1.5860 H              1 S1                 0.0000
     32 ****         1.2595  -4.1149  -0.2759 H              1 S1                 0.0000
     33 ****         3.3750  -2.2889  -1.3853 H              1 S1                 0.0000
     34 ****         5.8587  -2.3989  -1.1268 H              1 S1                 0.0000
     35 ****         5.5790  -2.8236   2.9736 H              1 S1                 0.0000
     36 ****         3.0812  -2.7357   2.9130 H              1 S1                 0.0000
     37 ****         0.2069   1.2337  -1.1095 H              1 S1                 0.0000
     38 ****        -1.3085   0.5401  -1.6210 H              1 S1                 0.0000
     39 ****        -0.9300   3.1539  -0.1087 H              1 S1                 0.0000
     40 ****        -1.6445   2.7326  -3.0390 H              1 S1                 0.0000
     41 ****        -0.1541   3.4015  -2.3933 H              1 S1                 0.0000
     42 ****        -1.6620   4.2840  -2.2002 H              1 S1                 0.0000
     43 ****        -0.8445  -1.4077  -0.2411 H              1 S1                 0.0000
     44 ****         1.3638  -2.8777  -1.2715 LP             1 S1                 0.0000
     45 ****        -0.0046  -3.1597  -0.4262 LP             1 S1                 0.0000
     46 ****         6.8294  -2.6570   0.9947 LP             1 S1                 0.0000
@<TRIPOS>BOND
    1    1    2 1     
    2    1   19 1     
    3    1   20 1     
    4    1   21 1     
    5    2   17 1     
    6    2    3 1     
    7    2   22 1     
    8    3    4 1     
    9    3   23 1     
   10    3   24 1     
   11    4    5 1     
   12    4   25 1     
   13    4   26 1     
   14    5    6 1     
   15    5   16 1     
   16    5   27 1     
   17    6    7 1     
   18    6   28 1     
   19    6   43 1     
   20    7    8 1     
   21    7   29 1     
   22    7   30 1     
   23    8    9 1     
   24    8   10 1     
   25    8   31 1     
   26    9   32 1     
   27   10   15 ar    
   28   10   11 ar    
   29   11   12 ar    
   30   11   33 1     
   31   12   13 ar    
   32   12   34 1     
   33   13   14 ar    
   34   14   15 ar    
   35   14   35 1     
   36   15   36 1     
   37   16   17 1     
   38   16   37 1     
   39   16   38 1     
   40   17   18 1     
   41   17   39 1     
   42   18   40 1     
   43   18   41 1     
   44   18   42 1     
   45    9   44 1     
   46    9   45 1     
   47   13   46 1     
@<TRIPOS>SUBSTRUCTURE
      1 S1             1
@<TRIPOS>SET
LONE_PAIRS      STATIC     ATOMS    <user>   **** ""
3 44 45 46
DONOR_HYDROGENS      STATIC     ATOMS    <user>   **** ""
3 28 43 32
ATOM$BLUE        STATIC     ATOMS    COLORGROUP SYSTEM
3 44 45 46
ATOM$RED        STATIC     ATOMS    COLORGROUP SYSTEM
3 28 43 32
