AV-unprocessed.smi:1589|AV-procd|sdf|6394|dock2
  -GOLD-   22720 7 33D 1   1.00000     0.00000
 Structure written by MMmdl.
 43 44  0  0  0  0  0  0  0  0  1 V2000
  151.8089  144.3240  158.0947 C   0  0  0  0  0  0  0  0  0  0  0  0
  151.9047  143.1540  159.0986 C   0  0  0  0  0  0  0  0  0  0  0  0
  153.1615  143.3638  159.9714 C   0  0  0  0  0  0  0  0  0  0  0  0
  151.9218  141.8446  158.4146 N   0  0  0  0  0  0  0  0  0  0  0  0
  150.5716  141.4476  157.9784 C   0  0  0  0  0  0  0  0  0  0  0  0
  150.5925  140.0819  157.2660 C   0  0  0  0  0  0  0  0  0  0  0  0
  151.1149  139.0763  158.1983 N   0  0  0  0  0  0  0  0  0  0  0  0
  150.4218  138.0791  158.8038 C   0  0  0  0  0  0  0  0  0  0  0  0
  150.9736  137.1209  159.3463 O   0  0  0  0  0  0  0  0  0  0  0  0
  149.0844  138.2220  158.7451 N   0  0  0  0  0  0  0  0  0  0  0  0
  148.0950  137.3609  159.2820 C   0  0  0  0  0  0  0  0  0  0  0  0
  146.6815  137.5231  159.3272 C   0  0  0  0  0  0  0  0  0  0  0  0
  146.1037  136.4896  159.9213 N   0  0  0  0  0  0  0  0  0  0  0  0
  147.1229  135.6635  160.2667 N   0  0  0  0  0  0  0  0  0  0  0  0
  146.8360  134.4098  160.9465 C   0  0  0  0  0  0  0  0  0  0  0  0
  146.1583  134.6149  162.3073 C   0  0  0  0  0  0  0  0  0  0  0  0
  144.8771  134.2496  162.3961 N   0  0  0  0  0  0  0  0  0  0  0  0
  146.7665  135.0946  163.2630 O   0  0  0  0  0  0  0  0  0  0  0  0
  148.3518  136.1675  159.8864 C   0  0  0  0  0  0  0  0  0  0  0  0
  152.4881  139.4240  158.5632 C   0  0  0  0  0  0  0  0  0  0  0  0
  152.4784  140.7886  159.2788 C   0  0  0  0  0  0  0  0  0  0  0  0
  151.9470  145.2822  158.5963 H   0  0  0  0  0  0  0  0  0  0  0  0
  150.8340  144.3803  157.6117 H   0  0  0  0  0  0  0  0  0  0  0  0
  152.5721  144.2481  157.3191 H   0  0  0  0  0  0  0  0  0  0  0  0
  151.0307  143.1945  159.7506 H   0  0  0  0  0  0  0  0  0  0  0  0
  153.2079  144.3849  160.3510 H   0  0  0  0  0  0  0  0  0  0  0  0
  154.0757  143.1842  159.4045 H   0  0  0  0  0  0  0  0  0  0  0  0
  153.1700  142.7197  160.8501 H   0  0  0  0  0  0  0  0  0  0  0  0
  149.8956  141.4164  158.8343 H   0  0  0  0  0  0  0  0  0  0  0  0
  150.1671  142.1712  157.2732 H   0  0  0  0  0  0  0  0  0  0  0  0
  149.5970  139.8566  156.8841 H   0  0  0  0  0  0  0  0  0  0  0  0
  151.2349  140.1274  156.3850 H   0  0  0  0  0  0  0  0  0  0  0  0
  148.7418  139.0483  158.2771 H   0  0  0  0  0  0  0  0  0  0  0  0
  146.0619  138.3291  158.9635 H   0  0  0  0  0  0  0  0  0  0  0  0
  146.1952  133.7915  160.3156 H   0  0  0  0  0  0  0  0  0  0  0  0
  147.7751  133.8707  161.0781 H   0  0  0  0  0  0  0  0  0  0  0  0
  144.3801  134.3555  163.2686 H   0  0  0  0  0  0  0  0  0  0  0  0
  144.4103  133.8619  161.5886 H   0  0  0  0  0  0  0  0  0  0  0  0
  149.2776  135.6449  160.0776 H   0  0  0  0  0  0  0  0  0  0  0  0
  152.9544  138.6762  159.2058 H   0  0  0  0  0  0  0  0  0  0  0  0
  153.1072  139.4699  157.6658 H   0  0  0  0  0  0  0  0  0  0  0  0
  153.5076  141.0165  159.5500 H   0  0  0  0  0  0  0  0  0  0  0  0
  151.9059  140.7239  160.2056 H   0  0  0  0  0  0  0  0  0  0  0  0
  1  2  1  0  0  0  0
  1 22  1  0  0  0  0
  1 23  1  0  0  0  0
  1 24  1  0  0  0  0
  2  3  1  0  0  0  0
  2  4  1  0  0  0  0
  2 25  1  0  0  0  0
  3 26  1  0  0  0  0
  3 27  1  0  0  0  0
  3 28  1  0  0  0  0
  4 21  1  0  0  0  0
  4  5  1  0  0  0  0
  5  6  1  0  0  0  0
  5 29  1  0  0  0  0
  5 30  1  0  0  0  0
  6  7  1  0  0  0  0
  6 31  1  0  0  0  0
  6 32  1  0  0  0  0
  7  8  1  0  0  0  0
  7 20  1  0  0  0  0
  8  9  2  0  0  0  0
  8 10  1  0  0  0  0
 10 11  1  0  0  0  0
 10 33  1  0  0  0  0
 11 19  2  0  0  0  0
 11 12  1  0  0  0  0
 12 13  2  0  0  0  0
 12 34  1  0  0  0  0
 13 14  1  0  0  0  0
 14 15  1  0  0  0  0
 14 19  1  0  0  0  0
 15 16  1  0  0  0  0
 15 35  1  0  0  0  0
 15 36  1  0  0  0  0
 16 17  1  0  0  0  0
 16 18  2  0  0  0  0
 17 37  1  0  0  0  0
 17 38  1  0  0  0  0
 19 39  1  0  0  0  0
 20 21  1  0  0  0  0
 20 40  1  0  0  0  0
 20 41  1  0  0  0  0
 21 42  1  0  0  0  0
 21 43  1  0  0  0  0
M  END
> <s_m_source_file>
AV-unprocessed.smi

> <i_m_source_file_index>
1589

> <i_lp_mmshare_version>
43012

> <i_f3d_flags>
0

> <s_epik_input>
W0NIM11bQ0hdKFtDSDNdKU4xW0NIMl1bQ0gyXU4oW0NIMl1bQ0gyXTEpQyg9TylbTkhdYzJbY0hdbm4oW2NIXTIpW0NIMl1DKD1PKVtOSDJd

> <s_epik_cmdline>
J2VwaWtfcHl0aG9uJywgJy1waCcsICc3LjAnLCAnLXRuJywgJzgnLCAnLW1hJywgJzIwMCcsICctbWV0YWxfYmluZGluZycsICctaW1hZScsICc8aW5maWxlLm1hZT4nLCAnLW9tYWUnLCAnPG91dGZpbGUubWFlPic=

> <r_lp_tautomer_probability>
1

> <r_epik_Ionization_Penalty>
0.648545

> <r_epik_Ionization_Penalty_Charging>
0

> <r_epik_Ionization_Penalty_Neutral>
0.648545

> <r_epik_State_Penalty>
0.6668

> <r_epik_Charging_Adjusted_Penalty>
0.6668

> <i_epik_Tot_Q>
0

> <i_epik_Tot_abs_Q>
0

> <r_epik_Metal_State_Penalty>
0.666798

> <b_epik_Metal_Only>
0

> <s_lp_Force_Field>
OPLS_2005

> <r_lp_Energy>
50.3263

> <b_lp_Chiralities_Consistent>
1

> <s_lp_Variant>
AV-unprocessed.smi:1589-2

> <Gold.Version>
5.8.1

> <Gold.Id.Protein>
6NUR|6NUR_protein|mol2

> <Gold.PLP.Fitness>
37.6315

> <Gold.PLP.PLP>
-35.8794

> <Gold.PLP.part.hbond>
-2.4507

> <Gold.PLP.part.metal>
0.0000

> <Gold.PLP.part.buried>
-5.2719

> <Gold.PLP.part.nonpolar>
-28.6728

> <Gold.PLP.part.repulsive>
0.3252

> <Gold.PLP.ligand.clash>
0.0000

> <Gold.PLP.ligand.torsion>
0.6547

> <Gold.PLP.Chemscore.Hbond>
1.0000

> <Gold.PLP.Chemscore.CHOScore>
0.0000

> <Gold.PLP.Chemscore.Metal>
0.0000

> <Gold.Chemscore.Hbonds>
donor molecule, donor type, donor heavy atom, donor atom, acceptor molecule, acceptor atom, score
      P1  H  6896  6907       L1     9  0.86

> <Gold.PLP.Chemscore.Internal.Correction>
0.0614

> <Gold.Rescore>
     Score         DG    S(hbond)    S(metal)    S(lipo)     H(rot)  DE(clash)    DE(int)     intcor
     11.72     -13.37       1.00        0.00      78.78       1.82       0.01       1.64       ----

> <Gold.Chemscore.Fitness>
11.7202

> <Gold.Chemscore.DG>
-13.3710

> <Gold.Chemscore.ZeroCoef>
-5.4800

> <Gold.Chemscore.Hbond>
0.9975

> <Gold.Chemscore.Metal>
0.0000

> <Gold.Chemscore.Lipo>
78.7762

> <Gold.Chemscore.Internal_Hbond>
0.0000

> <Gold.Chemscore.DEClash>
0.0126

> <Gold.Chemscore.DEInternal>
1.6382

> <Gold.Chemscore.Rot>
1.8193

> <Gold.Chemscore.Internal.Correction>
   9.000000E+99

> <Gold.Chemscore.Hbonds>
donor molecule, donor type, donor heavy atom, donor atom, acceptor molecule, acceptor atom, score
      P1  H  6896  6907       L1     9  0.84

> <Gold.Chemscore.Hbond.Weighted>
-3.3317

> <Gold.Chemscore.Metal.Weighted>
-0.0000

> <Gold.Chemscore.Lipo.Weighted>
-9.2168

> <Gold.Chemscore.Internal_Hbond.Weighted>
0.0000

> <Gold.Chemscore.DEClash.Weighted>
0.0126

> <Gold.Chemscore.DEInternal.Weighted>
1.6382

> <Gold.Chemscore.Rot.Weighted>
4.6575

> <Gold.Chemscore.Internal.Correction.Weighted>
   9.000000E+99

> <Gold.Protein.RotatedTorsions>
[ 6907 6896 6895 6894 ] final  -10.93 input  -60.11 | X-H torsion
[ 7974 7965 7964 7962 ] final  113.62 input  175.53 | X-H torsion
[ 8008 7997 7996 7995 ] final   -8.48 input   59.86 | X-H torsion
[ 10167 10162 10161 10158 ] final   51.41 input  -65.29 | X-H torsion
[ 10718 10713 10712 10709 ] final   37.08 input   66.30 | X-H torsion
[ 10763 10752 10751 10750 ] final   44.98 input  -60.55 | X-H torsion
[ 11005 11000 10999 10996 ] final   10.92 input  -57.11 | X-H torsion

> <Gold.Protein.ActiveResidues>
 VAL166  LYS551  ARG553  GLY616  TRP617  ASP618  TYR619  PRO620  LYS621  CYS622 
 ASP623  PHE694  ASN695  SER759  ASP760  ASP761  ALA762  ILE779  LEU786  VAL792 
 PHE793  MET794  SER795  GLU796  ALA797  LYS798  CYS799  TRP800  GLU811  SER814 

> <Gold.Protein.RotatedAtoms>
  151.3942  135.0961  159.9535 H   0  0  0  0  0  0  0  0  0  0  0  0  # atno 6907 bound_to 6896
  152.5070  133.8951  159.7423 H   0  0  0  0  0  0  0  0  0  0  0  0  # atno 6908 bound_to 6896
  150.9411  133.6600  159.2819 H   0  0  0  0  0  0  0  0  0  0  0  0  # atno 6909 bound_to 6896
  145.2146  139.2890  143.4250 H   0  0  0  0  0  0  0  0  0  0  0  0  # atno 7974 bound_to 7965
  154.5737  140.2380  155.8153 H   0  0  0  0  0  0  0  0  0  0  0  0  # atno 8008 bound_to 7997
  156.2127  140.3021  155.9726 H   0  0  0  0  0  0  0  0  0  0  0  0  # atno 8009 bound_to 7997
  155.2665  140.0416  157.2993 H   0  0  0  0  0  0  0  0  0  0  0  0  # atno 8010 bound_to 7997
  140.2622  144.3360  150.6314 H   0  0  0  0  0  0  0  0  0  0  0  0  # atno 10167 bound_to 10162
  157.3426  130.7556  149.6922 H   0  0  0  0  0  0  0  0  0  0  0  0  # atno 10718 bound_to 10713
  152.9832  135.6054  154.3361 H   0  0  0  0  0  0  0  0  0  0  0  0  # atno 10763 bound_to 10752
  154.3061  135.2772  155.2590 H   0  0  0  0  0  0  0  0  0  0  0  0  # atno 10764 bound_to 10752
  154.4820  135.5914  153.6452 H   0  0  0  0  0  0  0  0  0  0  0  0  # atno 10765 bound_to 10752
  140.5090  134.0670  155.7813 H   0  0  0  0  0  0  0  0  0  0  0  0  # atno 11005 bound_to 11000
  146.3390  140.2433  142.8596 LP  0  0  0  0  0  0  0  0  0  0  0  0  # atno 17320 bound_to 7965
  144.9823  140.8471  143.5390 LP  0  0  0  0  0  0  0  0  0  0  0  0  # atno 17321 bound_to 7965
  140.5957  143.2167  151.7169 LP  0  0  0  0  0  0  0  0  0  0  0  0  # atno 17342 bound_to 10162
  139.5013  144.3871  152.0317 LP  0  0  0  0  0  0  0  0  0  0  0  0  # atno 17343 bound_to 10162
  155.9710  130.4163  150.4225 LP  0  0  0  0  0  0  0  0  0  0  0  0  # atno 17370 bound_to 10713
  157.2275  131.0496  151.2511 LP  0  0  0  0  0  0  0  0  0  0  0  0  # atno 17371 bound_to 10713
  141.1395  133.9163  157.2358 LP  0  0  0  0  0  0  0  0  0  0  0  0  # atno 17394 bound_to 11000
  139.9669  135.0139  156.9411 LP  0  0  0  0  0  0  0  0  0  0  0  0  # atno 17395 bound_to 11000

$$$$
