AV-unprocessed.smi:2457|AV-procd|sdf|9704|dock1
  -GOLD-   2272013343D 1   1.00000     0.00000
 Structure written by MMmdl.
 40 41  0  0  0  0  0  0  0  0  1 V2000
  151.9972  138.1844  154.8781 C   0  0  0  0  0  0  0  0  0  0  0  0
  150.9139  139.2148  154.8302 C   0  0  0  0  0  0  0  0  0  0  0  0
  150.9445  140.4724  155.3787 C   0  0  0  0  0  0  0  0  0  0  0  0
  149.4720  141.3501  155.0711 S   0  0  0  0  0  0  0  0  0  0  0  0
  148.8578  139.9541  154.1908 C   0  0  0  0  0  0  0  0  0  0  0  0
  147.5298  139.9425  153.4943 C   0  0  2  0  0  0  0  0  0  0  0  0
  146.7794  141.2715  153.6618 C   0  0  0  0  0  0  0  0  0  0  0  0
  146.6634  138.7134  153.8502 C   0  0  0  0  0  0  0  0  0  0  0  0
  146.8571  137.6120  152.9081 N   0  0  0  0  0  0  0  0  0  0  0  0
  145.8774  136.8683  152.3739 C   0  0  0  0  0  0  0  0  0  0  0  0
  144.6763  137.0863  152.5335 O   0  0  0  0  0  0  0  0  0  0  0  0
  146.3643  135.8291  151.6823 N   0  0  0  0  0  0  0  0  0  0  0  0
  145.5554  134.7700  151.0868 C   0  0  2  0  0  0  0  0  0  0  0  0
  144.4266  134.3576  152.0560 C   0  0  0  0  0  0  0  0  0  0  0  0
  143.5007  133.2857  151.4594 C   0  0  0  0  0  0  0  0  0  0  0  0
  144.2492  131.9891  151.1188 C   0  0  0  0  0  0  0  0  0  0  0  0
  145.5306  132.2777  149.8684 S   0  0  0  0  0  0  0  0  0  0  0  0
  146.4594  133.5790  150.7258 C   0  0  0  0  0  0  0  0  0  0  0  0
  149.7185  138.9318  154.1644 N   0  0  0  0  0  0  0  0  0  0  0  0
  152.7922  138.4735  155.5659 H   0  0  0  0  0  0  0  0  0  0  0  0
  152.4464  138.0428  153.8948 H   0  0  0  0  0  0  0  0  0  0  0  0
  151.6105  137.2199  155.2082 H   0  0  0  0  0  0  0  0  0  0  0  0
  151.7426  140.9362  155.9393 H   0  0  0  0  0  0  0  0  0  0  0  0
  147.7532  139.8582  152.4298 H   0  0  0  0  0  0  0  0  0  0  0  0
  147.3819  142.1094  153.3097 H   0  0  0  0  0  0  0  0  0  0  0  0
  146.5297  141.4563  154.7072 H   0  0  0  0  0  0  0  0  0  0  0  0
  145.8488  141.2712  153.0940 H   0  0  0  0  0  0  0  0  0  0  0  0
  146.8794  138.3875  154.8691 H   0  0  0  0  0  0  0  0  0  0  0  0
  145.6085  138.9884  153.8386 H   0  0  0  0  0  0  0  0  0  0  0  0
  147.8113  137.3490  152.7100 H   0  0  0  0  0  0  0  0  0  0  0  0
  147.3664  135.7335  151.6077 H   0  0  0  0  0  0  0  0  0  0  0  0
  145.1103  135.1476  150.1642 H   0  0  0  0  0  0  0  0  0  0  0  0
  144.8535  133.9930  152.9914 H   0  0  0  0  0  0  0  0  0  0  0  0
  143.8268  135.2304  152.3178 H   0  0  0  0  0  0  0  0  0  0  0  0
  142.7041  133.0640  152.1704 H   0  0  0  0  0  0  0  0  0  0  0  0
  143.0127  133.6759  150.5653 H   0  0  0  0  0  0  0  0  0  0  0  0
  144.7124  131.5709  152.0131 H   0  0  0  0  0  0  0  0  0  0  0  0
  143.5539  131.2402  150.7389 H   0  0  0  0  0  0  0  0  0  0  0  0
  147.2731  133.9015  150.0753 H   0  0  0  0  0  0  0  0  0  0  0  0
  146.9142  133.1557  151.6221 H   0  0  0  0  0  0  0  0  0  0  0  0
  1  2  1  0  0  0  0
  1 20  1  0  0  0  0
  1 21  1  0  0  0  0
  1 22  1  0  0  0  0
  2 19  1  0  0  0  0
  2  3  2  0  0  0  0
  3  4  1  0  0  0  0
  3 23  1  0  0  0  0
  4  5  1  0  0  0  0
  5  6  1  0  0  0  0
  5 19  2  0  0  0  0
  6  7  1  0  0  0  0
  6  8  1  0  0  0  0
  6 24  1  0  0  0  0
  7 25  1  0  0  0  0
  7 26  1  0  0  0  0
  7 27  1  0  0  0  0
  8  9  1  0  0  0  0
  8 28  1  0  0  0  0
  8 29  1  0  0  0  0
  9 10  1  0  0  0  0
  9 30  1  0  0  0  0
 10 11  2  0  0  0  0
 10 12  1  0  0  0  0
 12 13  1  0  0  0  0
 12 31  1  0  0  0  0
 13 18  1  0  0  0  0
 13 14  1  0  0  0  0
 13 32  1  0  0  0  0
 14 15  1  0  0  0  0
 14 33  1  0  0  0  0
 14 34  1  0  0  0  0
 15 16  1  0  0  0  0
 15 35  1  0  0  0  0
 15 36  1  0  0  0  0
 16 17  1  0  0  0  0
 16 37  1  0  0  0  0
 16 38  1  0  0  0  0
 17 18  1  0  0  0  0
 18 39  1  0  0  0  0
 18 40  1  0  0  0  0
M  END
> <s_m_source_file>
AV-unprocessed.smi

> <i_m_source_file_index>
2457

> <i_lp_mmshare_version>
43012

> <i_f3d_flags>
0

> <s_epik_input>
W0NIM11jMVtjSF1zYyhuMSlbQ0BIXShbQ0gzXSlbQ0gyXVtOSF1DKD1PKVtOSF1bQ0BASF0yW0NIMl1bQ0gyXVtDSDJdU1tDSDJdMg==

> <s_epik_cmdline>
J2VwaWtfcHl0aG9uJywgJy1waCcsICc3LjAnLCAnLXRuJywgJzgnLCAnLW1hJywgJzIwMCcsICctbWV0YWxfYmluZGluZycsICctaW1hZScsICc8aW5maWxlLm1hZT4nLCAnLW9tYWUnLCAnPG91dGZpbGUubWFlPic=

> <r_epik_Ionization_Penalty>
0.00154805

> <r_epik_Ionization_Penalty_Charging>
0

> <r_epik_Ionization_Penalty_Neutral>
0.00154805

> <r_epik_State_Penalty>
0.00100357

> <r_epik_Charging_Adjusted_Penalty>
0.00100357

> <i_epik_Tot_Q>
0

> <i_epik_Tot_abs_Q>
0

> <r_epik_Metal_State_Penalty>
-0

> <b_epik_Metal_Only>
0

> <s_lp_Force_Field>
OPLS_2005

> <r_lp_Energy>
-7.34104

> <b_lp_Chiralities_Consistent>
1

> <s_lp_Variant>
AV-unprocessed.smi:2457-1

> <Gold.Version>
5.8.1

> <Gold.Id.Protein>
6NUR|6NUR_protein|mol2

> <Gold.PLP.Fitness>
41.9229

> <Gold.PLP.PLP>
-37.6589

> <Gold.PLP.part.hbond>
-2.0000

> <Gold.PLP.part.metal>
0.0000

> <Gold.PLP.part.buried>
-2.3535

> <Gold.PLP.part.nonpolar>
-33.5666

> <Gold.PLP.part.repulsive>
0.5241

> <Gold.PLP.ligand.clash>
0.0000

> <Gold.PLP.ligand.torsion>
0.9072

> <Gold.PLP.Chemscore.Hbond>
1.9760

> <Gold.PLP.Chemscore.CHOScore>
0.0000

> <Gold.PLP.Chemscore.Metal>
0.0000

> <Gold.Chemscore.Hbonds>
donor molecule, donor type, donor heavy atom, donor atom, acceptor molecule, acceptor atom, score
      L1  H     9    30       P1  7948  0.96
      L1  H    12    31       P1  7948  1.00

> <Gold.PLP.Chemscore.Internal.Correction>
0.1504

> <Gold.Rescore>
     Score         DG    S(hbond)    S(metal)    S(lipo)     H(rot)  DE(clash)    DE(int)     intcor
     17.08     -19.55       1.90        0.00      98.06       1.46       0.15       2.32       ----

> <Gold.Chemscore.Fitness>
17.0830

> <Gold.Chemscore.DG>
-19.5514

> <Gold.Chemscore.ZeroCoef>
-5.4800

> <Gold.Chemscore.Hbond>
1.8983

> <Gold.Chemscore.Metal>
0.0000

> <Gold.Chemscore.Lipo>
98.0573

> <Gold.Chemscore.Internal_Hbond>
0.0000

> <Gold.Chemscore.DEClash>
0.1494

> <Gold.Chemscore.DEInternal>
2.3190

> <Gold.Chemscore.Rot>
1.4616

> <Gold.Chemscore.Internal.Correction>
   9.000000E+99

> <Gold.Chemscore.Hbonds>
donor molecule, donor type, donor heavy atom, donor atom, acceptor molecule, acceptor atom, score
      L1  H     9    30       P1  7948  0.92
      L1  H    12    31       P1  7948  0.97

> <Gold.Chemscore.Hbond.Weighted>
-6.3403

> <Gold.Chemscore.Metal.Weighted>
-0.0000

> <Gold.Chemscore.Lipo.Weighted>
-11.4727

> <Gold.Chemscore.Internal_Hbond.Weighted>
0.0000

> <Gold.Chemscore.DEClash.Weighted>
0.1494

> <Gold.Chemscore.DEInternal.Weighted>
2.3190

> <Gold.Chemscore.Rot.Weighted>
3.7416

> <Gold.Chemscore.Internal.Correction.Weighted>
   9.000000E+99

> <Gold.Protein.RotatedTorsions>
[ 6907 6896 6895 6894 ] final   39.24 input  -60.11 | X-H torsion
[ 7974 7965 7964 7962 ] final  120.76 input  175.53 | X-H torsion
[ 8008 7997 7996 7995 ] final  -32.43 input   59.86 | X-H torsion
[ 10167 10162 10161 10158 ] final   65.96 input  -65.29 | X-H torsion
[ 10718 10713 10712 10709 ] final  -92.68 input   66.30 | X-H torsion
[ 10763 10752 10751 10750 ] final   31.75 input  -60.55 | X-H torsion
[ 11005 11000 10999 10996 ] final  -81.22 input  -57.11 | X-H torsion

> <Gold.Protein.ActiveResidues>
 VAL166  LYS551  ARG553  GLY616  TRP617  ASP618  TYR619  PRO620  LYS621  CYS622 
 ASP623  PHE694  ASN695  SER759  ASP760  ASP761  ALA762  ILE779  LEU786  VAL792 
 PHE793  MET794  SER795  GLU796  ALA797  LYS798  CYS799  TRP800  GLU811  SER814 

> <Gold.Protein.RotatedAtoms>
  152.1670  134.8865  160.0537 H   0  0  0  0  0  0  0  0  0  0  0  0  # atno 6907 bound_to 6896
  151.9839  133.3762  159.4126 H   0  0  0  0  0  0  0  0  0  0  0  0  # atno 6908 bound_to 6896
  150.6896  134.3931  159.5129 H   0  0  0  0  0  0  0  0  0  0  0  0  # atno 6909 bound_to 6896
  145.1273  139.3350  143.4683 H   0  0  0  0  0  0  0  0  0  0  0  0  # atno 7974 bound_to 7965
  154.4180  140.1737  156.1726 H   0  0  0  0  0  0  0  0  0  0  0  0  # atno 8008 bound_to 7997
  155.9748  140.3382  155.6584 H   0  0  0  0  0  0  0  0  0  0  0  0  # atno 8009 bound_to 7997
  155.6578  140.0697  157.2555 H   0  0  0  0  0  0  0  0  0  0  0  0  # atno 8010 bound_to 7997
  140.1056  144.4864  150.7010 H   0  0  0  0  0  0  0  0  0  0  0  0  # atno 10167 bound_to 10162
  156.0005  130.4997  150.5662 H   0  0  0  0  0  0  0  0  0  0  0  0  # atno 10718 bound_to 10713
  153.0299  135.6431  154.1248 H   0  0  0  0  0  0  0  0  0  0  0  0  # atno 10763 bound_to 10752
  154.0972  135.2862  155.3261 H   0  0  0  0  0  0  0  0  0  0  0  0  # atno 10764 bound_to 10752
  154.6424  135.5455  153.7868 H   0  0  0  0  0  0  0  0  0  0  0  0  # atno 10765 bound_to 10752
  141.1667  133.7186  156.8390 H   0  0  0  0  0  0  0  0  0  0  0  0  # atno 11005 bound_to 11000
  146.3516  140.1258  142.8599 LP  0  0  0  0  0  0  0  0  0  0  0  0  # atno 17320 bound_to 7965
  145.0673  140.9131  143.4902 LP  0  0  0  0  0  0  0  0  0  0  0  0  # atno 17321 bound_to 7965
  140.6954  143.2400  151.5016 LP  0  0  0  0  0  0  0  0  0  0  0  0  # atno 17342 bound_to 10162
  139.5647  144.2071  152.1746 LP  0  0  0  0  0  0  0  0  0  0  0  0  # atno 17343 bound_to 10162
  157.3564  131.0742  151.1672 LP  0  0  0  0  0  0  0  0  0  0  0  0  # atno 17370 bound_to 10713
  157.2472  130.6597  149.5915 LP  0  0  0  0  0  0  0  0  0  0  0  0  # atno 17371 bound_to 10713
  140.1997  134.8906  157.3154 LP  0  0  0  0  0  0  0  0  0  0  0  0  # atno 17394 bound_to 11000
  140.2201  134.4034  155.7570 LP  0  0  0  0  0  0  0  0  0  0  0  0  # atno 17395 bound_to 11000

$$$$
