AV-unprocessed.smi:1554|AV-procd|sdf|6244|dock3
  -GOLD-   22720 6423D 1   1.00000     0.00000
 Structure written by MMmdl.
 48 50  0  0  0  0  0  0  0  0  2 V2000
  153.2831  142.5105  160.4657 C   0  0  0  0  0  0  0  0  0  0  0  0
  152.3041  142.1455  159.3640 C   0  0  0  0  0  0  0  0  0  0  0  0
  152.3740  140.8606  158.7798 C   0  0  0  0  0  0  0  0  0  0  0  0
  151.4822  140.4827  157.7523 C   0  0  0  0  0  0  0  0  0  0  0  0
  151.3745  139.2971  157.0457 N   0  0  0  0  0  0  0  0  0  0  0  0
  150.3587  139.5621  156.2296 C   0  0  0  0  0  0  0  0  0  0  0  0
  149.7955  140.7821  156.3218 N   0  0  0  0  0  0  0  0  0  0  0  0
  148.6833  141.2927  155.5397 C   0  0  0  0  0  0  0  0  0  0  0  0
  148.5826  140.6312  154.1516 C   0  0  2  0  0  0  0  0  0  0  0  0
  149.7577  140.9078  153.4134 O   0  0  0  0  0  0  0  0  0  0  0  0
  147.3684  141.1560  153.3595 C   0  0  0  0  0  0  0  0  0  0  0  0
  146.0909  141.0157  154.1043 N   0  3  1  0  0  0  0  0  0  0  0  0
  146.0565  139.8496  155.0209 C   0  0  0  0  0  0  0  0  0  0  0  0
  144.6859  139.7529  155.7104 C   0  0  0  0  0  0  0  0  0  0  0  0
  144.4132  140.9652  156.4020 O   0  0  0  0  0  0  0  0  0  0  0  0
  144.3529  142.0848  155.5253 C   0  0  1  0  0  0  0  0  0  0  0  0
  143.9666  143.3177  156.3500 C   0  0  0  0  0  0  0  0  0  0  0  0
  145.7176  142.2538  154.8294 C   0  0  0  0  0  0  0  0  0  0  0  0
  150.5093  141.4322  157.3231 C   0  0  0  0  0  0  0  0  0  0  0  0
  150.4302  142.7138  157.8959 C   0  0  0  0  0  0  0  0  0  0  0  0
  151.3306  143.0761  158.9195 C   0  0  0  0  0  0  0  0  0  0  0  0
  151.2391  144.4639  159.5286 C   0  0  0  0  0  0  0  0  0  0  0  0
  153.9224  141.6665  160.7260 H   0  0  0  0  0  0  0  0  0  0  0  0
  152.7504  142.8147  161.3670 H   0  0  0  0  0  0  0  0  0  0  0  0
  153.9251  143.3323  160.1477 H   0  0  0  0  0  0  0  0  0  0  0  0
  153.1168  140.1525  159.1167 H   0  0  0  0  0  0  0  0  0  0  0  0
  150.0037  138.8267  155.5222 H   0  0  0  0  0  0  0  0  0  0  0  0
  147.7651  141.1234  156.1038 H   0  0  0  0  0  0  0  0  0  0  0  0
  148.7924  142.3740  155.4440 H   0  0  0  0  0  0  0  0  0  0  0  0
  148.5109  139.5524  154.2883 H   0  0  0  0  0  0  0  0  0  0  0  0
  149.7696  140.3523  152.6479 H   0  0  0  0  0  0  0  0  0  0  0  0
  147.5126  142.2021  153.0849 H   0  0  0  0  0  0  0  0  0  0  0  0
  147.3043  140.6014  152.4219 H   0  0  0  0  0  0  0  0  0  0  0  0
  146.2479  138.9262  154.4756 H   0  0  0  0  0  0  0  0  0  0  0  0
  146.8436  139.9476  155.7702 H   0  0  0  0  0  0  0  0  0  0  0  0
  143.8974  139.5472  154.9848 H   0  0  0  0  0  0  0  0  0  0  0  0
  144.6826  138.9301  156.4255 H   0  0  0  0  0  0  0  0  0  0  0  0
  143.5779  141.9122  154.7763 H   0  0  0  0  0  0  0  0  0  0  0  0
  143.8980  144.2060  155.7213 H   0  0  0  0  0  0  0  0  0  0  0  0
  144.7006  143.5166  157.1315 H   0  0  0  0  0  0  0  0  0  0  0  0
  142.9984  143.1767  156.8313 H   0  0  0  0  0  0  0  0  0  0  0  0
  146.4904  142.4942  155.5618 H   0  0  0  0  0  0  0  0  0  0  0  0
  145.6689  143.0886  154.1288 H   0  0  0  0  0  0  0  0  0  0  0  0
  149.6842  143.4132  157.5486 H   0  0  0  0  0  0  0  0  0  0  0  0
  150.4693  145.0622  159.0406 H   0  0  0  0  0  0  0  0  0  0  0  0
  152.1877  144.9915  159.4251 H   0  0  0  0  0  0  0  0  0  0  0  0
  150.9920  144.3995  160.5885 H   0  0  0  0  0  0  0  0  0  0  0  0
  145.3733  140.8688  153.4080 H   0  0  0  0  0  0  0  0  0  0  0  0
  1  2  1  0  0  0  0
  1 23  1  0  0  0  0
  1 24  1  0  0  0  0
  1 25  1  0  0  0  0
  2 21  1  0  0  0  0
  2  3  2  0  0  0  0
  3  4  1  0  0  0  0
  3 26  1  0  0  0  0
  4 19  2  0  0  0  0
  4  5  1  0  0  0  0
  5  6  2  0  0  0  0
  6  7  1  0  0  0  0
  6 27  1  0  0  0  0
  7  8  1  0  0  0  0
  7 19  1  0  0  0  0
  8  9  1  0  0  0  0
  8 28  1  0  0  0  0
  8 29  1  0  0  0  0
  9 10  1  0  0  0  0
  9 11  1  0  0  0  0
  9 30  1  0  0  0  0
 10 31  1  0  0  0  0
 11 12  1  0  0  0  0
 11 32  1  0  0  0  0
 11 33  1  0  0  0  0
 12 18  1  0  0  0  0
 12 13  1  0  0  0  0
 12 48  1  0  0  0  0
 13 14  1  0  0  0  0
 13 34  1  0  0  0  0
 13 35  1  0  0  0  0
 14 15  1  0  0  0  0
 14 36  1  0  0  0  0
 14 37  1  0  0  0  0
 15 16  1  0  0  0  0
 16 17  1  0  0  0  0
 16 18  1  0  0  0  0
 16 38  1  0  0  0  0
 17 39  1  0  0  0  0
 17 40  1  0  0  0  0
 17 41  1  0  0  0  0
 18 42  1  0  0  0  0
 18 43  1  0  0  0  0
 19 20  1  0  0  0  0
 20 21  2  0  0  0  0
 20 44  1  0  0  0  0
 21 22  1  0  0  0  0
 22 45  1  0  0  0  0
 22 46  1  0  0  0  0
 22 47  1  0  0  0  0
M  CHG  1  12   1
M  END
> <s_m_source_file>
AV-unprocessed.smi

> <i_m_source_file_index>
1554

> <i_lp_mmshare_version>
43012

> <i_f3d_flags>
0

> <s_epik_input>
W0NIM11jKFtjSF0xKWMoW0NIM10pW2NIXWMoYzEyKW4oW2NIXW4yKVtDSDJdW0NASF0oW09IXSlbQ0gyXU4zW0NIMl1bQ0gyXU9bQ0BASF0oW0NIM10pW0NIMl0z

> <s_epik_cmdline>
J2VwaWtfcHl0aG9uJywgJy1waCcsICc3LjAnLCAnLXRuJywgJzgnLCAnLW1hJywgJzIwMCcsICctbWV0YWxfYmluZGluZycsICctaW1hZScsICc8aW5maWxlLm1hZT4nLCAnLW9tYWUnLCAnPG91dGZpbGUubWFlPic=

> <r_epik_Ionization_Penalty>
0.695251

> <r_epik_Ionization_Penalty_Charging>
0.608065

> <r_epik_Ionization_Penalty_Neutral>
0.0871863

> <r_epik_State_Penalty>
0.731955

> <r_epik_Charging_Adjusted_Penalty>
1.34002

> <i_epik_Tot_Q>
1

> <i_epik_Tot_abs_Q>
1

> <r_epik_Metal_State_Penalty>
0.652186

> <b_epik_Metal_Only>
0

> <s_lp_Force_Field>
OPLS_2005

> <r_lp_Energy>
20.8571

> <b_lp_Chiralities_Consistent>
1

> <s_lp_Variant>
AV-unprocessed.smi:1554-5

> <Gold.Version>
5.8.1

> <Gold.Id.Protein>
6NUR|6NUR_protein|mol2

> <Gold.PLP.Fitness>
50.7842

> <Gold.PLP.PLP>
-40.1472

> <Gold.PLP.part.hbond>
-3.2406

> <Gold.PLP.part.metal>
0.0000

> <Gold.PLP.part.buried>
-5.5003

> <Gold.PLP.part.nonpolar>
-32.5107

> <Gold.PLP.part.repulsive>
0.0508

> <Gold.PLP.ligand.clash>
0.0000

> <Gold.PLP.ligand.torsion>
0.8002

> <Gold.PLP.Chemscore.Hbond>
4.0725

> <Gold.PLP.Chemscore.CHOScore>
0.0000

> <Gold.PLP.Chemscore.Metal>
0.0000

> <Gold.Chemscore.Hbonds>
donor molecule, donor type, donor heavy atom, donor atom, acceptor molecule, acceptor atom, score
      L1  H    10    31       P1  7957  0.99
      L1  H    12    48       P1 10175  2.00
      P1  H  7989  7998       L1    10  0.14
      P1  H  8011  8017       L1    10  0.50

> <Gold.PLP.Chemscore.Internal.Correction>
0.0199

> <Gold.Rescore>
     Score         DG    S(hbond)    S(metal)    S(lipo)     H(rot)  DE(clash)    DE(int)     intcor
     19.05     -20.17       2.13        0.00     109.61       2.05       0.33       0.79       ----

> <Gold.Chemscore.Fitness>
19.0459

> <Gold.Chemscore.DG>
-20.1665

> <Gold.Chemscore.ZeroCoef>
-5.4800

> <Gold.Chemscore.Hbond>
2.1321

> <Gold.Chemscore.Metal>
0.0000

> <Gold.Chemscore.Lipo>
109.6140

> <Gold.Chemscore.Internal_Hbond>
0.0000

> <Gold.Chemscore.DEClash>
0.3324

> <Gold.Chemscore.DEInternal>
0.7882

> <Gold.Chemscore.Rot>
2.0546

> <Gold.Chemscore.Internal.Correction>
   9.000000E+99

> <Gold.Chemscore.Hbonds>
donor molecule, donor type, donor heavy atom, donor atom, acceptor molecule, acceptor atom, score
      L1  H    10    31       P1  7957  0.91
      L1  H    12    48       P1 10175  0.73
      P1  H  7989  7998       L1    10  0.01
      P1  H  8011  8017       L1    10  0.02

> <Gold.Chemscore.Hbond.Weighted>
-7.1213

> <Gold.Chemscore.Metal.Weighted>
-0.0000

> <Gold.Chemscore.Lipo.Weighted>
-12.8248

> <Gold.Chemscore.Internal_Hbond.Weighted>
0.0000

> <Gold.Chemscore.DEClash.Weighted>
0.3324

> <Gold.Chemscore.DEInternal.Weighted>
0.7882

> <Gold.Chemscore.Rot.Weighted>
5.2597

> <Gold.Chemscore.Internal.Correction.Weighted>
   9.000000E+99

> <Gold.Protein.RotatedTorsions>
[ 6907 6896 6895 6894 ] final  142.00 input  -60.11 | X-H torsion
[ 7974 7965 7964 7962 ] final -178.82 input  175.53 | X-H torsion
[ 8008 7997 7996 7995 ] final   51.91 input   59.86 | X-H torsion
[ 10167 10162 10161 10158 ] final  162.22 input  -65.29 | X-H torsion
[ 10718 10713 10712 10709 ] final -143.31 input   66.30 | X-H torsion
[ 10763 10752 10751 10750 ] final  108.77 input  -60.55 | X-H torsion
[ 11005 11000 10999 10996 ] final  161.77 input  -57.11 | X-H torsion

> <Gold.Protein.ActiveResidues>
 VAL166  LYS551  ARG553  GLY616  TRP617  ASP618  TYR619  PRO620  LYS621  CYS622 
 ASP623  PHE694  ASN695  SER759  ASP760  ASP761  ALA762  ILE779  LEU786  VAL792 
 PHE793  MET794  SER795  GLU796  ALA797  LYS798  CYS799  TRP800  GLU811  SER814 

> <Gold.Protein.RotatedAtoms>
  152.2241  133.5006  159.5178 H   0  0  0  0  0  0  0  0  0  0  0  0  # atno 6907 bound_to 6896
  150.7020  134.1304  159.4076 H   0  0  0  0  0  0  0  0  0  0  0  0  # atno 6908 bound_to 6896
  151.9225  135.0292  160.0574 H   0  0  0  0  0  0  0  0  0  0  0  0  # atno 6909 bound_to 6896
  144.7133  140.0811  143.6425 H   0  0  0  0  0  0  0  0  0  0  0  0  # atno 7974 bound_to 7965
  155.4430  140.3455  155.4292 H   0  0  0  0  0  0  0  0  0  0  0  0  # atno 8008 bound_to 7997
  156.1267  140.1502  156.9156 H   0  0  0  0  0  0  0  0  0  0  0  0  # atno 8009 bound_to 7997
  154.4863  140.0854  156.7474 H   0  0  0  0  0  0  0  0  0  0  0  0  # atno 8010 bound_to 7997
  139.4858  144.4459  151.8892 H   0  0  0  0  0  0  0  0  0  0  0  0  # atno 10167 bound_to 10162
  156.3564  130.7715  151.1876 H   0  0  0  0  0  0  0  0  0  0  0  0  # atno 10718 bound_to 10713
  153.4253  135.3801  155.2136 H   0  0  0  0  0  0  0  0  0  0  0  0  # atno 10763 bound_to 10752
  154.8747  135.3827  154.4334 H   0  0  0  0  0  0  0  0  0  0  0  0  # atno 10764 bound_to 10752
  153.4860  135.7088  153.5974 H   0  0  0  0  0  0  0  0  0  0  0  0  # atno 10765 bound_to 10752
  140.2191  134.8210  157.3201 H   0  0  0  0  0  0  0  0  0  0  0  0  # atno 11005 bound_to 11000
  145.9701  139.2864  143.1104 LP  0  0  0  0  0  0  0  0  0  0  0  0  # atno 17320 bound_to 7965
  145.9125  140.9170  143.0446 LP  0  0  0  0  0  0  0  0  0  0  0  0  # atno 17321 bound_to 7965
  140.3913  144.2611  150.5899 LP  0  0  0  0  0  0  0  0  0  0  0  0  # atno 17342 bound_to 10162
  140.5143  143.2282  151.8487 LP  0  0  0  0  0  0  0  0  0  0  0  0  # atno 17343 bound_to 10162
  157.7468  131.0412  150.4637 LP  0  0  0  0  0  0  0  0  0  0  0  0  # atno 17370 bound_to 10713
  156.4841  130.4080  149.6444 LP  0  0  0  0  0  0  0  0  0  0  0  0  # atno 17371 bound_to 10713
  140.1869  134.4420  155.7738 LP  0  0  0  0  0  0  0  0  0  0  0  0  # atno 17394 bound_to 11000
  141.2224  133.7009  156.7962 LP  0  0  0  0  0  0  0  0  0  0  0  0  # atno 17395 bound_to 11000

$$$$
