#       Name:                AV-unprocessed.smi:2060
#       Creating user name   scv26
#       Creation time:       Fri Mar 27 11:02:34 2020


#       File generated by GOLD software.
#

@<TRIPOS>MOLECULE
AV-unprocessed.smi:2060
    53    54     1
SMALL
NO_CHARGES


@<TRIPOS>ATOM
      1 ****        -3.1144  -0.9477  -0.1391 C.3            1 S1                 0.0000
      2 ****        -1.5897  -0.7381  -0.0942 C.3            1 S1                 0.0000
      3 ****        -1.0512   0.0525   1.1406 C.3            1 S1                 0.0000
      4 ****        -1.5605   1.5109   0.9831 C.3            1 S1                 0.0000
      5 ****         0.5105   0.0736   1.0809 C.3            1 S1                 0.0000
      6 ****         1.0504   0.7187  -0.1165 N.am           1 S1                 0.0000
      7 ****         1.5990   0.0879  -1.1654 C.2            1 S1                 0.0000
      8 ****         1.7065  -1.1362  -1.2454 O.2            1 S1                 0.0000
      9 ****         2.0009   0.9623  -2.1034 N.am           1 S1                 0.0000
     10 ****         2.6231   0.6729  -3.3445 C.2            1 S1                 0.0000
     11 ****         2.9792   1.7148  -4.2415 C.2            1 S1                 0.0000
     12 ****         3.5399   1.0407  -5.2897 C.2            1 S1                 0.0000
     13 ****         4.1345   1.4884  -6.5809 C.3            1 S1                 0.0000
     14 ****         3.5279  -0.2992  -5.0520 O.3            1 S1                 0.0000
     15 ****         2.9378  -0.5288  -3.8035 N.2            1 S1                 0.0000
     16 ****        -1.5525  -0.5427   2.4122 N.3            1 S1                 0.0000
     17 ****        -1.2311   0.2122   3.6293 C.3            1 S1                 0.0000
     18 ****        -1.9056  -0.3886   4.8747 C.3            1 S1                 0.0000
     19 ****        -1.5274  -1.7527   5.0160 O.3            1 S1                 0.0000
     20 ****        -1.8719  -2.5328   3.8773 C.3            1 S1                 0.0000
     21 ****        -1.1926  -1.9499   2.6269 C.3            1 S1                 0.0000
     22 ****        -3.3947  -1.5076  -1.0314 H              1 S1                 0.0000
     23 ****        -3.6529  -0.0011  -0.1692 H              1 S1                 0.0000
     24 ****        -3.4732  -1.5112   0.7222 H              1 S1                 0.0000
     25 ****        -1.0989  -1.7088  -0.1644 H              1 S1                 0.0000
     26 ****        -1.3092  -0.2264  -1.0150 H              1 S1                 0.0000
     27 ****        -1.4145   1.8896  -0.0290 H              1 S1                 0.0000
     28 ****        -1.0372   2.1993   1.6469 H              1 S1                 0.0000
     29 ****        -2.6249   1.5920   1.2046 H              1 S1                 0.0000
     30 ****         0.9162   0.6288   1.9256 H              1 S1                 0.0000
     31 ****         0.9171  -0.9340   1.1700 H              1 S1                 0.0000
     32 ****         1.0019   1.7266  -0.1436 H              1 S1                 0.0000
     33 ****         1.8463   1.9406  -1.9090 H              1 S1                 0.0000
     34 ****         2.8469   2.7814  -4.1365 H              1 S1                 0.0000
     35 ****         3.7433   2.4637  -6.8710 H              1 S1                 0.0000
     36 ****         3.9064   0.7831  -7.3804 H              1 S1                 0.0000
     37 ****         5.2185   1.5690  -6.4987 H              1 S1                 0.0000
     38 ****        -0.1535   0.2304   3.7909 H              1 S1                 0.0000
     39 ****        -1.5565   1.2475   3.5437 H              1 S1                 0.0000
     40 ****        -1.6053   0.1578   5.7688 H              1 S1                 0.0000
     41 ****        -2.9914  -0.3105   4.8010 H              1 S1                 0.0000
     42 ****        -1.5486  -3.5611   4.0393 H              1 S1                 0.0000
     43 ****        -2.9559  -2.5530   3.7535 H              1 S1                 0.0000
     44 ****        -1.4801  -2.5627   1.7748 H              1 S1                 0.0000
     45 ****        -0.1134  -2.0518   2.7400 H              1 S1                 0.0000
     46 ****         1.3750  -1.7169  -0.5018 LP             1 S1                 0.0000
     47 ****         2.1253  -1.5496  -2.0539 LP             1 S1                 0.0000
     48 ****         4.4647  -0.6490  -5.0507 LP             1 S1                 0.0000
     49 ****         3.0001  -0.7624  -5.7638 LP             1 S1                 0.0000
     50 ****         2.7866  -1.4098  -3.3551 LP             1 S1                 0.0000
     51 ****        -2.5395  -0.4874   2.2612 LP             1 S1                 0.0000
     52 ****        -1.9898  -2.1326   5.8172 LP             1 S1                 0.0000
     53 ****        -0.5374  -1.7991   5.1493 LP             1 S1                 0.0000
@<TRIPOS>BOND
    1    1    2 1     
    2    1   22 1     
    3    1   23 1     
    4    1   24 1     
    5    2    3 1     
    6    2   25 1     
    7    2   26 1     
    8    3    4 1     
    9    3    5 1     
   10    3   16 1     
   11    4   27 1     
   12    4   28 1     
   13    4   29 1     
   14    5    6 1     
   15    5   30 1     
   16    5   31 1     
   17    6    7 am    
   18    6   32 1     
   19    7    8 2     
   20    7    9 am    
   21    9   10 1     
   22    9   33 1     
   23   10   15 2     
   24   10   11 1     
   25   11   12 2     
   26   11   34 1     
   27   12   13 1     
   28   12   14 1     
   29   13   35 1     
   30   13   36 1     
   31   13   37 1     
   32   14   15 1     
   33   16   21 1     
   34   16   17 1     
   35   17   18 1     
   36   17   38 1     
   37   17   39 1     
   38   18   19 1     
   39   18   40 1     
   40   18   41 1     
   41   19   20 1     
   42   20   21 1     
   43   20   42 1     
   44   20   43 1     
   45   21   44 1     
   46   21   45 1     
   47    8   46 1     
   48    8   47 1     
   49   14   48 1     
   50   14   49 1     
   51   15   50 1     
   52   16   51 1     
   53   19   52 1     
   54   19   53 1     
@<TRIPOS>SUBSTRUCTURE
      1 S1             1
@<TRIPOS>SET
LONE_PAIRS      STATIC     ATOMS    <user>   **** ""
8 46 47 48 49 50 51 52 53
DONOR_HYDROGENS      STATIC     ATOMS    <user>   **** ""
2 32 33
ATOM$BLUE        STATIC     ATOMS    COLORGROUP SYSTEM
8 46 47 48 49 50 51 52 53
ATOM$RED        STATIC     ATOMS    COLORGROUP SYSTEM
2 32 33
