AV-unprocessed.smi:2990|AV-procd|sdf|11395|dock9
  -GOLD-   2272016323D 1   1.00000     0.00000
 Structure written by MMmdl.
 40 42  0  0  0  0  0  0  0  0  2 V2000
  146.4446  142.5437  153.6330 C   0  0  0  0  0  0  0  0  0  0  0  0
  147.6571  141.8202  154.1144 C   0  0  0  0  0  0  0  0  0  0  0  0
  148.5366  142.2652  155.0555 N   0  3  0  0  0  0  0  0  0  0  0  0
  149.5444  141.3185  155.2451 C   0  0  0  0  0  0  0  0  0  0  0  0
  150.6505  141.3229  156.0896 C   0  0  0  0  0  0  0  0  0  0  0  0
  151.4877  140.1889  156.0420 C   0  0  0  0  0  0  0  0  0  0  0  0
  151.2107  139.1080  155.1801 C   0  0  0  0  0  0  0  0  0  0  0  0
  150.0875  139.1161  154.3268 C   0  0  0  0  0  0  0  0  0  0  0  0
  149.2655  140.2418  154.3779 C   0  0  0  0  0  0  0  0  0  0  0  0
  148.0936  140.5973  153.6984 N   0  0  0  0  0  0  0  0  0  0  0  0
  147.5218  139.6837  152.6959 C   0  0  0  0  0  0  0  0  0  0  0  0
  146.6667  138.5647  153.3233 C   0  0  2  0  0  0  0  0  0  0  0  0
  147.4969  137.6220  153.9714 O   0  0  0  0  0  0  0  0  0  0  0  0
  145.8084  137.8251  152.2866 C   0  0  0  0  0  0  0  0  0  0  0  0
  145.0980  136.7808  152.9386 O   0  0  0  0  0  0  0  0  0  0  0  0
  144.8239  135.6333  152.2262 C   0  0  0  0  0  0  0  0  0  0  0  0
  143.6515  134.9307  152.5735 C   0  0  0  0  0  0  0  0  0  0  0  0
  143.2948  133.7459  151.9011 C   0  0  0  0  0  0  0  0  0  0  0  0
  144.1123  133.2489  150.8696 C   0  0  0  0  0  0  0  0  0  0  0  0
  145.2844  133.9404  150.5115 C   0  0  0  0  0  0  0  0  0  0  0  0
  145.6407  135.1264  151.1833 C   0  0  0  0  0  0  0  0  0  0  0  0
  146.3237  143.4869  154.1664 H   0  0  0  0  0  0  0  0  0  0  0  0
  145.5540  141.9366  153.7961 H   0  0  0  0  0  0  0  0  0  0  0  0
  146.5323  142.7560  152.5673 H   0  0  0  0  0  0  0  0  0  0  0  0
  150.8635  142.1492  156.7521 H   0  0  0  0  0  0  0  0  0  0  0  0
  152.3584  140.1467  156.6805 H   0  0  0  0  0  0  0  0  0  0  0  0
  151.8728  138.2542  155.1733 H   0  0  0  0  0  0  0  0  0  0  0  0
  149.8822  138.2796  153.6751 H   0  0  0  0  0  0  0  0  0  0  0  0
  146.9092  140.2883  152.0262 H   0  0  0  0  0  0  0  0  0  0  0  0
  148.3226  139.2739  152.0801 H   0  0  0  0  0  0  0  0  0  0  0  0
  146.0094  138.9925  154.0813 H   0  0  0  0  0  0  0  0  0  0  0  0
  147.7943  136.9942  153.3307 H   0  0  0  0  0  0  0  0  0  0  0  0
  145.1182  138.5197  151.8043 H   0  0  0  0  0  0  0  0  0  0  0  0
  146.4544  137.3983  151.5171 H   0  0  0  0  0  0  0  0  0  0  0  0
  143.0181  135.3046  153.3644 H   0  0  0  0  0  0  0  0  0  0  0  0
  142.3940  133.2187  152.1781 H   0  0  0  0  0  0  0  0  0  0  0  0
  143.8410  132.3393  150.3546 H   0  0  0  0  0  0  0  0  0  0  0  0
  145.9127  133.5597  149.7198 H   0  0  0  0  0  0  0  0  0  0  0  0
  146.5474  135.6271  150.8799 H   0  0  0  0  0  0  0  0  0  0  0  0
  148.4513  143.1533  155.5328 H   0  0  0  0  0  0  0  0  0  0  0  0
  1  2  1  0  0  0  0
  1 22  1  0  0  0  0
  1 23  1  0  0  0  0
  1 24  1  0  0  0  0
  2 10  1  0  0  0  0
  2  3  2  0  0  0  0
  3  4  1  0  0  0  0
  3 40  1  0  0  0  0
  4  9  2  0  0  0  0
  4  5  1  0  0  0  0
  5  6  2  0  0  0  0
  5 25  1  0  0  0  0
  6  7  1  0  0  0  0
  6 26  1  0  0  0  0
  7  8  2  0  0  0  0
  7 27  1  0  0  0  0
  8  9  1  0  0  0  0
  8 28  1  0  0  0  0
  9 10  1  0  0  0  0
 10 11  1  0  0  0  0
 11 12  1  0  0  0  0
 11 29  1  0  0  0  0
 11 30  1  0  0  0  0
 12 13  1  0  0  0  0
 12 14  1  0  0  0  0
 12 31  1  0  0  0  0
 13 32  1  0  0  0  0
 14 15  1  0  0  0  0
 14 33  1  0  0  0  0
 14 34  1  0  0  0  0
 15 16  1  0  0  0  0
 16 21  1  0  0  0  0
 16 17  2  0  0  0  0
 17 18  1  0  0  0  0
 17 35  1  0  0  0  0
 18 19  2  0  0  0  0
 18 36  1  0  0  0  0
 19 20  1  0  0  0  0
 19 37  1  0  0  0  0
 20 21  2  0  0  0  0
 20 38  1  0  0  0  0
 21 39  1  0  0  0  0
M  CHG  1   3   1
M  END
> <s_m_source_file>
AV-unprocessed.smi

> <i_m_source_file_index>
2990

> <i_lp_mmshare_version>
43012

> <i_f3d_flags>
0

> <s_epik_input>
W2NIXTFbY0hdW2NIXVtjSF1jKGMxMiluKGMobjIpW0NIM10pW0NIMl1bQ0BIXShbT0hdKVtDSDJdT2MzW2NIXVtjSF1bY0hdW2NIXVtjSF0z

> <s_epik_cmdline>
J2VwaWtfcHl0aG9uJywgJy1waCcsICc3LjAnLCAnLXRuJywgJzgnLCAnLW1hJywgJzIwMCcsICctbWV0YWxfYmluZGluZycsICctaW1hZScsICc8aW5maWxlLm1hZT4nLCAnLW9tYWUnLCAnPG91dGZpbGUubWFlPic=

> <r_lp_tautomer_probability>
1

> <r_epik_Ionization_Penalty>
1.00673

> <r_epik_Ionization_Penalty_Charging>
1.00673

> <r_epik_Ionization_Penalty_Neutral>
2.3993e-06

> <r_epik_State_Penalty>
1.05579

> <r_epik_Charging_Adjusted_Penalty>
2.06252

> <i_epik_Tot_Q>
1

> <i_epik_Tot_abs_Q>
1

> <r_epik_Metal_State_Penalty>
5.03947

> <b_epik_Metal_Only>
0

> <s_lp_Force_Field>
OPLS_2005

> <r_lp_Energy>
19.3411

> <b_lp_Chiralities_Consistent>
1

> <s_lp_Variant>
AV-unprocessed.smi:2990-3

> <Gold.Version>
5.8.1

> <Gold.Id.Protein>
6NUR|6NUR_protein|mol2

> <Gold.PLP.Fitness>
51.3834

> <Gold.PLP.PLP>
-44.3467

> <Gold.PLP.part.hbond>
-2.0000

> <Gold.PLP.part.metal>
0.0000

> <Gold.PLP.part.buried>
0.6032

> <Gold.PLP.part.nonpolar>
-43.5789

> <Gold.PLP.part.repulsive>
0.3389

> <Gold.PLP.ligand.clash>
0.0000

> <Gold.PLP.ligand.torsion>
0.9835

> <Gold.PLP.Chemscore.Hbond>
2.9840

> <Gold.PLP.Chemscore.CHOScore>
0.0000

> <Gold.PLP.Chemscore.Metal>
0.0000

> <Gold.Chemscore.Hbonds>
donor molecule, donor type, donor heavy atom, donor atom, acceptor molecule, acceptor atom, score
      L1  H     3    40       P1  8028  1.98
      L1  H    13    32       P1  7948  1.00

> <Gold.PLP.Chemscore.Internal.Correction>
0.0518

> <Gold.Rescore>
     Score         DG    S(hbond)    S(metal)    S(lipo)     H(rot)  DE(clash)    DE(int)     intcor
     16.10     -18.59       1.90        0.00     104.15       2.12       1.41       1.08       ----

> <Gold.Chemscore.Fitness>
16.1016

> <Gold.Chemscore.DG>
-18.5859

> <Gold.Chemscore.ZeroCoef>
-5.4800

> <Gold.Chemscore.Hbond>
1.8994

> <Gold.Chemscore.Metal>
0.0000

> <Gold.Chemscore.Lipo>
104.1461

> <Gold.Chemscore.Internal_Hbond>
0.0000

> <Gold.Chemscore.DEClash>
1.4092

> <Gold.Chemscore.DEInternal>
1.0752

> <Gold.Chemscore.Rot>
2.1184

> <Gold.Chemscore.Internal.Correction>
   9.000000E+99

> <Gold.Chemscore.Hbonds>
donor molecule, donor type, donor heavy atom, donor atom, acceptor molecule, acceptor atom, score
      L1  H     3    40       P1  8028  0.92
      L1  H    13    32       P1  7948  0.93

> <Gold.Chemscore.Hbond.Weighted>
-6.3440

> <Gold.Chemscore.Metal.Weighted>
-0.0000

> <Gold.Chemscore.Lipo.Weighted>
-12.1851

> <Gold.Chemscore.Internal_Hbond.Weighted>
0.0000

> <Gold.Chemscore.DEClash.Weighted>
1.4092

> <Gold.Chemscore.DEInternal.Weighted>
1.0752

> <Gold.Chemscore.Rot.Weighted>
5.4231

> <Gold.Chemscore.Internal.Correction.Weighted>
   9.000000E+99

> <Gold.Protein.RotatedTorsions>
[ 6907 6896 6895 6894 ] final   -7.94 input  -60.11 | X-H torsion
[ 7974 7965 7964 7962 ] final -126.85 input  175.53 | X-H torsion
[ 8008 7997 7996 7995 ] final   63.99 input   59.86 | X-H torsion
[ 10167 10162 10161 10158 ] final  172.65 input  -65.29 | X-H torsion
[ 10718 10713 10712 10709 ] final  162.81 input   66.30 | X-H torsion
[ 10763 10752 10751 10750 ] final   68.20 input  -60.55 | X-H torsion
[ 11005 11000 10999 10996 ] final  -21.02 input  -57.11 | X-H torsion

> <Gold.Protein.ActiveResidues>
 VAL166  LYS551  ARG553  GLY616  TRP617  ASP618  TYR619  PRO620  LYS621  CYS622 
 ASP623  PHE694  ASN695  SER759  ASP760  ASP761  ALA762  ILE779  LEU786  VAL792 
 PHE793  MET794  SER795  GLU796  ALA797  LYS798  CYS799  TRP800  GLU811  SER814 

> <Gold.Protein.RotatedAtoms>
  151.4415  135.1021  159.9671 H   0  0  0  0  0  0  0  0  0  0  0  0  # atno 6907 bound_to 6896
  152.4921  133.8524  159.7219 H   0  0  0  0  0  0  0  0  0  0  0  0  # atno 6908 bound_to 6896
  150.9085  133.6969  159.2888 H   0  0  0  0  0  0  0  0  0  0  0  0  # atno 6909 bound_to 6896
  144.9831  140.7659  143.4600 H   0  0  0  0  0  0  0  0  0  0  0  0  # atno 7974 bound_to 7965
  155.6389  140.3496  155.4708 H   0  0  0  0  0  0  0  0  0  0  0  0  # atno 8008 bound_to 7997
  155.9942  140.1200  157.0633 H   0  0  0  0  0  0  0  0  0  0  0  0  # atno 8009 bound_to 7997
  154.4228  140.1113  156.5594 H   0  0  0  0  0  0  0  0  0  0  0  0  # atno 8010 bound_to 7997
  139.5083  144.3349  152.0075 H   0  0  0  0  0  0  0  0  0  0  0  0  # atno 10167 bound_to 10162
  157.1173  131.0483  151.2431 H   0  0  0  0  0  0  0  0  0  0  0  0  # atno 10718 bound_to 10713
  153.0223  135.5256  154.7097 H   0  0  0  0  0  0  0  0  0  0  0  0  # atno 10763 bound_to 10752
  154.6183  135.2886  155.0357 H   0  0  0  0  0  0  0  0  0  0  0  0  # atno 10764 bound_to 10752
  154.1353  135.6586  153.4983 H   0  0  0  0  0  0  0  0  0  0  0  0  # atno 10765 bound_to 10752
  140.8520  133.7849  155.9977 H   0  0  0  0  0  0  0  0  0  0  0  0  # atno 11005 bound_to 11000
  145.2393  139.2080  143.5001 LP  0  0  0  0  0  0  0  0  0  0  0  0  # atno 17320 bound_to 7965
  146.3413  140.2285  142.8593 LP  0  0  0  0  0  0  0  0  0  0  0  0  # atno 17321 bound_to 7965
  140.2788  144.3882  150.6126 LP  0  0  0  0  0  0  0  0  0  0  0  0  # atno 17342 bound_to 10162
  140.6033  143.2167  151.7029 LP  0  0  0  0  0  0  0  0  0  0  0  0  # atno 17343 bound_to 10162
  157.4507  130.7597  149.7149 LP  0  0  0  0  0  0  0  0  0  0  0  0  # atno 17370 bound_to 10713
  155.9836  130.3998  150.3352 LP  0  0  0  0  0  0  0  0  0  0  0  0  # atno 17371 bound_to 10713
  140.8779  134.2647  157.5159 LP  0  0  0  0  0  0  0  0  0  0  0  0  # atno 17394 bound_to 11000
  139.8704  134.9600  156.4350 LP  0  0  0  0  0  0  0  0  0  0  0  0  # atno 17395 bound_to 11000

$$$$
