AV-unprocessed.smi:2421|AV-procd|sdf|9556|dock1
  -GOLD-   2272013183D 1   1.00000     0.00000
 Structure written by MMmdl.
 44 46  0  0  0  0  0  0  0  0  1 V2000
  147.0200  132.7388  153.0245 C   0  0  0  0  0  0  0  0  0  0  0  0
  148.2383  132.2935  153.7806 C   0  0  0  0  0  0  0  0  0  0  0  0
  148.3388  131.0438  154.2080 N   0  0  0  0  0  0  0  0  0  0  0  0
  149.5708  130.9495  154.8783 O   0  0  0  0  0  0  0  0  0  0  0  0
  150.1905  132.1599  154.8391 C   0  0  0  0  0  0  0  0  0  0  0  0
  151.5188  132.2720  155.5067 C   0  0  0  0  0  0  0  0  0  0  0  0
  149.3945  133.0265  154.1521 C   0  0  0  0  0  0  0  0  0  0  0  0
  149.6481  134.3908  153.9027 N   0  0  0  0  0  0  0  0  0  0  0  0
  150.2914  135.2029  154.7575 C   0  0  0  0  0  0  0  0  0  0  0  0
  150.6528  134.8562  155.8808 O   0  0  0  0  0  0  0  0  0  0  0  0
  150.5065  136.4481  154.2958 N   0  0  0  0  0  0  0  0  0  0  0  0
  151.1736  137.5617  154.9737 C   0  0  1  0  0  0  0  0  0  0  0  0
  152.4412  137.9531  154.2043 C   0  0  0  0  0  0  0  0  0  0  0  0
  153.1065  139.1761  154.8511 C   0  0  0  0  0  0  0  0  0  0  0  0
  152.1871  140.2633  154.9370 O   0  0  0  0  0  0  0  0  0  0  0  0
  150.9778  140.0104  155.6622 C   0  0  0  0  0  0  0  0  0  0  0  0
  151.2299  139.9180  157.1780 C   0  0  0  0  0  0  0  0  0  0  0  0
  151.4488  141.3627  157.6365 C   0  0  0  0  0  0  0  0  0  0  0  0
  150.7176  142.2454  156.6152 C   0  0  0  0  0  0  0  0  0  0  0  0
  150.1413  141.2917  155.5614 C   0  0  0  0  0  0  0  0  0  0  0  0
  150.2492  138.7887  155.0617 C   0  0  0  0  0  0  0  0  0  0  0  0
  147.1040  133.7801  152.7132 H   0  0  0  0  0  0  0  0  0  0  0  0
  146.1234  132.6481  153.6379 H   0  0  0  0  0  0  0  0  0  0  0  0
  146.8744  132.1369  152.1274 H   0  0  0  0  0  0  0  0  0  0  0  0
  151.9463  133.2646  155.3629 H   0  0  0  0  0  0  0  0  0  0  0  0
  152.2179  131.5418  155.0991 H   0  0  0  0  0  0  0  0  0  0  0  0
  151.4283  132.0940  156.5781 H   0  0  0  0  0  0  0  0  0  0  0  0
  149.3687  134.7580  153.0047 H   0  0  0  0  0  0  0  0  0  0  0  0
  150.1407  136.6528  153.3770 H   0  0  0  0  0  0  0  0  0  0  0  0
  151.4705  137.2524  155.9773 H   0  0  0  0  0  0  0  0  0  0  0  0
  153.1431  137.1189  154.1779 H   0  0  0  0  0  0  0  0  0  0  0  0
  152.1922  138.1857  153.1677 H   0  0  0  0  0  0  0  0  0  0  0  0
  153.5051  138.9255  155.8336 H   0  0  0  0  0  0  0  0  0  0  0  0
  153.9581  139.4944  154.2495 H   0  0  0  0  0  0  0  0  0  0  0  0
  150.3373  139.5271  157.6685 H   0  0  0  0  0  0  0  0  0  0  0  0
  152.0521  139.2621  157.4603 H   0  0  0  0  0  0  0  0  0  0  0  0
  151.0858  141.5210  158.6525 H   0  0  0  0  0  0  0  0  0  0  0  0
  152.5138  141.5980  157.6292 H   0  0  0  0  0  0  0  0  0  0  0  0
  149.9323  142.8421  157.0803 H   0  0  0  0  0  0  0  0  0  0  0  0
  151.4230  142.9371  156.1527 H   0  0  0  0  0  0  0  0  0  0  0  0
  150.1477  141.7228  154.5595 H   0  0  0  0  0  0  0  0  0  0  0  0
  149.1022  141.0730  155.8128 H   0  0  0  0  0  0  0  0  0  0  0  0
  149.8976  139.0425  154.0603 H   0  0  0  0  0  0  0  0  0  0  0  0
  149.3575  138.5584  155.6461 H   0  0  0  0  0  0  0  0  0  0  0  0
  1  2  1  0  0  0  0
  1 22  1  0  0  0  0
  1 23  1  0  0  0  0
  1 24  1  0  0  0  0
  2  7  1  0  0  0  0
  2  3  2  0  0  0  0
  3  4  1  0  0  0  0
  4  5  1  0  0  0  0
  5  6  1  0  0  0  0
  5  7  2  0  0  0  0
  6 25  1  0  0  0  0
  6 26  1  0  0  0  0
  6 27  1  0  0  0  0
  7  8  1  0  0  0  0
  8  9  1  0  0  0  0
  8 28  1  0  0  0  0
  9 10  2  0  0  0  0
  9 11  1  0  0  0  0
 11 12  1  0  0  0  0
 11 29  1  0  0  0  0
 12 21  1  0  0  0  0
 12 13  1  0  0  0  0
 12 30  1  0  0  0  0
 13 14  1  0  0  0  0
 13 31  1  0  0  0  0
 13 32  1  0  0  0  0
 14 15  1  0  0  0  0
 14 33  1  0  0  0  0
 14 34  1  0  0  0  0
 15 16  1  0  0  0  0
 16 20  1  0  0  0  0
 16 17  1  0  0  0  0
 16 21  1  0  0  0  0
 17 18  1  0  0  0  0
 17 35  1  0  0  0  0
 17 36  1  0  0  0  0
 18 19  1  0  0  0  0
 18 37  1  0  0  0  0
 18 38  1  0  0  0  0
 19 20  1  0  0  0  0
 19 39  1  0  0  0  0
 19 40  1  0  0  0  0
 20 41  1  0  0  0  0
 20 42  1  0  0  0  0
 21 43  1  0  0  0  0
 21 44  1  0  0  0  0
M  END
> <s_m_source_file>
AV-unprocessed.smi

> <i_m_source_file_index>
2421

> <i_lp_mmshare_version>
43012

> <i_f3d_flags>
0

> <s_epik_input>
W0NIM11jMW5vYyhbQ0gzXSljMVtOSF1DKD1PKVtOSF1bQ0BASF0oW0NIMl0yKVtDSDJdW0NIMl1PQzIzW0NIMl1bQ0gyXVtDSDJdW0NIMl0z

> <s_epik_cmdline>
J2VwaWtfcHl0aG9uJywgJy1waCcsICc3LjAnLCAnLXRuJywgJzgnLCAnLW1hJywgJzIwMCcsICctbWV0YWxfYmluZGluZycsICctaW1hZScsICc8aW5maWxlLm1hZT4nLCAnLW9tYWUnLCAnPG91dGZpbGUubWFlPic=

> <r_lp_tautomer_probability>
1

> <r_epik_Ionization_Penalty>
3.59808e-05

> <r_epik_Ionization_Penalty_Charging>
0

> <r_epik_Ionization_Penalty_Neutral>
3.59808e-05

> <r_epik_State_Penalty>
-0

> <r_epik_Charging_Adjusted_Penalty>
0

> <i_epik_Tot_Q>
0

> <i_epik_Tot_abs_Q>
0

> <r_epik_Metal_State_Penalty>
-0

> <b_epik_Metal_Only>
0

> <s_lp_Force_Field>
OPLS_2005

> <r_lp_Energy>
43.4187

> <b_lp_Chiralities_Consistent>
1

> <s_lp_Variant>
AV-unprocessed.smi:2421-2

> <Gold.Version>
5.8.1

> <Gold.Id.Protein>
6NUR|6NUR_protein|mol2

> <Gold.PLP.Fitness>
42.6069

> <Gold.PLP.PLP>
-34.5691

> <Gold.PLP.part.hbond>
-3.6255

> <Gold.PLP.part.metal>
0.0000

> <Gold.PLP.part.buried>
-1.4315

> <Gold.PLP.part.nonpolar>
-29.3528

> <Gold.PLP.part.repulsive>
0.2044

> <Gold.PLP.ligand.clash>
0.0000

> <Gold.PLP.ligand.torsion>
0.2577

> <Gold.PLP.Chemscore.Hbond>
2.6860

> <Gold.PLP.Chemscore.CHOScore>
0.0000

> <Gold.PLP.Chemscore.Metal>
0.0000

> <Gold.Chemscore.Hbonds>
donor molecule, donor type, donor heavy atom, donor atom, acceptor molecule, acceptor atom, score
      L1  H     8    28       P1  7948  0.20
      L1  H    11    29       P1  7948  0.60
      P1  H  7989  7998       L1    15  0.66

> <Gold.PLP.Chemscore.Internal.Correction>
0.4952

> <Gold.Rescore>
     Score         DG    S(hbond)    S(metal)    S(lipo)     H(rot)  DE(clash)    DE(int)     intcor
     18.46     -19.09       2.06        0.00      79.34       1.00       0.07       0.57       ----

> <Gold.Chemscore.Fitness>
18.4593

> <Gold.Chemscore.DG>
-19.0948

> <Gold.Chemscore.ZeroCoef>
-5.4800

> <Gold.Chemscore.Hbond>
2.0636

> <Gold.Chemscore.Metal>
0.0000

> <Gold.Chemscore.Lipo>
79.3357

> <Gold.Chemscore.Internal_Hbond>
0.0000

> <Gold.Chemscore.DEClash>
0.0668

> <Gold.Chemscore.DEInternal>
0.5687

> <Gold.Chemscore.Rot>
1.0000

> <Gold.Chemscore.Internal.Correction>
   9.000000E+99

> <Gold.Chemscore.Hbonds>
donor molecule, donor type, donor heavy atom, donor atom, acceptor molecule, acceptor atom, score
      L1  H    11    29       P1  7948  0.04
      P1  H  7989  7998       L1    15  0.26

> <Gold.Chemscore.Hbond.Weighted>
-6.8925

> <Gold.Chemscore.Metal.Weighted>
-0.0000

> <Gold.Chemscore.Lipo.Weighted>
-9.2823

> <Gold.Chemscore.Internal_Hbond.Weighted>
0.0000

> <Gold.Chemscore.DEClash.Weighted>
0.0668

> <Gold.Chemscore.DEInternal.Weighted>
0.5687

> <Gold.Chemscore.Rot.Weighted>
2.5600

> <Gold.Chemscore.Internal.Correction.Weighted>
   9.000000E+99

> <Gold.Protein.RotatedTorsions>
[ 6907 6896 6895 6894 ] final   75.56 input  -60.11 | X-H torsion
[ 7974 7965 7964 7962 ] final   20.73 input  175.53 | X-H torsion
[ 8008 7997 7996 7995 ] final  162.66 input   59.86 | X-H torsion
[ 10167 10162 10161 10158 ] final   85.66 input  -65.29 | X-H torsion
[ 10718 10713 10712 10709 ] final  -87.50 input   66.30 | X-H torsion
[ 10763 10752 10751 10750 ] final    8.10 input  -60.55 | X-H torsion
[ 11005 11000 10999 10996 ] final   88.68 input  -57.11 | X-H torsion

> <Gold.Protein.ActiveResidues>
 VAL166  LYS551  ARG553  GLY616  TRP617  ASP618  TYR619  PRO620  LYS621  CYS622 
 ASP623  PHE694  ASN695  SER759  ASP760  ASP761  ALA762  ILE779  LEU786  VAL792 
 PHE793  MET794  SER795  GLU796  ALA797  LYS798  CYS799  TRP800  GLU811  SER814 

> <Gold.Protein.RotatedAtoms>
  152.5032  134.4102  159.9445 H   0  0  0  0  0  0  0  0  0  0  0  0  # atno 6907 bound_to 6896
  151.4069  133.3733  159.2747 H   0  0  0  0  0  0  0  0  0  0  0  0  # atno 6908 bound_to 6896
  150.9320  134.8756  159.7616 H   0  0  0  0  0  0  0  0  0  0  0  0  # atno 6909 bound_to 6896
  146.2100  139.8128  142.8696 H   0  0  0  0  0  0  0  0  0  0  0  0  # atno 7974 bound_to 7965
  156.2015  140.1744  156.7889 H   0  0  0  0  0  0  0  0  0  0  0  0  # atno 8008 bound_to 7997
  154.5598  140.0702  156.8831 H   0  0  0  0  0  0  0  0  0  0  0  0  # atno 8009 bound_to 7997
  155.2870  140.3353  155.4257 H   0  0  0  0  0  0  0  0  0  0  0  0  # atno 8010 bound_to 7997
  139.8954  144.6361  150.8693 H   0  0  0  0  0  0  0  0  0  0  0  0  # atno 10167 bound_to 10162
  155.9985  130.4802  150.4876 H   0  0  0  0  0  0  0  0  0  0  0  0  # atno 10718 bound_to 10713
  153.2288  135.6890  153.7914 H   0  0  0  0  0  0  0  0  0  0  0  0  # atno 10763 bound_to 10752
  153.7086  135.3286  155.3242 H   0  0  0  0  0  0  0  0  0  0  0  0  # atno 10764 bound_to 10752
  154.8304  135.4585  154.1165 H   0  0  0  0  0  0  0  0  0  0  0  0  # atno 10765 bound_to 10752
  139.8891  134.8503  156.3034 H   0  0  0  0  0  0  0  0  0  0  0  0  # atno 11005 bound_to 11000
  145.3178  141.0236  143.3517 LP  0  0  0  0  0  0  0  0  0  0  0  0  # atno 17320 bound_to 7965
  144.8888  139.4802  143.6687 LP  0  0  0  0  0  0  0  0  0  0  0  0  # atno 17321 bound_to 7965
  140.7718  143.3477  151.2077 LP  0  0  0  0  0  0  0  0  0  0  0  0  # atno 17342 bound_to 10162
  139.7072  143.9436  152.2932 LP  0  0  0  0  0  0  0  0  0  0  0  0  # atno 17343 bound_to 10162
  157.2875  131.0619  151.2156 LP  0  0  0  0  0  0  0  0  0  0  0  0  # atno 17370 bound_to 10713
  157.3181  130.6923  149.6253 LP  0  0  0  0  0  0  0  0  0  0  0  0  # atno 17371 bound_to 10713
  140.9898  133.7216  156.0796 LP  0  0  0  0  0  0  0  0  0  0  0  0  # atno 17394 bound_to 11000
  140.7640  134.3907  157.5520 LP  0  0  0  0  0  0  0  0  0  0  0  0  # atno 17395 bound_to 11000

$$$$
