AV-unprocessed.smi:2526|AV-procd|sdf|9937|dock3
  -GOLD-   2272013583D 1   1.00000     0.00000
 Structure written by MMmdl.
 29 30  0  0  0  0  0  0  0  0  2 V2000
  145.6852  142.7071  154.0939 C   0  0  0  0  0  0  0  0  0  0  0  0
  146.8439  142.0061  154.6040 N   0  0  0  0  0  0  0  0  0  0  0  0
  147.8648  141.4065  153.8992 C   0  0  0  0  0  0  0  0  0  0  0  0
  148.7338  140.8677  154.8086 C   0  0  0  0  0  0  0  0  0  0  0  0
  150.0184  140.1100  154.5718 C   0  0  1  0  0  0  0  0  0  0  0  0
  150.9746  140.3637  155.6528 N   0  0  0  0  0  0  0  0  0  0  0  0
  151.8722  139.4975  156.1564 C   0  0  0  0  0  0  0  0  0  0  0  0
  152.6739  139.8377  157.0223 O   0  0  0  0  0  0  0  0  0  0  0  0
  151.8675  138.0423  155.6633 C   0  0  0  0  0  0  0  0  0  0  0  0
  151.0793  137.8326  154.3596 C   0  0  0  0  0  0  0  0  0  0  0  0
  149.7510  138.5972  154.3929 C   0  0  2  0  0  0  0  0  0  0  0  0
  148.9483  138.3230  153.1870 N   0  3  0  0  0  0  0  0  0  0  0  0
  148.1383  141.1965  156.0608 C   0  0  0  0  0  0  0  0  0  0  0  0
  147.0127  141.8785  155.9356 N   0  0  0  0  0  0  0  0  0  0  0  0
  145.8460  142.9848  153.0517 H   0  0  0  0  0  0  0  0  0  0  0  0
  145.5085  143.6119  154.6768 H   0  0  0  0  0  0  0  0  0  0  0  0
  144.8086  142.0619  154.1594 H   0  0  0  0  0  0  0  0  0  0  0  0
  147.8894  141.4140  152.8191 H   0  0  0  0  0  0  0  0  0  0  0  0
  150.4986  140.4807  153.6647 H   0  0  0  0  0  0  0  0  0  0  0  0
  150.9913  141.3044  156.0207 H   0  0  0  0  0  0  0  0  0  0  0  0
  152.8945  137.6967  155.5392 H   0  0  0  0  0  0  0  0  0  0  0  0
  151.4281  137.4323  156.4532 H   0  0  0  0  0  0  0  0  0  0  0  0
  151.6797  138.1623  153.5101 H   0  0  0  0  0  0  0  0  0  0  0  0
  150.8984  136.7669  154.2143 H   0  0  0  0  0  0  0  0  0  0  0  0
  149.1720  138.2360  155.2447 H   0  0  0  0  0  0  0  0  0  0  0  0
  147.9794  138.2019  153.4454 H   0  0  0  0  0  0  0  0  0  0  0  0
  149.2870  137.4810  152.7436 H   0  0  0  0  0  0  0  0  0  0  0  0
  148.4925  140.9629  157.0540 H   0  0  0  0  0  0  0  0  0  0  0  0
  149.0309  139.0976  152.5439 H   0  0  0  0  0  0  0  0  0  0  0  0
  1  2  1  0  0  0  0
  1 15  1  0  0  0  0
  1 16  1  0  0  0  0
  1 17  1  0  0  0  0
  2 14  1  0  0  0  0
  2  3  1  0  0  0  0
  3  4  2  0  0  0  0
  3 18  1  0  0  0  0
  4  5  1  0  0  0  0
  4 13  1  0  0  0  0
  5 11  1  0  0  0  0
  5  6  1  0  0  0  0
  5 19  1  0  0  0  0
  6  7  1  0  0  0  0
  6 20  1  0  0  0  0
  7  8  2  0  0  0  0
  7  9  1  0  0  0  0
  9 10  1  0  0  0  0
  9 21  1  0  0  0  0
  9 22  1  0  0  0  0
 10 11  1  0  0  0  0
 10 23  1  0  0  0  0
 10 24  1  0  0  0  0
 11 12  1  0  0  0  0
 11 25  1  0  0  0  0
 12 26  1  0  0  0  0
 12 27  1  0  0  0  0
 12 29  1  0  0  0  0
 13 14  2  0  0  0  0
 13 28  1  0  0  0  0
M  CHG  1  12   1
M  END
> <s_m_source_file>
AV-unprocessed.smi

> <i_m_source_file_index>
2526

> <i_lp_mmshare_version>
43012

> <i_f3d_flags>
0

> <s_epik_input>
W0NIM11uMVtjSF1jKFtjSF1uMSlbQ0BASF0yW05IXUMoPU8pW0NIMl1bQ0gyXVtDQEhdMltOSDJd

> <s_epik_cmdline>
J2VwaWtfcHl0aG9uJywgJy1waCcsICc3LjAnLCAnLXRuJywgJzgnLCAnLW1hJywgJzIwMCcsICctbWV0YWxfYmluZGluZycsICctaW1hZScsICc8aW5maWxlLm1hZT4nLCAnLW9tYWUnLCAnPG91dGZpbGUubWFlPic=

> <r_lp_tautomer_probability>
1

> <r_epik_Ionization_Penalty>
0.00878543

> <r_epik_Ionization_Penalty_Charging>
0.00874185

> <r_epik_Ionization_Penalty_Neutral>
4.35793e-05

> <r_epik_State_Penalty>
0.00660351

> <r_epik_Charging_Adjusted_Penalty>
0.0153454

> <i_epik_Tot_Q>
1

> <i_epik_Tot_abs_Q>
1

> <r_epik_Metal_State_Penalty>
0.00660727

> <b_epik_Metal_Only>
0

> <s_lp_Force_Field>
OPLS_2005

> <r_lp_Energy>
10.7235

> <b_lp_Chiralities_Consistent>
1

> <s_lp_Variant>
AV-unprocessed.smi:2526-4

> <Gold.Version>
5.8.1

> <Gold.Id.Protein>
6NUR|6NUR_protein|mol2

> <Gold.PLP.Fitness>
41.8211

> <Gold.PLP.PLP>
-28.3266

> <Gold.PLP.part.hbond>
-2.7760

> <Gold.PLP.part.metal>
0.0000

> <Gold.PLP.part.buried>
-1.5678

> <Gold.PLP.part.nonpolar>
-24.7620

> <Gold.PLP.part.repulsive>
1.4664

> <Gold.PLP.ligand.clash>
0.0000

> <Gold.PLP.ligand.torsion>
0.7390

> <Gold.PLP.Chemscore.Hbond>
4.0000

> <Gold.PLP.Chemscore.CHOScore>
0.9836

> <Gold.PLP.Chemscore.Metal>
0.0000

> <Gold.Chemscore.Hbonds>
donor molecule, donor type, donor heavy atom, donor atom, acceptor molecule, acceptor atom, score
      L1  H    12    27       P1  7948  1.93
      L1  H    12    29       P1  7957  1.00
      P1  H  7997  8009       L1     8  0.98
      L1  C     3    18       P1  7957  0.47

> <Gold.PLP.Chemscore.Internal.Correction>
0.0215

> <Gold.Rescore>
     Score         DG    S(hbond)    S(metal)    S(lipo)     H(rot)  DE(clash)    DE(int)     intcor
     18.58     -18.92       2.97        0.00      51.95       1.00       0.08       0.26       ----

> <Gold.Chemscore.Fitness>
18.5788

> <Gold.Chemscore.DG>
-18.9157

> <Gold.Chemscore.ZeroCoef>
-5.4800

> <Gold.Chemscore.Hbond>
2.9695

> <Gold.Chemscore.Metal>
0.0000

> <Gold.Chemscore.Lipo>
51.9459

> <Gold.Chemscore.Internal_Hbond>
0.0000

> <Gold.Chemscore.DEClash>
0.0798

> <Gold.Chemscore.DEInternal>
0.2571

> <Gold.Chemscore.Rot>
1.0000

> <Gold.Chemscore.Internal.Correction>
   9.000000E+99

> <Gold.Chemscore.Hbonds>
donor molecule, donor type, donor heavy atom, donor atom, acceptor molecule, acceptor atom, score
      L1  H    12    27       P1  7948  0.82
      L1  H    12    29       P1  7957  0.99
      P1  H  7997  8009       L1     8  0.77

> <Gold.Chemscore.Hbond.Weighted>
-9.9180

> <Gold.Chemscore.Metal.Weighted>
-0.0000

> <Gold.Chemscore.Lipo.Weighted>
-6.0777

> <Gold.Chemscore.Internal_Hbond.Weighted>
0.0000

> <Gold.Chemscore.DEClash.Weighted>
0.0798

> <Gold.Chemscore.DEInternal.Weighted>
0.2571

> <Gold.Chemscore.Rot.Weighted>
2.5600

> <Gold.Chemscore.Internal.Correction.Weighted>
   9.000000E+99

> <Gold.Protein.RotatedTorsions>
[ 6907 6896 6895 6894 ] final  140.55 input  -60.11 | X-H torsion
[ 7974 7965 7964 7962 ] final  153.75 input  175.53 | X-H torsion
[ 8008 7997 7996 7995 ] final -160.10 input   59.86 | X-H torsion
[ 10167 10162 10161 10158 ] final  -28.15 input  -65.29 | X-H torsion
[ 10718 10713 10712 10709 ] final  -11.63 input   66.30 | X-H torsion
[ 10763 10752 10751 10750 ] final  120.84 input  -60.55 | X-H torsion
[ 11005 11000 10999 10996 ] final   86.42 input  -57.11 | X-H torsion

> <Gold.Protein.ActiveResidues>
 VAL166  LYS551  ARG553  GLY616  TRP617  ASP618  TYR619  PRO620  LYS621  CYS622 
 ASP623  PHE694  ASN695  SER759  ASP760  ASP761  ALA762  ILE779  LEU786  VAL792 
 PHE793  MET794  SER795  GLU796  ALA797  LYS798  CYS799  TRP800  GLU811  SER814 

> <Gold.Protein.RotatedAtoms>
  152.2417  133.5140  159.5273 H   0  0  0  0  0  0  0  0  0  0  0  0  # atno 6907 bound_to 6896
  150.7066  134.1080  159.3999 H   0  0  0  0  0  0  0  0  0  0  0  0  # atno 6908 bound_to 6896
  151.9001  135.0381  160.0556 H   0  0  0  0  0  0  0  0  0  0  0  0  # atno 6909 bound_to 6896
  144.8134  139.6841  143.6132 H   0  0  0  0  0  0  0  0  0  0  0  0  # atno 7974 bound_to 7965
  155.7724  140.0854  157.2101 H   0  0  0  0  0  0  0  0  0  0  0  0  # atno 8008 bound_to 7997
  154.3995  140.1523  156.3014 H   0  0  0  0  0  0  0  0  0  0  0  0  # atno 8009 bound_to 7997
  155.8734  140.3424  155.5840 H   0  0  0  0  0  0  0  0  0  0  0  0  # atno 8010 bound_to 7997
  140.7272  143.4033  151.1227 H   0  0  0  0  0  0  0  0  0  0  0  0  # atno 10167 bound_to 10162
  156.6562  130.4969  149.6045 H   0  0  0  0  0  0  0  0  0  0  0  0  # atno 10718 bound_to 10713
  153.6048  135.3441  155.2958 H   0  0  0  0  0  0  0  0  0  0  0  0  # atno 10763 bound_to 10752
  154.8629  135.4236  154.2374 H   0  0  0  0  0  0  0  0  0  0  0  0  # atno 10764 bound_to 10752
  153.3211  135.7038  153.7102 H   0  0  0  0  0  0  0  0  0  0  0  0  # atno 10765 bound_to 10752
  139.8945  134.8354  156.2718 H   0  0  0  0  0  0  0  0  0  0  0  0  # atno 11005 bound_to 11000
  146.2435  139.6050  142.9475 LP  0  0  0  0  0  0  0  0  0  0  0  0  # atno 17320 bound_to 7965
  145.5271  141.0429  143.2403 LP  0  0  0  0  0  0  0  0  0  0  0  0  # atno 17321 bound_to 7965
  139.7656  143.8569  152.3110 LP  0  0  0  0  0  0  0  0  0  0  0  0  # atno 17342 bound_to 10162
  139.8470  144.7182  150.9260 LP  0  0  0  0  0  0  0  0  0  0  0  0  # atno 17343 bound_to 10162
  156.2046  130.6641  151.1204 LP  0  0  0  0  0  0  0  0  0  0  0  0  # atno 17370 bound_to 10713
  157.7125  131.0727  150.6450 LP  0  0  0  0  0  0  0  0  0  0  0  0  # atno 17371 bound_to 10713
  141.0096  133.7103  156.1090 LP  0  0  0  0  0  0  0  0  0  0  0  0  # atno 17394 bound_to 11000
  140.7386  134.4175  157.5557 LP  0  0  0  0  0  0  0  0  0  0  0  0  # atno 17395 bound_to 11000

$$$$
