AV-unprocessed.smi:1899|AV-procd|sdf|7706|dock4
  -GOLD-   22720 9443D 1   1.00000     0.00000
 Structure written by MMmdl.
 34 35  0  0  0  0  0  0  0  0  2 V2000
  151.4360  140.8162  156.5926 O   0  0  0  0  0  0  0  0  0  0  0  0
  150.8517  141.8832  156.7811 C   0  0  0  0  0  0  0  0  0  0  0  0
  149.9355  142.3782  155.9347 N   0  0  0  0  0  0  0  0  0  0  0  0
  149.4917  141.7366  154.7003 C   0  0  0  0  0  0  0  0  0  0  0  0
  149.1312  140.2500  154.8929 C   0  0  0  0  0  0  0  0  0  0  0  0
  148.0431  139.8139  154.0128 N   0  0  0  0  0  0  0  0  0  0  0  0
  147.9147  138.6004  153.3877 C   0  0  0  0  0  0  0  0  0  0  0  0
  146.7461  138.6518  152.6721 C   0  0  0  0  0  0  0  0  0  0  0  0
  146.2113  139.8934  152.8906 N   0  3  0  0  0  0  0  0  0  0  0  0
  147.0004  140.5978  153.7081 C   0  0  0  0  0  0  0  0  0  0  0  0
  151.1421  142.7138  158.0376 C   0  0  1  0  0  0  0  0  0  0  0  0
  152.1690  141.9998  158.9466 C   0  0  0  0  0  0  0  0  0  0  0  0
  152.6679  142.8995  160.0635 C   0  0  0  0  0  0  0  0  0  0  0  0
  152.5117  144.2346  160.0626 C   0  0  0  0  0  0  0  0  0  0  0  0
  151.8238  144.9955  158.9429 C   0  0  0  0  0  0  0  0  0  0  0  0
  151.6315  144.1322  157.6814 C   0  0  0  0  0  0  0  0  0  0  0  0
  149.5133  143.2667  156.1637 H   0  0  0  0  0  0  0  0  0  0  0  0
  148.6259  142.2828  154.3252 H   0  0  0  0  0  0  0  0  0  0  0  0
  150.2695  141.8359  153.9415 H   0  0  0  0  0  0  0  0  0  0  0  0
  149.9984  139.6254  154.6754 H   0  0  0  0  0  0  0  0  0  0  0  0
  148.8482  140.0399  155.9252 H   0  0  0  0  0  0  0  0  0  0  0  0
  148.6453  137.8117  153.4954 H   0  0  0  0  0  0  0  0  0  0  0  0
  146.2679  137.9173  152.0403 H   0  0  0  0  0  0  0  0  0  0  0  0
  146.8320  141.6037  154.0505 H   0  0  0  0  0  0  0  0  0  0  0  0
  150.2109  142.8199  158.5978 H   0  0  0  0  0  0  0  0  0  0  0  0
  151.7144  141.1138  159.3914 H   0  0  0  0  0  0  0  0  0  0  0  0
  153.0355  141.6602  158.3773 H   0  0  0  0  0  0  0  0  0  0  0  0
  153.1828  142.4201  160.8832 H   0  0  0  0  0  0  0  0  0  0  0  0
  152.8785  144.8184  160.8943 H   0  0  0  0  0  0  0  0  0  0  0  0
  150.8588  145.3423  159.3135 H   0  0  0  0  0  0  0  0  0  0  0  0
  152.4084  145.8830  158.6990 H   0  0  0  0  0  0  0  0  0  0  0  0
  152.5816  144.0669  157.1483 H   0  0  0  0  0  0  0  0  0  0  0  0
  150.9329  144.6251  157.0038 H   0  0  0  0  0  0  0  0  0  0  0  0
  145.3438  140.2315  152.4931 H   0  0  0  0  0  0  0  0  0  0  0  0
  1  2  2  0  0  0  0
  2  3  1  0  0  0  0
  2 11  1  0  0  0  0
  3  4  1  0  0  0  0
  3 17  1  0  0  0  0
  4  5  1  0  0  0  0
  4 18  1  0  0  0  0
  4 19  1  0  0  0  0
  5  6  1  0  0  0  0
  5 20  1  0  0  0  0
  5 21  1  0  0  0  0
  6 10  1  0  0  0  0
  6  7  1  0  0  0  0
  7  8  2  0  0  0  0
  7 22  1  0  0  0  0
  8  9  1  0  0  0  0
  8 23  1  0  0  0  0
  9 10  2  0  0  0  0
  9 34  1  0  0  0  0
 10 24  1  0  0  0  0
 11 16  1  0  0  0  0
 11 12  1  0  0  0  0
 11 25  1  0  0  0  0
 12 13  1  0  0  0  0
 12 26  1  0  0  0  0
 12 27  1  0  0  0  0
 13 14  2  0  0  0  0
 13 28  1  0  0  0  0
 14 15  1  0  0  0  0
 14 29  1  0  0  0  0
 15 16  1  0  0  0  0
 15 30  1  0  0  0  0
 15 31  1  0  0  0  0
 16 32  1  0  0  0  0
 16 33  1  0  0  0  0
M  CHG  1   9   1
M  END
> <s_m_source_file>
AV-unprocessed.smi

> <i_m_source_file_index>
1899

> <i_lp_mmshare_version>
43012

> <i_f3d_flags>
0

> <s_epik_input>
W0NIMl0xW0NIMl1bQ0hdPVtDSF1bQ0gyXVtDQEhdMUMoPU8pW05IXVtDSDJdW0NIMl1uMltjSF1bY0hdbltjSF0y

> <s_epik_cmdline>
J2VwaWtfcHl0aG9uJywgJy1waCcsICc3LjAnLCAnLXRuJywgJzgnLCAnLW1hJywgJzIwMCcsICctbWV0YWxfYmluZGluZycsICctaW1hZScsICc8aW5maWxlLm1hZT4nLCAnLW9tYWUnLCAnPG91dGZpbGUubWFlPic=

> <r_lp_tautomer_probability>
1

> <r_epik_Ionization_Penalty>
0.268283

> <r_epik_Ionization_Penalty_Charging>
0

> <r_epik_Ionization_Penalty_Neutral>
0.268283

> <r_epik_State_Penalty>
0.260312

> <r_epik_Charging_Adjusted_Penalty>
0.260312

> <i_epik_Tot_Q>
1

> <i_epik_Tot_abs_Q>
1

> <r_epik_Metal_State_Penalty>
0.545819

> <b_epik_Metal_Only>
0

> <s_lp_Force_Field>
OPLS_2005

> <r_lp_Energy>
11.7263

> <b_lp_Chiralities_Consistent>
1

> <s_lp_Variant>
AV-unprocessed.smi:1899-2

> <Gold.Version>
5.8.1

> <Gold.Id.Protein>
6NUR|6NUR_protein|mol2

> <Gold.PLP.Fitness>
46.8655

> <Gold.PLP.PLP>
-36.4925

> <Gold.PLP.part.hbond>
-2.0000

> <Gold.PLP.part.metal>
0.0000

> <Gold.PLP.part.buried>
0.0374

> <Gold.PLP.part.nonpolar>
-33.7525

> <Gold.PLP.part.repulsive>
0.1477

> <Gold.PLP.ligand.clash>
0.0000

> <Gold.PLP.ligand.torsion>
0.6097

> <Gold.PLP.Chemscore.Hbond>
3.0000

> <Gold.PLP.Chemscore.CHOScore>
0.8540

> <Gold.PLP.Chemscore.Metal>
0.0000

> <Gold.Chemscore.Hbonds>
donor molecule, donor type, donor heavy atom, donor atom, acceptor molecule, acceptor atom, score
      L1  H     3    17       P1  8028  0.99
      L1  H     9    34       P1 10175  2.00
      L1  C     7    22       P1  7948  0.83

> <Gold.PLP.Chemscore.Internal.Correction>
0.0305

> <Gold.Rescore>
     Score         DG    S(hbond)    S(metal)    S(lipo)     H(rot)  DE(clash)    DE(int)     intcor
     16.58     -18.53       1.95        0.00      96.77       1.87       0.11       1.84       ----

> <Gold.Chemscore.Fitness>
16.5766

> <Gold.Chemscore.DG>
-18.5273

> <Gold.Chemscore.ZeroCoef>
-5.4800

> <Gold.Chemscore.Hbond>
1.9532

> <Gold.Chemscore.Metal>
0.0000

> <Gold.Chemscore.Lipo>
96.7680

> <Gold.Chemscore.Internal_Hbond>
0.0000

> <Gold.Chemscore.DEClash>
0.1095

> <Gold.Chemscore.DEInternal>
1.8412

> <Gold.Chemscore.Rot>
1.8743

> <Gold.Chemscore.Internal.Correction>
   9.000000E+99

> <Gold.Chemscore.Hbonds>
donor molecule, donor type, donor heavy atom, donor atom, acceptor molecule, acceptor atom, score
      L1  H     3    17       P1  8028  0.93
      L1  H     9    34       P1 10175  0.80

> <Gold.Chemscore.Hbond.Weighted>
-6.5238

> <Gold.Chemscore.Metal.Weighted>
-0.0000

> <Gold.Chemscore.Lipo.Weighted>
-11.3219

> <Gold.Chemscore.Internal_Hbond.Weighted>
0.0000

> <Gold.Chemscore.DEClash.Weighted>
0.1095

> <Gold.Chemscore.DEInternal.Weighted>
1.8412

> <Gold.Chemscore.Rot.Weighted>
4.7983

> <Gold.Chemscore.Internal.Correction.Weighted>
   9.000000E+99

> <Gold.Protein.RotatedTorsions>
[ 6907 6896 6895 6894 ] final  112.82 input  -60.11 | X-H torsion
[ 7974 7965 7964 7962 ] final -157.22 input  175.53 | X-H torsion
[ 8008 7997 7996 7995 ] final -130.39 input   59.86 | X-H torsion
[ 10167 10162 10161 10158 ] final   59.30 input  -65.29 | X-H torsion
[ 10718 10713 10712 10709 ] final  -62.17 input   66.30 | X-H torsion
[ 10763 10752 10751 10750 ] final -148.70 input  -60.55 | X-H torsion
[ 11005 11000 10999 10996 ] final  126.01 input  -57.11 | X-H torsion

> <Gold.Protein.ActiveResidues>
 VAL166  LYS551  ARG553  GLY616  TRP617  ASP618  TYR619  PRO620  LYS621  CYS622 
 ASP623  PHE694  ASN695  SER759  ASP760  ASP761  ALA762  ILE779  LEU786  VAL792 
 PHE793  MET794  SER795  GLU796  ALA797  LYS798  CYS799  TRP800  GLU811  SER814 

> <Gold.Protein.RotatedAtoms>
  152.4895  133.8462  159.7177 H   0  0  0  0  0  0  0  0  0  0  0  0  # atno 6907 bound_to 6896
  150.9011  133.7107  159.2885 H   0  0  0  0  0  0  0  0  0  0  0  0  # atno 6908 bound_to 6896
  151.4548  135.1037  159.9760 H   0  0  0  0  0  0  0  0  0  0  0  0  # atno 6909 bound_to 6896
  144.7558  140.3999  143.6014 H   0  0  0  0  0  0  0  0  0  0  0  0  # atno 7974 bound_to 7965
  155.2949  140.0450  157.3025 H   0  0  0  0  0  0  0  0  0  0  0  0  # atno 8008 bound_to 7997
  154.5519  140.2320  155.8438 H   0  0  0  0  0  0  0  0  0  0  0  0  # atno 8009 bound_to 7997
  156.1974  140.3034  155.9463 H   0  0  0  0  0  0  0  0  0  0  0  0  # atno 8010 bound_to 7997
  140.1779  144.4212  150.6629 H   0  0  0  0  0  0  0  0  0  0  0  0  # atno 10167 bound_to 10162
  156.0873  130.4206  150.1097 H   0  0  0  0  0  0  0  0  0  0  0  0  # atno 10718 bound_to 10713
  154.8218  135.3328  154.7015 H   0  0  0  0  0  0  0  0  0  0  0  0  # atno 10763 bound_to 10752
  153.7646  135.6930  153.4923 H   0  0  0  0  0  0  0  0  0  0  0  0  # atno 10764 bound_to 10752
  153.2086  135.4490  155.0302 H   0  0  0  0  0  0  0  0  0  0  0  0  # atno 10765 bound_to 10752
  139.9435  134.9633  156.8644 H   0  0  0  0  0  0  0  0  0  0  0  0  # atno 11005 bound_to 11000
  145.6786  139.1613  143.2714 LP  0  0  0  0  0  0  0  0  0  0  0  0  # atno 17320 bound_to 7965
  146.1565  140.6850  142.9297 LP  0  0  0  0  0  0  0  0  0  0  0  0  # atno 17321 bound_to 7965
  140.6539  143.2232  151.6013 LP  0  0  0  0  0  0  0  0  0  0  0  0  # atno 17342 bound_to 10162
  139.5309  144.2919  152.1145 LP  0  0  0  0  0  0  0  0  0  0  0  0  # atno 17343 bound_to 10162
  156.9115  130.9653  151.3562 LP  0  0  0  0  0  0  0  0  0  0  0  0  # atno 17370 bound_to 10713
  157.6011  130.8513  149.8804 LP  0  0  0  0  0  0  0  0  0  0  0  0  # atno 17371 bound_to 10713
  140.5893  134.0277  155.7493 LP  0  0  0  0  0  0  0  0  0  0  0  0  # atno 17394 bound_to 11000
  141.1077  133.9666  157.2966 LP  0  0  0  0  0  0  0  0  0  0  0  0  # atno 17395 bound_to 11000

$$$$
