#       Name:                AV-unprocessed.smi:1565
#       Creating user name   scv26
#       Creation time:       Fri Mar 27 06:49:45 2020


#       File generated by GOLD software.
#

@<TRIPOS>MOLECULE
AV-unprocessed.smi:1565
    46    47     1
SMALL
NO_CHARGES


@<TRIPOS>ATOM
      1 ****        -4.3456  -1.5483   1.2985 C.3            1 S1                 0.0000
      2 ****        -4.0010  -0.9542  -0.0789 C.3            1 S1                 0.0000
      3 ****        -2.4955  -1.0000  -0.4064 C.3            1 S1                 0.0000
      4 ****        -1.7659   0.0220   0.3389 N.3            1 S1                 0.0000
      5 ****        -0.3616  -0.1163   0.3477 C.ar           1 S1                 0.0000
      6 ****         0.2288  -1.3350   0.7566 C.ar           1 S1                 0.0000
      7 ****         1.6318  -1.4542   0.7539 C.ar           1 S1                 0.0000
      8 ****         2.4144  -0.3574   0.3367 C.ar           1 S1                 0.0000
      9 ****         3.9134  -0.4414   0.3400 C.2            1 S1                 0.0000
     10 ****         4.5013  -1.1853   1.1252 O.2            1 S1                 0.0000
     11 ****         4.5372   0.2919  -0.5956 N.am           1 S1                 0.0000
     12 ****         5.9793   0.3234  -0.8161 C.3            1 S1                 0.0000
     13 ****         6.4344  -0.7600  -1.8085 C.3            1 S1                 0.0000
     14 ****         7.7438  -0.6352  -2.0203 F              1 S1                 0.0000
     15 ****         6.1965  -1.9795  -1.3256 F              1 S1                 0.0000
     16 ****         5.7986  -0.6165  -2.9716 F              1 S1                 0.0000
     17 ****         1.7364   0.8244  -0.0363 C.ar           1 S1                 0.0000
     18 ****         0.3922   0.9436  -0.0346 N.ar           1 S1                 0.0000
     19 ****        -2.3247   1.3611   0.1760 C.3            1 S1                 0.0000
     20 ****        -3.8205   1.3647   0.5373 C.3            1 S1                 0.0000
     21 ****        -4.4734   2.7215   0.2537 C.3            1 S1                 0.0000
     22 ****        -4.5009   0.3760  -0.2348 O.3            1 S1                 0.0000
     23 ****        -4.0758  -2.6037   1.3412 H              1 S1                 0.0000
     24 ****        -5.4146  -1.4731   1.4981 H              1 S1                 0.0000
     25 ****        -3.8170  -1.0479   2.1094 H              1 S1                 0.0000
     26 ****        -4.5194  -1.5613  -0.8215 H              1 S1                 0.0000
     27 ****        -2.1131  -2.0012  -0.2118 H              1 S1                 0.0000
     28 ****        -2.3479  -0.8128  -1.4708 H              1 S1                 0.0000
     29 ****        -0.3738  -2.1690   1.0843 H              1 S1                 0.0000
     30 ****         2.0931  -2.3795   1.0678 H              1 S1                 0.0000
     31 ****         3.9708   0.8528  -1.2153 H              1 S1                 0.0000
     32 ****         6.2337   1.3085  -1.2082 H              1 S1                 0.0000
     33 ****         6.5147   0.2233   0.1295 H              1 S1                 0.0000
     34 ****         2.2786   1.7068  -0.3434 H              1 S1                 0.0000
     35 ****        -1.7979   2.0706   0.8156 H              1 S1                 0.0000
     36 ****        -2.1842   1.6850  -0.8563 H              1 S1                 0.0000
     37 ****        -3.9406   1.1489   1.5991 H              1 S1                 0.0000
     38 ****        -3.9982   3.5141   0.8323 H              1 S1                 0.0000
     39 ****        -5.5313   2.7071   0.5163 H              1 S1                 0.0000
     40 ****        -4.3957   2.9843  -0.8018 H              1 S1                 0.0000
     41 ****        -1.9429  -0.1650   1.3052 LP             1 S1                 0.0000
     42 ****         3.9800  -1.7429   1.7711 LP             1 S1                 0.0000
     43 ****         5.5002  -1.2319   1.1171 LP             1 S1                 0.0000
     44 ****        -0.0415   1.8012  -0.3113 LP             1 S1                 0.0000
     45 ****        -5.4642   0.3800   0.0338 LP             1 S1                 0.0000
     46 ****        -4.4229   0.6267  -1.1997 LP             1 S1                 0.0000
@<TRIPOS>BOND
    1    1    2 1     
    2    1   23 1     
    3    1   24 1     
    4    1   25 1     
    5    2   22 1     
    6    2    3 1     
    7    2   26 1     
    8    3    4 1     
    9    3   27 1     
   10    3   28 1     
   11    4    5 1     
   12    4   19 1     
   13    5   18 ar    
   14    5    6 ar    
   15    6    7 ar    
   16    6   29 1     
   17    7    8 ar    
   18    7   30 1     
   19    8    9 1     
   20    8   17 ar    
   21    9   10 2     
   22    9   11 am    
   23   11   12 1     
   24   11   31 1     
   25   12   13 1     
   26   12   32 1     
   27   12   33 1     
   28   13   14 1     
   29   13   15 1     
   30   13   16 1     
   31   17   18 ar    
   32   17   34 1     
   33   19   20 1     
   34   19   35 1     
   35   19   36 1     
   36   20   21 1     
   37   20   22 1     
   38   20   37 1     
   39   21   38 1     
   40   21   39 1     
   41   21   40 1     
   42    4   41 1     
   43   10   42 1     
   44   10   43 1     
   45   18   44 1     
   46   22   45 1     
   47   22   46 1     
@<TRIPOS>SUBSTRUCTURE
      1 S1             1
@<TRIPOS>SET
LONE_PAIRS      STATIC     ATOMS    <user>   **** ""
6 41 42 43 44 45 46
DONOR_HYDROGENS      STATIC     ATOMS    <user>   **** ""
1 31
ATOM$BLUE        STATIC     ATOMS    COLORGROUP SYSTEM
6 41 42 43 44 45 46
ATOM$RED        STATIC     ATOMS    COLORGROUP SYSTEM
1 31
