AV-unprocessed.smi:1453|AV-procd|sdf|5912|dock1
  -GOLD-   22720 5593D 1   1.00000     0.00000
 Structure written by MMmdl.
 43 44  0  0  0  0  0  0  0  0  1 V2000
  149.1318  134.0019  154.5063 C   0  0  0  0  0  0  0  0  0  0  0  0
  149.7102  134.7605  155.7118 C   0  0  1  0  0  0  0  0  0  0  0  0
  150.4420  136.0388  155.2805 C   0  0  0  0  0  0  0  0  0  0  0  0
  151.6279  136.2070  155.5658 O   0  0  0  0  0  0  0  0  0  0  0  0
  149.7191  136.9399  154.5963 N   0  0  0  0  0  0  0  0  0  0  0  0
  150.2273  138.2155  154.1014 C   0  0  0  0  0  0  0  0  0  0  0  0
  150.6915  139.1739  155.1894 C   0  0  0  0  0  0  0  0  0  0  0  0
  149.7535  139.9582  155.8880 C   0  0  0  0  0  0  0  0  0  0  0  0
  150.2043  140.8284  156.8988 C   0  0  0  0  0  0  0  0  0  0  0  0
  151.5874  140.8896  157.1921 C   0  0  0  0  0  0  0  0  0  0  0  0
  152.0621  141.7523  158.2043 N   0  0  0  0  0  0  0  0  0  0  0  0
  151.8452  143.1784  157.9730 C   0  0  0  0  0  0  0  0  0  0  0  0
  152.6622  144.0145  158.9729 C   0  0  0  0  0  0  0  0  0  0  0  0
  152.3491  143.6171  160.3036 O   0  0  0  0  0  0  0  0  0  0  0  0
  152.6766  142.2516  160.5382 C   0  0  0  0  0  0  0  0  0  0  0  0
  151.8580  141.3531  159.5958 C   0  0  0  0  0  0  0  0  0  0  0  0
  152.4883  140.1340  156.5162 N   0  0  0  0  0  0  0  0  0  0  0  0
  152.0505  139.3013  155.5487 C   0  0  0  0  0  0  0  0  0  0  0  0
  148.3543  135.1750  156.9073 S   0  0  0  0  0  0  0  0  0  0  0  0
  146.8416  134.5695  156.0471 C   0  0  0  0  0  0  0  0  0  0  0  0
  148.5330  134.3769  158.1299 O   0  0  0  0  0  0  0  0  0  0  0  0
  148.2685  136.6398  157.0092 O   0  0  0  0  0  0  0  0  0  0  0  0
  149.9044  133.7774  153.7701 H   0  0  0  0  0  0  0  0  0  0  0  0
  148.3504  134.5769  154.0079 H   0  0  0  0  0  0  0  0  0  0  0  0
  148.6927  133.0545  154.8192 H   0  0  0  0  0  0  0  0  0  0  0  0
  150.4083  134.1040  156.2321 H   0  0  0  0  0  0  0  0  0  0  0  0
  148.7503  136.7300  154.4046 H   0  0  0  0  0  0  0  0  0  0  0  0
  151.0389  138.0385  153.3934 H   0  0  0  0  0  0  0  0  0  0  0  0
  149.4298  138.7010  153.5389 H   0  0  0  0  0  0  0  0  0  0  0  0
  148.7010  139.8992  155.6523 H   0  0  0  0  0  0  0  0  0  0  0  0
  149.4898  141.4445  157.4237 H   0  0  0  0  0  0  0  0  0  0  0  0
  152.1205  143.4705  156.9608 H   0  0  0  0  0  0  0  0  0  0  0  0
  150.7823  143.3951  158.0877 H   0  0  0  0  0  0  0  0  0  0  0  0
  153.7322  143.9023  158.7905 H   0  0  0  0  0  0  0  0  0  0  0  0
  152.4292  145.0727  158.8546 H   0  0  0  0  0  0  0  0  0  0  0  0
  153.7467  142.0927  160.3950 H   0  0  0  0  0  0  0  0  0  0  0  0
  152.4548  142.0066  161.5768 H   0  0  0  0  0  0  0  0  0  0  0  0
  150.7975  141.4238  159.8408 H   0  0  0  0  0  0  0  0  0  0  0  0
  152.1580  140.3143  159.7379 H   0  0  0  0  0  0  0  0  0  0  0  0
  152.8138  138.7191  155.0539 H   0  0  0  0  0  0  0  0  0  0  0  0
  145.9633  134.8434  156.6310 H   0  0  0  0  0  0  0  0  0  0  0  0
  146.8784  133.4850  155.9489 H   0  0  0  0  0  0  0  0  0  0  0  0
  146.7738  135.0259  155.0600 H   0  0  0  0  0  0  0  0  0  0  0  0
  1  2  1  0  0  0  0
  1 23  1  0  0  0  0
  1 24  1  0  0  0  0
  1 25  1  0  0  0  0
  2  3  1  0  0  0  0
  2 19  1  0  0  0  0
  2 26  1  0  0  0  0
  3  4  2  0  0  0  0
  3  5  1  0  0  0  0
  5  6  1  0  0  0  0
  5 27  1  0  0  0  0
  6  7  1  0  0  0  0
  6 28  1  0  0  0  0
  6 29  1  0  0  0  0
  7 18  1  0  0  0  0
  7  8  2  0  0  0  0
  8  9  1  0  0  0  0
  8 30  1  0  0  0  0
  9 10  2  0  0  0  0
  9 31  1  0  0  0  0
 10 11  1  0  0  0  0
 10 17  1  0  0  0  0
 11 16  1  0  0  0  0
 11 12  1  0  0  0  0
 12 13  1  0  0  0  0
 12 32  1  0  0  0  0
 12 33  1  0  0  0  0
 13 14  1  0  0  0  0
 13 34  1  0  0  0  0
 13 35  1  0  0  0  0
 14 15  1  0  0  0  0
 15 16  1  0  0  0  0
 15 36  1  0  0  0  0
 15 37  1  0  0  0  0
 16 38  1  0  0  0  0
 16 39  1  0  0  0  0
 17 18  2  0  0  0  0
 18 40  1  0  0  0  0
 19 20  1  0  0  0  0
 19 21  2  0  0  0  0
 19 22  2  0  0  0  0
 20 41  1  0  0  0  0
 20 42  1  0  0  0  0
 20 43  1  0  0  0  0
M  END
> <s_m_source_file>
AV-unprocessed.smi

> <i_m_source_file_index>
1453

> <i_lp_mmshare_version>
43012

> <i_f3d_flags>
0

> <s_epik_input>
W0NIM11TKD1PKSg9TylbQ0BIXShbQ0gzXSlDKD1PKVtOSF1bQ0gyXWMxW2NIXVtjSF1jKG5bY0hdMSlOMltDSDJdW0NIMl1PW0NIMl1bQ0gyXTI=

> <s_epik_cmdline>
J2VwaWtfcHl0aG9uJywgJy1waCcsICc3LjAnLCAnLXRuJywgJzgnLCAnLW1hJywgJzIwMCcsICctbWV0YWxfYmluZGluZycsICctaW1hZScsICc8aW5maWxlLm1hZT4nLCAnLW9tYWUnLCAnPG91dGZpbGUubWFlPic=

> <r_lp_tautomer_probability>
1

> <r_epik_Ionization_Penalty>
0.00349781

> <r_epik_Ionization_Penalty_Charging>
0

> <r_epik_Ionization_Penalty_Neutral>
0.00349781

> <r_epik_State_Penalty>
0.00248024

> <r_epik_Charging_Adjusted_Penalty>
0.00248024

> <i_epik_Tot_Q>
0

> <i_epik_Tot_abs_Q>
0

> <r_epik_Metal_State_Penalty>
-0

> <b_epik_Metal_Only>
0

> <s_lp_Force_Field>
OPLS_2005

> <r_lp_Energy>
14.4852

> <b_lp_Chiralities_Consistent>
1

> <s_lp_Variant>
AV-unprocessed.smi:1453-2

> <Gold.Version>
5.8.1

> <Gold.Id.Protein>
6NUR|6NUR_protein|mol2

> <Gold.PLP.Fitness>
43.0584

> <Gold.PLP.PLP>
-34.7182

> <Gold.PLP.part.hbond>
-3.7973

> <Gold.PLP.part.metal>
0.0000

> <Gold.PLP.part.buried>
-2.1165

> <Gold.PLP.part.nonpolar>
-29.0330

> <Gold.PLP.part.repulsive>
0.1498

> <Gold.PLP.ligand.clash>
0.0000

> <Gold.PLP.ligand.torsion>
0.6195

> <Gold.PLP.Chemscore.Hbond>
3.0000

> <Gold.PLP.Chemscore.CHOScore>
0.0000

> <Gold.PLP.Chemscore.Metal>
0.0000

> <Gold.Chemscore.Hbonds>
donor molecule, donor type, donor heavy atom, donor atom, acceptor molecule, acceptor atom, score
      P1  H  7997  8008       L1    17  1.00
      P1  H 10752 10763       L1     4  1.00

> <Gold.PLP.Chemscore.Internal.Correction>
0.5793

> <Gold.Rescore>
     Score         DG    S(hbond)    S(metal)    S(lipo)     H(rot)  DE(clash)    DE(int)     intcor
     17.27     -19.30       2.90        0.00      80.65       2.08       0.18       1.84       ----

> <Gold.Chemscore.Fitness>
17.2697

> <Gold.Chemscore.DG>
-19.2957

> <Gold.Chemscore.ZeroCoef>
-5.4800

> <Gold.Chemscore.Hbond>
2.9028

> <Gold.Chemscore.Metal>
0.0000

> <Gold.Chemscore.Lipo>
80.6499

> <Gold.Chemscore.Internal_Hbond>
0.0000

> <Gold.Chemscore.DEClash>
0.1828

> <Gold.Chemscore.DEInternal>
1.8433

> <Gold.Chemscore.Rot>
2.0764

> <Gold.Chemscore.Internal.Correction>
   9.000000E+99

> <Gold.Chemscore.Hbonds>
donor molecule, donor type, donor heavy atom, donor atom, acceptor molecule, acceptor atom, score
      P1  H  6896  6907       L1    21  0.04
      P1  H  7997  8008       L1    17  0.55
      P1  H 10752 10763       L1     4  0.99

> <Gold.Chemscore.Hbond.Weighted>
-9.6952

> <Gold.Chemscore.Metal.Weighted>
-0.0000

> <Gold.Chemscore.Lipo.Weighted>
-9.4360

> <Gold.Chemscore.Internal_Hbond.Weighted>
0.0000

> <Gold.Chemscore.DEClash.Weighted>
0.1828

> <Gold.Chemscore.DEInternal.Weighted>
1.8433

> <Gold.Chemscore.Rot.Weighted>
5.3155

> <Gold.Chemscore.Internal.Correction.Weighted>
   9.000000E+99

> <Gold.Protein.RotatedTorsions>
[ 6907 6896 6895 6894 ] final -100.29 input  -60.11 | X-H torsion
[ 7974 7965 7964 7962 ] final -114.33 input  175.53 | X-H torsion
[ 8008 7997 7996 7995 ] final  -43.88 input   59.86 | X-H torsion
[ 10167 10162 10161 10158 ] final   47.67 input  -65.29 | X-H torsion
[ 10718 10713 10712 10709 ] final  -39.69 input   66.30 | X-H torsion
[ 10763 10752 10751 10750 ] final   88.50 input  -60.55 | X-H torsion
[ 11005 11000 10999 10996 ] final   99.73 input  -57.11 | X-H torsion

> <Gold.Protein.ActiveResidues>
 VAL166  LYS551  ARG553  GLY616  TRP617  ASP618  TYR619  PRO620  LYS621  CYS622 
 ASP623  PHE694  ASN695  SER759  ASP760  ASP761  ALA762  ILE779  LEU786  VAL792 
 PHE793  MET794  SER795  GLU796  ALA797  LYS798  CYS799  TRP800  GLU811  SER814 

> <Gold.Protein.RotatedAtoms>
  150.7110  134.0909  159.3931 H   0  0  0  0  0  0  0  0  0  0  0  0  # atno 6907 bound_to 6896
  151.8895  135.0420  160.0506 H   0  0  0  0  0  0  0  0  0  0  0  0  # atno 6908 bound_to 6896
  152.2503  133.5174  159.5358 H   0  0  0  0  0  0  0  0  0  0  0  0  # atno 6909 bound_to 6896
  145.1215  140.8671  143.3811 H   0  0  0  0  0  0  0  0  0  0  0  0  # atno 7974 bound_to 7965
  154.3997  140.1436  156.3592 H   0  0  0  0  0  0  0  0  0  0  0  0  # atno 8008 bound_to 7997
  155.8197  140.3470  155.5486 H   0  0  0  0  0  0  0  0  0  0  0  0  # atno 8009 bound_to 7997
  155.8301  140.0911  157.1788 H   0  0  0  0  0  0  0  0  0  0  0  0  # atno 8010 bound_to 7997
  140.3013  144.2931  150.6218 H   0  0  0  0  0  0  0  0  0  0  0  0  # atno 10167 bound_to 10162
  156.2896  130.4227  149.8252 H   0  0  0  0  0  0  0  0  0  0  0  0  # atno 10718 bound_to 10713
  153.1775  135.4504  154.9984 H   0  0  0  0  0  0  0  0  0  0  0  0  # atno 10763 bound_to 10752
  154.8008  135.3255  154.7557 H   0  0  0  0  0  0  0  0  0  0  0  0  # atno 10764 bound_to 10752
  153.8026  135.6961  153.4908 H   0  0  0  0  0  0  0  0  0  0  0  0  # atno 10765 bound_to 10752
  139.8770  134.9108  156.4649 H   0  0  0  0  0  0  0  0  0  0  0  0  # atno 11005 bound_to 11000
  145.0735  139.3013  143.5819 LP  0  0  0  0  0  0  0  0  0  0  0  0  # atno 17320 bound_to 7965
  146.3520  140.0218  142.8658 LP  0  0  0  0  0  0  0  0  0  0  0  0  # atno 17321 bound_to 7965
  140.5649  143.2187  151.7701 LP  0  0  0  0  0  0  0  0  0  0  0  0  # atno 17342 bound_to 10162
  139.4914  144.4298  151.9885 LP  0  0  0  0  0  0  0  0  0  0  0  0  # atno 17343 bound_to 10162
  156.5669  130.8408  151.3345 LP  0  0  0  0  0  0  0  0  0  0  0  0  # atno 17370 bound_to 10713
  157.7339  130.9737  150.1999 LP  0  0  0  0  0  0  0  0  0  0  0  0  # atno 17371 bound_to 10713
  140.8837  133.7899  155.9495 LP  0  0  0  0  0  0  0  0  0  0  0  0  # atno 17394 bound_to 11000
  140.8827  134.2592  157.5136 LP  0  0  0  0  0  0  0  0  0  0  0  0  # atno 17395 bound_to 11000

$$$$
