AV-unprocessed.smi:1005|AV-procd|sdf|4367|dock7
  -GOLD-   22720 2273D 1   1.00000     0.00000
 Structure written by MMmdl.
 57 59  0  0  0  0  0  0  0  0  3 V2000
  153.1751  142.8737  162.3952 C   0  0  0  0  0  0  0  0  0  0  0  0
  152.7913  142.4467  160.9894 C   0  0  0  0  0  0  0  0  0  0  0  0
  151.9872  143.3048  160.2059 C   0  0  0  0  0  0  0  0  0  0  0  0
  151.6095  142.9452  158.8937 C   0  0  0  0  0  0  0  0  0  0  0  0
  150.8425  143.6224  157.9611 N   0  0  0  0  0  0  0  0  0  0  0  0
  150.8544  142.7745  156.9370 C   0  0  0  0  0  0  0  0  0  0  0  0
  151.5433  141.6276  157.0934 N   0  0  0  0  0  0  0  0  0  0  0  0
  151.6997  140.5629  156.1177 C   0  0  0  0  0  0  0  0  0  0  0  0
  150.3584  140.1308  155.4934 C   0  0  1  0  0  0  0  0  0  0  0  0
  150.5919  139.5637  154.2182 O   0  0  0  0  0  0  0  0  0  0  0  0
  149.6309  139.0898  156.3685 C   0  0  0  0  0  0  0  0  0  0  0  0
  148.2276  138.8558  155.9398 N   0  3  1  0  0  0  0  0  0  0  0  0
  147.5983  137.7183  156.6511 C   0  0  0  0  0  0  0  0  0  0  0  0
  146.1773  137.4736  156.1181 C   0  0  0  0  0  0  0  0  0  0  0  0
  145.4084  138.6635  156.2464 O   0  0  0  0  0  0  0  0  0  0  0  0
  145.9484  139.7429  155.4907 C   0  0  1  0  0  0  0  0  0  0  0  0
  145.0019  140.9496  155.6372 C   0  0  0  0  0  0  0  0  0  0  0  0
  145.0911  141.8989  154.4975 N   0  3  0  0  0  0  0  0  0  0  0  0
  146.4806  142.2827  154.1554 C   0  0  0  0  0  0  0  0  0  0  0  0
  144.2368  143.0903  154.6997 C   0  0  0  0  0  0  0  0  0  0  0  0
  147.3611  140.0577  156.0235 C   0  0  0  0  0  0  0  0  0  0  0  0
  152.0609  141.6931  158.3831 C   0  0  0  0  0  0  0  0  0  0  0  0
  152.8592  140.8297  159.1540 C   0  0  0  0  0  0  0  0  0  0  0  0
  153.2293  141.2053  160.4622 C   0  0  0  0  0  0  0  0  0  0  0  0
  154.0939  140.2672  161.2852 C   0  0  0  0  0  0  0  0  0  0  0  0
  152.7345  143.8371  162.6537 H   0  0  0  0  0  0  0  0  0  0  0  0
  154.2578  142.9663  162.4835 H   0  0  0  0  0  0  0  0  0  0  0  0
  152.8288  142.1415  163.1248 H   0  0  0  0  0  0  0  0  0  0  0  0
  151.6533  144.2505  160.6074 H   0  0  0  0  0  0  0  0  0  0  0  0
  150.3335  143.0012  156.0183 H   0  0  0  0  0  0  0  0  0  0  0  0
  152.3954  140.8965  155.3464 H   0  0  0  0  0  0  0  0  0  0  0  0
  152.1717  139.7139  156.6140 H   0  0  0  0  0  0  0  0  0  0  0  0
  149.7395  141.0181  155.3637 H   0  0  0  0  0  0  0  0  0  0  0  0
  149.7572  139.3595  153.8226 H   0  0  0  0  0  0  0  0  0  0  0  0
  150.1839  138.1503  156.3156 H   0  0  0  0  0  0  0  0  0  0  0  0
  149.6445  139.3925  157.4168 H   0  0  0  0  0  0  0  0  0  0  0  0
  148.1985  136.8174  156.5172 H   0  0  0  0  0  0  0  0  0  0  0  0
  147.5661  137.9274  157.7218 H   0  0  0  0  0  0  0  0  0  0  0  0
  146.2011  137.1512  155.0759 H   0  0  0  0  0  0  0  0  0  0  0  0
  145.6945  136.6780  156.6860 H   0  0  0  0  0  0  0  0  0  0  0  0
  146.0279  139.4534  154.4424 H   0  0  0  0  0  0  0  0  0  0  0  0
  143.9804  140.5738  155.7167 H   0  0  0  0  0  0  0  0  0  0  0  0
  145.2044  141.4851  156.5660 H   0  0  0  0  0  0  0  0  0  0  0  0
  146.9650  142.7872  154.9926 H   0  0  0  0  0  0  0  0  0  0  0  0
  146.4906  142.9615  153.3018 H   0  0  0  0  0  0  0  0  0  0  0  0
  147.0830  141.4174  153.8825 H   0  0  0  0  0  0  0  0  0  0  0  0
  144.5611  143.6606  155.5711 H   0  0  0  0  0  0  0  0  0  0  0  0
  143.1961  142.8007  154.8474 H   0  0  0  0  0  0  0  0  0  0  0  0
  144.2738  143.7460  153.8289 H   0  0  0  0  0  0  0  0  0  0  0  0
  147.3085  140.3979  157.0593 H   0  0  0  0  0  0  0  0  0  0  0  0
  147.7882  140.8734  155.4416 H   0  0  0  0  0  0  0  0  0  0  0  0
  153.1865  139.8873  158.7406 H   0  0  0  0  0  0  0  0  0  0  0  0
  154.3681  139.3778  160.7173 H   0  0  0  0  0  0  0  0  0  0  0  0
  153.5601  139.9427  162.1786 H   0  0  0  0  0  0  0  0  0  0  0  0
  155.0145  140.7639  161.5925 H   0  0  0  0  0  0  0  0  0  0  0  0
  144.7111  141.4209  153.6926 H   0  0  0  0  0  0  0  0  0  0  0  0
  148.2757  138.5888  154.9662 H   0  0  0  0  0  0  0  0  0  0  0  0
  1  2  1  0  0  0  0
  1 26  1  0  0  0  0
  1 27  1  0  0  0  0
  1 28  1  0  0  0  0
  2 24  1  0  0  0  0
  2  3  2  0  0  0  0
  3  4  1  0  0  0  0
  3 29  1  0  0  0  0
  4 22  2  0  0  0  0
  4  5  1  0  0  0  0
  5  6  2  0  0  0  0
  6  7  1  0  0  0  0
  6 30  1  0  0  0  0
  7  8  1  0  0  0  0
  7 22  1  0  0  0  0
  8  9  1  0  0  0  0
  8 31  1  0  0  0  0
  8 32  1  0  0  0  0
  9 10  1  0  0  0  0
  9 11  1  0  0  0  0
  9 33  1  0  0  0  0
 10 34  1  0  0  0  0
 11 12  1  0  0  0  0
 11 35  1  0  0  0  0
 11 36  1  0  0  0  0
 12 21  1  0  0  0  0
 12 13  1  0  0  0  0
 12 57  1  0  0  0  0
 13 14  1  0  0  0  0
 13 37  1  0  0  0  0
 13 38  1  0  0  0  0
 14 15  1  0  0  0  0
 14 39  1  0  0  0  0
 14 40  1  0  0  0  0
 15 16  1  0  0  0  0
 16 17  1  0  0  0  0
 16 21  1  0  0  0  0
 16 41  1  0  0  0  0
 17 18  1  0  0  0  0
 17 42  1  0  0  0  0
 17 43  1  0  0  0  0
 18 19  1  0  0  0  0
 18 20  1  0  0  0  0
 18 56  1  0  0  0  0
 19 44  1  0  0  0  0
 19 45  1  0  0  0  0
 19 46  1  0  0  0  0
 20 47  1  0  0  0  0
 20 48  1  0  0  0  0
 20 49  1  0  0  0  0
 21 50  1  0  0  0  0
 21 51  1  0  0  0  0
 22 23  1  0  0  0  0
 23 24  2  0  0  0  0
 23 52  1  0  0  0  0
 24 25  1  0  0  0  0
 25 53  1  0  0  0  0
 25 54  1  0  0  0  0
 25 55  1  0  0  0  0
M  CHG  1  12   1
M  CHG  1  18   1
M  END
> <s_m_source_file>
AV-unprocessed.smi

> <i_m_source_file_index>
1005

> <i_lp_mmshare_version>
43012

> <i_f3d_flags>
0

> <s_epik_input>
W0NIM11jKFtjSF0xKWMoW0NIM10pW2NIXWMoYzEyKW4oW2NIXW4yKVtDSDJdW0NASF0oW09IXSlbQ0gyXU4zW0NIMl1bQ0gyXU9bQ0BIXShbQ0gyXTMpW0NIMl1OKFtDSDNdKVtDSDNd

> <s_epik_cmdline>
J2VwaWtfcHl0aG9uJywgJy1waCcsICc3LjAnLCAnLXRuJywgJzgnLCAnLW1hJywgJzIwMCcsICctbWV0YWxfYmluZGluZycsICctaW1hZScsICc8aW5maWxlLm1hZT4nLCAnLW9tYWUnLCAnPG91dGZpbGUubWFlPic=

> <r_epik_Ionization_Penalty>
1.0968

> <r_epik_Ionization_Penalty_Charging>
1.0096

> <r_epik_Ionization_Penalty_Neutral>
0.0871956

> <r_epik_State_Penalty>
1.31185

> <r_epik_Charging_Adjusted_Penalty>
2.32145

> <i_epik_Tot_Q>
2

> <i_epik_Tot_abs_Q>
2

> <r_epik_Metal_State_Penalty>
1.22442

> <b_epik_Metal_Only>
0

> <s_lp_Force_Field>
OPLS_2005

> <r_lp_Energy>
33.8035

> <b_lp_Chiralities_Consistent>
1

> <s_lp_Variant>
AV-unprocessed.smi:1005-6

> <Gold.Version>
5.8.1

> <Gold.Id.Protein>
6NUR|6NUR_protein|mol2

> <Gold.PLP.Fitness>
50.6710

> <Gold.PLP.PLP>
-40.1092

> <Gold.PLP.part.hbond>
-2.4108

> <Gold.PLP.part.metal>
0.0000

> <Gold.PLP.part.buried>
-5.3517

> <Gold.PLP.part.nonpolar>
-31.9296

> <Gold.PLP.part.repulsive>
0.1562

> <Gold.PLP.ligand.clash>
0.0000

> <Gold.PLP.ligand.torsion>
0.7785

> <Gold.PLP.Chemscore.Hbond>
3.0000

> <Gold.PLP.Chemscore.CHOScore>
1.0000

> <Gold.PLP.Chemscore.Metal>
0.0000

> <Gold.Chemscore.Hbonds>
donor molecule, donor type, donor heavy atom, donor atom, acceptor molecule, acceptor atom, score
      L1  H    18    56       P1 10175  1.80
      P1  H  7989  7998       L1    10  1.00
      L1  C     6    30       P1  8028  0.94

> <Gold.PLP.Chemscore.Internal.Correction>
0.1189

> <Gold.Rescore>
     Score         DG    S(hbond)    S(metal)    S(lipo)     H(rot)  DE(clash)    DE(int)     intcor
     16.69     -17.82       1.86        0.00     106.81       2.48       0.19       0.95       ----

> <Gold.Chemscore.Fitness>
16.6857

> <Gold.Chemscore.DG>
-17.8229

> <Gold.Chemscore.ZeroCoef>
-5.4800

> <Gold.Chemscore.Hbond>
1.8557

> <Gold.Chemscore.Metal>
0.0000

> <Gold.Chemscore.Lipo>
106.8139

> <Gold.Chemscore.Internal_Hbond>
0.0000

> <Gold.Chemscore.DEClash>
0.1871

> <Gold.Chemscore.DEInternal>
0.9501

> <Gold.Chemscore.Rot>
2.4814

> <Gold.Chemscore.Internal.Correction>
   9.000000E+99

> <Gold.Chemscore.Hbonds>
donor molecule, donor type, donor heavy atom, donor atom, acceptor molecule, acceptor atom, score
      L1  H    18    56       P1 10175  0.18
      P1  H  7989  7998       L1    10  0.25

> <Gold.Chemscore.Hbond.Weighted>
-6.1980

> <Gold.Chemscore.Metal.Weighted>
-0.0000

> <Gold.Chemscore.Lipo.Weighted>
-12.4972

> <Gold.Chemscore.Internal_Hbond.Weighted>
0.0000

> <Gold.Chemscore.DEClash.Weighted>
0.1871

> <Gold.Chemscore.DEInternal.Weighted>
0.9501

> <Gold.Chemscore.Rot.Weighted>
6.3524

> <Gold.Chemscore.Internal.Correction.Weighted>
   9.000000E+99

> <Gold.Protein.RotatedTorsions>
[ 6907 6896 6895 6894 ] final  176.24 input  -60.11 | X-H torsion
[ 7974 7965 7964 7962 ] final   88.22 input  175.53 | X-H torsion
[ 8008 7997 7996 7995 ] final  101.79 input   59.86 | X-H torsion
[ 10167 10162 10161 10158 ] final   49.29 input  -65.29 | X-H torsion
[ 10718 10713 10712 10709 ] final -122.25 input   66.30 | X-H torsion
[ 10763 10752 10751 10750 ] final   73.74 input  -60.55 | X-H torsion
[ 11005 11000 10999 10996 ] final  171.91 input  -57.11 | X-H torsion

> <Gold.Protein.ActiveResidues>
 VAL166  LYS551  ARG553  GLY616  TRP617  ASP618  TYR619  PRO620  LYS621  CYS622 
 ASP623  PHE694  ASN695  SER759  ASP760  ASP761  ALA762  ILE779  LEU786  VAL792 
 PHE793  MET794  SER795  GLU796  ALA797  LYS798  CYS799  TRP800  GLU811  SER814 

> <Gold.Protein.RotatedAtoms>
  151.7233  133.3315  159.3320 H   0  0  0  0  0  0  0  0  0  0  0  0  # atno 6907 bound_to 6896
  150.7643  134.6429  159.6256 H   0  0  0  0  0  0  0  0  0  0  0  0  # atno 6908 bound_to 6896
  152.3638  134.6836  160.0250 H   0  0  0  0  0  0  0  0  0  0  0  0  # atno 6909 bound_to 6896
  145.5486  139.2294  143.2525 H   0  0  0  0  0  0  0  0  0  0  0  0  # atno 7974 bound_to 7965
  156.1332  140.3192  155.8381 H   0  0  0  0  0  0  0  0  0  0  0  0  # atno 8008 bound_to 7997
  155.4293  140.0517  157.3037 H   0  0  0  0  0  0  0  0  0  0  0  0  # atno 8009 bound_to 7997
  154.4916  140.2094  155.9549 H   0  0  0  0  0  0  0  0  0  0  0  0  # atno 8010 bound_to 7997
  140.2844  144.3119  150.6256 H   0  0  0  0  0  0  0  0  0  0  0  0  # atno 10167 bound_to 10162
  156.1403  130.6461  150.9760 H   0  0  0  0  0  0  0  0  0  0  0  0  # atno 10718 bound_to 10713
  153.0541  135.5052  154.7938 H   0  0  0  0  0  0  0  0  0  0  0  0  # atno 10763 bound_to 10752
  154.6777  135.2963  154.9658 H   0  0  0  0  0  0  0  0  0  0  0  0  # atno 10764 bound_to 10752
  154.0454  135.6711  153.4847 H   0  0  0  0  0  0  0  0  0  0  0  0  # atno 10765 bound_to 10752
  140.3240  134.7413  157.4085 H   0  0  0  0  0  0  0  0  0  0  0  0  # atno 11005 bound_to 11000
  146.1932  140.6308  142.9136 LP  0  0  0  0  0  0  0  0  0  0  0  0  # atno 17320 bound_to 7965
  144.7541  140.5263  143.6781 LP  0  0  0  0  0  0  0  0  0  0  0  0  # atno 17321 bound_to 7965
  140.5785  143.2174  151.7472 LP  0  0  0  0  0  0  0  0  0  0  0  0  # atno 17342 bound_to 10162
  139.4954  144.4115  152.0076 LP  0  0  0  0  0  0  0  0  0  0  0  0  # atno 17343 bound_to 10162
  157.6569  131.0887  150.7926 LP  0  0  0  0  0  0  0  0  0  0  0  0  # atno 17370 bound_to 10713
  156.8002  130.4918  149.5371 LP  0  0  0  0  0  0  0  0  0  0  0  0  # atno 17371 bound_to 10713
  140.0917  134.5592  155.8438 LP  0  0  0  0  0  0  0  0  0  0  0  0  # atno 17394 bound_to 11000
  141.2079  133.6669  156.6339 LP  0  0  0  0  0  0  0  0  0  0  0  0  # atno 17395 bound_to 11000

$$$$
