AV-unprocessed.smi:1523|AV-procd|sdf|6138|dock7
  -GOLD-   22720 6283D 1   1.00000     0.00000
 Structure written by MMmdl.
 37 38  0  0  0  0  0  0  0  0  1 V2000
  145.1969  143.7971  154.1204 C   0  0  0  0  0  0  0  0  0  0  0  0
  146.2778  142.7763  154.2214 C   0  0  0  0  0  0  0  0  0  0  0  0
  146.8492  142.4201  155.3746 N   0  0  0  0  0  0  0  0  0  0  0  0
  147.8372  141.4443  155.2076 C   0  0  0  0  0  0  0  0  0  0  0  0
  148.5792  140.9197  156.3992 C   0  0  0  0  0  0  0  0  0  0  0  0
  150.0995  140.8955  156.1715 C   0  0  0  0  0  0  0  0  0  0  0  0
  150.7865  141.8451  157.0391 N   0  0  0  0  0  0  0  0  0  0  0  0
  151.9247  141.6032  157.7117 C   0  0  0  0  0  0  0  0  0  0  0  0
  152.5013  140.5165  157.6490 O   0  0  0  0  0  0  0  0  0  0  0  0
  152.3771  142.6439  158.4574 N   0  0  0  0  0  0  0  0  0  0  0  0
  151.8833  144.0321  158.4128 C   0  0  0  0  0  0  0  0  0  0  0  0
  151.0840  144.3159  159.6976 C   0  0  0  0  0  0  0  0  0  0  0  0
  151.9510  144.0555  160.9459 C   0  0  0  0  0  0  0  0  0  0  0  0
  151.1603  144.1650  162.1103 O   0  0  0  0  0  0  0  0  0  0  0  0
  152.6165  142.6656  160.8935 C   0  0  0  0  0  0  0  0  0  0  0  0
  153.3416  142.4576  159.5504 C   0  0  0  0  0  0  0  0  0  0  0  0
  148.0068  141.0649  153.8993 C   0  0  0  0  0  0  0  0  0  0  0  0
  146.9324  141.9225  152.8292 S   0  0  0  0  0  0  0  0  0  0  0  0
  144.5839  143.7925  155.0223 H   0  0  0  0  0  0  0  0  0  0  0  0
  144.5569  143.5843  153.2639 H   0  0  0  0  0  0  0  0  0  0  0  0
  145.6317  144.7889  153.9956 H   0  0  0  0  0  0  0  0  0  0  0  0
  148.3494  141.5299  157.2738 H   0  0  0  0  0  0  0  0  0  0  0  0
  148.2310  139.9139  156.6380 H   0  0  0  0  0  0  0  0  0  0  0  0
  150.4922  139.9014  156.3864 H   0  0  0  0  0  0  0  0  0  0  0  0
  150.3336  141.1018  155.1255 H   0  0  0  0  0  0  0  0  0  0  0  0
  150.3649  142.7568  157.1387 H   0  0  0  0  0  0  0  0  0  0  0  0
  152.7352  144.7108  158.3493 H   0  0  0  0  0  0  0  0  0  0  0  0
  151.2732  144.2588  157.5385 H   0  0  0  0  0  0  0  0  0  0  0  0
  150.7265  145.3461  159.6958 H   0  0  0  0  0  0  0  0  0  0  0  0
  150.1984  143.6786  159.7181 H   0  0  0  0  0  0  0  0  0  0  0  0
  152.7310  144.8162  160.9990 H   0  0  0  0  0  0  0  0  0  0  0  0
  150.3582  143.6833  161.9762 H   0  0  0  0  0  0  0  0  0  0  0  0
  153.3188  142.5527  161.7201 H   0  0  0  0  0  0  0  0  0  0  0  0
  151.8623  141.8868  161.0182 H   0  0  0  0  0  0  0  0  0  0  0  0
  153.8169  141.4759  159.5346 H   0  0  0  0  0  0  0  0  0  0  0  0
  154.1527  143.1794  159.4454 H   0  0  0  0  0  0  0  0  0  0  0  0
  148.6956  140.3342  153.5018 H   0  0  0  0  0  0  0  0  0  0  0  0
  1  2  1  0  0  0  0
  1 19  1  0  0  0  0
  1 20  1  0  0  0  0
  1 21  1  0  0  0  0
  2 18  1  0  0  0  0
  2  3  2  0  0  0  0
  3  4  1  0  0  0  0
  4  5  1  0  0  0  0
  4 17  2  0  0  0  0
  5  6  1  0  0  0  0
  5 22  1  0  0  0  0
  5 23  1  0  0  0  0
  6  7  1  0  0  0  0
  6 24  1  0  0  0  0
  6 25  1  0  0  0  0
  7  8  1  0  0  0  0
  7 26  1  0  0  0  0
  8  9  2  0  0  0  0
  8 10  1  0  0  0  0
 10 16  1  0  0  0  0
 10 11  1  0  0  0  0
 11 12  1  0  0  0  0
 11 27  1  0  0  0  0
 11 28  1  0  0  0  0
 12 13  1  0  0  0  0
 12 29  1  0  0  0  0
 12 30  1  0  0  0  0
 13 14  1  0  0  0  0
 13 15  1  0  0  0  0
 13 31  1  0  0  0  0
 14 32  1  0  0  0  0
 15 16  1  0  0  0  0
 15 33  1  0  0  0  0
 15 34  1  0  0  0  0
 16 35  1  0  0  0  0
 16 36  1  0  0  0  0
 17 18  1  0  0  0  0
 17 37  1  0  0  0  0
M  END
> <s_m_source_file>
AV-unprocessed.smi

> <i_m_source_file_index>
1523

> <i_lp_mmshare_version>
43012

> <i_f3d_flags>
0

> <s_epik_input>
W0NIM11jMW5jKFtjSF1zMSlbQ0gyXVtDSDJdW05IXUMoPU8pTjJbQ0gyXVtDSDJdW0NIXShbT0hdKVtDSDJdW0NIMl0y

> <s_epik_cmdline>
J2VwaWtfcHl0aG9uJywgJy1waCcsICc3LjAnLCAnLXRuJywgJzgnLCAnLW1hJywgJzIwMCcsICctbWV0YWxfYmluZGluZycsICctaW1hZScsICc8aW5maWxlLm1hZT4nLCAnLW9tYWUnLCAnPG91dGZpbGUubWFlPic=

> <r_epik_Ionization_Penalty>
0.00204564

> <r_epik_Ionization_Penalty_Charging>
0

> <r_epik_Ionization_Penalty_Neutral>
0.00204564

> <r_epik_State_Penalty>
0.00135655

> <r_epik_Charging_Adjusted_Penalty>
0.00135655

> <i_epik_Tot_Q>
0

> <i_epik_Tot_abs_Q>
0

> <r_epik_Metal_State_Penalty>
-0

> <b_epik_Metal_Only>
0

> <s_lp_Force_Field>
OPLS_2005

> <r_lp_Energy>
24.1717

> <b_lp_Chiralities_Consistent>
1

> <s_lp_Variant>
AV-unprocessed.smi:1523-1

> <Gold.Version>
5.8.1

> <Gold.Id.Protein>
6NUR|6NUR_protein|mol2

> <Gold.PLP.Fitness>
42.7059

> <Gold.PLP.PLP>
-39.2956

> <Gold.PLP.part.hbond>
-3.1708

> <Gold.PLP.part.metal>
0.0000

> <Gold.PLP.part.buried>
-7.0362

> <Gold.PLP.part.nonpolar>
-29.0238

> <Gold.PLP.part.repulsive>
0.7382

> <Gold.PLP.ligand.clash>
0.0000

> <Gold.PLP.ligand.torsion>
0.7099

> <Gold.PLP.Chemscore.Hbond>
0.6037

> <Gold.PLP.Chemscore.CHOScore>
1.0000

> <Gold.PLP.Chemscore.Metal>
0.0000

> <Gold.Chemscore.Hbonds>
donor molecule, donor type, donor heavy atom, donor atom, acceptor molecule, acceptor atom, score
      P1  H  7997  8008       L1     9  0.60
      L1  C    17    37       P1  7957  1.00

> <Gold.PLP.Chemscore.Internal.Correction>
0.0191

> <Gold.Rescore>
     Score         DG    S(hbond)    S(metal)    S(lipo)     H(rot)  DE(clash)    DE(int)     intcor
     11.65     -14.20       0.67        0.00      96.17       1.86       1.84       0.71       ----

> <Gold.Chemscore.Fitness>
11.6483

> <Gold.Chemscore.DG>
-14.1987

> <Gold.Chemscore.ZeroCoef>
-5.4800

> <Gold.Chemscore.Hbond>
0.6678

> <Gold.Chemscore.Metal>
0.0000

> <Gold.Chemscore.Lipo>
96.1675

> <Gold.Chemscore.Internal_Hbond>
0.0000

> <Gold.Chemscore.DEClash>
1.8407

> <Gold.Chemscore.DEInternal>
0.7098

> <Gold.Chemscore.Rot>
1.8607

> <Gold.Chemscore.Internal.Correction>
   9.000000E+99

> <Gold.Chemscore.Hbonds>
donor molecule, donor type, donor heavy atom, donor atom, acceptor molecule, acceptor atom, score
      P1  H  7997  8008       L1     9  0.58

> <Gold.Chemscore.Hbond.Weighted>
-2.2304

> <Gold.Chemscore.Metal.Weighted>
-0.0000

> <Gold.Chemscore.Lipo.Weighted>
-11.2516

> <Gold.Chemscore.Internal_Hbond.Weighted>
0.0000

> <Gold.Chemscore.DEClash.Weighted>
1.8407

> <Gold.Chemscore.DEInternal.Weighted>
0.7098

> <Gold.Chemscore.Rot.Weighted>
4.7633

> <Gold.Chemscore.Internal.Correction.Weighted>
   9.000000E+99

> <Gold.Protein.RotatedTorsions>
[ 6907 6896 6895 6894 ] final    4.73 input  -60.11 | X-H torsion
[ 7974 7965 7964 7962 ] final  -19.71 input  175.53 | X-H torsion
[ 8008 7997 7996 7995 ] final  -65.84 input   59.86 | X-H torsion
[ 10167 10162 10161 10158 ] final  -88.35 input  -65.29 | X-H torsion
[ 10718 10713 10712 10709 ] final -172.83 input   66.30 | X-H torsion
[ 10763 10752 10751 10750 ] final  109.93 input  -60.55 | X-H torsion
[ 11005 11000 10999 10996 ] final  -42.50 input  -57.11 | X-H torsion

> <Gold.Protein.ActiveResidues>
 VAL166  LYS551  ARG553  GLY616  TRP617  ASP618  TYR619  PRO620  LYS621  CYS622 
 ASP623  PHE694  ASN695  SER759  ASP760  ASP761  ALA762  ILE779  LEU786  VAL792 
 PHE793  MET794  SER795  GLU796  ALA797  LYS798  CYS799  TRP800  GLU811  SER814 

> <Gold.Protein.RotatedAtoms>
  151.6461  135.1007  160.0150 H   0  0  0  0  0  0  0  0  0  0  0  0  # atno 6907 bound_to 6896
  152.4027  133.6838  159.6338 H   0  0  0  0  0  0  0  0  0  0  0  0  # atno 6908 bound_to 6896
  150.7925  133.8680  159.3291 H   0  0  0  0  0  0  0  0  0  0  0  0  # atno 6909 bound_to 6896
  146.1827  140.4100  142.8488 H   0  0  0  0  0  0  0  0  0  0  0  0  # atno 7974 bound_to 7965
  154.4697  140.0925  156.7112 H   0  0  0  0  0  0  0  0  0  0  0  0  # atno 8008 bound_to 7997
  155.4759  140.3466  155.4314 H   0  0  0  0  0  0  0  0  0  0  0  0  # atno 8009 bound_to 7997
  156.1018  140.1424  156.9446 H   0  0  0  0  0  0  0  0  0  0  0  0  # atno 8010 bound_to 7997
  140.3755  143.2773  151.9448 H   0  0  0  0  0  0  0  0  0  0  0  0  # atno 10167 bound_to 10162
  156.7613  130.9414  151.3118 H   0  0  0  0  0  0  0  0  0  0  0  0  # atno 10718 bound_to 10713
  153.4417  135.3764  155.2232 H   0  0  0  0  0  0  0  0  0  0  0  0  # atno 10763 bound_to 10752
  154.8754  135.3864  154.4144 H   0  0  0  0  0  0  0  0  0  0  0  0  # atno 10764 bound_to 10752
  153.4691  135.7087  153.6068 H   0  0  0  0  0  0  0  0  0  0  0  0  # atno 10765 bound_to 10752
  141.0320  133.6816  156.2603 H   0  0  0  0  0  0  0  0  0  0  0  0  # atno 11005 bound_to 11000
  144.8343  140.6757  143.6271 LP  0  0  0  0  0  0  0  0  0  0  0  0  # atno 17320 bound_to 7965
  145.4029  139.1594  143.4167 LP  0  0  0  0  0  0  0  0  0  0  0  0  # atno 17321 bound_to 7965
  139.4800  144.5867  151.7841 LP  0  0  0  0  0  0  0  0  0  0  0  0  # atno 17342 bound_to 10162
  140.4990  144.1197  150.5967 LP  0  0  0  0  0  0  0  0  0  0  0  0  # atno 17343 bound_to 10162
  157.6733  130.9071  150.0091 LP  0  0  0  0  0  0  0  0  0  0  0  0  # atno 17370 bound_to 10713
  156.1337  130.3643  149.9691 LP  0  0  0  0  0  0  0  0  0  0  0  0  # atno 17371 bound_to 10713
  140.6390  134.5185  157.5567 LP  0  0  0  0  0  0  0  0  0  0  0  0  # atno 17394 bound_to 11000
  139.9214  134.8141  156.1200 LP  0  0  0  0  0  0  0  0  0  0  0  0  # atno 17395 bound_to 11000

$$$$
