AV-unprocessed.smi:3003|AV-procd|sdf|11437|dock1
  -GOLD-   2272016363D 1   1.00000     0.00000
 Structure written by MMmdl.
 41 42  0  0  0  0  0  0  0  0  1 V2000
  154.9490  142.4827  168.4398 C   0  0  0  0  0  0  0  0  0  0  0  0
  155.3495  141.9737  166.7461 S   0  0  0  0  0  0  0  0  0  0  0  0
  155.7635  140.2210  166.9981 C   0  0  2  0  0  0  0  0  0  0  0  0
  157.0700  140.0952  167.7971 C   0  0  0  0  0  0  0  0  0  0  0  0
  155.8571  139.4566  165.6720 C   0  0  0  0  0  0  0  0  0  0  0  0
  156.1400  138.2579  165.6643 O   0  0  0  0  0  0  0  0  0  0  0  0
  155.6310  140.1650  164.5544 N   0  0  0  0  0  0  0  0  0  0  0  0
  155.7048  139.6290  163.1998 C   0  0  0  0  0  0  0  0  0  0  0  0
  154.9150  140.4432  162.1884 C   0  0  0  0  0  0  0  0  0  0  0  0
  154.1466  141.5565  162.5831 C   0  0  0  0  0  0  0  0  0  0  0  0
  153.4373  142.2786  161.6049 C   0  0  0  0  0  0  0  0  0  0  0  0
  153.5087  141.8642  160.2532 C   0  0  0  0  0  0  0  0  0  0  0  0
  152.8059  142.5729  159.2544 N   0  0  0  0  0  0  0  0  0  0  0  0
  152.4417  143.9479  159.5878 C   0  0  0  0  0  0  0  0  0  0  0  0
  151.9739  144.6981  158.3288 C   0  0  0  0  0  0  0  0  0  0  0  0
  150.9130  143.9816  157.7058 O   0  0  0  0  0  0  0  0  0  0  0  0
  151.3237  142.6839  157.2894 C   0  0  0  0  0  0  0  0  0  0  0  0
  151.7656  141.8628  158.5123 C   0  0  0  0  0  0  0  0  0  0  0  0
  154.2495  140.7913  159.8793 N   0  0  0  0  0  0  0  0  0  0  0  0
  154.9282  140.1030  160.8211 C   0  0  0  0  0  0  0  0  0  0  0  0
  154.7387  143.5516  168.4686 H   0  0  0  0  0  0  0  0  0  0  0  0
  155.7838  142.2768  169.1093 H   0  0  0  0  0  0  0  0  0  0  0  0
  154.0693  141.9528  168.8026 H   0  0  0  0  0  0  0  0  0  0  0  0
  154.9641  139.7857  167.5996 H   0  0  0  0  0  0  0  0  0  0  0  0
  157.3385  139.0504  167.9585 H   0  0  0  0  0  0  0  0  0  0  0  0
  156.9715  140.5619  168.7778 H   0  0  0  0  0  0  0  0  0  0  0  0
  157.9029  140.5790  167.2849 H   0  0  0  0  0  0  0  0  0  0  0  0
  155.4031  141.1442  164.6486 H   0  0  0  0  0  0  0  0  0  0  0  0
  156.7472  139.5439  162.8876 H   0  0  0  0  0  0  0  0  0  0  0  0
  155.3036  138.6154  163.2117 H   0  0  0  0  0  0  0  0  0  0  0  0
  154.1030  141.8588  163.6191 H   0  0  0  0  0  0  0  0  0  0  0  0
  152.8634  143.1443  161.8991 H   0  0  0  0  0  0  0  0  0  0  0  0
  151.6412  143.9291  160.3287 H   0  0  0  0  0  0  0  0  0  0  0  0
  153.2731  144.4912  160.0344 H   0  0  0  0  0  0  0  0  0  0  0  0
  151.6204  145.6940  158.5957 H   0  0  0  0  0  0  0  0  0  0  0  0
  152.7987  144.8314  157.6269 H   0  0  0  0  0  0  0  0  0  0  0  0
  150.4904  142.1913  156.7884 H   0  0  0  0  0  0  0  0  0  0  0  0
  152.1320  142.7623  156.5605 H   0  0  0  0  0  0  0  0  0  0  0  0
  152.1335  140.8910  158.1803 H   0  0  0  0  0  0  0  0  0  0  0  0
  150.9131  141.6830  159.1685 H   0  0  0  0  0  0  0  0  0  0  0  0
  155.5013  139.2581  160.4689 H   0  0  0  0  0  0  0  0  0  0  0  0
  1  2  1  0  0  0  0
  1 21  1  0  0  0  0
  1 22  1  0  0  0  0
  1 23  1  0  0  0  0
  2  3  1  0  0  0  0
  3  4  1  0  0  0  0
  3  5  1  0  0  0  0
  3 24  1  0  0  0  0
  4 25  1  0  0  0  0
  4 26  1  0  0  0  0
  4 27  1  0  0  0  0
  5  6  2  0  0  0  0
  5  7  1  0  0  0  0
  7  8  1  0  0  0  0
  7 28  1  0  0  0  0
  8  9  1  0  0  0  0
  8 29  1  0  0  0  0
  8 30  1  0  0  0  0
  9 20  1  0  0  0  0
  9 10  2  0  0  0  0
 10 11  1  0  0  0  0
 10 31  1  0  0  0  0
 11 12  2  0  0  0  0
 11 32  1  0  0  0  0
 12 13  1  0  0  0  0
 12 19  1  0  0  0  0
 13 18  1  0  0  0  0
 13 14  1  0  0  0  0
 14 15  1  0  0  0  0
 14 33  1  0  0  0  0
 14 34  1  0  0  0  0
 15 16  1  0  0  0  0
 15 35  1  0  0  0  0
 15 36  1  0  0  0  0
 16 17  1  0  0  0  0
 17 18  1  0  0  0  0
 17 37  1  0  0  0  0
 17 38  1  0  0  0  0
 18 39  1  0  0  0  0
 18 40  1  0  0  0  0
 19 20  2  0  0  0  0
 20 41  1  0  0  0  0
M  END
> <s_m_source_file>
AV-unprocessed.smi

> <i_m_source_file_index>
3003

> <i_lp_mmshare_version>
43012

> <i_f3d_flags>
0

> <s_epik_input>
W0NIM11TW0NASF0oW0NIM10pQyg9TylbTkhdW0NIMl1jMVtjSF1bY0hdYyhuW2NIXTEpTjJbQ0gyXVtDSDJdT1tDSDJdW0NIMl0y

> <s_epik_cmdline>
J2VwaWtfcHl0aG9uJywgJy1waCcsICc3LjAnLCAnLXRuJywgJzgnLCAnLW1hJywgJzIwMCcsICctbWV0YWxfYmluZGluZycsICctaW1hZScsICc8aW5maWxlLm1hZT4nLCAnLW9tYWUnLCAnPG91dGZpbGUubWFlPic=

> <r_lp_tautomer_probability>
1

> <r_epik_Ionization_Penalty>
0.00417642

> <r_epik_Ionization_Penalty_Charging>
0

> <r_epik_Ionization_Penalty_Neutral>
0.00417642

> <r_epik_State_Penalty>
0.00299889

> <r_epik_Charging_Adjusted_Penalty>
0.00299889

> <i_epik_Tot_Q>
0

> <i_epik_Tot_abs_Q>
0

> <r_epik_Metal_State_Penalty>
-0

> <b_epik_Metal_Only>
0

> <s_lp_Force_Field>
OPLS_2005

> <r_lp_Energy>
16.2796

> <b_lp_Chiralities_Consistent>
1

> <s_lp_Variant>
AV-unprocessed.smi:3003-1

> <Gold.Version>
5.8.1

> <Gold.Id.Protein>
6NUR|6NUR_protein|mol2

> <Gold.PLP.Fitness>
40.4481

> <Gold.PLP.PLP>
-41.1205

> <Gold.PLP.part.hbond>
0.0000

> <Gold.PLP.part.metal>
0.0000

> <Gold.PLP.part.buried>
-5.8274

> <Gold.PLP.part.nonpolar>
-36.1726

> <Gold.PLP.part.repulsive>
1.3177

> <Gold.PLP.ligand.clash>
0.0000

> <Gold.PLP.ligand.torsion>
0.5436

> <Gold.PLP.Chemscore.Hbond>
0.0000

> <Gold.PLP.Chemscore.CHOScore>
0.0000

> <Gold.PLP.Chemscore.Metal>
0.0000

> <Gold.PLP.Chemscore.Internal.Correction>
0.4148

> <Gold.Rescore>
     Score         DG    S(hbond)    S(metal)    S(lipo)     H(rot)  DE(clash)    DE(int)     intcor
     13.53     -14.18       0.00        0.00     110.84       1.67       0.15       0.49       ----

> <Gold.Chemscore.Fitness>
13.5327

> <Gold.Chemscore.DG>
-14.1770

> <Gold.Chemscore.ZeroCoef>
-5.4800

> <Gold.Chemscore.Hbond>
0.0000

> <Gold.Chemscore.Metal>
0.0000

> <Gold.Chemscore.Lipo>
110.8351

> <Gold.Chemscore.Internal_Hbond>
0.0000

> <Gold.Chemscore.DEClash>
0.1507

> <Gold.Chemscore.DEInternal>
0.4935

> <Gold.Chemscore.Rot>
1.6682

> <Gold.Chemscore.Internal.Correction>
   9.000000E+99

> <Gold.Chemscore.Hbond.Weighted>
-0.0000

> <Gold.Chemscore.Metal.Weighted>
-0.0000

> <Gold.Chemscore.Lipo.Weighted>
-12.9677

> <Gold.Chemscore.Internal_Hbond.Weighted>
0.0000

> <Gold.Chemscore.DEClash.Weighted>
0.1507

> <Gold.Chemscore.DEInternal.Weighted>
0.4935

> <Gold.Chemscore.Rot.Weighted>
4.2707

> <Gold.Chemscore.Internal.Correction.Weighted>
   9.000000E+99

> <Gold.Protein.RotatedTorsions>
[ 6907 6896 6895 6894 ] final  -52.85 input  -60.11 | X-H torsion
[ 7974 7965 7964 7962 ] final -171.32 input  175.53 | X-H torsion
[ 8008 7997 7996 7995 ] final  173.17 input   59.86 | X-H torsion
[ 10167 10162 10161 10158 ] final  172.71 input  -65.29 | X-H torsion
[ 10718 10713 10712 10709 ] final   55.74 input   66.30 | X-H torsion
[ 10763 10752 10751 10750 ] final -148.41 input  -60.55 | X-H torsion
[ 11005 11000 10999 10996 ] final -106.34 input  -57.11 | X-H torsion

> <Gold.Protein.ActiveResidues>
 VAL166  LYS551  ARG553  GLY616  TRP617  ASP618  TYR619  PRO620  LYS621  CYS622 
 ASP623  PHE694  ASN695  SER759  ASP760  ASP761  ALA762  ILE779  LEU786  VAL792 
 PHE793  MET794  SER795  GLU796  ALA797  LYS798  CYS799  TRP800  GLU811  SER814 

> <Gold.Protein.RotatedAtoms>
  150.8480  134.7795  159.6985 H   0  0  0  0  0  0  0  0  0  0  0  0  # atno 6907 bound_to 6896
  152.4552  134.5304  159.9819 H   0  0  0  0  0  0  0  0  0  0  0  0  # atno 6908 bound_to 6896
  151.5431  133.3391  159.2975 H   0  0  0  0  0  0  0  0  0  0  0  0  # atno 6909 bound_to 6896
  144.7158  140.1939  143.6345 H   0  0  0  0  0  0  0  0  0  0  0  0  # atno 7974 bound_to 7965
  156.1102  140.1467  156.9349 H   0  0  0  0  0  0  0  0  0  0  0  0  # atno 8008 bound_to 7997
  154.4761  140.0894  156.7309 H   0  0  0  0  0  0  0  0  0  0  0  0  # atno 8009 bound_to 7997
  155.4610  140.3438  155.4315 H   0  0  0  0  0  0  0  0  0  0  0  0  # atno 8010 bound_to 7997
  139.5085  144.3343  152.0081 H   0  0  0  0  0  0  0  0  0  0  0  0  # atno 10167 bound_to 10162
  157.5371  130.8671  149.8769 H   0  0  0  0  0  0  0  0  0  0  0  0  # atno 10718 bound_to 10713
  154.8234  135.3335  154.6969 H   0  0  0  0  0  0  0  0  0  0  0  0  # atno 10763 bound_to 10752
  153.7599  135.6933  153.4932 H   0  0  0  0  0  0  0  0  0  0  0  0  # atno 10764 bound_to 10752
  153.2118  135.4479  155.0337 H   0  0  0  0  0  0  0  0  0  0  0  0  # atno 10765 bound_to 10752
  141.1009  133.8886  157.1844 H   0  0  0  0  0  0  0  0  0  0  0  0  # atno 11005 bound_to 11000
  145.8742  139.2288  143.1643 LP  0  0  0  0  0  0  0  0  0  0  0  0  # atno 17320 bound_to 7965
  146.0056  140.8482  142.9997 LP  0  0  0  0  0  0  0  0  0  0  0  0  # atno 17321 bound_to 7965
  140.2782  144.3889  150.6128 LP  0  0  0  0  0  0  0  0  0  0  0  0  # atno 17342 bound_to 10162
  140.6038  143.2167  151.7021 LP  0  0  0  0  0  0  0  0  0  0  0  0  # atno 17343 bound_to 10162
  156.0467  130.3726  150.1300 LP  0  0  0  0  0  0  0  0  0  0  0  0  # atno 17370 bound_to 10713
  156.9481  130.9766  151.3503 LP  0  0  0  0  0  0  0  0  0  0  0  0  # atno 17371 bound_to 10713
  139.9860  135.0081  156.9864 LP  0  0  0  0  0  0  0  0  0  0  0  0  # atno 17394 bound_to 11000
  140.5024  134.1084  155.7253 LP  0  0  0  0  0  0  0  0  0  0  0  0  # atno 17395 bound_to 11000

$$$$
