#       Name:                AV-unprocessed.smi:3329
#       Creating user name   scv26
#       Creation time:       Fri Mar 27 19:15:51 2020


#       File generated by GOLD software.
#

@<TRIPOS>MOLECULE
AV-unprocessed.smi:3329
    46    47     1
SMALL
NO_CHARGES


@<TRIPOS>ATOM
      1 ****        -3.8363   1.4566   4.3722 C.3            1 S1                 0.0000
      2 ****        -3.5004   2.0119   3.0179 C.2            1 S1                 0.0000
      3 ****        -2.9881   3.3038   2.7080 C.2            1 S1                 0.0000
      4 ****        -2.7925   3.4816   1.4114 N.2            1 S1                 0.0000
      5 ****        -3.1713   2.3144   0.8498 N.pl3          1 S1                 0.0000
      6 ****        -3.0856   2.1454  -0.5896 C.3            1 S1                 0.0000
      7 ****        -1.6318   2.0417  -1.0784 C.3            1 S1                 0.0000
      8 ****        -0.9641   0.8441  -0.5324 N.4            1 S1                 1.0000
      9 ****         0.4549   0.7149  -0.9144 C.3            1 S1                 0.0000
     10 ****         1.0533  -0.5412  -0.2734 C.2            1 S1                 0.0000
     11 ****         0.6475  -0.9216   0.8255 O.2            1 S1                 0.0000
     12 ****         2.0104  -1.0884  -1.0603 N.pl3          1 S1                -1.0000
     13 ****         2.7331  -2.3193  -0.7149 C.3            1 S1                 0.0000
     14 ****         3.6759  -2.0528   0.4765 C.3            1 S1                 0.0000
     15 ****         1.7854  -3.4042  -0.3889 C.1            1 S1                 0.0000
     16 ****         1.0430  -4.2552  -0.1338 N.1            1 S1                 0.0000
     17 ****         3.5633  -2.8031  -1.9080 C.3            1 S1                 0.0000
     18 ****         4.2372  -1.8817  -2.9003 C.3            1 S1                 0.0000
     19 ****         3.0739  -2.7527  -3.3377 C.3            1 S1                 0.0000
     20 ****        -3.6077   1.4109   1.7957 C.2            1 S1                 0.0000
     21 ****        -4.4976   2.1222   4.9272 H              1 S1                 0.0000
     22 ****        -2.9422   1.3124   4.9789 H              1 S1                 0.0000
     23 ****        -4.3372   0.4905   4.3033 H              1 S1                 0.0000
     24 ****        -2.7523   4.1126   3.3841 H              1 S1                 0.0000
     25 ****        -3.6487   1.2556  -0.8746 H              1 S1                 0.0000
     26 ****        -3.5801   2.9941  -1.0642 H              1 S1                 0.0000
     27 ****        -1.6133   1.9899  -2.1676 H              1 S1                 0.0000
     28 ****        -1.0723   2.9340  -0.7935 H              1 S1                 0.0000
     29 ****        -1.0110   0.8780   0.4761 H              1 S1                 0.0000
     30 ****         0.5289   0.6776  -2.0031 H              1 S1                 0.0000
     31 ****         1.0119   1.5885  -0.5734 H              1 S1                 0.0000
     32 ****         4.2593  -2.9414   0.7188 H              1 S1                 0.0000
     33 ****         3.1304  -1.7759   1.3789 H              1 S1                 0.0000
     34 ****         4.3799  -1.2498   0.2545 H              1 S1                 0.0000
     35 ****         4.1324  -3.6995  -1.6663 H              1 S1                 0.0000
     36 ****         4.0612  -0.8109  -2.8204 H              1 S1                 0.0000
     37 ****         5.2308  -2.1610  -3.2442 H              1 S1                 0.0000
     38 ****         3.2975  -3.6075  -3.9727 H              1 S1                 0.0000
     39 ****         2.1267  -2.2588  -3.5444 H              1 S1                 0.0000
     40 ****        -3.9503   0.4227   1.5252 H              1 S1                 0.0000
     41 ****        -1.4538   0.0196  -0.8491 H              1 S1                 0.0000
     42 ****        -2.4426   4.2976   0.9512 LP             1 S1                 0.0000
     43 ****        -0.0711  -0.4107   1.2974 LP             1 S1                 0.0000
     44 ****         1.0366  -1.7412   1.2459 LP             1 S1                 0.0000
     45 ****         2.2364  -0.6308  -1.9203 LP             1 S1                 0.0000
     46 ****         0.4018  -4.9902   0.0866 LP             1 S1                 0.0000
@<TRIPOS>BOND
    1    1    2 1     
    2    1   21 1     
    3    1   22 1     
    4    1   23 1     
    5    2   20 2     
    6    2    3 1     
    7    3    4 2     
    8    3   24 1     
    9    4    5 1     
   10    5    6 1     
   11    5   20 1     
   12    6    7 1     
   13    6   25 1     
   14    6   26 1     
   15    7    8 1     
   16    7   27 1     
   17    7   28 1     
   18    8    9 1     
   19    8   29 1     
   20    8   41 1     
   21    9   10 1     
   22    9   30 1     
   23    9   31 1     
   24   10   11 2     
   25   10   12 1     
   26   12   13 1     
   27   13   14 1     
   28   13   15 1     
   29   13   17 1     
   30   14   32 1     
   31   14   33 1     
   32   14   34 1     
   33   15   16 3     
   34   17   19 1     
   35   17   18 1     
   36   17   35 1     
   37   18   19 1     
   38   18   36 1     
   39   18   37 1     
   40   19   38 1     
   41   19   39 1     
   42   20   40 1     
   43    4   42 1     
   44   11   43 1     
   45   11   44 1     
   46   12   45 1     
   47   16   46 1     
@<TRIPOS>SUBSTRUCTURE
      1 S1             1
@<TRIPOS>SET
LONE_PAIRS      STATIC     ATOMS    <user>   **** ""
5 42 43 44 45 46
DONOR_HYDROGENS      STATIC     ATOMS    <user>   **** ""
2 29 41
ATOM$BLUE        STATIC     ATOMS    COLORGROUP SYSTEM
5 42 43 44 45 46
ATOM$RED        STATIC     ATOMS    COLORGROUP SYSTEM
2 29 41
