#       Name:                AV-unprocessed.smi:1196
#       Creating user name   scv26
#       Creation time:       Fri Mar 27 04:00:41 2020


#       File generated by GOLD software.
#

@<TRIPOS>MOLECULE
AV-unprocessed.smi:1196
    44    45     1
SMALL
NO_CHARGES


@<TRIPOS>ATOM
      1 ****        -3.3192  -1.4682  -1.4972 C.3            1 S1                 0.0000
      2 ****        -2.7198  -0.7955  -0.2526 C.3            1 S1                 0.0000
      3 ****        -3.2150  -1.4635   1.0448 C.3            1 S1                 0.0000
      4 ****        -2.7853  -0.7452   2.2320 N.pl3          1 S1                 0.0000
      5 ****        -3.3686   0.3555   2.8232 C.2            1 S1                 0.0000
      6 ****        -2.6053   0.6874   3.9055 C.2            1 S1                 0.0000
      7 ****        -1.5624  -0.2806   3.8933 C.2            1 S1                 0.0000
      8 ****        -1.6736  -1.1379   2.8916 N.2            1 S1                 0.0000
      9 ****        -1.2604  -0.8424  -0.3132 N.am           1 S1                 0.0000
     10 ****        -0.4734   0.0626  -0.9138 C.2            1 S1                 0.0000
     11 ****        -0.9100   1.0330  -1.5336 O.2            1 S1                 0.0000
     12 ****         1.0343  -0.1763  -0.7881 C.3            1 S1                 0.0000
     13 ****         1.8748   1.1026  -0.9712 C.3            1 S1                 0.0000
     14 ****         3.3766   0.8762  -0.7106 C.3            1 S1                 0.0000
     15 ****         3.9740  -0.0623  -1.6453 N.am           1 S1                 0.0000
     16 ****         4.9740   0.4832  -2.3505 C.2            1 S1                 0.0000
     17 ****         5.6507  -0.0869  -3.2028 O.2            1 S1                 0.0000
     18 ****         5.1051   1.7569  -1.9638 N.am           1 S1                 0.0000
     19 ****         4.2227   2.0971  -1.0259 C.2            1 S1                 0.0000
     20 ****         4.0950   3.1983  -0.4942 O.2            1 S1                 0.0000
     21 ****        -4.4085  -1.4243  -1.4787 H              1 S1                 0.0000
     22 ****        -3.0298  -2.5177  -1.5601 H              1 S1                 0.0000
     23 ****        -2.9880  -0.9748  -2.4116 H              1 S1                 0.0000
     24 ****        -3.0463   0.2461  -0.2399 H              1 S1                 0.0000
     25 ****        -4.3049  -1.5008   1.0540 H              1 S1                 0.0000
     26 ****        -2.8689  -2.4969   1.1050 H              1 S1                 0.0000
     27 ****        -4.2661   0.8073   2.4270 H              1 S1                 0.0000
     28 ****        -2.7665   1.4994   4.5990 H              1 S1                 0.0000
     29 ****        -0.7336  -0.3854   4.5777 H              1 S1                 0.0000
     30 ****        -0.8135  -1.6061   0.1732 H              1 S1                 0.0000
     31 ****         1.2392  -0.6046   0.1944 H              1 S1                 0.0000
     32 ****         1.3231  -0.9267  -1.5247 H              1 S1                 0.0000
     33 ****         1.7306   1.4949  -1.9797 H              1 S1                 0.0000
     34 ****         1.5102   1.8732  -0.2896 H              1 S1                 0.0000
     35 ****         3.5586   0.5501   0.3142 H              1 S1                 0.0000
     36 ****         3.6623  -1.0181  -1.7395 H              1 S1                 0.0000
     37 ****         5.7895   2.3920  -2.3474 H              1 S1                 0.0000
     38 ****        -1.0702  -1.9045   2.6720 LP             1 S1                 0.0000
     39 ****        -1.8970   1.1761  -1.6076 LP             1 S1                 0.0000
     40 ****        -0.2777   1.6778  -1.9629 LP             1 S1                 0.0000
     41 ****         5.4735  -1.0463  -3.4225 LP             1 S1                 0.0000
     42 ****         6.3786   0.4084  -3.6769 LP             1 S1                 0.0000
     43 ****         3.3917   3.3384   0.2028 LP             1 S1                 0.0000
     44 ****         4.6943   3.9537  -0.7588 LP             1 S1                 0.0000
@<TRIPOS>BOND
    1    1    2 1     
    2    1   21 1     
    3    1   22 1     
    4    1   23 1     
    5    2    3 1     
    6    2    9 1     
    7    2   24 1     
    8    3    4 1     
    9    3   25 1     
   10    3   26 1     
   11    4    8 1     
   12    4    5 1     
   13    5    6 2     
   14    5   27 1     
   15    6    7 1     
   16    6   28 1     
   17    7    8 2     
   18    7   29 1     
   19    9   10 am    
   20    9   30 1     
   21   10   11 2     
   22   10   12 1     
   23   12   13 1     
   24   12   31 1     
   25   12   32 1     
   26   13   14 1     
   27   13   33 1     
   28   13   34 1     
   29   14   19 1     
   30   14   15 1     
   31   14   35 1     
   32   15   16 am    
   33   15   36 1     
   34   16   17 2     
   35   16   18 am    
   36   18   19 am    
   37   18   37 1     
   38   19   20 2     
   39    8   38 1     
   40   11   39 1     
   41   11   40 1     
   42   17   41 1     
   43   17   42 1     
   44   20   43 1     
   45   20   44 1     
@<TRIPOS>SUBSTRUCTURE
      1 S1             1
@<TRIPOS>SET
LONE_PAIRS      STATIC     ATOMS    <user>   **** ""
7 38 39 40 41 42 43 44
DONOR_HYDROGENS      STATIC     ATOMS    <user>   **** ""
3 30 36 37
ATOM$BLUE        STATIC     ATOMS    COLORGROUP SYSTEM
7 38 39 40 41 42 43 44
ATOM$RED        STATIC     ATOMS    COLORGROUP SYSTEM
3 30 36 37
