AV-unprocessed.smi:95|AV-procd|sdf|858|dock6
  -GOLD-   2262017303D 1   1.00000     0.00000
 Structure written by MMmdl.
 42 45  0  0  0  0  0  0  0  0  2 V2000
  148.2000  141.9613  153.4271 O   0  0  0  0  0  0  0  0  0  0  0  0
  147.4870  142.1358  154.4172 C   0  0  0  0  0  0  0  0  0  0  0  0
  146.2805  142.9541  154.4073 C   0  0  0  0  0  0  0  0  0  0  0  0
  145.8885  143.5450  153.2661 F   0  0  0  0  0  0  0  0  0  0  0  0
  145.5353  143.1111  155.5227 C   0  0  0  0  0  0  0  0  0  0  0  0
  145.8620  142.5401  156.7430 N   0  0  0  0  0  0  0  0  0  0  0  0
  144.9456  142.6470  157.9456 C   0  0  1  0  0  0  0  0  0  0  0  0
  145.6200  143.2110  159.2086 C   0  0  0  0  0  0  0  0  0  0  0  0
  145.0786  144.6264  159.2596 C   0  0  0  0  0  0  0  0  0  0  0  0
  143.6978  144.4487  158.6407 C   0  0  0  0  0  0  0  0  0  0  0  0
  143.8993  143.5042  157.5970 O   0  0  0  0  0  0  0  0  0  0  0  0
  146.9753  141.6721  156.8230 C   0  0  0  0  0  0  0  0  0  0  0  0
  147.2284  141.0615  157.8641 O   0  0  0  0  0  0  0  0  0  0  0  0
  147.7722  141.5262  155.6621 N   0  0  0  0  0  0  0  0  0  0  0  0
  148.9304  140.6492  155.7174 C   0  0  0  0  0  0  0  0  0  0  0  0
  149.9368  140.9943  156.8055 C   0  0  0  0  0  0  0  0  0  0  0  0
  150.5643  140.0156  157.6082 C   0  0  0  0  0  0  0  0  0  0  0  0
  151.4947  140.4184  158.5876 C   0  0  0  0  0  0  0  0  0  0  0  0
  151.7780  141.7916  158.7464 C   0  0  0  0  0  0  0  0  0  0  0  0
  152.7019  142.2356  159.7144 C   0  0  0  0  0  0  0  0  0  0  0  0
  152.9662  143.6130  159.8538 C   0  0  0  0  0  0  0  0  0  0  0  0
  152.3102  144.5486  159.0287 C   0  0  0  0  0  0  0  0  0  0  0  0
  151.3863  144.1117  158.0588 C   0  0  0  0  0  0  0  0  0  0  0  0
  151.1206  142.7352  157.9174 C   0  0  0  0  0  0  0  0  0  0  0  0
  150.2378  142.2994  156.9918 N   0  3  0  0  0  0  0  0  0  0  0  0
  144.6410  143.7067  155.4321 H   0  0  0  0  0  0  0  0  0  0  0  0
  144.5768  141.6376  158.1348 H   0  0  0  0  0  0  0  0  0  0  0  0
  145.2538  142.6469  160.0674 H   0  0  0  0  0  0  0  0  0  0  0  0
  146.7068  143.1302  159.1965 H   0  0  0  0  0  0  0  0  0  0  0  0
  145.0424  145.0332  160.2705 H   0  0  0  0  0  0  0  0  0  0  0  0
  145.6818  145.2950  158.6451 H   0  0  0  0  0  0  0  0  0  0  0  0
  143.0015  144.0321  159.3701 H   0  0  0  0  0  0  0  0  0  0  0  0
  143.2803  145.3821  158.2626 H   0  0  0  0  0  0  0  0  0  0  0  0
  148.5470  139.6340  155.8398 H   0  0  0  0  0  0  0  0  0  0  0  0
  149.4198  140.6435  154.7432 H   0  0  0  0  0  0  0  0  0  0  0  0
  150.3394  138.9670  157.4789 H   0  0  0  0  0  0  0  0  0  0  0  0
  151.9820  139.6791  159.2067 H   0  0  0  0  0  0  0  0  0  0  0  0
  153.2098  141.5261  160.3517 H   0  0  0  0  0  0  0  0  0  0  0  0
  153.6739  143.9529  160.5959 H   0  0  0  0  0  0  0  0  0  0  0  0
  152.5165  145.6031  159.1405 H   0  0  0  0  0  0  0  0  0  0  0  0
  150.8875  144.8348  157.4296 H   0  0  0  0  0  0  0  0  0  0  0  0
  149.7765  142.9906  156.4003 H   0  0  0  0  0  0  0  0  0  0  0  0
  1  2  2  0  0  0  0
  2 14  1  0  0  0  0
  2  3  1  0  0  0  0
  3  4  1  0  0  0  0
  3  5  2  0  0  0  0
  5  6  1  0  0  0  0
  5 26  1  0  0  0  0
  6  7  1  0  0  0  0
  6 12  1  0  0  0  0
  7 11  1  0  0  0  0
  7  8  1  0  0  0  0
  7 27  1  0  0  0  0
  8  9  1  0  0  0  0
  8 28  1  0  0  0  0
  8 29  1  0  0  0  0
  9 10  1  0  0  0  0
  9 30  1  0  0  0  0
  9 31  1  0  0  0  0
 10 11  1  0  0  0  0
 10 32  1  0  0  0  0
 10 33  1  0  0  0  0
 12 13  2  0  0  0  0
 12 14  1  0  0  0  0
 14 15  1  0  0  0  0
 15 16  1  0  0  0  0
 15 34  1  0  0  0  0
 15 35  1  0  0  0  0
 16 25  1  0  0  0  0
 16 17  2  0  0  0  0
 17 18  1  0  0  0  0
 17 36  1  0  0  0  0
 18 19  2  0  0  0  0
 18 37  1  0  0  0  0
 19 24  1  0  0  0  0
 19 20  1  0  0  0  0
 20 21  2  0  0  0  0
 20 38  1  0  0  0  0
 21 22  1  0  0  0  0
 21 39  1  0  0  0  0
 22 23  2  0  0  0  0
 22 40  1  0  0  0  0
 23 24  1  0  0  0  0
 23 41  1  0  0  0  0
 24 25  2  0  0  0  0
 25 42  1  0  0  0  0
M  CHG  1  25   1
M  END
> <s_m_source_file>
AV-unprocessed.smi

> <i_m_source_file_index>
95

> <i_lp_mmshare_version>
43012

> <i_f3d_flags>
0

> <s_epik_input>
TzFbQ0gyXVtDSDJdW0NIMl1bQ0BIXTFuKFtjSF1jKEYpYzI9TyljKD1PKW4yW0NIMl1jKFtjSF1bY0hdMyluYyhjMzQpW2NIXVtjSF1bY0hdW2NIXTQ=

> <s_epik_cmdline>
J2VwaWtfcHl0aG9uJywgJy1waCcsICc3LjAnLCAnLXRuJywgJzgnLCAnLW1hJywgJzIwMCcsICctbWV0YWxfYmluZGluZycsICctaW1hZScsICc8aW5maWxlLm1hZT4nLCAnLW9tYWUnLCAnPG91dGZpbGUubWFlPic=

> <r_lp_tautomer_probability>
1

> <r_epik_Ionization_Penalty>
1.83445

> <r_epik_Ionization_Penalty_Charging>
1.83445

> <r_epik_Ionization_Penalty_Neutral>
6.33322e-12

> <r_epik_State_Penalty>
1.95069

> <r_epik_Charging_Adjusted_Penalty>
3.78513

> <i_epik_Tot_Q>
1

> <i_epik_Tot_abs_Q>
1

> <r_epik_Metal_State_Penalty>
6.02102

> <b_epik_Metal_Only>
0

> <s_epik_Chemistry_Notes>
This compound contains an acetal/aminal-like group ( X-CH(R)-Y where X, Y are N, S, or O) that may be acid/base labile, releasing an aldehyde.

> <s_lp_Force_Field>
OPLS_2005

> <r_lp_Energy>
36.6829

> <b_lp_Chiralities_Consistent>
1

> <s_lp_Variant>
AV-unprocessed.smi:95-4

> <Gold.Version>
5.8.1

> <Gold.Id.Protein>
6NUR|6NUR_protein|mol2

> <Gold.PLP.Fitness>
50.1407

> <Gold.PLP.PLP>
-43.1478

> <Gold.PLP.part.hbond>
-2.0000

> <Gold.PLP.part.metal>
0.0000

> <Gold.PLP.part.buried>
-4.1902

> <Gold.PLP.part.nonpolar>
-37.1195

> <Gold.PLP.part.repulsive>
0.2858

> <Gold.PLP.ligand.clash>
0.0000

> <Gold.PLP.ligand.torsion>
0.3126

> <Gold.PLP.Chemscore.Hbond>
2.5075

> <Gold.PLP.Chemscore.CHOScore>
0.0000

> <Gold.PLP.Chemscore.Metal>
0.0000

> <Gold.Chemscore.Hbonds>
donor molecule, donor type, donor heavy atom, donor atom, acceptor molecule, acceptor atom, score
      L1  H    25    42       P1  8028  1.76
      P1  H  8011  8017       L1     1  0.45

> <Gold.PLP.Chemscore.Internal.Correction>
0.0957

> <Gold.Rescore>
     Score         DG    S(hbond)    S(metal)    S(lipo)     H(rot)  DE(clash)    DE(int)     intcor
     15.97     -19.37       1.56        0.00     107.83       1.54       1.68       1.72       ----

> <Gold.Chemscore.Fitness>
15.9668

> <Gold.Chemscore.DG>
-19.3660

> <Gold.Chemscore.ZeroCoef>
-5.4800

> <Gold.Chemscore.Hbond>
1.5612

> <Gold.Chemscore.Metal>
0.0000

> <Gold.Chemscore.Lipo>
107.8295

> <Gold.Chemscore.Internal_Hbond>
0.0000

> <Gold.Chemscore.DEClash>
1.6785

> <Gold.Chemscore.DEInternal>
1.7208

> <Gold.Chemscore.Rot>
1.5407

> <Gold.Chemscore.Internal.Correction>
   9.000000E+99

> <Gold.Chemscore.Hbonds>
donor molecule, donor type, donor heavy atom, donor atom, acceptor molecule, acceptor atom, score
      L1  H    25    42       P1  8028  0.85
      P1  H  8011  8017       L1     1  0.43

> <Gold.Chemscore.Hbond.Weighted>
-5.2142

> <Gold.Chemscore.Metal.Weighted>
-0.0000

> <Gold.Chemscore.Lipo.Weighted>
-12.6161

> <Gold.Chemscore.Internal_Hbond.Weighted>
0.0000

> <Gold.Chemscore.DEClash.Weighted>
1.6785

> <Gold.Chemscore.DEInternal.Weighted>
1.7208

> <Gold.Chemscore.Rot.Weighted>
3.9443

> <Gold.Chemscore.Internal.Correction.Weighted>
   9.000000E+99

> <Gold.Protein.RotatedTorsions>
[ 6907 6896 6895 6894 ] final   64.57 input  -60.11 | X-H torsion
[ 7974 7965 7964 7962 ] final  -11.20 input  175.53 | X-H torsion
[ 8008 7997 7996 7995 ] final  -32.08 input   59.86 | X-H torsion
[ 10167 10162 10161 10158 ] final  157.84 input  -65.29 | X-H torsion
[ 10718 10713 10712 10709 ] final   55.33 input   66.30 | X-H torsion
[ 10763 10752 10751 10750 ] final   66.02 input  -60.55 | X-H torsion
[ 11005 11000 10999 10996 ] final  110.96 input  -57.11 | X-H torsion

> <Gold.Protein.ActiveResidues>
 VAL166  LYS551  ARG553  GLY616  TRP617  ASP618  TYR619  PRO620  LYS621  CYS622 
 ASP623  PHE694  ASN695  SER759  ASP760  ASP761  ALA762  ILE779  LEU786  VAL792 
 PHE793  MET794  SER795  GLU796  ALA797  LYS798  CYS799  TRP800  GLU811  SER814 

> <Gold.Protein.RotatedAtoms>
  152.4342  134.5719  159.9923 H   0  0  0  0  0  0  0  0  0  0  0  0  # atno 6907 bound_to 6896
  151.5834  133.3369  159.3021 H   0  0  0  0  0  0  0  0  0  0  0  0  # atno 6908 bound_to 6896
  150.8238  134.7494  159.6860 H   0  0  0  0  0  0  0  0  0  0  0  0  # atno 6909 bound_to 6896
  146.2195  140.2877  142.8366 H   0  0  0  0  0  0  0  0  0  0  0  0  # atno 7974 bound_to 7965
  154.4191  140.1747  156.1670 H   0  0  0  0  0  0  0  0  0  0  0  0  # atno 8008 bound_to 7997
  155.9791  140.3379  155.6622 H   0  0  0  0  0  0  0  0  0  0  0  0  # atno 8009 bound_to 7997
  155.6524  140.0692  157.2573 H   0  0  0  0  0  0  0  0  0  0  0  0  # atno 8010 bound_to 7997
  139.4824  144.4880  151.8350 H   0  0  0  0  0  0  0  0  0  0  0  0  # atno 10167 bound_to 10162
  157.5336  130.8647  149.8721 H   0  0  0  0  0  0  0  0  0  0  0  0  # atno 10718 bound_to 10713
  153.0121  135.5336  154.6758 H   0  0  0  0  0  0  0  0  0  0  0  0  # atno 10763 bound_to 10752
  154.5931  135.2860  155.0617 H   0  0  0  0  0  0  0  0  0  0  0  0  # atno 10764 bound_to 10752
  154.1703  135.6533  153.5060 H   0  0  0  0  0  0  0  0  0  0  0  0  # atno 10765 bound_to 10752
  139.8893  134.9496  156.6358 H   0  0  0  0  0  0  0  0  0  0  0  0  # atno 11005 bound_to 11000
  144.9150  140.7802  143.5784 LP  0  0  0  0  0  0  0  0  0  0  0  0  # atno 17320 bound_to 7965
  145.2810  139.1918  143.4791 LP  0  0  0  0  0  0  0  0  0  0  0  0  # atno 17321 bound_to 7965
  140.4361  144.2050  150.5889 LP  0  0  0  0  0  0  0  0  0  0  0  0  # atno 17342 bound_to 10162
  140.4730  143.2406  151.9062 LP  0  0  0  0  0  0  0  0  0  0  0  0  # atno 17343 bound_to 10162
  156.0441  130.3732  150.1361 LP  0  0  0  0  0  0  0  0  0  0  0  0  # atno 17370 bound_to 10713
  156.9545  130.9785  151.3491 LP  0  0  0  0  0  0  0  0  0  0  0  0  # atno 17371 bound_to 10713
  140.7631  133.8801  155.8434 LP  0  0  0  0  0  0  0  0  0  0  0  0  # atno 17394 bound_to 11000
  140.9905  134.1285  157.4412 LP  0  0  0  0  0  0  0  0  0  0  0  0  # atno 17395 bound_to 11000

$$$$
