AV-unprocessed.smi:594|AV-procd|sdf|3014|dock9
  -GOLD-   2262023523D 1   1.00000     0.00000
 Structure written by MMmdl.
 40 41  0  0  0  0  0  0  0  0  3 V2000
  151.2893  144.8869  159.4826 C   0  0  0  0  0  0  0  0  0  0  0  0
  151.6398  143.6538  160.3348 C   0  0  2  0  0  0  0  0  0  0  0  0
  152.4816  144.0648  161.5601 C   0  0  0  0  0  0  0  0  0  0  0  0
  152.8435  142.8573  162.4377 C   0  0  0  0  0  0  0  0  0  0  0  0
  153.5752  141.7831  161.6219 C   0  0  0  0  0  0  0  0  0  0  0  0
  152.7414  141.3515  160.4072 C   0  0  0  0  0  0  0  0  0  0  0  0
  152.3647  142.5551  159.5177 C   0  0  1  0  0  0  0  0  0  0  0  0
  151.5235  142.1064  158.4103 N   0  0  0  0  0  0  0  0  0  0  0  0
  151.7850  141.0652  157.6058 C   0  0  0  0  0  0  0  0  0  0  0  0
  152.7748  140.3434  157.7345 O   0  0  0  0  0  0  0  0  0  0  0  0
  150.7524  140.7948  156.5025 C   0  0  0  0  0  0  0  0  0  0  0  0
  150.3773  139.3748  156.3947 N   0  0  0  0  0  0  0  0  0  0  0  0
  149.9579  138.7309  157.5756 C   0  0  0  0  0  0  0  0  0  0  0  0
  149.5983  137.4326  157.5941 C   0  0  0  0  0  0  0  0  0  0  0  0
  149.1749  136.7863  158.8171 N   0  3  0  0  0  0  0  0  0  0  0  0
  149.1574  135.5603  158.8593 O   0  0  0  0  0  0  0  0  0  0  0  0
  148.8453  137.4803  159.7744 O   0  5  0  0  0  0  0  0  0  0  0  0
  149.6534  136.6997  156.3440 C   0  0  0  0  0  0  0  0  0  0  0  0
  150.0570  137.3089  155.2117 C   0  0  0  0  0  0  0  0  0  0  0  0
  150.4516  138.7212  155.1947 C   0  0  0  0  0  0  0  0  0  0  0  0
  150.8257  139.2824  154.1648 O   0  0  0  0  0  0  0  0  0  0  0  0
  152.1844  145.3359  159.0511 H   0  0  0  0  0  0  0  0  0  0  0  0
  150.7928  145.6494  160.0832 H   0  0  0  0  0  0  0  0  0  0  0  0
  150.6162  144.6343  158.6630 H   0  0  0  0  0  0  0  0  0  0  0  0
  150.7024  143.2361  160.7058 H   0  0  0  0  0  0  0  0  0  0  0  0
  153.3964  144.5590  161.2294 H   0  0  0  0  0  0  0  0  0  0  0  0
  151.9368  144.7960  162.1583 H   0  0  0  0  0  0  0  0  0  0  0  0
  153.4670  143.1782  163.2727 H   0  0  0  0  0  0  0  0  0  0  0  0
  151.9371  142.4341  162.8721 H   0  0  0  0  0  0  0  0  0  0  0  0
  154.5386  142.1692  161.2863 H   0  0  0  0  0  0  0  0  0  0  0  0
  153.7897  140.9193  162.2516 H   0  0  0  0  0  0  0  0  0  0  0  0
  153.3000  140.6152  159.8278 H   0  0  0  0  0  0  0  0  0  0  0  0
  151.8364  140.8492  160.7517 H   0  0  0  0  0  0  0  0  0  0  0  0
  153.2824  142.9883  159.1144 H   0  0  0  0  0  0  0  0  0  0  0  0
  150.6835  142.6391  158.2356 H   0  0  0  0  0  0  0  0  0  0  0  0
  149.8737  141.4095  156.7026 H   0  0  0  0  0  0  0  0  0  0  0  0
  151.1390  141.1542  155.5468 H   0  0  0  0  0  0  0  0  0  0  0  0
  149.9585  139.3608  158.4536 H   0  0  0  0  0  0  0  0  0  0  0  0
  149.3727  135.6573  156.3067 H   0  0  0  0  0  0  0  0  0  0  0  0
  150.0914  136.7441  154.2917 H   0  0  0  0  0  0  0  0  0  0  0  0
  1  2  1  0  0  0  0
  1 22  1  0  0  0  0
  1 23  1  0  0  0  0
  1 24  1  0  0  0  0
  2  7  1  0  0  0  0
  2  3  1  0  0  0  0
  2 25  1  0  0  0  0
  3  4  1  0  0  0  0
  3 26  1  0  0  0  0
  3 27  1  0  0  0  0
  4  5  1  0  0  0  0
  4 28  1  0  0  0  0
  4 29  1  0  0  0  0
  5  6  1  0  0  0  0
  5 30  1  0  0  0  0
  5 31  1  0  0  0  0
  6  7  1  0  0  0  0
  6 32  1  0  0  0  0
  6 33  1  0  0  0  0
  7  8  1  0  0  0  0
  7 34  1  0  0  0  0
  8  9  1  0  0  0  0
  8 35  1  0  0  0  0
  9 10  2  0  0  0  0
  9 11  1  0  0  0  0
 11 12  1  0  0  0  0
 11 36  1  0  0  0  0
 11 37  1  0  0  0  0
 12 20  1  0  0  0  0
 12 13  1  0  0  0  0
 13 14  2  0  0  0  0
 13 38  1  0  0  0  0
 14 15  1  0  0  0  0
 14 18  1  0  0  0  0
 15 16  2  0  0  0  0
 15 17  1  0  0  0  0
 18 19  2  0  0  0  0
 18 39  1  0  0  0  0
 19 20  1  0  0  0  0
 19 40  1  0  0  0  0
 20 21  2  0  0  0  0
M  CHG  1  15   1
M  CHG  1  17  -1
M  END
> <s_m_source_file>
AV-unprocessed.smi

> <i_m_source_file_index>
594

> <i_lp_mmshare_version>
43012

> <i_f3d_flags>
0

> <s_epik_input>
W0NIM11bQ0BASF0xW0NIMl1bQ0gyXVtDSDJdW0NIMl1bQ0BIXTFbTkhdQyg9TylbQ0gyXW4yW2NIXWMoW04rXSg9TylbTy1dKVtjSF1bY0hdYzI9Tw==

> <s_epik_cmdline>
J2VwaWtfcHl0aG9uJywgJy1waCcsICc3LjAnLCAnLXRuJywgJzgnLCAnLW1hJywgJzIwMCcsICctbWV0YWxfYmluZGluZycsICctaW1hZScsICc8aW5maWxlLm1hZT4nLCAnLW9tYWUnLCAnPG91dGZpbGUubWFlPic=

> <r_lp_tautomer_probability>
1

> <r_epik_Ionization_Penalty>
1.91305e-08

> <r_epik_Ionization_Penalty_Charging>
8.35811e-11

> <r_epik_Ionization_Penalty_Neutral>
1.90469e-08

> <r_epik_State_Penalty>
-0

> <r_epik_Charging_Adjusted_Penalty>
8.35811e-11

> <i_epik_Tot_Q>
0

> <i_epik_Tot_abs_Q>
2

> <r_epik_Metal_State_Penalty>
-0

> <b_epik_Metal_Only>
0

> <s_lp_Force_Field>
OPLS_2005

> <r_lp_Energy>
21.501

> <b_lp_Chiralities_Consistent>
1

> <s_lp_Variant>
AV-unprocessed.smi:594-1

> <Gold.Version>
5.8.1

> <Gold.Id.Protein>
6NUR|6NUR_protein|mol2

> <Gold.PLP.Fitness>
47.8170

> <Gold.PLP.PLP>
-39.3839

> <Gold.PLP.part.hbond>
-4.8340

> <Gold.PLP.part.metal>
0.0000

> <Gold.PLP.part.buried>
-3.8297

> <Gold.PLP.part.nonpolar>
-29.8865

> <Gold.PLP.part.repulsive>
0.2432

> <Gold.PLP.ligand.clash>
0.0000

> <Gold.PLP.ligand.torsion>
0.4363

> <Gold.PLP.Chemscore.Hbond>
3.0980

> <Gold.PLP.Chemscore.CHOScore>
0.0000

> <Gold.PLP.Chemscore.Metal>
0.0000

> <Gold.Chemscore.Hbonds>
donor molecule, donor type, donor heavy atom, donor atom, acceptor molecule, acceptor atom, score
      P1  H  6896  6907       L1    16  1.00
      P1  H  6931  6943       L1    17  0.15
      P1  H  7989  7998       L1    21  1.00
      P1  H  7997  8009       L1    10  0.91

> <Gold.PLP.Chemscore.Internal.Correction>
0.0116

> <Gold.Rescore>
     Score         DG    S(hbond)    S(metal)    S(lipo)     H(rot)  DE(clash)    DE(int)     intcor
     21.15     -22.93       3.08        0.00      95.06       1.55       0.07       1.71       ----

> <Gold.Chemscore.Fitness>
21.1456

> <Gold.Chemscore.DG>
-22.9256

> <Gold.Chemscore.ZeroCoef>
-5.4800

> <Gold.Chemscore.Hbond>
3.0817

> <Gold.Chemscore.Metal>
0.0000

> <Gold.Chemscore.Lipo>
95.0575

> <Gold.Chemscore.Internal_Hbond>
0.0000

> <Gold.Chemscore.DEClash>
0.0714

> <Gold.Chemscore.DEInternal>
1.7086

> <Gold.Chemscore.Rot>
1.5505

> <Gold.Chemscore.Internal.Correction>
   9.000000E+99

> <Gold.Chemscore.Hbonds>
donor molecule, donor type, donor heavy atom, donor atom, acceptor molecule, acceptor atom, score
      P1  H  6896  6907       L1    16  0.97
      P1  H  6931  6943       L1    17  0.16
      P1  H  7989  7998       L1    21  1.00
      P1  H  7997  8009       L1    10  0.88

> <Gold.Chemscore.Hbond.Weighted>
-10.2930

> <Gold.Chemscore.Metal.Weighted>
-0.0000

> <Gold.Chemscore.Lipo.Weighted>
-11.1217

> <Gold.Chemscore.Internal_Hbond.Weighted>
0.0000

> <Gold.Chemscore.DEClash.Weighted>
0.0714

> <Gold.Chemscore.DEInternal.Weighted>
1.7086

> <Gold.Chemscore.Rot.Weighted>
3.9692

> <Gold.Chemscore.Internal.Correction.Weighted>
   9.000000E+99

> <Gold.Protein.RotatedTorsions>
[ 6907 6896 6895 6894 ] final  -69.91 input  -60.11 | X-H torsion
[ 7974 7965 7964 7962 ] final -127.75 input  175.53 | X-H torsion
[ 8008 7997 7996 7995 ] final  173.56 input   59.86 | X-H torsion
[ 10167 10162 10161 10158 ] final   15.47 input  -65.29 | X-H torsion
[ 10718 10713 10712 10709 ] final   60.67 input   66.30 | X-H torsion
[ 10763 10752 10751 10750 ] final -168.64 input  -60.55 | X-H torsion
[ 11005 11000 10999 10996 ] final  107.96 input  -57.11 | X-H torsion

> <Gold.Protein.ActiveResidues>
 VAL166  LYS551  ARG553  GLY616  TRP617  ASP618  TYR619  PRO620  LYS621  CYS622 
 ASP623  PHE694  ASN695  SER759  ASP760  ASP761  ALA762  ILE779  LEU786  VAL792 
 PHE793  MET794  SER795  GLU796  ALA797  LYS798  CYS799  TRP800  GLU811  SER814 

> <Gold.Protein.RotatedAtoms>
  150.7283  134.5529  159.5803 H   0  0  0  0  0  0  0  0  0  0  0  0  # atno 6907 bound_to 6896
  152.3012  134.7606  160.0366 H   0  0  0  0  0  0  0  0  0  0  0  0  # atno 6908 bound_to 6896
  151.8186  133.3356  159.3614 H   0  0  0  0  0  0  0  0  0  0  0  0  # atno 6909 bound_to 6896
  144.9740  140.7574  143.4653 H   0  0  0  0  0  0  0  0  0  0  0  0  # atno 7974 bound_to 7965
  156.1063  140.1457  156.9400 H   0  0  0  0  0  0  0  0  0  0  0  0  # atno 8008 bound_to 7997
  154.4736  140.0902  156.7250 H   0  0  0  0  0  0  0  0  0  0  0  0  # atno 8009 bound_to 7997
  155.4674  140.3440  155.4323 H   0  0  0  0  0  0  0  0  0  0  0  0  # atno 8010 bound_to 7997
  140.5865  143.8879  150.6835 H   0  0  0  0  0  0  0  0  0  0  0  0  # atno 10167 bound_to 10162
  157.5770  130.8951  149.9364 H   0  0  0  0  0  0  0  0  0  0  0  0  # atno 10718 bound_to 10713
  154.6608  135.2924  154.9869 H   0  0  0  0  0  0  0  0  0  0  0  0  # atno 10763 bound_to 10752
  154.0930  135.6588  153.4859 H   0  0  0  0  0  0  0  0  0  0  0  0  # atno 10764 bound_to 10752
  153.0428  135.5224  154.7558 H   0  0  0  0  0  0  0  0  0  0  0  0  # atno 10765 bound_to 10752
  139.8836  134.9416  156.5900 H   0  0  0  0  0  0  0  0  0  0  0  0  # atno 11005 bound_to 11000
  145.2518  139.2028  143.4938 LP  0  0  0  0  0  0  0  0  0  0  0  0  # atno 17320 bound_to 7965
  146.3390  140.2432  142.8596 LP  0  0  0  0  0  0  0  0  0  0  0  0  # atno 17321 bound_to 7965
  140.2392  143.3677  152.1501 LP  0  0  0  0  0  0  0  0  0  0  0  0  # atno 17342 bound_to 10162
  139.5201  144.7028  151.5443 LP  0  0  0  0  0  0  0  0  0  0  0  0  # atno 17343 bound_to 10162
  156.0815  130.3672  150.0571 LP  0  0  0  0  0  0  0  0  0  0  0  0  # atno 17370 bound_to 10713
  156.8716  130.9526  151.3608 LP  0  0  0  0  0  0  0  0  0  0  0  0  # atno 17371 bound_to 10713
  140.7963  133.8542  155.8688 LP  0  0  0  0  0  0  0  0  0  0  0  0  # atno 17394 bound_to 11000
  140.9633  134.1627  157.4637 LP  0  0  0  0  0  0  0  0  0  0  0  0  # atno 17395 bound_to 11000

$$$$
