AV-unprocessed.smi:37|AV-procd|sdf|315|dock1
  -GOLD-   2262016133D 1   1.00000     0.00000
 Structure written by MMmdl.
 44 45  0  0  0  0  0  0  0  0  1 V2000
  144.7235  137.1328  162.5933 C   0  0  0  0  0  0  0  0  0  0  0  0
  143.6336  136.9798  161.5238 C   0  0  0  0  0  0  0  0  0  0  0  0
  144.0792  136.0815  160.3722 C   0  0  0  0  0  0  0  0  0  0  0  0
  143.4158  135.1030  160.0280 O   0  0  0  0  0  0  0  0  0  0  0  0
  145.2352  136.4825  159.8201 O   0  0  0  0  0  0  0  0  0  0  0  0
  145.6874  135.8737  158.6224 C   0  0  0  0  0  0  0  0  0  0  0  0
  146.9547  136.5957  158.1360 C   0  0  2  0  0  0  0  0  0  0  0  0
  147.0946  136.3183  156.7376 O   0  0  0  0  0  0  0  0  0  0  0  0
  148.3636  135.8154  156.4423 C   0  0  1  0  0  0  0  0  0  0  0  0
  149.2863  136.9372  155.9955 N   0  0  0  0  0  0  0  0  0  0  0  0
  148.8620  138.2554  155.8598 C   0  0  0  0  0  0  0  0  0  0  0  0
  149.6777  139.2549  155.4476 C   0  0  0  0  0  0  0  0  0  0  0  0
  149.1944  140.5044  155.3430 F   0  0  0  0  0  0  0  0  0  0  0  0
  151.0719  138.9884  155.1080 C   0  0  0  0  0  0  0  0  0  0  0  0
  151.8877  139.8277  154.7320 O   0  0  0  0  0  0  0  0  0  0  0  0
  151.4491  137.6492  155.2351 N   0  0  0  0  0  0  0  0  0  0  0  0
  150.6181  136.6093  155.6543 C   0  0  0  0  0  0  0  0  0  0  0  0
  151.0550  135.4607  155.7146 O   0  0  0  0  0  0  0  0  0  0  0  0
  148.8638  135.1790  157.7398 C   0  0  2  0  0  0  0  0  0  0  0  0
  148.1140  133.3356  157.8930 Br  0  0  0  0  0  0  0  0  0  0  0  0
  148.2641  136.1100  158.7840 C   0  0  2  0  0  0  0  0  0  0  0  0
  148.0850  135.4832  160.0487 O   0  0  0  0  0  0  0  0  0  0  0  0
  147.6963  136.2023  161.1169 C   0  0  0  0  0  0  0  0  0  0  0  0
  147.4599  137.4103  161.1282 O   0  0  0  0  0  0  0  0  0  0  0  0
  147.5722  135.3535  162.3796 C   0  0  0  0  0  0  0  0  0  0  0  0
  146.5804  134.1961  162.2000 C   0  0  0  0  0  0  0  0  0  0  0  0
  152.4022  137.4141  154.9991 H   0  0  0  0  0  0  0  0  0  0  0  0
  144.4044  137.8278  163.3700 H   0  0  0  0  0  0  0  0  0  0  0  0
  145.6488  137.5195  162.1647 H   0  0  0  0  0  0  0  0  0  0  0  0
  144.9470  136.1805  163.0754 H   0  0  0  0  0  0  0  0  0  0  0  0
  142.7289  136.5640  161.9678 H   0  0  0  0  0  0  0  0  0  0  0  0
  143.3690  137.9588  161.1236 H   0  0  0  0  0  0  0  0  0  0  0  0
  145.9029  134.8250  158.8298 H   0  0  0  0  0  0  0  0  0  0  0  0
  144.9080  135.9062  157.8606 H   0  0  0  0  0  0  0  0  0  0  0  0
  146.8455  137.6677  158.3034 H   0  0  0  0  0  0  0  0  0  0  0  0
  148.3174  135.1317  155.5924 H   0  0  0  0  0  0  0  0  0  0  0  0
  147.8415  138.5258  156.0802 H   0  0  0  0  0  0  0  0  0  0  0  0
  149.9498  135.1068  157.7925 H   0  0  0  0  0  0  0  0  0  0  0  0
  148.9150  136.9802  158.8863 H   0  0  0  0  0  0  0  0  0  0  0  0
  148.5558  134.9620  162.6400 H   0  0  0  0  0  0  0  0  0  0  0  0
  147.2566  135.9924  163.2047 H   0  0  0  0  0  0  0  0  0  0  0  0
  146.5378  133.5837  163.1005 H   0  0  0  0  0  0  0  0  0  0  0  0
  146.8724  133.5482  161.3727 H   0  0  0  0  0  0  0  0  0  0  0  0
  145.5717  134.5603  162.0020 H   0  0  0  0  0  0  0  0  0  0  0  0
  1  2  1  0  0  0  0
  1 28  1  0  0  0  0
  1 29  1  0  0  0  0
  1 30  1  0  0  0  0
  2  3  1  0  0  0  0
  2 31  1  0  0  0  0
  2 32  1  0  0  0  0
  3  4  2  0  0  0  0
  3  5  1  0  0  0  0
  5  6  1  0  0  0  0
  6  7  1  0  0  0  0
  6 33  1  0  0  0  0
  6 34  1  0  0  0  0
  7 21  1  0  0  0  0
  7  8  1  0  0  0  0
  7 35  1  0  0  0  0
  8  9  1  0  0  0  0
  9 10  1  0  0  0  0
  9 19  1  0  0  0  0
  9 36  1  0  0  0  0
 10 17  1  0  0  0  0
 10 11  1  0  0  0  0
 11 12  2  0  0  0  0
 11 37  1  0  0  0  0
 12 13  1  0  0  0  0
 12 14  1  0  0  0  0
 14 15  2  0  0  0  0
 14 16  1  0  0  0  0
 16 27  1  0  0  0  0
 16 17  1  0  0  0  0
 17 18  2  0  0  0  0
 19 20  1  0  0  0  0
 19 21  1  0  0  0  0
 19 38  1  0  0  0  0
 21 22  1  0  0  0  0
 21 39  1  0  0  0  0
 22 23  1  0  0  0  0
 23 24  2  0  0  0  0
 23 25  1  0  0  0  0
 25 26  1  0  0  0  0
 25 40  1  0  0  0  0
 25 41  1  0  0  0  0
 26 42  1  0  0  0  0
 26 43  1  0  0  0  0
 26 44  1  0  0  0  0
M  END
> <s_m_source_file>
AV-unprocessed.smi

> <i_m_source_file_index>
37

> <i_lp_mmshare_version>
43012

> <i_f3d_flags>
0

> <s_epik_input>
W0NIM11bQ0gyXUMoPU8pT1tDSDJdW0NAQEhdMU9bQ0BASF0objJbY0hdYyhGKWMoPU8pW25IXWMyPU8pW0NAQEhdKEJyKVtDQEhdMU9DKD1PKVtDSDJdW0NIM10=

> <s_epik_cmdline>
J2VwaWtfcHl0aG9uJywgJy1waCcsICc3LjAnLCAnLXRuJywgJzgnLCAnLW1hJywgJzIwMCcsICctbWV0YWxfYmluZGluZycsICctaW1hZScsICc8aW5maWxlLm1hZT4nLCAnLW9tYWUnLCAnPG91dGZpbGUubWFlPic=

> <r_lp_tautomer_probability>
0.999537

> <r_epik_Ionization_Penalty>
0.104106

> <r_epik_Ionization_Penalty_Charging>
0.104106

> <r_epik_Ionization_Penalty_Neutral>
3.94675e-16

> <r_epik_State_Penalty>
0.0940182

> <r_epik_Charging_Adjusted_Penalty>
0.198124

> <i_epik_Tot_Q>
0

> <i_epik_Tot_abs_Q>
0

> <r_epik_Metal_State_Penalty>
3.05314

> <b_epik_Metal_Only>
0

> <s_epik_Chemistry_Notes>
This compound has an ester and may undergo hydrolysis at high or low pH. This compound contains an acetal/aminal-like group ( X-CH(R)-Y where X, Y are N, S, or O) that may be acid/base labile, releasing an aldehyde.

> <s_lp_Force_Field>
OPLS_2005

> <r_lp_Energy>
24.3846

> <b_lp_Chiralities_Consistent>
1

> <s_lp_Variant>
AV-unprocessed.smi:37-13

> <Gold.Version>
5.8.1

> <Gold.Id.Protein>
6NUR|6NUR_protein|mol2

> <Gold.PLP.Fitness>
38.9366

> <Gold.PLP.PLP>
-28.2028

> <Gold.PLP.part.hbond>
-4.0000

> <Gold.PLP.part.metal>
0.0000

> <Gold.PLP.part.buried>
-5.2473

> <Gold.PLP.part.nonpolar>
-19.8856

> <Gold.PLP.part.repulsive>
0.2122

> <Gold.PLP.ligand.clash>
0.0000

> <Gold.PLP.ligand.torsion>
0.3999

> <Gold.PLP.Chemscore.Hbond>
3.7760

> <Gold.PLP.Chemscore.CHOScore>
0.0000

> <Gold.PLP.Chemscore.Metal>
0.0000

> <Gold.Chemscore.Hbonds>
donor molecule, donor type, donor heavy atom, donor atom, acceptor molecule, acceptor atom, score
      P1  H  6931  6943       L1    24  0.77
      P1  H  6934  6947       L1    24  0.96
      P1  H  7989  7998       L1    15  0.96
      P1  H 10752 10763       L1    18  0.71

> <Gold.PLP.Chemscore.Internal.Correction>
0.2057

> <Gold.Rescore>
     Score         DG    S(hbond)    S(metal)    S(lipo)     H(rot)  DE(clash)    DE(int)     intcor
     11.79     -13.62       3.65        0.00      38.21       3.33       0.04       1.78       ----

> <Gold.Chemscore.Fitness>
11.7938

> <Gold.Chemscore.DG>
-13.6211

> <Gold.Chemscore.ZeroCoef>
-5.4800

> <Gold.Chemscore.Hbond>
3.6516

> <Gold.Chemscore.Metal>
0.0000

> <Gold.Chemscore.Lipo>
38.2090

> <Gold.Chemscore.Internal_Hbond>
0.0000

> <Gold.Chemscore.DEClash>
0.0445

> <Gold.Chemscore.DEInternal>
1.7828

> <Gold.Chemscore.Rot>
3.3303

> <Gold.Chemscore.Internal.Correction>
   9.000000E+99

> <Gold.Chemscore.Hbonds>
donor molecule, donor type, donor heavy atom, donor atom, acceptor molecule, acceptor atom, score
      P1  H  6931  6943       L1    24  0.41
      P1  H  6934  6947       L1    24  0.92
      P1  H  7989  7998       L1    15  0.91
      P1  H 10752 10763       L1    18  0.46

> <Gold.Chemscore.Hbond.Weighted>
-12.1962

> <Gold.Chemscore.Metal.Weighted>
-0.0000

> <Gold.Chemscore.Lipo.Weighted>
-4.4705

> <Gold.Chemscore.Internal_Hbond.Weighted>
0.0000

> <Gold.Chemscore.DEClash.Weighted>
0.0445

> <Gold.Chemscore.DEInternal.Weighted>
1.7828

> <Gold.Chemscore.Rot.Weighted>
8.5256

> <Gold.Chemscore.Internal.Correction.Weighted>
   9.000000E+99

> <Gold.Protein.RotatedTorsions>
[ 6907 6896 6895 6894 ] final  122.16 input  -60.11 | X-H torsion
[ 7974 7965 7964 7962 ] final  118.23 input  175.53 | X-H torsion
[ 8008 7997 7996 7995 ] final  -29.64 input   59.86 | X-H torsion
[ 10167 10162 10161 10158 ] final -146.87 input  -65.29 | X-H torsion
[ 10718 10713 10712 10709 ] final  -21.21 input   66.30 | X-H torsion
[ 10763 10752 10751 10750 ] final   82.62 input  -60.55 | X-H torsion
[ 11005 11000 10999 10996 ] final  -85.82 input  -57.11 | X-H torsion

> <Gold.Protein.ActiveResidues>
 VAL166  LYS551  ARG553  GLY616  TRP617  ASP618  TYR619  PRO620  LYS621  CYS622 
 ASP623  PHE694  ASN695  SER759  ASP760  ASP761  ALA762  ILE779  LEU786  VAL792 
 PHE793  MET794  SER795  GLU796  ALA797  LYS798  CYS799  TRP800  GLU811  SER814 

> <Gold.Protein.RotatedAtoms>
  152.4265  133.7204  159.6529 H   0  0  0  0  0  0  0  0  0  0  0  0  # atno 6907 bound_to 6896
  150.8142  133.8356  159.3174 H   0  0  0  0  0  0  0  0  0  0  0  0  # atno 6908 bound_to 6896
  151.6057  135.1046  160.0122 H   0  0  0  0  0  0  0  0  0  0  0  0  # atno 6909 bound_to 6896
  145.1578  139.3173  143.4533 H   0  0  0  0  0  0  0  0  0  0  0  0  # atno 7974 bound_to 7965
  154.4282  140.1813  156.1279 H   0  0  0  0  0  0  0  0  0  0  0  0  # atno 8008 bound_to 7997
  156.0091  140.3352  155.6897 H   0  0  0  0  0  0  0  0  0  0  0  0  # atno 8009 bound_to 7997
  155.6136  140.0652  157.2689 H   0  0  0  0  0  0  0  0  0  0  0  0  # atno 8010 bound_to 7997
  139.7673  143.8288  152.2618 H   0  0  0  0  0  0  0  0  0  0  0  0  # atno 10167 bound_to 10162
  156.5212  130.4633  149.6595 H   0  0  0  0  0  0  0  0  0  0  0  0  # atno 10718 bound_to 10713
  153.1219  135.4721  154.9209 H   0  0  0  0  0  0  0  0  0  0  0  0  # atno 10763 bound_to 10752
  154.7583  135.3124  154.8429 H   0  0  0  0  0  0  0  0  0  0  0  0  # atno 10764 bound_to 10752
  153.8991  135.6877  153.4810 H   0  0  0  0  0  0  0  0  0  0  0  0  # atno 10765 bound_to 10752
  141.1637  133.7420  156.9071 H   0  0  0  0  0  0  0  0  0  0  0  0  # atno 11005 bound_to 11000
  146.3486  140.1676  142.8590 LP  0  0  0  0  0  0  0  0  0  0  0  0  # atno 17320 bound_to 7965
  145.0363  140.8910  143.5079 LP  0  0  0  0  0  0  0  0  0  0  0  0  # atno 17321 bound_to 7965
  139.8312  144.7252  150.9447 LP  0  0  0  0  0  0  0  0  0  0  0  0  # atno 17342 bound_to 10162
  140.7811  143.4068  151.1058 LP  0  0  0  0  0  0  0  0  0  0  0  0  # atno 17343 bound_to 10162
  156.3147  130.7248  151.2148 LP  0  0  0  0  0  0  0  0  0  0  0  0  # atno 17370 bound_to 10713
  157.7436  131.0472  150.4930 LP  0  0  0  0  0  0  0  0  0  0  0  0  # atno 17371 bound_to 10713
  140.1542  134.9209  157.2632 LP  0  0  0  0  0  0  0  0  0  0  0  0  # atno 17394 bound_to 11000
  140.2687  134.3486  155.7381 LP  0  0  0  0  0  0  0  0  0  0  0  0  # atno 17395 bound_to 11000

$$$$
