AV-unprocessed.smi:2061|AV-procd|sdf|8371|dock7
  -GOLD-   2272011 43D 1   1.00000     0.00000
 Structure written by MMmdl.
 46 47  0  0  0  0  0  0  0  0  2 V2000
  150.2691  142.1511  157.7835 C   0  0  0  0  0  0  0  0  0  0  0  0
  150.2584  141.0929  156.7344 C   0  0  0  0  0  0  0  0  0  0  0  0
  149.9594  139.7600  156.7610 C   0  0  0  0  0  0  0  0  0  0  0  0
  150.1559  139.3619  155.4063 C   0  0  0  0  0  0  0  0  0  0  0  0
  149.9810  138.0560  154.8797 N   0  0  0  0  0  0  0  0  0  0  0  0
  149.9643  136.8852  155.5388 C   0  0  0  0  0  0  0  0  0  0  0  0
  150.1164  136.7469  156.7525 O   0  0  0  0  0  0  0  0  0  0  0  0
  149.7607  135.8590  154.6990 N   0  0  0  0  0  0  0  0  0  0  0  0
  149.6358  134.4556  155.0881 C   0  0  0  0  0  0  0  0  0  0  0  0
  149.1110  133.5382  153.9468 C   0  0  1  0  0  0  0  0  0  0  0  0
  148.7967  132.1207  154.4870 C   0  0  0  0  0  0  0  0  0  0  0  0
  147.9262  134.1352  153.2392 N   0  3  1  0  0  0  0  0  0  0  0  0
  147.3597  133.2695  152.1675 C   0  0  0  0  0  0  0  0  0  0  0  0
  146.1860  133.9523  151.4422 C   0  0  1  0  0  0  0  0  0  0  0  0
  145.5338  133.0249  150.4110 C   0  0  0  0  0  0  0  0  0  0  0  0
  145.1875  134.3212  152.3837 O   0  0  0  0  0  0  0  0  0  0  0  0
  145.6475  135.1962  153.4077 C   0  0  2  0  0  0  0  0  0  0  0  0
  145.9358  136.6161  152.8860 C   0  0  0  0  0  0  0  0  0  0  0  0
  146.8332  134.5604  154.1593 C   0  0  0  0  0  0  0  0  0  0  0  0
  150.5425  140.3602  154.6336 N   0  0  0  0  0  0  0  0  0  0  0  0
  150.6086  141.4754  155.4768 O   0  0  0  0  0  0  0  0  0  0  0  0
  150.1136  141.7207  158.7730 H   0  0  0  0  0  0  0  0  0  0  0  0
  149.4794  142.8808  157.6040 H   0  0  0  0  0  0  0  0  0  0  0  0
  151.2231  142.6787  157.7911 H   0  0  0  0  0  0  0  0  0  0  0  0
  149.6521  139.1815  157.6188 H   0  0  0  0  0  0  0  0  0  0  0  0
  149.8330  138.0122  153.8822 H   0  0  0  0  0  0  0  0  0  0  0  0
  149.6524  136.0677  153.7169 H   0  0  0  0  0  0  0  0  0  0  0  0
  150.5778  134.0696  155.4813 H   0  0  0  0  0  0  0  0  0  0  0  0
  148.9380  134.4754  155.9232 H   0  0  0  0  0  0  0  0  0  0  0  0
  149.9123  133.4390  153.2127 H   0  0  0  0  0  0  0  0  0  0  0  0
  149.6331  131.6976  155.0408 H   0  0  0  0  0  0  0  0  0  0  0  0
  148.6040  131.4023  153.6924 H   0  0  0  0  0  0  0  0  0  0  0  0
  147.9339  132.1327  155.1540 H   0  0  0  0  0  0  0  0  0  0  0  0
  148.1060  133.0484  151.4074 H   0  0  0  0  0  0  0  0  0  0  0  0
  147.0411  132.3189  152.5988 H   0  0  0  0  0  0  0  0  0  0  0  0
  146.5457  134.8369  150.9165 H   0  0  0  0  0  0  0  0  0  0  0  0
  146.2519  132.7121  149.6523 H   0  0  0  0  0  0  0  0  0  0  0  0
  144.7111  133.5270  149.9015 H   0  0  0  0  0  0  0  0  0  0  0  0
  145.1340  132.1272  150.8840 H   0  0  0  0  0  0  0  0  0  0  0  0
  144.8213  135.2865  154.1135 H   0  0  0  0  0  0  0  0  0  0  0  0
  146.1384  137.2971  153.7131 H   0  0  0  0  0  0  0  0  0  0  0  0
  145.0789  137.0105  152.3392 H   0  0  0  0  0  0  0  0  0  0  0  0
  146.8005  136.6487  152.2237 H   0  0  0  0  0  0  0  0  0  0  0  0
  146.4862  133.6908  154.7197 H   0  0  0  0  0  0  0  0  0  0  0  0
  147.1815  135.2893  154.8881 H   0  0  0  0  0  0  0  0  0  0  0  0
  148.2584  134.9727  152.7822 H   0  0  0  0  0  0  0  0  0  0  0  0
  1  2  1  0  0  0  0
  1 22  1  0  0  0  0
  1 23  1  0  0  0  0
  1 24  1  0  0  0  0
  2 21  1  0  0  0  0
  2  3  2  0  0  0  0
  3  4  1  0  0  0  0
  3 25  1  0  0  0  0
  4  5  1  0  0  0  0
  4 20  2  0  0  0  0
  5  6  1  0  0  0  0
  5 26  1  0  0  0  0
  6  7  2  0  0  0  0
  6  8  1  0  0  0  0
  8  9  1  0  0  0  0
  8 27  1  0  0  0  0
  9 10  1  0  0  0  0
  9 28  1  0  0  0  0
  9 29  1  0  0  0  0
 10 11  1  0  0  0  0
 10 12  1  0  0  0  0
 10 30  1  0  0  0  0
 11 31  1  0  0  0  0
 11 32  1  0  0  0  0
 11 33  1  0  0  0  0
 12 19  1  0  0  0  0
 12 13  1  0  0  0  0
 12 46  1  0  0  0  0
 13 14  1  0  0  0  0
 13 34  1  0  0  0  0
 13 35  1  0  0  0  0
 14 15  1  0  0  0  0
 14 16  1  0  0  0  0
 14 36  1  0  0  0  0
 15 37  1  0  0  0  0
 15 38  1  0  0  0  0
 15 39  1  0  0  0  0
 16 17  1  0  0  0  0
 17 18  1  0  0  0  0
 17 19  1  0  0  0  0
 17 40  1  0  0  0  0
 18 41  1  0  0  0  0
 18 42  1  0  0  0  0
 18 43  1  0  0  0  0
 19 44  1  0  0  0  0
 19 45  1  0  0  0  0
 20 21  1  0  0  0  0
M  CHG  1  12   1
M  END
> <s_m_source_file>
AV-unprocessed.smi

> <i_m_source_file_index>
2061

> <i_lp_mmshare_version>
43012

> <i_f3d_flags>
0

> <s_epik_input>
W0NIM11jMVtjSF1jKG5vMSlbTkhdQyg9TylbTkhdW0NIMl1bQ0BIXShbQ0gzXSlOMltDSDJdW0NAQEhdKFtDSDNdKU9bQ0BASF0oW0NIM10pW0NIMl0y

> <s_epik_cmdline>
J2VwaWtfcHl0aG9uJywgJy1waCcsICc3LjAnLCAnLXRuJywgJzgnLCAnLW1hJywgJzIwMCcsICctbWV0YWxfYmluZGluZycsICctaW1hZScsICc8aW5maWxlLm1hZT4nLCAnLW9tYWUnLCAnPG91dGZpbGUubWFlPic=

> <r_epik_Ionization_Penalty>
0.707076

> <r_epik_Ionization_Penalty_Charging>
0.707039

> <r_epik_Ionization_Penalty_Neutral>
3.6548e-05

> <r_epik_State_Penalty>
0.730276

> <r_epik_Charging_Adjusted_Penalty>
1.43732

> <i_epik_Tot_Q>
1

> <i_epik_Tot_abs_Q>
1

> <r_epik_Metal_State_Penalty>
0.743132

> <b_epik_Metal_Only>
0

> <s_lp_Force_Field>
OPLS_2005

> <r_lp_Energy>
23.7206

> <b_lp_Chiralities_Consistent>
1

> <s_lp_Variant>
AV-unprocessed.smi:2061-12

> <Gold.Version>
5.8.1

> <Gold.Id.Protein>
6NUR|6NUR_protein|mol2

> <Gold.PLP.Fitness>
39.3005

> <Gold.PLP.PLP>
-27.8443

> <Gold.PLP.part.hbond>
-3.9856

> <Gold.PLP.part.metal>
0.0000

> <Gold.PLP.part.buried>
-2.8732

> <Gold.PLP.part.nonpolar>
-20.6652

> <Gold.PLP.part.repulsive>
0.3364

> <Gold.PLP.ligand.clash>
0.0000

> <Gold.PLP.ligand.torsion>
0.2931

> <Gold.PLP.Chemscore.Hbond>
4.0000

> <Gold.PLP.Chemscore.CHOScore>
0.0000

> <Gold.PLP.Chemscore.Metal>
0.0000

> <Gold.Chemscore.Hbonds>
donor molecule, donor type, donor heavy atom, donor atom, acceptor molecule, acceptor atom, score
      L1  H     8    27       P1  7948  1.00
      L1  H    12    46       P1  7948  2.00
      P1  H  7989  7998       L1    20  0.90

> <Gold.PLP.Chemscore.Internal.Correction>
0.0425

> <Gold.Rescore>
     Score         DG    S(hbond)    S(metal)    S(lipo)     H(rot)  DE(clash)    DE(int)     intcor
     14.49     -15.71       2.52        0.00      50.19       1.58       0.12       1.10       ----

> <Gold.Chemscore.Fitness>
14.4861

> <Gold.Chemscore.DG>
-15.7052

> <Gold.Chemscore.ZeroCoef>
-5.4800

> <Gold.Chemscore.Hbond>
2.5169

> <Gold.Chemscore.Metal>
0.0000

> <Gold.Chemscore.Lipo>
50.1907

> <Gold.Chemscore.Internal_Hbond>
0.0000

> <Gold.Chemscore.DEClash>
0.1164

> <Gold.Chemscore.DEInternal>
1.1026

> <Gold.Chemscore.Rot>
1.5834

> <Gold.Chemscore.Internal.Correction>
   9.000000E+99

> <Gold.Chemscore.Hbonds>
donor molecule, donor type, donor heavy atom, donor atom, acceptor molecule, acceptor atom, score
      L1  H     8    27       P1  7948  0.34
      L1  H    12    46       P1  7948  0.78
      P1  H  7989  7998       L1    20  0.18

> <Gold.Chemscore.Hbond.Weighted>
-8.4063

> <Gold.Chemscore.Metal.Weighted>
-0.0000

> <Gold.Chemscore.Lipo.Weighted>
-5.8723

> <Gold.Chemscore.Internal_Hbond.Weighted>
0.0000

> <Gold.Chemscore.DEClash.Weighted>
0.1164

> <Gold.Chemscore.DEInternal.Weighted>
1.1026

> <Gold.Chemscore.Rot.Weighted>
4.0535

> <Gold.Chemscore.Internal.Correction.Weighted>
   9.000000E+99

> <Gold.Protein.RotatedTorsions>
[ 6907 6896 6895 6894 ] final   66.95 input  -60.11 | X-H torsion
[ 7974 7965 7964 7962 ] final  -68.91 input  175.53 | X-H torsion
[ 8008 7997 7996 7995 ] final   77.02 input   59.86 | X-H torsion
[ 10167 10162 10161 10158 ] final -131.76 input  -65.29 | X-H torsion
[ 10718 10713 10712 10709 ] final -173.01 input   66.30 | X-H torsion
[ 10763 10752 10751 10750 ] final   35.48 input  -60.55 | X-H torsion
[ 11005 11000 10999 10996 ] final  -14.56 input  -57.11 | X-H torsion

> <Gold.Protein.ActiveResidues>
 VAL166  LYS551  ARG553  GLY616  TRP617  ASP618  TYR619  PRO620  LYS621  CYS622 
 ASP623  PHE694  ASN695  SER759  ASP760  ASP761  ALA762  ILE779  LEU786  VAL792 
 PHE793  MET794  SER795  GLU796  ALA797  LYS798  CYS799  TRP800  GLU811  SER814 

> <Gold.Protein.RotatedAtoms>
  152.4517  134.5379  159.9830 H   0  0  0  0  0  0  0  0  0  0  0  0  # atno 6907 bound_to 6896
  151.5450  133.3421  159.2950 H   0  0  0  0  0  0  0  0  0  0  0  0  # atno 6908 bound_to 6896
  150.8448  134.7785  159.7025 H   0  0  0  0  0  0  0  0  0  0  0  0  # atno 6909 bound_to 6896
  145.7105  140.9080  143.0683 H   0  0  0  0  0  0  0  0  0  0  0  0  # atno 7974 bound_to 7965
  155.8357  140.3464  155.5600 H   0  0  0  0  0  0  0  0  0  0  0  0  # atno 8008 bound_to 7997
  155.8195  140.0910  157.1877 H   0  0  0  0  0  0  0  0  0  0  0  0  # atno 8009 bound_to 7997
  154.4004  140.1433  156.3470 H   0  0  0  0  0  0  0  0  0  0  0  0  # atno 8010 bound_to 7997
  139.9155  143.6443  152.2566 H   0  0  0  0  0  0  0  0  0  0  0  0  # atno 10167 bound_to 10162
  156.7640  130.9424  151.3118 H   0  0  0  0  0  0  0  0  0  0  0  0  # atno 10718 bound_to 10713
  153.0117  135.6332  154.1833 H   0  0  0  0  0  0  0  0  0  0  0  0  # atno 10763 bound_to 10752
  154.1575  135.2825  155.3120 H   0  0  0  0  0  0  0  0  0  0  0  0  # atno 10764 bound_to 10752
  154.6007  135.5588  153.7432 H   0  0  0  0  0  0  0  0  0  0  0  0  # atno 10765 bound_to 10752
  140.7877  133.8313  155.9350 H   0  0  0  0  0  0  0  0  0  0  0  0  # atno 11005 bound_to 11000
  144.6943  139.9069  143.7461 LP  0  0  0  0  0  0  0  0  0  0  0  0  # atno 17320 bound_to 7965
  146.0716  139.3705  143.0519 LP  0  0  0  0  0  0  0  0  0  0  0  0  # atno 17321 bound_to 7965
  139.6906  144.7647  151.1446 LP  0  0  0  0  0  0  0  0  0  0  0  0  # atno 17342 bound_to 10162
  140.7675  143.5595  150.9115 LP  0  0  0  0  0  0  0  0  0  0  0  0  # atno 17343 bound_to 10162
  157.6721  130.9061  150.0065 LP  0  0  0  0  0  0  0  0  0  0  0  0  # atno 17370 bound_to 10713
  156.1320  130.3643  149.9716 LP  0  0  0  0  0  0  0  0  0  0  0  0  # atno 17371 bound_to 10713
  140.9420  134.1888  157.4790 LP  0  0  0  0  0  0  0  0  0  0  0  0  # atno 17394 bound_to 11000
  139.8735  134.9876  156.5373 LP  0  0  0  0  0  0  0  0  0  0  0  0  # atno 17395 bound_to 11000

$$$$
