AV-unprocessed.smi:276|AV-procd|sdf|2070|dock9
  -GOLD-   2262021323D 1   1.00000     0.00000
 Structure written by MMmdl.
 57 61  0  0  0  0  0  0  0  0  1 V2000
  153.0294  143.7859  162.5593 C   0  0  0  0  0  0  0  0  0  0  0  0
  152.6701  143.7069  161.1913 O   0  0  0  0  0  0  0  0  0  0  0  0
  152.6816  142.3760  160.6991 C   0  0  2  0  0  0  0  0  0  0  0  0
  154.0787  141.8209  160.3960 C   0  0  0  0  0  0  0  0  0  0  0  0
  153.5049  141.1913  159.1111 C   0  0  1  0  0  0  0  0  0  0  0  0
  153.0733  139.8035  159.3329 N   0  0  0  0  0  0  0  0  0  0  0  0
  154.0695  138.9041  159.9069 C   0  0  0  0  0  0  0  0  0  0  0  0
  152.4641  139.2002  158.2878 C   0  0  0  0  0  0  0  0  0  0  0  0
  152.9439  139.4813  157.0507 N   0  0  0  0  0  0  0  0  0  0  0  0
  152.3959  138.9086  155.9748 C   0  0  0  0  0  0  0  0  0  0  0  0
  151.3780  138.0474  155.9140 N   0  0  0  0  0  0  0  0  0  0  0  0
  150.8835  137.7758  157.1560 C   0  0  0  0  0  0  0  0  0  0  0  0
  151.3575  138.3083  158.3879 C   0  0  0  0  0  0  0  0  0  0  0  0
  150.6002  137.8079  159.4409 N   0  0  0  0  0  0  0  0  0  0  0  0
  149.7398  137.0129  158.8665 C   0  0  0  0  0  0  0  0  0  0  0  0
  149.8407  136.9329  157.4966 N   0  0  0  0  0  0  0  0  0  0  0  0
  149.0193  136.1230  156.6132 C   0  0  0  0  0  0  0  0  0  0  0  0
  149.5066  136.1651  155.1463 C   0  0  2  0  0  0  0  0  0  0  0  0
  148.3809  135.9606  154.3123 O   0  0  0  0  0  0  0  0  0  0  0  0
  150.5440  135.0735  154.7902 C   0  0  2  0  0  0  0  0  0  0  0  0
  150.0210  133.6263  154.8295 C   0  0  0  0  0  0  0  0  0  0  0  0
  150.3582  133.1681  156.2291 C   0  0  0  0  0  0  0  0  0  0  0  0
  151.7001  133.8494  156.4378 C   0  0  0  0  0  0  0  0  0  0  0  0
  151.5585  135.1116  155.7994 O   0  0  0  0  0  0  0  0  0  0  0  0
  152.3858  142.2654  159.1924 C   0  0  0  0  0  0  0  0  0  0  0  0
  152.4755  143.5171  158.3000 C   0  0  0  0  0  0  0  0  0  0  0  0
  150.9482  143.6052  158.3641 C   0  0  0  0  0  0  0  0  0  0  0  0
  150.9424  142.1069  158.6763 C   0  0  0  0  0  0  0  0  0  0  0  0
  152.9908  144.8245  162.8877 H   0  0  0  0  0  0  0  0  0  0  0  0
  154.0425  143.4180  162.7260 H   0  0  0  0  0  0  0  0  0  0  0  0
  152.3417  143.2106  163.1802 H   0  0  0  0  0  0  0  0  0  0  0  0
  152.0684  141.6877  161.2850 H   0  0  0  0  0  0  0  0  0  0  0  0
  154.8038  142.6081  160.1826 H   0  0  0  0  0  0  0  0  0  0  0  0
  154.4595  141.1346  161.1517 H   0  0  0  0  0  0  0  0  0  0  0  0
  154.1745  141.3197  158.2607 H   0  0  0  0  0  0  0  0  0  0  0  0
  153.7869  137.8551  159.8012 H   0  0  0  0  0  0  0  0  0  0  0  0
  154.1904  139.0976  160.9722 H   0  0  0  0  0  0  0  0  0  0  0  0
  155.0367  139.0435  159.4226 H   0  0  0  0  0  0  0  0  0  0  0  0
  152.8385  139.1768  155.0268 H   0  0  0  0  0  0  0  0  0  0  0  0
  149.0050  136.4562  159.4298 H   0  0  0  0  0  0  0  0  0  0  0  0
  149.0363  135.1065  157.0032 H   0  0  0  0  0  0  0  0  0  0  0  0
  147.9863  136.4667  156.6822 H   0  0  0  0  0  0  0  0  0  0  0  0
  149.9194  137.1519  154.9329 H   0  0  0  0  0  0  0  0  0  0  0  0
  148.6355  136.1263  153.4175 H   0  0  0  0  0  0  0  0  0  0  0  0
  150.9813  135.2756  153.8113 H   0  0  0  0  0  0  0  0  0  0  0  0
  148.9668  133.5057  154.5897 H   0  0  0  0  0  0  0  0  0  0  0  0
  150.5802  133.0225  154.1133 H   0  0  0  0  0  0  0  0  0  0  0  0
  149.6231  133.5466  156.9406 H   0  0  0  0  0  0  0  0  0  0  0  0
  150.4095  132.0835  156.3269 H   0  0  0  0  0  0  0  0  0  0  0  0
  151.9595  133.9587  157.4910 H   0  0  0  0  0  0  0  0  0  0  0  0
  152.4955  133.2894  155.9442 H   0  0  0  0  0  0  0  0  0  0  0  0
  153.0041  144.3681  158.7298 H   0  0  0  0  0  0  0  0  0  0  0  0
  152.8383  143.2900  157.2961 H   0  0  0  0  0  0  0  0  0  0  0  0
  150.5938  144.2126  159.1984 H   0  0  0  0  0  0  0  0  0  0  0  0
  150.4653  143.8803  157.4261 H   0  0  0  0  0  0  0  0  0  0  0  0
  150.8550  141.5170  157.7641 H   0  0  0  0  0  0  0  0  0  0  0  0
  150.2156  141.7973  159.4274 H   0  0  0  0  0  0  0  0  0  0  0  0
  1  2  1  0  0  0  0
  1 29  1  0  0  0  0
  1 30  1  0  0  0  0
  1 31  1  0  0  0  0
  2  3  1  0  0  0  0
  3 25  1  0  0  0  0
  3  4  1  0  0  0  0
  3 32  1  0  0  0  0
  4  5  1  0  0  0  0
  4 33  1  0  0  0  0
  4 34  1  0  0  0  0
  5  6  1  0  0  0  0
  5 25  1  0  0  0  0
  5 35  1  0  0  0  0
  6  7  1  0  0  0  0
  6  8  1  0  0  0  0
  7 36  1  0  0  0  0
  7 37  1  0  0  0  0
  7 38  1  0  0  0  0
  8 13  1  0  0  0  0
  8  9  2  0  0  0  0
  9 10  1  0  0  0  0
 10 11  2  0  0  0  0
 10 39  1  0  0  0  0
 11 12  1  0  0  0  0
 12 16  1  0  0  0  0
 12 13  2  0  0  0  0
 13 14  1  0  0  0  0
 14 15  2  0  0  0  0
 15 16  1  0  0  0  0
 15 40  1  0  0  0  0
 16 17  1  0  0  0  0
 17 18  1  0  0  0  0
 17 41  1  0  0  0  0
 17 42  1  0  0  0  0
 18 19  1  0  0  0  0
 18 20  1  0  0  0  0
 18 43  1  0  0  0  0
 19 44  1  0  0  0  0
 20 24  1  0  0  0  0
 20 21  1  0  0  0  0
 20 45  1  0  0  0  0
 21 22  1  0  0  0  0
 21 46  1  0  0  0  0
 21 47  1  0  0  0  0
 22 23  1  0  0  0  0
 22 48  1  0  0  0  0
 22 49  1  0  0  0  0
 23 24  1  0  0  0  0
 23 50  1  0  0  0  0
 23 51  1  0  0  0  0
 25 28  1  0  0  0  0
 25 26  1  0  0  0  0
 26 27  1  0  0  0  0
 26 52  1  0  0  0  0
 26 53  1  0  0  0  0
 27 28  1  0  0  0  0
 27 54  1  0  0  0  0
 27 55  1  0  0  0  0
 28 56  1  0  0  0  0
 28 57  1  0  0  0  0
M  END
> <s_m_source_file>
AV-unprocessed.smi

> <i_m_source_file_index>
276

> <i_lp_mmshare_version>
43012

> <i_f3d_flags>
0

> <s_epik_input>
W0NIMl0xW0NIMl1bQ0gyXUMxMltDQEhdKE9bQ0gzXSlbQ0gyXVtDQEhdMk4oW0NIM10pYyhuW2NIXW4zKWMoYzM0KW5bY0hdbjRbQ0gyXVtDQEhdKFtPSF0pW0NAQEhdNVtDSDJdW0NIMl1bQ0gyXU81

> <s_epik_cmdline>
J2VwaWtfcHl0aG9uJywgJy1waCcsICc3LjAnLCAnLXRuJywgJzgnLCAnLW1hJywgJzIwMCcsICctbWV0YWxfYmluZGluZycsICctaW1hZScsICc8aW5maWxlLm1hZT4nLCAnLW9tYWUnLCAnPG91dGZpbGUubWFlPic=

> <r_lp_tautomer_probability>
1

> <r_epik_Ionization_Penalty>
0.00204117

> <r_epik_Ionization_Penalty_Charging>
0

> <r_epik_Ionization_Penalty_Neutral>
0.00204117

> <r_epik_State_Penalty>
0.00127401

> <r_epik_Charging_Adjusted_Penalty>
0.00127401

> <i_epik_Tot_Q>
0

> <i_epik_Tot_abs_Q>
0

> <r_epik_Metal_State_Penalty>
-0

> <b_epik_Metal_Only>
0

> <s_lp_Force_Field>
OPLS_2005

> <r_lp_Energy>
59.1309

> <b_lp_Chiralities_Consistent>
1

> <s_lp_Variant>
AV-unprocessed.smi:276-1

> <Gold.Version>
5.8.1

> <Gold.Id.Protein>
6NUR|6NUR_protein|mol2

> <Gold.PLP.Fitness>
51.1008

> <Gold.PLP.PLP>
-44.4813

> <Gold.PLP.part.hbond>
-3.9491

> <Gold.PLP.part.metal>
0.0000

> <Gold.PLP.part.buried>
-6.2678

> <Gold.PLP.part.nonpolar>
-33.8775

> <Gold.PLP.part.repulsive>
0.1449

> <Gold.PLP.ligand.clash>
0.0000

> <Gold.PLP.ligand.torsion>
1.4771

> <Gold.PLP.Chemscore.Hbond>
2.9420

> <Gold.PLP.Chemscore.CHOScore>
0.0000

> <Gold.PLP.Chemscore.Metal>
0.0000

> <Gold.Chemscore.Hbonds>
donor molecule, donor type, donor heavy atom, donor atom, acceptor molecule, acceptor atom, score
      L1  H    19    44       P1  7948  1.00
      P1  H  7997  8010       L1     9  0.99
      P1  H 10752 10764       L1    24  0.99

> <Gold.PLP.Chemscore.Internal.Correction>
0.7478

> <Gold.Rescore>
     Score         DG    S(hbond)    S(metal)    S(lipo)     H(rot)  DE(clash)    DE(int)     intcor
     15.89     -19.88       2.33        0.00     116.09       2.72       0.58       3.41       ----

> <Gold.Chemscore.Fitness>
15.8942

> <Gold.Chemscore.DG>
-19.8835

> <Gold.Chemscore.ZeroCoef>
-5.4800

> <Gold.Chemscore.Hbond>
2.3284

> <Gold.Chemscore.Metal>
0.0000

> <Gold.Chemscore.Lipo>
116.0903

> <Gold.Chemscore.Internal_Hbond>
0.0000

> <Gold.Chemscore.DEClash>
0.5841

> <Gold.Chemscore.DEInternal>
3.4052

> <Gold.Chemscore.Rot>
2.7172

> <Gold.Chemscore.Internal.Correction>
   9.000000E+99

> <Gold.Chemscore.Hbonds>
donor molecule, donor type, donor heavy atom, donor atom, acceptor molecule, acceptor atom, score
      L1  H    19    44       P1  7948  0.98
      P1  H  7997  8010       L1     9  0.24
      P1  H 10752 10764       L1    24  0.31

> <Gold.Chemscore.Hbond.Weighted>
-7.7769

> <Gold.Chemscore.Metal.Weighted>
-0.0000

> <Gold.Chemscore.Lipo.Weighted>
-13.5826

> <Gold.Chemscore.Internal_Hbond.Weighted>
0.0000

> <Gold.Chemscore.DEClash.Weighted>
0.5841

> <Gold.Chemscore.DEInternal.Weighted>
3.4052

> <Gold.Chemscore.Rot.Weighted>
6.9560

> <Gold.Chemscore.Internal.Correction.Weighted>
   9.000000E+99

> <Gold.Protein.RotatedTorsions>
[ 6907 6896 6895 6894 ] final   99.08 input  -60.11 | X-H torsion
[ 7974 7965 7964 7962 ] final  -29.95 input  175.53 | X-H torsion
[ 8008 7997 7996 7995 ] final   78.88 input   59.86 | X-H torsion
[ 10167 10162 10161 10158 ] final    7.80 input  -65.29 | X-H torsion
[ 10718 10713 10712 10709 ] final  156.99 input   66.30 | X-H torsion
[ 10763 10752 10751 10750 ] final  -37.83 input  -60.55 | X-H torsion
[ 11005 11000 10999 10996 ] final   37.84 input  -57.11 | X-H torsion

> <Gold.Protein.ActiveResidues>
 VAL166  LYS551  ARG553  GLY616  TRP617  ASP618  TYR619  PRO620  LYS621  CYS622 
 ASP623  PHE694  ASN695  SER759  ASP760  ASP761  ALA762  ILE779  LEU786  VAL792 
 PHE793  MET794  SER795  GLU796  ALA797  LYS798  CYS799  TRP800  GLU811  SER814 

> <Gold.Protein.RotatedAtoms>
  152.5398  134.0483  159.8098 H   0  0  0  0  0  0  0  0  0  0  0  0  # atno 6907 bound_to 6896
  151.0629  133.5522  159.2640 H   0  0  0  0  0  0  0  0  0  0  0  0  # atno 6908 bound_to 6896
  151.2414  135.0598  159.9080 H   0  0  0  0  0  0  0  0  0  0  0  0  # atno 6909 bound_to 6896
  146.1179  140.5477  142.8748 H   0  0  0  0  0  0  0  0  0  0  0  0  # atno 7974 bound_to 7965
  155.8619  140.3453  155.5762 H   0  0  0  0  0  0  0  0  0  0  0  0  # atno 8008 bound_to 7997
  155.7924  140.0873  157.2021 H   0  0  0  0  0  0  0  0  0  0  0  0  # atno 8009 bound_to 7997
  154.4012  140.1480  156.3166 H   0  0  0  0  0  0  0  0  0  0  0  0  # atno 8010 bound_to 7997
  140.6351  143.7905  150.7348 H   0  0  0  0  0  0  0  0  0  0  0  0  # atno 10167 bound_to 10162
  157.1975  131.0669  151.2044 H   0  0  0  0  0  0  0  0  0  0  0  0  # atno 10718 bound_to 10713
  153.9028  135.6800  153.4754 H   0  0  0  0  0  0  0  0  0  0  0  0  # atno 10763 bound_to 10752
  153.1120  135.4779  154.9048 H   0  0  0  0  0  0  0  0  0  0  0  0  # atno 10764 bound_to 10752
  154.7566  135.3199  154.8412 H   0  0  0  0  0  0  0  0  0  0  0  0  # atno 10765 bound_to 10752
  140.2186  134.3669  155.8015 H   0  0  0  0  0  0  0  0  0  0  0  0  # atno 11005 bound_to 11000
  144.7570  140.5331  143.6762 LP  0  0  0  0  0  0  0  0  0  0  0  0  # atno 17320 bound_to 7965
  145.5528  139.1477  143.3385 LP  0  0  0  0  0  0  0  0  0  0  0  0  # atno 17321 bound_to 7965
  140.1524  143.4346  152.2122 LP  0  0  0  0  0  0  0  0  0  0  0  0  # atno 17342 bound_to 10162
  139.5562  144.7374  151.4288 LP  0  0  0  0  0  0  0  0  0  0  0  0  # atno 17343 bound_to 10162
  157.3799  130.7226  149.6623 LP  0  0  0  0  0  0  0  0  0  0  0  0  # atno 17370 bound_to 10713
  155.9704  130.4175  150.4283 LP  0  0  0  0  0  0  0  0  0  0  0  0  # atno 17371 bound_to 10713
  141.2224  133.7181  156.8537 LP  0  0  0  0  0  0  0  0  0  0  0  0  # atno 17394 bound_to 11000
  140.1874  134.8990  157.3020 LP  0  0  0  0  0  0  0  0  0  0  0  0  # atno 17395 bound_to 11000

$$$$
