AV-unprocessed.smi:3304|AV-procd|sdf|12698|dock5
  -GOLD-   2272019 33D 1   1.00000     0.00000
 Structure written by MMmdl.
 46 47  0  0  0  0  0  0  0  0  2 V2000
  144.8209  143.4182  157.7973 C   0  0  0  0  0  0  0  0  0  0  0  0
  145.2314  143.5582  156.3669 C   0  0  0  0  0  0  0  0  0  0  0  0
  146.2439  142.9625  155.6634 C   0  0  0  0  0  0  0  0  0  0  0  0
  147.2685  141.9670  156.1342 C   0  0  0  0  0  0  0  0  0  0  0  0
  148.3999  141.7964  155.1116 C   0  0  0  0  0  0  0  0  0  0  0  0
  149.6946  142.2220  155.6766 N   0  3  0  0  0  0  0  0  0  0  0  0
  149.9918  141.6418  157.0015 C   0  0  0  0  0  0  0  0  0  0  0  0
  151.3406  142.1415  157.5512 C   0  0  2  0  0  0  0  0  0  0  0  0
  151.7398  141.3621  158.8200 C   0  0  0  0  0  0  0  0  0  0  0  0
  153.0856  141.8455  159.3885 C   0  0  0  0  0  0  0  0  0  0  0  0
  153.0966  143.3608  159.6707 C   0  0  2  0  0  0  0  0  0  0  0  0
  152.2740  143.7366  160.9157 C   0  0  0  0  0  0  0  0  0  0  0  0
  152.6639  144.1451  158.4159 C   0  0  0  0  0  0  0  0  0  0  0  0
  151.3197  143.6563  157.8486 C   0  0  0  0  0  0  0  0  0  0  0  0
  146.1110  143.5078  154.3551 C   0  0  0  0  0  0  0  0  0  0  0  0
  145.1111  144.3647  154.2553 N   0  0  0  0  0  0  0  0  0  0  0  0
  144.5686  144.3962  155.4899 N   0  0  0  0  0  0  0  0  0  0  0  0
  143.4251  145.2513  155.7432 C   0  0  0  0  0  0  0  0  0  0  0  0
  145.4677  142.7203  158.3287 H   0  0  0  0  0  0  0  0  0  0  0  0
  143.7981  143.0486  157.8723 H   0  0  0  0  0  0  0  0  0  0  0  0
  144.8725  144.3786  158.3107 H   0  0  0  0  0  0  0  0  0  0  0  0
  147.6888  142.2760  157.0919 H   0  0  0  0  0  0  0  0  0  0  0  0
  146.8005  140.9988  156.3166 H   0  0  0  0  0  0  0  0  0  0  0  0
  148.4700  140.7523  154.8034 H   0  0  0  0  0  0  0  0  0  0  0  0
  148.1882  142.3838  154.2171 H   0  0  0  0  0  0  0  0  0  0  0  0
  150.4295  141.9543  155.0374 H   0  0  0  0  0  0  0  0  0  0  0  0
  149.1870  141.8816  157.6980 H   0  0  0  0  0  0  0  0  0  0  0  0
  150.0125  140.5558  156.9011 H   0  0  0  0  0  0  0  0  0  0  0  0
  152.1049  141.9514  156.7955 H   0  0  0  0  0  0  0  0  0  0  0  0
  150.9615  141.4612  159.5775 H   0  0  0  0  0  0  0  0  0  0  0  0
  151.8091  140.2972  158.5950 H   0  0  0  0  0  0  0  0  0  0  0  0
  153.3293  141.2909  160.2954 H   0  0  0  0  0  0  0  0  0  0  0  0
  153.8748  141.6119  158.6726 H   0  0  0  0  0  0  0  0  0  0  0  0
  154.1274  143.6424  159.8901 H   0  0  0  0  0  0  0  0  0  0  0  0
  151.2179  143.4949  160.7997 H   0  0  0  0  0  0  0  0  0  0  0  0
  152.3463  144.8045  161.1233 H   0  0  0  0  0  0  0  0  0  0  0  0
  152.6378  143.2079  161.7972 H   0  0  0  0  0  0  0  0  0  0  0  0
  152.6095  145.2114  158.6383 H   0  0  0  0  0  0  0  0  0  0  0  0
  153.4308  144.0373  157.6475 H   0  0  0  0  0  0  0  0  0  0  0  0
  151.0950  144.2160  156.9402 H   0  0  0  0  0  0  0  0  0  0  0  0
  150.5178  143.8860  158.5510 H   0  0  0  0  0  0  0  0  0  0  0  0
  146.7108  143.3072  153.4795 H   0  0  0  0  0  0  0  0  0  0  0  0
  142.5912  144.6506  156.1071 H   0  0  0  0  0  0  0  0  0  0  0  0
  143.1169  145.7650  154.8314 H   0  0  0  0  0  0  0  0  0  0  0  0
  143.6846  145.9957  156.4965 H   0  0  0  0  0  0  0  0  0  0  0  0
  149.6912  143.2285  155.7618 H   0  0  0  0  0  0  0  0  0  0  0  0
  1  2  1  0  0  0  0
  1 19  1  0  0  0  0
  1 20  1  0  0  0  0
  1 21  1  0  0  0  0
  2 17  1  0  0  0  0
  2  3  2  0  0  0  0
  3  4  1  0  0  0  0
  3 15  1  0  0  0  0
  4  5  1  0  0  0  0
  4 22  1  0  0  0  0
  4 23  1  0  0  0  0
  5  6  1  0  0  0  0
  5 24  1  0  0  0  0
  5 25  1  0  0  0  0
  6  7  1  0  0  0  0
  6 26  1  0  0  0  0
  6 46  1  0  0  0  0
  7  8  1  0  0  0  0
  7 27  1  0  0  0  0
  7 28  1  0  0  0  0
  8 14  1  0  0  0  0
  8  9  1  0  0  0  0
  8 29  1  0  0  0  0
  9 10  1  0  0  0  0
  9 30  1  0  0  0  0
  9 31  1  0  0  0  0
 10 11  1  0  0  0  0
 10 32  1  0  0  0  0
 10 33  1  0  0  0  0
 11 12  1  0  0  0  0
 11 13  1  0  0  0  0
 11 34  1  0  0  0  0
 12 35  1  0  0  0  0
 12 36  1  0  0  0  0
 12 37  1  0  0  0  0
 13 14  1  0  0  0  0
 13 38  1  0  0  0  0
 13 39  1  0  0  0  0
 14 40  1  0  0  0  0
 14 41  1  0  0  0  0
 15 16  2  0  0  0  0
 15 42  1  0  0  0  0
 16 17  1  0  0  0  0
 17 18  1  0  0  0  0
 18 43  1  0  0  0  0
 18 44  1  0  0  0  0
 18 45  1  0  0  0  0
M  CHG  1   6   1
M  END
> <s_m_source_file>
AV-unprocessed.smi

> <i_m_source_file_index>
3304

> <i_lp_mmshare_version>
43012

> <i_f3d_flags>
0

> <s_epik_input>
W0NIM11uMW5bY0hdYyhjMVtDSDNdKVtDSDJdW0NIMl1bTkhdW0NIMl1bQ0BASF0yW0NIMl1bQ0gyXVtDQEBIXShbQ0gzXSlbQ0gyXVtDSDJdMg==

> <s_epik_cmdline>
J2VwaWtfcHl0aG9uJywgJy1waCcsICc3LjAnLCAnLXRuJywgJzgnLCAnLW1hJywgJzIwMCcsICctbWV0YWxfYmluZGluZycsICctaW1hZScsICc8aW5maWxlLm1hZT4nLCAnLW9tYWUnLCAnPG91dGZpbGUubWFlPic=

> <r_lp_tautomer_probability>
1

> <r_epik_Ionization_Penalty>
0.000505313

> <r_epik_Ionization_Penalty_Charging>
0.000421171

> <r_epik_Ionization_Penalty_Neutral>
8.41424e-05

> <r_epik_State_Penalty>
-0

> <r_epik_Charging_Adjusted_Penalty>
0.000421171

> <i_epik_Tot_Q>
1

> <i_epik_Tot_abs_Q>
1

> <r_epik_Metal_State_Penalty>
-0

> <b_epik_Metal_Only>
0

> <s_lp_Force_Field>
OPLS_2005

> <r_lp_Energy>
12.247

> <b_lp_Chiralities_Consistent>
1

> <s_lp_Variant>
AV-unprocessed.smi:3304-2

> <Gold.Version>
5.8.1

> <Gold.Id.Protein>
6NUR|6NUR_protein|mol2

> <Gold.PLP.Fitness>
47.8971

> <Gold.PLP.PLP>
-42.9683

> <Gold.PLP.part.hbond>
-1.0000

> <Gold.PLP.part.metal>
0.0000

> <Gold.PLP.part.buried>
-6.2074

> <Gold.PLP.part.nonpolar>
-37.0573

> <Gold.PLP.part.repulsive>
0.3699

> <Gold.PLP.ligand.clash>
0.0000

> <Gold.PLP.ligand.torsion>
0.5694

> <Gold.PLP.Chemscore.Hbond>
2.0000

> <Gold.PLP.Chemscore.CHOScore>
0.0000

> <Gold.PLP.Chemscore.Metal>
0.0000

> <Gold.Chemscore.Hbonds>
donor molecule, donor type, donor heavy atom, donor atom, acceptor molecule, acceptor atom, score
      L1  H     6    46       P1  8028  2.00

> <Gold.PLP.Chemscore.Internal.Correction>
0.0677

> <Gold.Rescore>
     Score         DG    S(hbond)    S(metal)    S(lipo)     H(rot)  DE(clash)    DE(int)     intcor
     18.33     -18.90       0.97        0.00     118.39       1.43       0.06       0.51       ----

> <Gold.Chemscore.Fitness>
18.3313

> <Gold.Chemscore.DG>
-18.8995

> <Gold.Chemscore.ZeroCoef>
-5.4800

> <Gold.Chemscore.Hbond>
0.9691

> <Gold.Chemscore.Metal>
0.0000

> <Gold.Chemscore.Lipo>
118.3879

> <Gold.Chemscore.Internal_Hbond>
0.0000

> <Gold.Chemscore.DEClash>
0.0556

> <Gold.Chemscore.DEInternal>
0.5126

> <Gold.Chemscore.Rot>
1.4331

> <Gold.Chemscore.Internal.Correction>
   9.000000E+99

> <Gold.Chemscore.Hbonds>
donor molecule, donor type, donor heavy atom, donor atom, acceptor molecule, acceptor atom, score
      L1  H     6    46       P1  8028  0.95

> <Gold.Chemscore.Hbond.Weighted>
-3.2369

> <Gold.Chemscore.Metal.Weighted>
-0.0000

> <Gold.Chemscore.Lipo.Weighted>
-13.8514

> <Gold.Chemscore.Internal_Hbond.Weighted>
0.0000

> <Gold.Chemscore.DEClash.Weighted>
0.0556

> <Gold.Chemscore.DEInternal.Weighted>
0.5126

> <Gold.Chemscore.Rot.Weighted>
3.6688

> <Gold.Chemscore.Internal.Correction.Weighted>
   9.000000E+99

> <Gold.Protein.RotatedTorsions>
[ 6907 6896 6895 6894 ] final   49.80 input  -60.11 | X-H torsion
[ 7974 7965 7964 7962 ] final  -62.14 input  175.53 | X-H torsion
[ 8008 7997 7996 7995 ] final  -49.24 input   59.86 | X-H torsion
[ 10167 10162 10161 10158 ] final  -70.12 input  -65.29 | X-H torsion
[ 10718 10713 10712 10709 ] final  145.28 input   66.30 | X-H torsion
[ 10763 10752 10751 10750 ] final    7.19 input  -60.55 | X-H torsion
[ 11005 11000 10999 10996 ] final -149.43 input  -57.11 | X-H torsion

> <Gold.Protein.ActiveResidues>
 VAL166  LYS551  ARG553  GLY616  TRP617  ASP618  TYR619  PRO620  LYS621  CYS622 
 ASP623  PHE694  ASN695  SER759  ASP760  ASP761  ALA762  ILE779  LEU786  VAL792 
 PHE793  MET794  SER795  GLU796  ALA797  LYS798  CYS799  TRP800  GLU811  SER814 

> <Gold.Protein.RotatedAtoms>
  152.2948  134.7680  160.0370 H   0  0  0  0  0  0  0  0  0  0  0  0  # atno 6907 bound_to 6896
  151.8214  133.3390  159.3593 H   0  0  0  0  0  0  0  0  0  0  0  0  # atno 6908 bound_to 6896
  150.7246  134.5499  159.5834 H   0  0  0  0  0  0  0  0  0  0  0  0  # atno 6909 bound_to 6896
  145.7949  140.8688  143.0261 H   0  0  0  0  0  0  0  0  0  0  0  0  # atno 7974 bound_to 7965
  154.4041  140.1301  156.4471 H   0  0  0  0  0  0  0  0  0  0  0  0  # atno 8008 bound_to 7997
  155.7402  140.3490  155.5081 H   0  0  0  0  0  0  0  0  0  0  0  0  # atno 8009 bound_to 7997
  155.9046  140.1025  157.1315 H   0  0  0  0  0  0  0  0  0  0  0  0  # atno 8010 bound_to 7997
  140.5377  143.2317  151.7146 H   0  0  0  0  0  0  0  0  0  0  0  0  # atno 10167 bound_to 10162
  157.3472  131.0945  151.1032 H   0  0  0  0  0  0  0  0  0  0  0  0  # atno 10718 bound_to 10713
  153.2391  135.6901  153.7803 H   0  0  0  0  0  0  0  0  0  0  0  0  # atno 10763 bound_to 10752
  153.6939  135.3308  155.3209 H   0  0  0  0  0  0  0  0  0  0  0  0  # atno 10764 bound_to 10752
  154.8347  135.4552  154.1306 H   0  0  0  0  0  0  0  0  0  0  0  0  # atno 10765 bound_to 10752
  140.7508  134.3409  157.5126 H   0  0  0  0  0  0  0  0  0  0  0  0  # atno 11005 bound_to 11000
  144.6776  140.0176  143.7484 LP  0  0  0  0  0  0  0  0  0  0  0  0  # atno 17320 bound_to 7965
  145.9938  139.3036  143.0968 LP  0  0  0  0  0  0  0  0  0  0  0  0  # atno 17321 bound_to 7965
  139.4977  144.4017  152.0174 LP  0  0  0  0  0  0  0  0  0  0  0  0  # atno 17342 bound_to 10162
  140.3123  144.3523  150.6030 LP  0  0  0  0  0  0  0  0  0  0  0  0  # atno 17343 bound_to 10162
  157.2221  130.6486  149.5815 LP  0  0  0  0  0  0  0  0  0  0  0  0  # atno 17370 bound_to 10713
  155.9716  130.4626  150.6150 LP  0  0  0  0  0  0  0  0  0  0  0  0  # atno 17371 bound_to 10713
  139.8788  134.9141  156.3098 LP  0  0  0  0  0  0  0  0  0  0  0  0  # atno 17394 bound_to 11000
  140.9752  133.7302  156.0592 LP  0  0  0  0  0  0  0  0  0  0  0  0  # atno 17395 bound_to 11000

$$$$
