AV-unprocessed.smi:68|AV-procd|sdf|641|dock1
  -GOLD-   2262016533D 1   1.00000     0.00000
 Structure written by MMmdl.
 22 23  0  0  0  0  0  0  0  0  2 V2000
  151.0716  139.1282  154.2844 O   0  0  0  0  0  0  0  0  0  0  0  0
  151.1491  139.7696  155.3311 C   0  0  0  0  0  0  0  0  0  0  0  0
  152.1692  139.6078  156.2230 N   0  5  0  0  0  0  0  0  0  0  0  0
  152.2544  140.3185  157.3862 C   0  0  0  0  0  0  0  0  0  0  0  0
  153.1651  140.1604  158.1988 O   0  0  0  0  0  0  0  0  0  0  0  0
  151.2421  141.2742  157.6802 N   0  0  0  0  0  0  0  0  0  0  0  0
  151.2995  142.0978  158.9468 C   0  0  2  0  0  0  0  0  0  0  0  0
  150.1722  143.1407  158.9759 C   0  0  0  0  0  0  0  0  0  0  0  0
  150.9246  144.4468  158.8070 C   0  0  0  0  0  0  0  0  0  0  0  0
  152.2868  144.1112  159.4009 C   0  0  0  0  0  0  0  0  0  0  0  0
  152.5202  142.7769  158.9742 O   0  0  0  0  0  0  0  0  0  0  0  0
  150.1947  141.4571  156.7946 C   0  0  0  0  0  0  0  0  0  0  0  0
  150.1129  140.7499  155.6494 C   0  0  0  0  0  0  0  0  0  0  0  0
  149.0825  140.9508  154.8103 F   0  0  0  0  0  0  0  0  0  0  0  0
  151.2648  141.4174  159.7972 H   0  0  0  0  0  0  0  0  0  0  0  0
  149.4251  142.9655  158.2007 H   0  0  0  0  0  0  0  0  0  0  0  0
  149.6848  143.0972  159.9505 H   0  0  0  0  0  0  0  0  0  0  0  0
  151.0266  144.6884  157.7486 H   0  0  0  0  0  0  0  0  0  0  0  0
  150.4386  145.2870  159.3033 H   0  0  0  0  0  0  0  0  0  0  0  0
  153.0738  144.7851  159.0619 H   0  0  0  0  0  0  0  0  0  0  0  0
  152.2513  144.1418  160.4909 H   0  0  0  0  0  0  0  0  0  0  0  0
  149.4256  142.1802  157.0210 H   0  0  0  0  0  0  0  0  0  0  0  0
  1  2  2  0  0  0  0
  2 13  1  0  0  0  0
  2  3  1  0  0  0  0
  3  4  1  0  0  0  0
  4  5  2  0  0  0  0
  4  6  1  0  0  0  0
  6  7  1  0  0  0  0
  6 12  1  0  0  0  0
  7 11  1  0  0  0  0
  7  8  1  0  0  0  0
  7 15  1  0  0  0  0
  8  9  1  0  0  0  0
  8 16  1  0  0  0  0
  8 17  1  0  0  0  0
  9 10  1  0  0  0  0
  9 18  1  0  0  0  0
  9 19  1  0  0  0  0
 10 11  1  0  0  0  0
 10 20  1  0  0  0  0
 10 21  1  0  0  0  0
 12 13  2  0  0  0  0
 12 22  1  0  0  0  0
 13 14  1  0  0  0  0
M  CHG  1   3  -1
M  END
> <s_m_source_file>
AV-unprocessed.smi

> <i_m_source_file_index>
68

> <i_lp_mmshare_version>
43012

> <i_f3d_flags>
0

> <s_epik_input>
Tz1jMVtuSF1jKD1PKW4oW2NIXWMxRilbQ0BASF0yW0NIMl1bQ0gyXVtDSDJdTzI=

> <s_epik_cmdline>
J2VwaWtfcHl0aG9uJywgJy1waCcsICc3LjAnLCAnLXRuJywgJzgnLCAnLW1hJywgJzIwMCcsICctbWV0YWxfYmluZGluZycsICctaW1hZScsICc8aW5maWxlLm1hZT4nLCAnLW9tYWUnLCAnPG91dGZpbGUubWFlPic=

> <r_epik_Ionization_Penalty>
1.69229

> <r_epik_Ionization_Penalty_Charging>
3.30034e-08

> <r_epik_Ionization_Penalty_Neutral>
1.69229

> <r_epik_State_Penalty>
1.7976

> <r_epik_Charging_Adjusted_Penalty>
1.7976

> <i_epik_Tot_Q>
-1

> <i_epik_Tot_abs_Q>
1

> <r_epik_Metal_State_Penalty>
0.0116051

> <b_epik_Metal_Only>
0

> <s_epik_Chemistry_Notes>
This compound contains an acetal/aminal-like group ( X-CH(R)-Y where X, Y are N, S, or O) that may be acid/base labile, releasing an aldehyde.

> <s_lp_Force_Field>
OPLS_2005

> <r_lp_Energy>
34.1498

> <b_lp_Chiralities_Consistent>
1

> <s_lp_Variant>
AV-unprocessed.smi:68-3

> <Gold.Version>
5.8.1

> <Gold.Id.Protein>
6NUR|6NUR_protein|mol2

> <Gold.PLP.Fitness>
36.1612

> <Gold.PLP.PLP>
-29.8511

> <Gold.PLP.part.hbond>
-2.0276

> <Gold.PLP.part.metal>
0.0000

> <Gold.PLP.part.buried>
-2.3358

> <Gold.PLP.part.nonpolar>
-23.7934

> <Gold.PLP.part.repulsive>
0.1481

> <Gold.PLP.ligand.clash>
0.0000

> <Gold.PLP.ligand.torsion>
0.0382

> <Gold.PLP.Chemscore.Hbond>
1.1280

> <Gold.PLP.Chemscore.CHOScore>
1.0000

> <Gold.PLP.Chemscore.Metal>
0.0000

> <Gold.Chemscore.Hbonds>
donor molecule, donor type, donor heavy atom, donor atom, acceptor molecule, acceptor atom, score
      P1  H  7989  7998       L1     1  0.15
      P1  H  7997  8009       L1     5  0.94

> <Gold.PLP.Chemscore.Internal.Correction>
0.0025

> <Gold.Rescore>
     Score         DG    S(hbond)    S(metal)    S(lipo)     H(rot)  DE(clash)    DE(int)     intcor
      9.75     -11.34       0.77        0.00      50.08       1.00       0.10       1.49       ----

> <Gold.Chemscore.Fitness>
9.7513

> <Gold.Chemscore.DG>
-11.3393

> <Gold.Chemscore.ZeroCoef>
-5.4800

> <Gold.Chemscore.Hbond>
0.7664

> <Gold.Chemscore.Metal>
0.0000

> <Gold.Chemscore.Lipo>
50.0824

> <Gold.Chemscore.Internal_Hbond>
0.0000

> <Gold.Chemscore.DEClash>
0.0969

> <Gold.Chemscore.DEInternal>
1.4911

> <Gold.Chemscore.Rot>
1.0000

> <Gold.Chemscore.Internal.Correction>
   9.000000E+99

> <Gold.Chemscore.Hbonds>
donor molecule, donor type, donor heavy atom, donor atom, acceptor molecule, acceptor atom, score
      P1  H  7997  8009       L1     5  0.36

> <Gold.Chemscore.Hbond.Weighted>
-2.5596

> <Gold.Chemscore.Metal.Weighted>
-0.0000

> <Gold.Chemscore.Lipo.Weighted>
-5.8596

> <Gold.Chemscore.Internal_Hbond.Weighted>
0.0000

> <Gold.Chemscore.DEClash.Weighted>
0.0969

> <Gold.Chemscore.DEInternal.Weighted>
1.4911

> <Gold.Chemscore.Rot.Weighted>
2.5600

> <Gold.Chemscore.Internal.Correction.Weighted>
   9.000000E+99

> <Gold.Protein.RotatedTorsions>
[ 6907 6896 6895 6894 ] final  -84.96 input  -60.11 | X-H torsion
[ 7974 7965 7964 7962 ] final  -33.98 input  175.53 | X-H torsion
[ 8008 7997 7996 7995 ] final  147.62 input   59.86 | X-H torsion
[ 10167 10162 10161 10158 ] final    8.24 input  -65.29 | X-H torsion
[ 10718 10713 10712 10709 ] final -145.81 input   66.30 | X-H torsion
[ 10763 10752 10751 10750 ] final -117.99 input  -60.55 | X-H torsion
[ 11005 11000 10999 10996 ] final -108.43 input  -57.11 | X-H torsion

> <Gold.Protein.ActiveResidues>
 VAL166  LYS551  ARG553  GLY616  TRP617  ASP618  TYR619  PRO620  LYS621  CYS622 
 ASP623  PHE694  ASN695  SER759  ASP760  ASP761  ALA762  ILE779  LEU786  VAL792 
 PHE793  MET794  SER795  GLU796  ALA797  LYS798  CYS799  TRP800  GLU811  SER814 

> <Gold.Protein.RotatedAtoms>
  150.6873  134.3277  159.4813 H   0  0  0  0  0  0  0  0  0  0  0  0  # atno 6907 bound_to 6896
  152.1146  134.9247  160.0574 H   0  0  0  0  0  0  0  0  0  0  0  0  # atno 6908 bound_to 6896
  152.0477  133.3970  159.4400 H   0  0  0  0  0  0  0  0  0  0  0  0  # atno 6909 bound_to 6896
  146.0867  140.5983  142.8883 H   0  0  0  0  0  0  0  0  0  0  0  0  # atno 7974 bound_to 7965
  156.2819  140.2151  156.5567 H   0  0  0  0  0  0  0  0  0  0  0  0  # atno 8008 bound_to 7997
  154.7247  140.0500  157.0694 H   0  0  0  0  0  0  0  0  0  0  0  0  # atno 8009 bound_to 7997
  155.0432  140.3148  155.4720 H   0  0  0  0  0  0  0  0  0  0  0  0  # atno 8010 bound_to 7997
  140.6325  143.7960  150.7315 H   0  0  0  0  0  0  0  0  0  0  0  0  # atno 10167 bound_to 10162
  156.3870  130.7866  151.2065 H   0  0  0  0  0  0  0  0  0  0  0  0  # atno 10718 bound_to 10713
  154.8573  135.4290  154.2068 H   0  0  0  0  0  0  0  0  0  0  0  0  # atno 10763 bound_to 10752
  153.3102  135.6975  153.7128 H   0  0  0  0  0  0  0  0  0  0  0  0  # atno 10764 bound_to 10752
  153.6224  135.3499  155.2989 H   0  0  0  0  0  0  0  0  0  0  0  0  # atno 10765 bound_to 10752
  141.0902  133.9068  157.2093 H   0  0  0  0  0  0  0  0  0  0  0  0  # atno 11005 bound_to 11000
  144.7330  140.4728  143.6924 LP  0  0  0  0  0  0  0  0  0  0  0  0  # atno 17320 bound_to 7965
  145.6117  139.1514  143.3072 LP  0  0  0  0  0  0  0  0  0  0  0  0  # atno 17321 bound_to 7965
  140.1574  143.4305  152.2090 LP  0  0  0  0  0  0  0  0  0  0  0  0  # atno 17342 bound_to 10162
  139.5538  144.7358  151.4354 LP  0  0  0  0  0  0  0  0  0  0  0  0  # atno 17343 bound_to 10162
  157.7496  131.0327  150.4238 LP  0  0  0  0  0  0  0  0  0  0  0  0  # atno 17370 bound_to 10713
  156.4492  130.4008  149.6647 LP  0  0  0  0  0  0  0  0  0  0  0  0  # atno 17371 bound_to 10713
  139.9727  135.0123  156.9552 LP  0  0  0  0  0  0  0  0  0  0  0  0  # atno 17394 bound_to 11000
  140.5269  134.0851  155.7306 LP  0  0  0  0  0  0  0  0  0  0  0  0  # atno 17395 bound_to 11000

$$$$
