AV-unprocessed.smi:123|AV-procd|sdf|1146|dock7
  -GOLD-   2262018283D 1   1.00000     0.00000
 Structure written by MMmdl.
 43 45  0  0  0  0  0  0  0  0  1 V2000
  147.7574  135.2674  156.2393 C   0  0  0  0  0  0  0  0  0  0  0  0
  148.7200  134.7793  155.1489 C   0  0  1  0  0  0  0  0  0  0  0  0
  149.4755  135.9165  154.6317 N   0  0  0  0  0  0  0  0  0  0  0  0
  150.2597  136.7228  155.3631 C   0  0  0  0  0  0  0  0  0  0  0  0
  150.4371  136.5731  156.5732 O   0  0  0  0  0  0  0  0  0  0  0  0
  150.9394  137.8672  154.5957 C   0  0  0  0  0  0  0  0  0  0  0  0
  150.5209  139.2127  155.0476 N   0  0  0  0  0  0  0  0  0  0  0  0
  149.2642  139.7104  154.6232 C   0  0  0  0  0  0  0  0  0  0  0  0
  148.5177  139.0381  153.9102 O   0  0  0  0  0  0  0  0  0  0  0  0
  148.9361  141.0569  155.0754 C   0  0  0  0  0  0  0  0  0  0  0  0
  147.7704  141.6166  154.7098 F   0  0  0  0  0  0  0  0  0  0  0  0
  149.7885  141.7546  155.8535 C   0  0  0  0  0  0  0  0  0  0  0  0
  151.0032  141.2523  156.2781 N   0  0  0  0  0  0  0  0  0  0  0  0
  151.9096  142.1368  157.1070 C   0  0  1  0  0  0  0  0  0  0  0  0
  151.4080  143.5820  157.2454 C   0  0  0  0  0  0  0  0  0  0  0  0
  151.8488  143.9131  158.6551 C   0  0  0  0  0  0  0  0  0  0  0  0
  151.6792  142.5739  159.3643 C   0  0  0  0  0  0  0  0  0  0  0  0
  152.0322  141.5950  158.3905 O   0  0  0  0  0  0  0  0  0  0  0  0
  151.4100  139.9657  155.8523 C   0  0  0  0  0  0  0  0  0  0  0  0
  152.5116  139.5099  156.1626 O   0  0  0  0  0  0  0  0  0  0  0  0
  149.6288  133.6972  155.6434 C   0  0  0  0  0  0  0  0  0  0  0  0
  150.6428  133.6711  156.5607 C   0  0  0  0  0  0  0  0  0  0  0  0
  151.1309  132.3355  156.5821 C   0  0  0  0  0  0  0  0  0  0  0  0
  150.3817  131.6461  155.6720 C   0  0  0  0  0  0  0  0  0  0  0  0
  149.4636  132.4623  155.0874 O   0  0  0  0  0  0  0  0  0  0  0  0
  147.1432  134.4478  156.6131 H   0  0  0  0  0  0  0  0  0  0  0  0
  147.0842  136.0344  155.8553 H   0  0  0  0  0  0  0  0  0  0  0  0
  148.2972  135.6913  157.0869 H   0  0  0  0  0  0  0  0  0  0  0  0
  148.1129  134.3763  154.3362 H   0  0  0  0  0  0  0  0  0  0  0  0
  149.3831  136.1129  153.6458 H   0  0  0  0  0  0  0  0  0  0  0  0
  152.0202  137.7432  154.6786 H   0  0  0  0  0  0  0  0  0  0  0  0
  150.7411  137.7367  153.5306 H   0  0  0  0  0  0  0  0  0  0  0  0
  149.4981  142.7503  156.1554 H   0  0  0  0  0  0  0  0  0  0  0  0
  152.8899  142.0945  156.6306 H   0  0  0  0  0  0  0  0  0  0  0  0
  151.8550  144.2246  156.4868 H   0  0  0  0  0  0  0  0  0  0  0  0
  150.3240  143.6416  157.1586 H   0  0  0  0  0  0  0  0  0  0  0  0
  152.8992  144.2074  158.6594 H   0  0  0  0  0  0  0  0  0  0  0  0
  151.2656  144.7140  159.1097 H   0  0  0  0  0  0  0  0  0  0  0  0
  152.3021  142.4906  160.2548 H   0  0  0  0  0  0  0  0  0  0  0  0
  150.6419  142.4291  159.6667 H   0  0  0  0  0  0  0  0  0  0  0  0
  150.9877  134.5102  157.1464 H   0  0  0  0  0  0  0  0  0  0  0  0
  151.9292  131.9306  157.1864 H   0  0  0  0  0  0  0  0  0  0  0  0
  150.3704  130.6209  155.3326 H   0  0  0  0  0  0  0  0  0  0  0  0
  1  2  1  0  0  0  0
  1 26  1  0  0  0  0
  1 27  1  0  0  0  0
  1 28  1  0  0  0  0
  2  3  1  0  0  0  0
  2 21  1  0  0  0  0
  2 29  1  0  0  0  0
  3  4  1  0  0  0  0
  3 30  1  0  0  0  0
  4  5  2  0  0  0  0
  4  6  1  0  0  0  0
  6  7  1  0  0  0  0
  6 31  1  0  0  0  0
  6 32  1  0  0  0  0
  7 19  1  0  0  0  0
  7  8  1  0  0  0  0
  8  9  2  0  0  0  0
  8 10  1  0  0  0  0
 10 11  1  0  0  0  0
 10 12  2  0  0  0  0
 12 13  1  0  0  0  0
 12 33  1  0  0  0  0
 13 14  1  0  0  0  0
 13 19  1  0  0  0  0
 14 18  1  0  0  0  0
 14 15  1  0  0  0  0
 14 34  1  0  0  0  0
 15 16  1  0  0  0  0
 15 35  1  0  0  0  0
 15 36  1  0  0  0  0
 16 17  1  0  0  0  0
 16 37  1  0  0  0  0
 16 38  1  0  0  0  0
 17 18  1  0  0  0  0
 17 39  1  0  0  0  0
 17 40  1  0  0  0  0
 19 20  2  0  0  0  0
 21 25  1  0  0  0  0
 21 22  2  0  0  0  0
 22 23  1  0  0  0  0
 22 41  1  0  0  0  0
 23 24  2  0  0  0  0
 23 42  1  0  0  0  0
 24 25  1  0  0  0  0
 24 43  1  0  0  0  0
M  END
> <s_m_source_file>
AV-unprocessed.smi

> <i_m_source_file_index>
123

> <i_lp_mmshare_version>
43012

> <i_f3d_flags>
0

> <s_epik_input>
bzFbY0hdW2NIXVtjSF1jMVtDQEhdKFtDSDNdKVtOSF1DKD1PKVtDSDJdbjJjKD1PKWMoRilbY0hdbihjMj1PKVtDQEBIXTNbQ0gyXVtDSDJdW0NIMl1PMw==

> <s_epik_cmdline>
J2VwaWtfcHl0aG9uJywgJy1waCcsICc3LjAnLCAnLXRuJywgJzgnLCAnLW1hJywgJzIwMCcsICctbWV0YWxfYmluZGluZycsICctaW1hZScsICc8aW5maWxlLm1hZT4nLCAnLW9tYWUnLCAnPG91dGZpbGUubWFlPic=

> <r_lp_tautomer_probability>
1

> <r_epik_Ionization_Penalty>
2.31906e-08

> <r_epik_Ionization_Penalty_Charging>
3.85846e-09

> <r_epik_Ionization_Penalty_Neutral>
1.93321e-08

> <r_epik_State_Penalty>
-0

> <r_epik_Charging_Adjusted_Penalty>
3.85846e-09

> <i_epik_Tot_Q>
0

> <i_epik_Tot_abs_Q>
0

> <r_epik_Metal_State_Penalty>
-0

> <b_epik_Metal_Only>
0

> <s_epik_Chemistry_Notes>
This compound contains an acetal/aminal-like group ( X-CH(R)-Y where X, Y are N, S, or O) that may be acid/base labile, releasing an aldehyde.

> <s_lp_Force_Field>
OPLS_2005

> <r_lp_Energy>
16.2808

> <b_lp_Chiralities_Consistent>
1

> <s_lp_Variant>
AV-unprocessed.smi:123-4

> <Gold.Version>
5.8.1

> <Gold.Id.Protein>
6NUR|6NUR_protein|mol2

> <Gold.PLP.Fitness>
48.9310

> <Gold.PLP.PLP>
-40.7714

> <Gold.PLP.part.hbond>
-2.3200

> <Gold.PLP.part.metal>
0.0000

> <Gold.PLP.part.buried>
-5.5735

> <Gold.PLP.part.nonpolar>
-34.8035

> <Gold.PLP.part.repulsive>
1.6350

> <Gold.PLP.ligand.clash>
0.0000

> <Gold.PLP.ligand.torsion>
0.4461

> <Gold.PLP.Chemscore.Hbond>
2.0000

> <Gold.PLP.Chemscore.CHOScore>
1.0000

> <Gold.PLP.Chemscore.Metal>
0.0000

> <Gold.Chemscore.Hbonds>
donor molecule, donor type, donor heavy atom, donor atom, acceptor molecule, acceptor atom, score
      L1  H     3    30       P1  7948  1.00
      P1  H  7997  8009       L1    20  1.00
      L1  C    12    33       P1  8028  1.00

> <Gold.PLP.Chemscore.Internal.Correction>
0.0518

> <Gold.Rescore>
     Score         DG    S(hbond)    S(metal)    S(lipo)     H(rot)  DE(clash)    DE(int)     intcor
     11.99     -15.30       1.91        0.00      78.41       2.23       1.30       2.01       ----

> <Gold.Chemscore.Fitness>
11.9935

> <Gold.Chemscore.DG>
-15.3025

> <Gold.Chemscore.ZeroCoef>
-5.4800

> <Gold.Chemscore.Hbond>
1.9071

> <Gold.Chemscore.Metal>
0.0000

> <Gold.Chemscore.Lipo>
78.4067

> <Gold.Chemscore.Internal_Hbond>
0.0000

> <Gold.Chemscore.DEClash>
1.2952

> <Gold.Chemscore.DEInternal>
2.0139

> <Gold.Chemscore.Rot>
2.2347

> <Gold.Chemscore.Internal.Correction>
   9.000000E+99

> <Gold.Chemscore.Hbonds>
donor molecule, donor type, donor heavy atom, donor atom, acceptor molecule, acceptor atom, score
      L1  H     3    30       P1  7948  0.70
      P1  H  7997  8009       L1    20  0.99

> <Gold.Chemscore.Hbond.Weighted>
-6.3697

> <Gold.Chemscore.Metal.Weighted>
-0.0000

> <Gold.Chemscore.Lipo.Weighted>
-9.1736

> <Gold.Chemscore.Internal_Hbond.Weighted>
0.0000

> <Gold.Chemscore.DEClash.Weighted>
1.2952

> <Gold.Chemscore.DEInternal.Weighted>
2.0139

> <Gold.Chemscore.Rot.Weighted>
5.7208

> <Gold.Chemscore.Internal.Correction.Weighted>
   9.000000E+99

> <Gold.Protein.RotatedTorsions>
[ 6907 6896 6895 6894 ] final -170.79 input  -60.11 | X-H torsion
[ 7974 7965 7964 7962 ] final  145.72 input  175.53 | X-H torsion
[ 8008 7997 7996 7995 ] final -165.09 input   59.86 | X-H torsion
[ 10167 10162 10161 10158 ] final   38.84 input  -65.29 | X-H torsion
[ 10718 10713 10712 10709 ] final  100.40 input   66.30 | X-H torsion
[ 10763 10752 10751 10750 ] final  -68.03 input  -60.55 | X-H torsion
[ 11005 11000 10999 10996 ] final  124.93 input  -57.11 | X-H torsion

> <Gold.Protein.ActiveResidues>
 VAL166  LYS551  ARG553  GLY616  TRP617  ASP618  TYR619  PRO620  LYS621  CYS622 
 ASP623  PHE694  ASN695  SER759  ASP760  ASP761  ALA762  ILE779  LEU786  VAL792 
 PHE793  MET794  SER795  GLU796  ALA797  LYS798  CYS799  TRP800  GLU811  SER814 

> <Gold.Protein.RotatedAtoms>
  151.5134  133.3480  159.2888 H   0  0  0  0  0  0  0  0  0  0  0  0  # atno 6907 bound_to 6896
  150.8698  134.8071  159.7157 H   0  0  0  0  0  0  0  0  0  0  0  0  # atno 6908 bound_to 6896
  152.4690  134.5016  159.9778 H   0  0  0  0  0  0  0  0  0  0  0  0  # atno 6909 bound_to 6896
  144.8729  139.5817  143.5878 H   0  0  0  0  0  0  0  0  0  0  0  0  # atno 7974 bound_to 7965
  155.8448  140.0954  157.1712 H   0  0  0  0  0  0  0  0  0  0  0  0  # atno 8008 bound_to 7997
  154.3983  140.1394  156.3834 H   0  0  0  0  0  0  0  0  0  0  0  0  # atno 8009 bound_to 7997
  155.8025  140.3452  155.5413 H   0  0  0  0  0  0  0  0  0  0  0  0  # atno 8010 bound_to 7997
  140.3897  144.1869  150.6131 H   0  0  0  0  0  0  0  0  0  0  0  0  # atno 10167 bound_to 10162
  157.6855  131.0697  150.5095 H   0  0  0  0  0  0  0  0  0  0  0  0  # atno 10718 bound_to 10713
  154.3831  135.6069  153.5802 H   0  0  0  0  0  0  0  0  0  0  0  0  # atno 10763 bound_to 10752
  152.9788  135.5865  154.4386 H   0  0  0  0  0  0  0  0  0  0  0  0  # atno 10764 bound_to 10752
  154.4159  135.2845  155.1985 H   0  0  0  0  0  0  0  0  0  0  0  0  # atno 10765 bound_to 10752
  139.9382  134.9638  156.8483 H   0  0  0  0  0  0  0  0  0  0  0  0  # atno 11005 bound_to 11000
  146.2943  139.7231  142.9138 LP  0  0  0  0  0  0  0  0  0  0  0  0  # atno 17320 bound_to 7965
  145.4096  141.0395  143.3025 LP  0  0  0  0  0  0  0  0  0  0  0  0  # atno 17321 bound_to 7965
  140.4852  143.2365  151.8898 LP  0  0  0  0  0  0  0  0  0  0  0  0  # atno 17342 bound_to 10162
  139.4790  144.5226  151.8780 LP  0  0  0  0  0  0  0  0  0  0  0  0  # atno 17343 bound_to 10162
  156.5412  130.4208  149.6153 LP  0  0  0  0  0  0  0  0  0  0  0  0  # atno 17370 bound_to 10713
  156.2983  130.7163  151.2028 LP  0  0  0  0  0  0  0  0  0  0  0  0  # atno 17371 bound_to 10713
  140.6020  134.0163  155.7541 LP  0  0  0  0  0  0  0  0  0  0  0  0  # atno 17394 bound_to 11000
  141.1005  133.9775  157.3086 LP  0  0  0  0  0  0  0  0  0  0  0  0  # atno 17395 bound_to 11000

$$$$
