AV-unprocessed.smi:2772|AV-procd|sdf|10671|dock1
  -GOLD-   2272015113D 1   1.00000     0.00000
 Structure written by MMmdl.
 54 56  0  0  0  0  0  0  0  0  2 V2000
  143.8726  132.6770  149.0598 C   0  0  0  0  0  0  0  0  0  0  0  0
  144.6073  133.5593  150.0470 C   0  0  0  0  0  0  0  0  0  0  0  0
  145.5014  133.0063  150.9866 C   0  0  0  0  0  0  0  0  0  0  0  0
  146.1629  133.8731  151.8776 C   0  0  0  0  0  0  0  0  0  0  0  0
  145.9102  135.2637  151.7936 C   0  0  0  0  0  0  0  0  0  0  0  0
  146.4965  136.2346  152.6498 N   0  0  0  0  0  0  0  0  0  0  0  0
  146.8725  137.4906  152.3531 C   0  0  0  0  0  0  0  0  0  0  0  0
  146.7230  138.0376  151.2610 O   0  0  0  0  0  0  0  0  0  0  0  0
  147.4213  138.0946  153.4170 N   0  0  0  0  0  0  0  0  0  0  0  0
  147.9317  139.4630  153.4526 C   0  0  2  0  0  0  0  0  0  0  0  0
  148.4473  139.7923  154.8655 C   0  0  0  0  0  0  0  0  0  0  0  0
  148.8321  141.2795  154.9839 C   0  0  0  0  0  0  0  0  0  0  0  0
  147.6917  142.1749  154.6368 N   0  3  2  0  0  0  0  0  0  0  0  0
  146.5750  142.2141  155.6414 C   0  0  0  0  0  0  0  0  0  0  0  0
  145.4772  143.2333  155.2525 C   0  0  0  0  0  0  0  0  0  0  0  0
  144.3967  143.3708  156.3381 C   0  0  0  0  0  0  0  0  0  0  0  0
  145.0025  143.7855  157.5999 N   0  0  0  0  0  0  0  0  0  0  0  0
  143.9570  143.9796  158.5949 C   0  0  0  0  0  0  0  0  0  0  0  0
  145.9201  142.7480  158.0611 C   0  0  0  0  0  0  0  0  0  0  0  0
  147.0751  142.5804  157.0596 C   0  0  0  0  0  0  0  0  0  0  0  0
  147.2735  141.9091  153.2304 C   0  0  0  0  0  0  0  0  0  0  0  0
  146.8251  140.4482  153.0315 C   0  0  0  0  0  0  0  0  0  0  0  0
  144.9840  135.7061  150.8256 C   0  0  0  0  0  0  0  0  0  0  0  0
  144.3477  134.8822  149.9658 N   0  0  0  0  0  0  0  0  0  0  0  0
  144.1450  131.6288  149.1876 H   0  0  0  0  0  0  0  0  0  0  0  0
  144.1152  132.9686  148.0374 H   0  0  0  0  0  0  0  0  0  0  0  0
  142.7950  132.7674  149.1981 H   0  0  0  0  0  0  0  0  0  0  0  0
  145.6771  131.9415  151.0296 H   0  0  0  0  0  0  0  0  0  0  0  0
  146.8341  133.4541  152.6112 H   0  0  0  0  0  0  0  0  0  0  0  0
  146.5984  135.9542  153.6143 H   0  0  0  0  0  0  0  0  0  0  0  0
  147.4934  137.5629  154.2723 H   0  0  0  0  0  0  0  0  0  0  0  0
  148.7663  139.5790  152.7587 H   0  0  0  0  0  0  0  0  0  0  0  0
  147.6925  139.5433  155.6122 H   0  0  0  0  0  0  0  0  0  0  0  0
  149.3146  139.1716  155.0940 H   0  0  0  0  0  0  0  0  0  0  0  0
  149.2443  141.5000  155.9662 H   0  0  0  0  0  0  0  0  0  0  0  0
  149.6490  141.4879  154.2913 H   0  0  0  0  0  0  0  0  0  0  0  0
  146.1117  141.2289  155.6969 H   0  0  0  0  0  0  0  0  0  0  0  0
  145.9253  144.2090  155.0582 H   0  0  0  0  0  0  0  0  0  0  0  0
  144.9715  142.9310  154.3368 H   0  0  0  0  0  0  0  0  0  0  0  0
  143.6626  144.1149  156.0258 H   0  0  0  0  0  0  0  0  0  0  0  0
  143.8625  142.4276  156.4649 H   0  0  0  0  0  0  0  0  0  0  0  0
  144.3875  144.2965  159.5454 H   0  0  0  0  0  0  0  0  0  0  0  0
  143.3915  143.0621  158.7645 H   0  0  0  0  0  0  0  0  0  0  0  0
  143.2614  144.7553  158.2728 H   0  0  0  0  0  0  0  0  0  0  0  0
  146.3236  143.0266  159.0356 H   0  0  0  0  0  0  0  0  0  0  0  0
  145.3902  141.8029  158.1922 H   0  0  0  0  0  0  0  0  0  0  0  0
  147.7280  141.8036  157.4548 H   0  0  0  0  0  0  0  0  0  0  0  0
  147.6626  143.4992  157.0234 H   0  0  0  0  0  0  0  0  0  0  0  0
  146.5064  142.6019  152.8913 H   0  0  0  0  0  0  0  0  0  0  0  0
  148.1276  142.1064  152.5807 H   0  0  0  0  0  0  0  0  0  0  0  0
  146.5670  140.2851  151.9844 H   0  0  0  0  0  0  0  0  0  0  0  0
  145.9135  140.2590  153.5992 H   0  0  0  0  0  0  0  0  0  0  0  0
  144.7475  136.7563  150.7331 H   0  0  0  0  0  0  0  0  0  0  0  0
  148.0712  143.1113  154.6366 H   0  0  0  0  0  0  0  0  0  0  0  0
  1  2  1  0  0  0  0
  1 25  1  0  0  0  0
  1 26  1  0  0  0  0
  1 27  1  0  0  0  0
  2 24  1  0  0  0  0
  2  3  2  0  0  0  0
  3  4  1  0  0  0  0
  3 28  1  0  0  0  0
  4  5  2  0  0  0  0
  4 29  1  0  0  0  0
  5  6  1  0  0  0  0
  5 23  1  0  0  0  0
  6  7  1  0  0  0  0
  6 30  1  0  0  0  0
  7  8  2  0  0  0  0
  7  9  1  0  0  0  0
  9 10  1  0  0  0  0
  9 31  1  0  0  0  0
 10 22  1  0  0  0  0
 10 11  1  0  0  0  0
 10 32  1  0  0  0  0
 11 12  1  0  0  0  0
 11 33  1  0  0  0  0
 11 34  1  0  0  0  0
 12 13  1  0  0  0  0
 12 35  1  0  0  0  0
 12 36  1  0  0  0  0
 13 14  1  0  0  0  0
 13 21  1  0  0  0  0
 13 54  1  0  0  0  0
 14 20  1  0  0  0  0
 14 15  1  0  0  0  0
 14 37  1  0  0  0  0
 15 16  1  0  0  0  0
 15 38  1  0  0  0  0
 15 39  1  0  0  0  0
 16 17  1  0  0  0  0
 16 40  1  0  0  0  0
 16 41  1  0  0  0  0
 17 18  1  0  0  0  0
 17 19  1  0  0  0  0
 18 42  1  0  0  0  0
 18 43  1  0  0  0  0
 18 44  1  0  0  0  0
 19 20  1  0  0  0  0
 19 45  1  0  0  0  0
 19 46  1  0  0  0  0
 20 47  1  0  0  0  0
 20 48  1  0  0  0  0
 21 22  1  0  0  0  0
 21 49  1  0  0  0  0
 21 50  1  0  0  0  0
 22 51  1  0  0  0  0
 22 52  1  0  0  0  0
 23 24  2  0  0  0  0
 23 53  1  0  0  0  0
M  CHG  1  13   1
M  END
> <s_m_source_file>
AV-unprocessed.smi

> <i_m_source_file_index>
2772

> <i_lp_mmshare_version>
43012

> <i_f3d_flags>
0

> <s_epik_input>
W0NIM11jMVtjSF1bY0hdYyhbY0hdbjEpW05IXUMoPU8pW05IXVtDSF0yW0NIMl1bQ0gyXU4oW0NIMl1bQ0gyXTIpW0NIXTNbQ0gyXVtDSDJdTihbQ0gzXSlbQ0gyXVtDSDJdMw==

> <s_epik_cmdline>
J2VwaWtfcHl0aG9uJywgJy1waCcsICc3LjAnLCAnLXRuJywgJzgnLCAnLW1hJywgJzIwMCcsICctbWV0YWxfYmluZGluZycsICctaW1hZScsICc8aW5maWxlLm1hZT4nLCAnLW9tYWUnLCAnPG91dGZpbGUubWFlPic=

> <r_epik_Ionization_Penalty>
1.38854

> <r_epik_Ionization_Penalty_Charging>
0.00081195

> <r_epik_Ionization_Penalty_Neutral>
1.38772

> <r_epik_State_Penalty>
1.56122

> <r_epik_Charging_Adjusted_Penalty>
1.56203

> <i_epik_Tot_Q>
1

> <i_epik_Tot_abs_Q>
1

> <r_epik_Metal_State_Penalty>
1.5614

> <b_epik_Metal_Only>
0

> <s_lp_Force_Field>
OPLS_2005

> <r_lp_Energy>
35.2305

> <b_lp_Chiralities_Consistent>
1

> <s_lp_Variant>
AV-unprocessed.smi:2772-8

> <Gold.Version>
5.8.1

> <Gold.Id.Protein>
6NUR|6NUR_protein|mol2

> <Gold.PLP.Fitness>
41.6959

> <Gold.PLP.PLP>
-30.2497

> <Gold.PLP.part.hbond>
-4.0000

> <Gold.PLP.part.metal>
0.0000

> <Gold.PLP.part.buried>
1.3376

> <Gold.PLP.part.nonpolar>
-29.3841

> <Gold.PLP.part.repulsive>
2.9206

> <Gold.PLP.ligand.clash>
0.0000

> <Gold.PLP.ligand.torsion>
0.2853

> <Gold.PLP.Chemscore.Hbond>
2.9913

> <Gold.PLP.Chemscore.CHOScore>
1.0000

> <Gold.PLP.Chemscore.Metal>
0.0000

> <Gold.Chemscore.Hbonds>
donor molecule, donor type, donor heavy atom, donor atom, acceptor molecule, acceptor atom, score
      L1  H    13    54       P1  8028  1.98
      P1  H  7954  7966       L1     8  1.00
      L1  C    23    53       P1 10171  1.00

> <Gold.PLP.Chemscore.Internal.Correction>
0.0430

> <Gold.Rescore>
     Score         DG    S(hbond)    S(metal)    S(lipo)     H(rot)  DE(clash)    DE(int)     intcor
     11.78     -19.16       1.86        0.00      89.84       1.19       4.70       2.68       ----

> <Gold.Chemscore.Fitness>
11.7842

> <Gold.Chemscore.DG>
-19.1599

> <Gold.Chemscore.ZeroCoef>
-5.4800

> <Gold.Chemscore.Hbond>
1.8615

> <Gold.Chemscore.Metal>
0.0000

> <Gold.Chemscore.Lipo>
89.8401

> <Gold.Chemscore.Internal_Hbond>
0.0000

> <Gold.Chemscore.DEClash>
4.6961

> <Gold.Chemscore.DEInternal>
2.6796

> <Gold.Chemscore.Rot>
1.1910

> <Gold.Chemscore.Internal.Correction>
   9.000000E+99

> <Gold.Chemscore.Hbonds>
donor molecule, donor type, donor heavy atom, donor atom, acceptor molecule, acceptor atom, score
      L1  H    13    54       P1  8028  0.84
      P1  H  7954  7966       L1     8  0.94

> <Gold.Chemscore.Hbond.Weighted>
-6.2175

> <Gold.Chemscore.Metal.Weighted>
-0.0000

> <Gold.Chemscore.Lipo.Weighted>
-10.5113

> <Gold.Chemscore.Internal_Hbond.Weighted>
0.0000

> <Gold.Chemscore.DEClash.Weighted>
4.6961

> <Gold.Chemscore.DEInternal.Weighted>
2.6796

> <Gold.Chemscore.Rot.Weighted>
3.0489

> <Gold.Chemscore.Internal.Correction.Weighted>
   9.000000E+99

> <Gold.Protein.RotatedTorsions>
[ 6907 6896 6895 6894 ] final  -76.26 input  -60.11 | X-H torsion
[ 7974 7965 7964 7962 ] final  111.39 input  175.53 | X-H torsion
[ 8008 7997 7996 7995 ] final  128.64 input   59.86 | X-H torsion
[ 10167 10162 10161 10158 ] final -178.32 input  -65.29 | X-H torsion
[ 10718 10713 10712 10709 ] final  106.52 input   66.30 | X-H torsion
[ 10763 10752 10751 10750 ] final  -31.00 input  -60.55 | X-H torsion
[ 11005 11000 10999 10996 ] final -126.10 input  -57.11 | X-H torsion

> <Gold.Protein.ActiveResidues>
 VAL166  LYS551  ARG553  GLY616  TRP617  ASP618  TYR619  PRO620  LYS621  CYS622 
 ASP623  PHE694  ASN695  SER759  ASP760  ASP761  ALA762  ILE779  LEU786  VAL792 
 PHE793  MET794  SER795  GLU796  ALA797  LYS798  CYS799  TRP800  GLU811  SER814 

> <Gold.Protein.RotatedAtoms>
  150.7033  134.4599  159.5375 H   0  0  0  0  0  0  0  0  0  0  0  0  # atno 6907 bound_to 6896
  152.2275  134.8351  160.0487 H   0  0  0  0  0  0  0  0  0  0  0  0  # atno 6908 bound_to 6896
  151.9178  133.3543  159.3923 H   0  0  0  0  0  0  0  0  0  0  0  0  # atno 6909 bound_to 6896
  145.2428  139.2772  143.4109 H   0  0  0  0  0  0  0  0  0  0  0  0  # atno 7974 bound_to 7965
  156.2919  140.2640  156.2469 H   0  0  0  0  0  0  0  0  0  0  0  0  # atno 8008 bound_to 7997
  154.9922  140.0388  157.2342 H   0  0  0  0  0  0  0  0  0  0  0  0  # atno 8009 bound_to 7997
  154.7676  140.2772  155.6168 H   0  0  0  0  0  0  0  0  0  0  0  0  # atno 8010 bound_to 7997
  139.5438  144.2291  152.0947 H   0  0  0  0  0  0  0  0  0  0  0  0  # atno 10167 bound_to 10162
  157.6665  131.0852  150.6018 H   0  0  0  0  0  0  0  0  0  0  0  0  # atno 10718 bound_to 10713
  153.7902  135.6898  153.4873 H   0  0  0  0  0  0  0  0  0  0  0  0  # atno 10763 bound_to 10752
  153.1754  135.4526  154.9957 H   0  0  0  0  0  0  0  0  0  0  0  0  # atno 10764 bound_to 10752
  154.8047  135.3352  154.7398 H   0  0  0  0  0  0  0  0  0  0  0  0  # atno 10765 bound_to 10752
  140.9709  134.0807  157.3871 H   0  0  0  0  0  0  0  0  0  0  0  0  # atno 11005 bound_to 11000
  146.3324  140.2796  142.8609 LP  0  0  0  0  0  0  0  0  0  0  0  0  # atno 17320 bound_to 7965
  144.9574  140.8240  143.5535 LP  0  0  0  0  0  0  0  0  0  0  0  0  # atno 17321 bound_to 7965
  140.1774  144.4877  150.6546 LP  0  0  0  0  0  0  0  0  0  0  0  0  # atno 17342 bound_to 10162
  140.6678  143.2274  151.5699 LP  0  0  0  0  0  0  0  0  0  0  0  0  # atno 17343 bound_to 10162
  156.6319  130.4434  149.5783 LP  0  0  0  0  0  0  0  0  0  0  0  0  # atno 17370 bound_to 10713
  156.2275  130.6774  151.1430 LP  0  0  0  0  0  0  0  0  0  0  0  0  # atno 17371 bound_to 10713
  139.8912  135.0117  156.6777 LP  0  0  0  0  0  0  0  0  0  0  0  0  # atno 17394 bound_to 11000
  140.7331  133.9042  155.8225 LP  0  0  0  0  0  0  0  0  0  0  0  0  # atno 17395 bound_to 11000

$$$$
