AV-unprocessed.smi:183|AV-procd|sdf|1460|dock9
  -GOLD-   2262019273D 1   1.00000     0.00000
 Structure written by MMmdl.
 55 57  0  0  0  0  0  0  0  0  1 V2000
  145.7328  132.0215  149.5730 C   0  0  0  0  0  0  0  0  0  0  0  0
  144.8730  133.0291  150.3278 C   0  0  0  0  0  0  0  0  0  0  0  0
  144.1074  132.6472  151.2130 O   0  0  0  0  0  0  0  0  0  0  0  0
  145.0101  134.3152  149.9691 N   0  0  0  0  0  0  0  0  0  0  0  0
  144.2758  135.4217  150.5688 C   0  0  0  0  0  0  0  0  0  0  0  0
  145.0058  135.9701  151.8123 C   0  0  0  0  0  0  0  0  0  0  0  0
  144.1420  136.7540  152.7005 N   0  0  0  0  0  0  0  0  0  0  0  0
  144.8348  137.2189  153.7703 C   0  0  0  0  0  0  0  0  0  0  0  0
  144.3873  136.8552  154.9987 N   0  0  0  0  0  0  0  0  0  0  0  0
  144.9985  137.3071  156.0971 C   0  0  0  0  0  0  0  0  0  0  0  0
  146.0468  138.1269  156.1913 N   0  0  0  0  0  0  0  0  0  0  0  0
  146.4938  138.5044  154.9595 C   0  0  0  0  0  0  0  0  0  0  0  0
  145.9591  138.0926  153.7058 C   0  0  0  0  0  0  0  0  0  0  0  0
  146.6815  138.6764  152.6714 N   0  0  0  0  0  0  0  0  0  0  0  0
  147.5862  139.3940  153.2779 C   0  0  0  0  0  0  0  0  0  0  0  0
  147.5333  139.3648  154.6529 N   0  0  0  0  0  0  0  0  0  0  0  0
  148.4013  140.0837  155.5717 C   0  0  0  0  0  0  0  0  0  0  0  0
  149.9026  139.6978  155.4541 C   0  0  2  0  0  0  0  0  0  0  0  0
  150.3824  140.0373  154.1670 O   0  0  0  0  0  0  0  0  0  0  0  0
  150.1866  138.2224  155.7115 C   0  0  0  0  0  0  0  0  0  0  0  0
  150.2548  138.1584  157.2342 C   0  0  0  0  0  0  0  0  0  0  0  0
  150.7268  139.4360  157.6529 O   0  0  0  0  0  0  0  0  0  0  0  0
  150.7979  140.3242  156.5402 C   0  0  2  0  0  0  0  0  0  0  0  0
  150.4643  141.7615  156.9669 C   0  0  0  0  0  0  0  0  0  0  0  0
  142.7373  136.3580  152.8971 C   0  0  0  0  0  0  0  0  0  0  0  0
  141.9127  137.4881  153.5429 C   0  0  0  0  0  0  0  0  0  0  0  0
  142.5955  135.0881  153.7648 C   0  0  0  0  0  0  0  0  0  0  0  0
  146.7904  132.2072  149.7626 H   0  0  0  0  0  0  0  0  0  0  0  0
  145.5545  132.0947  148.4998 H   0  0  0  0  0  0  0  0  0  0  0  0
  145.5027  131.0030  149.8883 H   0  0  0  0  0  0  0  0  0  0  0  0
  145.6635  134.5410  149.2329 H   0  0  0  0  0  0  0  0  0  0  0  0
  144.1503  136.2089  149.8253 H   0  0  0  0  0  0  0  0  0  0  0  0
  143.2724  135.0766  150.8168 H   0  0  0  0  0  0  0  0  0  0  0  0
  145.4326  135.1397  152.3776 H   0  0  0  0  0  0  0  0  0  0  0  0
  145.8635  136.5698  151.5087 H   0  0  0  0  0  0  0  0  0  0  0  0
  144.5842  136.9688  157.0352 H   0  0  0  0  0  0  0  0  0  0  0  0
  148.3122  139.9821  152.7356 H   0  0  0  0  0  0  0  0  0  0  0  0
  148.2679  141.1510  155.3918 H   0  0  0  0  0  0  0  0  0  0  0  0
  148.0410  139.9001  156.5846 H   0  0  0  0  0  0  0  0  0  0  0  0
  149.8581  139.5883  153.5220 H   0  0  0  0  0  0  0  0  0  0  0  0
  149.4609  137.5321  155.2836 H   0  0  0  0  0  0  0  0  0  0  0  0
  151.1628  137.9502  155.3059 H   0  0  0  0  0  0  0  0  0  0  0  0
  149.2629  137.9962  157.6574 H   0  0  0  0  0  0  0  0  0  0  0  0
  150.9072  137.3587  157.5854 H   0  0  0  0  0  0  0  0  0  0  0  0
  151.8348  140.2978  156.1991 H   0  0  0  0  0  0  0  0  0  0  0  0
  150.4863  142.4384  156.1124 H   0  0  0  0  0  0  0  0  0  0  0  0
  151.1892  142.1241  157.6957 H   0  0  0  0  0  0  0  0  0  0  0  0
  149.4787  141.8290  157.4274 H   0  0  0  0  0  0  0  0  0  0  0  0
  142.3020  136.1527  151.9192 H   0  0  0  0  0  0  0  0  0  0  0  0
  140.8848  137.1707  153.7197 H   0  0  0  0  0  0  0  0  0  0  0  0
  141.8612  138.3715  152.9072 H   0  0  0  0  0  0  0  0  0  0  0  0
  142.3353  137.7883  154.5024 H   0  0  0  0  0  0  0  0  0  0  0  0
  141.5458  134.8422  153.9264 H   0  0  0  0  0  0  0  0  0  0  0  0
  143.0558  135.2262  154.7436 H   0  0  0  0  0  0  0  0  0  0  0  0
  143.0514  134.2125  153.3041 H   0  0  0  0  0  0  0  0  0  0  0  0
  1  2  1  0  0  0  0
  1 28  1  0  0  0  0
  1 29  1  0  0  0  0
  1 30  1  0  0  0  0
  2  3  2  0  0  0  0
  2  4  1  0  0  0  0
  4  5  1  0  0  0  0
  4 31  1  0  0  0  0
  5  6  1  0  0  0  0
  5 32  1  0  0  0  0
  5 33  1  0  0  0  0
  6  7  1  0  0  0  0
  6 34  1  0  0  0  0
  6 35  1  0  0  0  0
  7  8  1  0  0  0  0
  7 25  1  0  0  0  0
  8 13  1  0  0  0  0
  8  9  2  0  0  0  0
  9 10  1  0  0  0  0
 10 11  2  0  0  0  0
 10 36  1  0  0  0  0
 11 12  1  0  0  0  0
 12 16  1  0  0  0  0
 12 13  2  0  0  0  0
 13 14  1  0  0  0  0
 14 15  2  0  0  0  0
 15 16  1  0  0  0  0
 15 37  1  0  0  0  0
 16 17  1  0  0  0  0
 17 18  1  0  0  0  0
 17 38  1  0  0  0  0
 17 39  1  0  0  0  0
 18 23  1  0  0  0  0
 18 19  1  0  0  0  0
 18 20  1  0  0  0  0
 19 40  1  0  0  0  0
 20 21  1  0  0  0  0
 20 41  1  0  0  0  0
 20 42  1  0  0  0  0
 21 22  1  0  0  0  0
 21 43  1  0  0  0  0
 21 44  1  0  0  0  0
 22 23  1  0  0  0  0
 23 24  1  0  0  0  0
 23 45  1  0  0  0  0
 24 46  1  0  0  0  0
 24 47  1  0  0  0  0
 24 48  1  0  0  0  0
 25 26  1  0  0  0  0
 25 27  1  0  0  0  0
 25 49  1  0  0  0  0
 26 50  1  0  0  0  0
 26 51  1  0  0  0  0
 26 52  1  0  0  0  0
 27 53  1  0  0  0  0
 27 54  1  0  0  0  0
 27 55  1  0  0  0  0
M  END
> <s_m_source_file>
AV-unprocessed.smi

> <i_m_source_file_index>
183

> <i_lp_mmshare_version>
43012

> <i_f3d_flags>
0

> <s_epik_input>
W0NIM11DKD1PKVtOSF1bQ0gyXVtDSDJdTihbQ0hdKFtDSDNdKVtDSDNdKWMobltjSF1uMSljKGMxMiluW2NIXW4yW0NIMl1bQ0BAXTMoW09IXSlbQ0gyXVtDSDJdT1tDQEhdM1tDSDNd

> <s_epik_cmdline>
J2VwaWtfcHl0aG9uJywgJy1waCcsICc3LjAnLCAnLXRuJywgJzgnLCAnLW1hJywgJzIwMCcsICctbWV0YWxfYmluZGluZycsICctaW1hZScsICc8aW5maWxlLm1hZT4nLCAnLW9tYWUnLCAnPG91dGZpbGUubWFlPic=

> <r_lp_tautomer_probability>
1

> <r_epik_Ionization_Penalty>
0.00156158

> <r_epik_Ionization_Penalty_Charging>
0

> <r_epik_Ionization_Penalty_Neutral>
0.00156158

> <r_epik_State_Penalty>
0.000865808

> <r_epik_Charging_Adjusted_Penalty>
0.000865808

> <i_epik_Tot_Q>
0

> <i_epik_Tot_abs_Q>
0

> <r_epik_Metal_State_Penalty>
-0

> <b_epik_Metal_Only>
0

> <s_lp_Force_Field>
OPLS_2005

> <r_lp_Energy>
30.6117

> <b_lp_Chiralities_Consistent>
1

> <s_lp_Variant>
AV-unprocessed.smi:183-4

> <Gold.Version>
5.8.1

> <Gold.Id.Protein>
6NUR|6NUR_protein|mol2

> <Gold.PLP.Fitness>
41.9255

> <Gold.PLP.PLP>
-33.2271

> <Gold.PLP.part.hbond>
-2.8186

> <Gold.PLP.part.metal>
0.0000

> <Gold.PLP.part.buried>
-7.2994

> <Gold.PLP.part.nonpolar>
-25.0723

> <Gold.PLP.part.repulsive>
0.7384

> <Gold.PLP.ligand.clash>
0.0000

> <Gold.PLP.ligand.torsion>
0.8814

> <Gold.PLP.Chemscore.Hbond>
2.2134

> <Gold.PLP.Chemscore.CHOScore>
0.9294

> <Gold.PLP.Chemscore.Metal>
0.0000

> <Gold.Chemscore.Hbonds>
donor molecule, donor type, donor heavy atom, donor atom, acceptor molecule, acceptor atom, score
      L1  H     4    31       P1  7921  1.00
      L1  H    19    40       P1  7957  0.03
      P1  H  7989  7998       L1    19  1.00
      L1  C    15    37       P1  7957  1.00

> <Gold.PLP.Chemscore.Internal.Correction>
1.0328

> <Gold.Rescore>
     Score         DG    S(hbond)    S(metal)    S(lipo)     H(rot)  DE(clash)    DE(int)     intcor
      7.77     -10.86       1.97        0.00      65.10       3.45       0.35       2.74       ----

> <Gold.Chemscore.Fitness>
7.7727

> <Gold.Chemscore.DG>
-10.8646

> <Gold.Chemscore.ZeroCoef>
-5.4800

> <Gold.Chemscore.Hbond>
1.9721

> <Gold.Chemscore.Metal>
0.0000

> <Gold.Chemscore.Lipo>
65.1040

> <Gold.Chemscore.Internal_Hbond>
0.0000

> <Gold.Chemscore.DEClash>
0.3476

> <Gold.Chemscore.DEInternal>
2.7443

> <Gold.Chemscore.Rot>
3.4451

> <Gold.Chemscore.Internal.Correction>
   9.000000E+99

> <Gold.Chemscore.Hbonds>
donor molecule, donor type, donor heavy atom, donor atom, acceptor molecule, acceptor atom, score
      L1  H     4    31       P1  7921  0.89
      L1  H    19    40       P1  7957  0.06
      P1  H  7989  7998       L1    19  0.80

> <Gold.Chemscore.Hbond.Weighted>
-6.5868

> <Gold.Chemscore.Metal.Weighted>
-0.0000

> <Gold.Chemscore.Lipo.Weighted>
-7.6172

> <Gold.Chemscore.Internal_Hbond.Weighted>
0.0000

> <Gold.Chemscore.DEClash.Weighted>
0.3476

> <Gold.Chemscore.DEInternal.Weighted>
2.7443

> <Gold.Chemscore.Rot.Weighted>
8.8194

> <Gold.Chemscore.Internal.Correction.Weighted>
   9.000000E+99

> <Gold.Protein.RotatedTorsions>
[ 6907 6896 6895 6894 ] final  170.10 input  -60.11 | X-H torsion
[ 7974 7965 7964 7962 ] final   47.33 input  175.53 | X-H torsion
[ 8008 7997 7996 7995 ] final -155.20 input   59.86 | X-H torsion
[ 10167 10162 10161 10158 ] final   97.62 input  -65.29 | X-H torsion
[ 10718 10713 10712 10709 ] final -107.24 input   66.30 | X-H torsion
[ 10763 10752 10751 10750 ] final    5.03 input  -60.55 | X-H torsion
[ 11005 11000 10999 10996 ] final   61.91 input  -57.11 | X-H torsion

> <Gold.Protein.ActiveResidues>
 VAL166  LYS551  ARG553  GLY616  TRP617  ASP618  TYR619  PRO620  LYS621  CYS622 
 ASP623  PHE694  ASN695  SER759  ASP760  ASP761  ALA762  ILE779  LEU786  VAL792 
 PHE793  MET794  SER795  GLU796  ALA797  LYS798  CYS799  TRP800  GLU811  SER814 

> <Gold.Protein.RotatedAtoms>
  151.8215  133.3395  159.3585 H   0  0  0  0  0  0  0  0  0  0  0  0  # atno 6907 bound_to 6896
  150.7293  134.5569  159.5832 H   0  0  0  0  0  0  0  0  0  0  0  0  # atno 6908 bound_to 6896
  152.3002  134.7620  160.0410 H   0  0  0  0  0  0  0  0  0  0  0  0  # atno 6909 bound_to 6896
  146.0308  139.4761  142.9839 H   0  0  0  0  0  0  0  0  0  0  0  0  # atno 7974 bound_to 7965
  155.6981  140.0763  157.2421 H   0  0  0  0  0  0  0  0  0  0  0  0  # atno 8008 bound_to 7997
  154.4077  140.1652  156.2214 H   0  0  0  0  0  0  0  0  0  0  0  0  # atno 8009 bound_to 7997
  155.9392  140.3385  155.6316 H   0  0  0  0  0  0  0  0  0  0  0  0  # atno 8010 bound_to 7997
  139.7784  144.6897  151.0057 H   0  0  0  0  0  0  0  0  0  0  0  0  # atno 10167 bound_to 10162
  156.0427  130.5652  150.7793 H   0  0  0  0  0  0  0  0  0  0  0  0  # atno 10718 bound_to 10713
  153.2642  135.6926  153.7547 H   0  0  0  0  0  0  0  0  0  0  0  0  # atno 10763 bound_to 10752
  153.6595  135.3363  155.3124 H   0  0  0  0  0  0  0  0  0  0  0  0  # atno 10764 bound_to 10752
  154.8441  135.4473  154.1642 H   0  0  0  0  0  0  0  0  0  0  0  0  # atno 10765 bound_to 10752
  140.0128  134.6270  155.9754 H   0  0  0  0  0  0  0  0  0  0  0  0  # atno 11005 bound_to 11000
  145.7044  141.0126  143.1487 LP  0  0  0  0  0  0  0  0  0  0  0  0  # atno 17320 bound_to 7965
  144.7029  139.8682  143.7438 LP  0  0  0  0  0  0  0  0  0  0  0  0  # atno 17321 bound_to 7965
  140.7817  143.4510  151.0412 LP  0  0  0  0  0  0  0  0  0  0  0  0  # atno 17342 bound_to 10162
  139.8192  143.7844  152.3176 LP  0  0  0  0  0  0  0  0  0  0  0  0  # atno 17343 bound_to 10162
  157.5265  131.0934  151.0011 LP  0  0  0  0  0  0  0  0  0  0  0  0  # atno 17370 bound_to 10713
  157.0328  130.5718  149.5345 LP  0  0  0  0  0  0  0  0  0  0  0  0  # atno 17371 bound_to 10713
  141.1723  133.6538  156.4696 LP  0  0  0  0  0  0  0  0  0  0  0  0  # atno 17394 bound_to 11000
  140.4523  134.6917  157.5046 LP  0  0  0  0  0  0  0  0  0  0  0  0  # atno 17395 bound_to 11000

$$$$
