#       Name:                AV-unprocessed.smi:618
#       Creating user name   scv26
#       Creation time:       Fri Mar 27 00:00:11 2020


#       File generated by GOLD software.
#

@<TRIPOS>MOLECULE
AV-unprocessed.smi:618
    46    48     1
SMALL
NO_CHARGES


@<TRIPOS>ATOM
      1 ****         0.1211   1.9656   1.7547 O.2            1 S1                 0.0000
      2 ****        -0.3463   0.8487   1.9723 C.2            1 S1                 0.0000
      3 ****         0.4056  -0.2555   2.0836 N.am           1 S1                 0.0000
      4 ****         1.8600  -0.3009   1.9533 C.3            1 S1                 0.0000
      5 ****         2.3318  -0.4855   0.4964 C.3            1 S1                 0.0000
      6 ****         1.7050  -1.7032  -0.2087 C.3            1 S1                 0.0000
      7 ****         2.1890  -1.8296  -1.6067 N.4            1 S1                 1.0000
      8 ****         1.3869  -2.7946  -2.3910 C.3            1 S1                 0.0000
      9 ****         0.3533  -1.9699  -3.1804 C.3            1 S1                 0.0000
     10 ****         0.6898  -0.5011  -2.8975 C.3            1 S1                 0.0000
     11 ****         2.1200  -0.5588  -2.3610 C.3            1 S1                 0.0000
     12 ****         2.5884   0.6638  -1.5458 C.3            1 S1                 0.0000
     13 ****         2.0046   0.6783  -0.2515 O.3            1 S1                 0.0000
     14 ****        -1.6494   0.5643   2.1394 N.am           1 S1                 0.0000
     15 ****        -2.7710   1.4377   2.0974 C.ar           1 S1                 0.0000
     16 ****        -2.7524   2.7497   1.5633 C.ar           1 S1                 0.0000
     17 ****        -3.9409   3.5050   1.5741 C.ar           1 S1                 0.0000
     18 ****        -5.1048   2.9222   2.1113 C.ar           1 S1                 0.0000
     19 ****        -5.1405   1.6702   2.6131 N.ar           1 S1                 0.0000
     20 ****        -3.9975   0.9521   2.5996 C.ar           1 S1                 0.0000
     21 ****        -0.0617  -1.1300   2.2734 H              1 S1                 0.0000
     22 ****         2.3110   0.5937   2.3861 H              1 S1                 0.0000
     23 ****         2.2149  -1.1377   2.5551 H              1 S1                 0.0000
     24 ****         3.4174  -0.5990   0.5160 H              1 S1                 0.0000
     25 ****         1.9423  -2.6186   0.3343 H              1 S1                 0.0000
     26 ****         0.6178  -1.6107  -0.2118 H              1 S1                 0.0000
     27 ****         2.0528  -3.3078  -3.0857 H              1 S1                 0.0000
     28 ****         0.9225  -3.5591  -1.7660 H              1 S1                 0.0000
     29 ****         0.4330  -2.1880  -4.2461 H              1 S1                 0.0000
     30 ****        -0.6671  -2.2015  -2.8732 H              1 S1                 0.0000
     31 ****         0.5987   0.1297  -3.7823 H              1 S1                 0.0000
     32 ****         0.0160  -0.1055  -2.1360 H              1 S1                 0.0000
     33 ****         2.7837  -0.6627  -3.2214 H              1 S1                 0.0000
     34 ****         3.6752   0.6580  -1.4490 H              1 S1                 0.0000
     35 ****         2.3290   1.5867  -2.0649 H              1 S1                 0.0000
     36 ****        -1.8642  -0.3947   2.3697 H              1 S1                 0.0000
     37 ****        -1.8651   3.1901   1.1376 H              1 S1                 0.0000
     38 ****        -3.9600   4.5087   1.1761 H              1 S1                 0.0000
     39 ****        -6.0328   3.4741   2.1342 H              1 S1                 0.0000
     40 ****        -4.0656  -0.0461   3.0072 H              1 S1                 0.0000
     41 ****         3.1503  -2.1378  -1.5697 H              1 S1                 0.0000
     42 ****         1.1088   2.0829   1.6516 LP             1 S1                 0.0000
     43 ****        -0.4867   2.7563   1.6809 LP             1 S1                 0.0000
     44 ****         2.3354   1.4824   0.2424 LP             1 S1                 0.0000
     45 ****         1.0105   0.7313  -0.3468 LP             1 S1                 0.0000
     46 ****        -5.9866   1.2865   2.9832 LP             1 S1                 0.0000
@<TRIPOS>BOND
    1    1    2 2     
    2    2    3 am    
    3    2   14 am    
    4    3    4 1     
    5    3   21 1     
    6    4    5 1     
    7    4   22 1     
    8    4   23 1     
    9    5   13 1     
   10    5    6 1     
   11    5   24 1     
   12    6    7 1     
   13    6   25 1     
   14    6   26 1     
   15    7   11 1     
   16    7    8 1     
   17    7   41 1     
   18    8    9 1     
   19    8   27 1     
   20    8   28 1     
   21    9   10 1     
   22    9   29 1     
   23    9   30 1     
   24   10   11 1     
   25   10   31 1     
   26   10   32 1     
   27   11   12 1     
   28   11   33 1     
   29   12   13 1     
   30   12   34 1     
   31   12   35 1     
   32   14   15 1     
   33   14   36 1     
   34   15   20 ar    
   35   15   16 ar    
   36   16   17 ar    
   37   16   37 1     
   38   17   18 ar    
   39   17   38 1     
   40   18   19 ar    
   41   18   39 1     
   42   19   20 ar    
   43   20   40 1     
   44    1   42 1     
   45    1   43 1     
   46   13   44 1     
   47   13   45 1     
   48   19   46 1     
@<TRIPOS>SUBSTRUCTURE
      1 S1             1
@<TRIPOS>SET
LONE_PAIRS      STATIC     ATOMS    <user>   **** ""
5 42 43 44 45 46
DONOR_HYDROGENS      STATIC     ATOMS    <user>   **** ""
3 21 41 36
ATOM$BLUE        STATIC     ATOMS    COLORGROUP SYSTEM
5 42 43 44 45 46
ATOM$RED        STATIC     ATOMS    COLORGROUP SYSTEM
3 21 41 36
