AV-unprocessed.smi:3004|AV-procd|sdf|11441|dock1
  -GOLD-   2272016373D 1   1.00000     0.00000
 Structure written by MMmdl.
 47 48  0  0  0  0  0  0  0  0  2 V2000
  147.3899  141.3017  153.9412 C   0  0  0  0  0  0  0  0  0  0  0  0
  148.6615  140.6423  154.3864 C   0  0  0  0  0  0  0  0  0  0  0  0
  149.7226  141.2004  155.1525 C   0  0  0  0  0  0  0  0  0  0  0  0
  150.6249  140.1815  155.2733 C   0  0  0  0  0  0  0  0  0  0  0  0
  151.9458  140.1422  155.9688 C   0  0  0  0  0  0  0  0  0  0  0  0
  150.0948  139.0945  154.6006 N   0  0  0  0  0  0  0  0  0  0  0  0
  150.6501  137.7609  154.4288 C   0  0  0  0  0  0  0  0  0  0  0  0
  149.8177  136.7133  155.1697 C   0  0  0  0  0  0  0  0  0  0  0  0
  149.6759  136.7876  156.3902 O   0  0  0  0  0  0  0  0  0  0  0  0
  149.2718  135.7421  154.4211 N   0  0  0  0  0  0  0  0  0  0  0  0
  148.4454  134.6571  154.9339 C   0  0  0  0  0  0  0  0  0  0  0  0
  148.2056  133.5784  153.8586 C   0  0  0  0  0  0  0  0  0  0  0  0
  147.3349  134.0359  152.7417 N   0  3  2  0  0  0  0  0  0  0  0  0
  146.2660  134.9569  153.2148 C   0  0  0  0  0  0  0  0  0  0  0  0
  145.5089  135.5923  152.0379 C   0  0  0  0  0  0  0  0  0  0  0  0
  144.9291  134.5182  151.1121 C   0  0  0  0  0  0  0  0  0  0  0  0
  146.0462  133.5724  150.6512 C   0  0  0  0  0  0  0  0  0  0  0  0
  146.8195  132.9583  151.8380 C   0  0  2  0  0  0  0  0  0  0  0  0
  146.0007  131.8739  152.5708 C   0  0  0  0  0  0  0  0  0  0  0  0
  148.8893  139.3804  154.0610 N   0  0  0  0  0  0  0  0  0  0  0  0
  147.3875  142.3624  154.1927 H   0  0  0  0  0  0  0  0  0  0  0  0
  146.5232  140.8456  154.4202 H   0  0  0  0  0  0  0  0  0  0  0  0
  147.2591  141.2173  152.8620 H   0  0  0  0  0  0  0  0  0  0  0  0
  149.8085  142.1997  155.5530 H   0  0  0  0  0  0  0  0  0  0  0  0
  152.1573  141.0939  156.4566 H   0  0  0  0  0  0  0  0  0  0  0  0
  152.7516  139.9420  155.2624 H   0  0  0  0  0  0  0  0  0  0  0  0
  151.9608  139.3647  156.7325 H   0  0  0  0  0  0  0  0  0  0  0  0
  150.6913  137.5177  153.3658 H   0  0  0  0  0  0  0  0  0  0  0  0
  151.6775  137.7519  154.7949 H   0  0  0  0  0  0  0  0  0  0  0  0
  149.4387  135.7631  153.4249 H   0  0  0  0  0  0  0  0  0  0  0  0
  148.9512  134.2210  155.7957 H   0  0  0  0  0  0  0  0  0  0  0  0
  147.5084  135.0788  155.2982 H   0  0  0  0  0  0  0  0  0  0  0  0
  149.1494  133.2005  153.4650 H   0  0  0  0  0  0  0  0  0  0  0  0
  147.7243  132.7268  154.3419 H   0  0  0  0  0  0  0  0  0  0  0  0
  145.5748  134.4243  153.8688 H   0  0  0  0  0  0  0  0  0  0  0  0
  146.7086  135.7522  153.8157 H   0  0  0  0  0  0  0  0  0  0  0  0
  144.7101  136.2342  152.4106 H   0  0  0  0  0  0  0  0  0  0  0  0
  146.1848  136.2362  151.4734 H   0  0  0  0  0  0  0  0  0  0  0  0
  144.1505  133.9582  151.6313 H   0  0  0  0  0  0  0  0  0  0  0  0
  144.4525  134.9843  150.2493 H   0  0  0  0  0  0  0  0  0  0  0  0
  145.6332  132.7856  150.0188 H   0  0  0  0  0  0  0  0  0  0  0  0
  146.7418  134.1288  150.0215 H   0  0  0  0  0  0  0  0  0  0  0  0
  147.6786  132.4576  151.3937 H   0  0  0  0  0  0  0  0  0  0  0  0
  145.6311  131.1297  151.8651 H   0  0  0  0  0  0  0  0  0  0  0  0
  145.1350  132.2855  153.0889 H   0  0  0  0  0  0  0  0  0  0  0  0
  146.6033  131.3362  153.3023 H   0  0  0  0  0  0  0  0  0  0  0  0
  147.9307  134.6066  152.1591 H   0  0  0  0  0  0  0  0  0  0  0  0
  1  2  1  0  0  0  0
  1 21  1  0  0  0  0
  1 22  1  0  0  0  0
  1 23  1  0  0  0  0
  2 20  2  0  0  0  0
  2  3  1  0  0  0  0
  3  4  2  0  0  0  0
  3 24  1  0  0  0  0
  4  5  1  0  0  0  0
  4  6  1  0  0  0  0
  5 25  1  0  0  0  0
  5 26  1  0  0  0  0
  5 27  1  0  0  0  0
  6  7  1  0  0  0  0
  6 20  1  0  0  0  0
  7  8  1  0  0  0  0
  7 28  1  0  0  0  0
  7 29  1  0  0  0  0
  8  9  2  0  0  0  0
  8 10  1  0  0  0  0
 10 11  1  0  0  0  0
 10 30  1  0  0  0  0
 11 12  1  0  0  0  0
 11 31  1  0  0  0  0
 11 32  1  0  0  0  0
 12 13  1  0  0  0  0
 12 33  1  0  0  0  0
 12 34  1  0  0  0  0
 13 18  1  0  0  0  0
 13 14  1  0  0  0  0
 13 47  1  0  0  0  0
 14 15  1  0  0  0  0
 14 35  1  0  0  0  0
 14 36  1  0  0  0  0
 15 16  1  0  0  0  0
 15 37  1  0  0  0  0
 15 38  1  0  0  0  0
 16 17  1  0  0  0  0
 16 39  1  0  0  0  0
 16 40  1  0  0  0  0
 17 18  1  0  0  0  0
 17 41  1  0  0  0  0
 17 42  1  0  0  0  0
 18 19  1  0  0  0  0
 18 43  1  0  0  0  0
 19 44  1  0  0  0  0
 19 45  1  0  0  0  0
 19 46  1  0  0  0  0
M  CHG  1  13   1
M  END
> <s_m_source_file>
AV-unprocessed.smi

> <i_m_source_file_index>
3004

> <i_lp_mmshare_version>
43012

> <i_f3d_flags>
0

> <s_epik_input>
W0NIM11jMVtjSF1jKFtDSDNdKW4objEpW0NIMl1DKD1PKVtOSF1bQ0gyXVtDSDJdTjJbQ0gyXVtDSDJdW0NIMl1bQ0gyXVtDQEhdMltDSDNd

> <s_epik_cmdline>
J2VwaWtfcHl0aG9uJywgJy1waCcsICc3LjAnLCAnLXRuJywgJzgnLCAnLW1hJywgJzIwMCcsICctbWV0YWxfYmluZGluZycsICctaW1hZScsICc8aW5maWxlLm1hZT4nLCAnLW9tYWUnLCAnPG91dGZpbGUubWFlPic=

> <r_lp_tautomer_probability>
1

> <r_epik_Ionization_Penalty>
0.00303644

> <r_epik_Ionization_Penalty_Charging>
0.00284254

> <r_epik_Ionization_Penalty_Neutral>
0.000193908

> <r_epik_State_Penalty>
-0

> <r_epik_Charging_Adjusted_Penalty>
0.00284254

> <i_epik_Tot_Q>
1

> <i_epik_Tot_abs_Q>
1

> <r_epik_Metal_State_Penalty>
-0

> <b_epik_Metal_Only>
0

> <s_lp_Force_Field>
OPLS_2005

> <r_lp_Energy>
17.6316

> <b_lp_Chiralities_Consistent>
1

> <s_lp_Variant>
AV-unprocessed.smi:3004-3

> <Gold.Version>
5.8.1

> <Gold.Id.Protein>
6NUR|6NUR_protein|mol2

> <Gold.PLP.Fitness>
44.9815

> <Gold.PLP.PLP>
-36.5293

> <Gold.PLP.part.hbond>
-2.0000

> <Gold.PLP.part.metal>
0.0000

> <Gold.PLP.part.buried>
-1.8377

> <Gold.PLP.part.nonpolar>
-32.5472

> <Gold.PLP.part.repulsive>
0.8932

> <Gold.PLP.ligand.clash>
0.0000

> <Gold.PLP.ligand.torsion>
0.2935

> <Gold.PLP.Chemscore.Hbond>
2.9920

> <Gold.PLP.Chemscore.CHOScore>
0.0000

> <Gold.PLP.Chemscore.Metal>
0.0000

> <Gold.Chemscore.Hbonds>
donor molecule, donor type, donor heavy atom, donor atom, acceptor molecule, acceptor atom, score
      L1  H    10    30       P1  7948  1.00
      L1  H    13    47       P1  7948  2.00

> <Gold.PLP.Chemscore.Internal.Correction>
0.0632

> <Gold.Rescore>
     Score         DG    S(hbond)    S(metal)    S(lipo)     H(rot)  DE(clash)    DE(int)     intcor
     16.22     -16.76       1.91        0.00      78.34       1.67       0.24       0.30       ----

> <Gold.Chemscore.Fitness>
16.2174

> <Gold.Chemscore.DG>
-16.7564

> <Gold.Chemscore.ZeroCoef>
-5.4800

> <Gold.Chemscore.Hbond>
1.9085

> <Gold.Chemscore.Metal>
0.0000

> <Gold.Chemscore.Lipo>
78.3410

> <Gold.Chemscore.Internal_Hbond>
0.0000

> <Gold.Chemscore.DEClash>
0.2401

> <Gold.Chemscore.DEInternal>
0.2989

> <Gold.Chemscore.Rot>
1.6657

> <Gold.Chemscore.Internal.Correction>
   9.000000E+99

> <Gold.Chemscore.Hbonds>
donor molecule, donor type, donor heavy atom, donor atom, acceptor molecule, acceptor atom, score
      L1  H    10    30       P1  7948  0.29
      L1  H    13    47       P1  7948  0.33

> <Gold.Chemscore.Hbond.Weighted>
-6.3745

> <Gold.Chemscore.Metal.Weighted>
-0.0000

> <Gold.Chemscore.Lipo.Weighted>
-9.1659

> <Gold.Chemscore.Internal_Hbond.Weighted>
0.0000

> <Gold.Chemscore.DEClash.Weighted>
0.2401

> <Gold.Chemscore.DEInternal.Weighted>
0.2989

> <Gold.Chemscore.Rot.Weighted>
4.2641

> <Gold.Chemscore.Internal.Correction.Weighted>
   9.000000E+99

> <Gold.Protein.RotatedTorsions>
[ 6907 6896 6895 6894 ] final  166.57 input  -60.11 | X-H torsion
[ 7974 7965 7964 7962 ] final -105.61 input  175.53 | X-H torsion
[ 8008 7997 7996 7995 ] final   19.30 input   59.86 | X-H torsion
[ 10167 10162 10161 10158 ] final  135.10 input  -65.29 | X-H torsion
[ 10718 10713 10712 10709 ] final   33.97 input   66.30 | X-H torsion
[ 10763 10752 10751 10750 ] final   14.86 input  -60.55 | X-H torsion
[ 11005 11000 10999 10996 ] final   51.51 input  -57.11 | X-H torsion

> <Gold.Protein.ActiveResidues>
 VAL166  LYS551  ARG553  GLY616  TRP617  ASP618  TYR619  PRO620  LYS621  CYS622 
 ASP623  PHE694  ASN695  SER759  ASP760  ASP761  ALA762  ILE779  LEU786  VAL792 
 PHE793  MET794  SER795  GLU796  ALA797  LYS798  CYS799  TRP800  GLU811  SER814 

> <Gold.Protein.RotatedAtoms>
  151.8768  133.3487  159.3752 H   0  0  0  0  0  0  0  0  0  0  0  0  # atno 6907 bound_to 6896
  150.7138  134.5058  159.5593 H   0  0  0  0  0  0  0  0  0  0  0  0  # atno 6908 bound_to 6896
  152.2602  134.8042  160.0483 H   0  0  0  0  0  0  0  0  0  0  0  0  # atno 6909 bound_to 6896
  145.2283  140.9161  143.3219 H   0  0  0  0  0  0  0  0  0  0  0  0  # atno 7974 bound_to 7965
  154.9187  140.3024  155.5228 H   0  0  0  0  0  0  0  0  0  0  0  0  # atno 8008 bound_to 7997
  156.3011  140.2375  156.4170 H   0  0  0  0  0  0  0  0  0  0  0  0  # atno 8009 bound_to 7997
  154.8352  140.0416  157.1493 H   0  0  0  0  0  0  0  0  0  0  0  0  # atno 8010 bound_to 7997
  139.5230  144.6534  151.5235 H   0  0  0  0  0  0  0  0  0  0  0  0  # atno 10167 bound_to 10162
  157.3045  130.7368  149.6687 H   0  0  0  0  0  0  0  0  0  0  0  0  # atno 10718 bound_to 10713
  153.1581  135.6791  153.8783 H   0  0  0  0  0  0  0  0  0  0  0  0  # atno 10763 bound_to 10752
  153.8187  135.3133  155.3409 H   0  0  0  0  0  0  0  0  0  0  0  0  # atno 10764 bound_to 10752
  154.7912  135.4833  154.0146 H   0  0  0  0  0  0  0  0  0  0  0  0  # atno 10765 bound_to 10752
  140.0926  134.5188  155.8837 H   0  0  0  0  0  0  0  0  0  0  0  0  # atno 11005 bound_to 11000
  144.9701  139.3889  143.6313 LP  0  0  0  0  0  0  0  0  0  0  0  0  # atno 17320 bound_to 7965
  146.3359  139.8794  142.8827 LP  0  0  0  0  0  0  0  0  0  0  0  0  # atno 17321 bound_to 7965
  140.6349  143.9004  150.6638 LP  0  0  0  0  0  0  0  0  0  0  0  0  # atno 17342 bound_to 10162
  140.2320  143.3728  152.1558 LP  0  0  0  0  0  0  0  0  0  0  0  0  # atno 17343 bound_to 10162
  155.9673  130.4270  150.4723 LP  0  0  0  0  0  0  0  0  0  0  0  0  # atno 17370 bound_to 10713
  157.2710  131.0587  151.2260 LP  0  0  0  0  0  0  0  0  0  0  0  0  # atno 17371 bound_to 10713
  141.2082  133.6672  156.6359 LP  0  0  0  0  0  0  0  0  0  0  0  0  # atno 17394 bound_to 11000
  140.3331  134.7912  157.4341 LP  0  0  0  0  0  0  0  0  0  0  0  0  # atno 17395 bound_to 11000

$$$$
