AV-unprocessed.smi:406|AV-procd|sdf|2499|dock2
  -GOLD-   2262022443D 1   1.00000     0.00000
 Structure written by MMmdl.
 35 36  0  0  0  0  0  0  0  0  1 V2000
  148.7025  133.2570  153.6177 C   0  0  0  0  0  0  0  0  0  0  0  0
  149.8265  133.6431  154.5848 C   0  0  0  0  0  0  0  0  0  0  0  0
  149.5353  134.9562  155.3293 C   0  0  0  0  0  0  0  0  0  0  0  0
  149.9782  136.1170  154.5660 N   0  0  0  0  0  0  0  0  0  0  0  0
  150.6422  137.1673  155.0740 C   0  0  0  0  0  0  0  0  0  0  0  0
  150.9496  137.2656  156.2620 O   0  0  0  0  0  0  0  0  0  0  0  0
  151.0210  138.2769  154.0921 C   0  0  0  0  0  0  0  0  0  0  0  0
  150.2829  139.5385  154.4321 C   0  0  0  0  0  0  0  0  0  0  0  0
  149.1042  139.9815  153.8816 C   0  0  0  0  0  0  0  0  0  0  0  0
  148.5898  141.4988  154.5696 S   0  0  0  0  0  0  0  0  0  0  0  0
  150.0300  141.4867  155.5750 C   0  0  0  0  0  0  0  0  0  0  0  0
  150.2929  142.5041  156.5298 N   0  0  0  0  0  0  0  0  0  0  0  0
  151.1903  142.5351  157.5359 C   0  0  0  0  0  0  0  0  0  0  0  0
  151.9356  141.5737  157.7202 O   0  0  0  0  0  0  0  0  0  0  0  0
  151.2520  143.7575  158.4040 C   0  0  0  0  0  0  0  0  0  0  0  0
  152.4911  144.6194  158.2878 C   0  0  0  0  0  0  0  0  0  0  0  0
  152.2702  143.7942  159.5289 C   0  0  0  0  0  0  0  0  0  0  0  0
  150.7881  140.3972  155.4132 N   0  0  0  0  0  0  0  0  0  0  0  0
  148.9340  132.3223  153.1065 H   0  0  0  0  0  0  0  0  0  0  0  0
  148.5566  134.0247  152.8573 H   0  0  0  0  0  0  0  0  0  0  0  0
  147.7580  133.1227  154.1455 H   0  0  0  0  0  0  0  0  0  0  0  0
  149.9732  132.8373  155.3049 H   0  0  0  0  0  0  0  0  0  0  0  0
  150.7597  133.7319  154.0273 H   0  0  0  0  0  0  0  0  0  0  0  0
  148.4712  135.0410  155.5562 H   0  0  0  0  0  0  0  0  0  0  0  0
  150.0576  134.9636  156.2862 H   0  0  0  0  0  0  0  0  0  0  0  0
  149.7677  136.1206  153.5785 H   0  0  0  0  0  0  0  0  0  0  0  0
  152.0990  138.4423  154.1148 H   0  0  0  0  0  0  0  0  0  0  0  0
  150.7825  137.9494  153.0793 H   0  0  0  0  0  0  0  0  0  0  0  0
  148.5080  139.5072  153.1162 H   0  0  0  0  0  0  0  0  0  0  0  0
  149.6968  143.3158  156.4599 H   0  0  0  0  0  0  0  0  0  0  0  0
  150.3099  144.2607  158.6128 H   0  0  0  0  0  0  0  0  0  0  0  0
  153.2782  144.2994  157.6071 H   0  0  0  0  0  0  0  0  0  0  0  0
  152.3477  145.6960  158.3526 H   0  0  0  0  0  0  0  0  0  0  0  0
  151.9792  144.3131  160.4398 H   0  0  0  0  0  0  0  0  0  0  0  0
  152.9257  142.9385  159.6802 H   0  0  0  0  0  0  0  0  0  0  0  0
  1  2  1  0  0  0  0
  1 19  1  0  0  0  0
  1 20  1  0  0  0  0
  1 21  1  0  0  0  0
  2  3  1  0  0  0  0
  2 22  1  0  0  0  0
  2 23  1  0  0  0  0
  3  4  1  0  0  0  0
  3 24  1  0  0  0  0
  3 25  1  0  0  0  0
  4  5  1  0  0  0  0
  4 26  1  0  0  0  0
  5  6  2  0  0  0  0
  5  7  1  0  0  0  0
  7  8  1  0  0  0  0
  7 27  1  0  0  0  0
  7 28  1  0  0  0  0
  8 18  1  0  0  0  0
  8  9  2  0  0  0  0
  9 10  1  0  0  0  0
  9 29  1  0  0  0  0
 10 11  1  0  0  0  0
 11 12  1  0  0  0  0
 11 18  2  0  0  0  0
 12 13  1  0  0  0  0
 12 30  1  0  0  0  0
 13 14  2  0  0  0  0
 13 15  1  0  0  0  0
 15 17  1  0  0  0  0
 15 16  1  0  0  0  0
 15 31  1  0  0  0  0
 16 17  1  0  0  0  0
 16 32  1  0  0  0  0
 16 33  1  0  0  0  0
 17 34  1  0  0  0  0
 17 35  1  0  0  0  0
M  END
> <s_m_source_file>
AV-unprocessed.smi

> <i_m_source_file_index>
406

> <i_lp_mmshare_version>
43012

> <i_f3d_flags>
0

> <s_epik_input>
W0NIM11bQ0gyXVtDSDJdW05IXUMoPU8pW0NIMl1jMVtjSF1zYyhuMSlbTkhdQyg9TylbQ0hdMltDSDJdW0NIMl0y

> <s_epik_cmdline>
J2VwaWtfcHl0aG9uJywgJy1waCcsICc3LjAnLCAnLXRuJywgJzgnLCAnLW1hJywgJzIwMCcsICctbWV0YWxfYmluZGluZycsICctaW1hZScsICc8aW5maWxlLm1hZT4nLCAnLW9tYWUnLCAnPG91dGZpbGUubWFlPic=

> <r_lp_tautomer_probability>
1

> <r_epik_Ionization_Penalty>
0.000156784

> <r_epik_Ionization_Penalty_Charging>
0

> <r_epik_Ionization_Penalty_Neutral>
0.000156784

> <r_epik_State_Penalty>
-0

> <r_epik_Charging_Adjusted_Penalty>
0

> <i_epik_Tot_Q>
0

> <i_epik_Tot_abs_Q>
0

> <r_epik_Metal_State_Penalty>
0.0968639

> <b_epik_Metal_Only>
0

> <s_lp_Force_Field>
OPLS_2005

> <r_lp_Energy>
11.5054

> <b_lp_Chiralities_Consistent>
1

> <s_lp_Variant>
AV-unprocessed.smi:406-1

> <Gold.Version>
5.8.1

> <Gold.Id.Protein>
6NUR|6NUR_protein|mol2

> <Gold.PLP.Fitness>
45.6267

> <Gold.PLP.PLP>
-39.5182

> <Gold.PLP.part.hbond>
-2.8591

> <Gold.PLP.part.metal>
0.0000

> <Gold.PLP.part.buried>
-0.9046

> <Gold.PLP.part.nonpolar>
-35.7837

> <Gold.PLP.part.repulsive>
0.1639

> <Gold.PLP.ligand.clash>
0.0000

> <Gold.PLP.ligand.torsion>
0.7333

> <Gold.PLP.Chemscore.Hbond>
2.0000

> <Gold.PLP.Chemscore.CHOScore>
0.4944

> <Gold.PLP.Chemscore.Metal>
0.0000

> <Gold.Chemscore.Hbonds>
donor molecule, donor type, donor heavy atom, donor atom, acceptor molecule, acceptor atom, score
      L1  H     4    26       P1  7948  0.90
      L1  H    12    30       P1  8028  1.00
      L1  C     9    29       P1  7957  0.49

> <Gold.PLP.Chemscore.Internal.Correction>
0.0919

> <Gold.Rescore>
     Score         DG    S(hbond)    S(metal)    S(lipo)     H(rot)  DE(clash)    DE(int)     intcor
     13.96     -16.65       1.89        0.00      83.20       1.91       0.56       2.14       ----

> <Gold.Chemscore.Fitness>
13.9574

> <Gold.Chemscore.DG>
-16.6539

> <Gold.Chemscore.ZeroCoef>
-5.4800

> <Gold.Chemscore.Hbond>
1.8928

> <Gold.Chemscore.Metal>
0.0000

> <Gold.Chemscore.Lipo>
83.1955

> <Gold.Chemscore.Internal_Hbond>
0.0000

> <Gold.Chemscore.DEClash>
0.5587

> <Gold.Chemscore.DEInternal>
2.1378

> <Gold.Chemscore.Rot>
1.9070

> <Gold.Chemscore.Internal.Correction>
   9.000000E+99

> <Gold.Chemscore.Hbonds>
donor molecule, donor type, donor heavy atom, donor atom, acceptor molecule, acceptor atom, score
      L1  H     4    26       P1  7948  0.18
      L1  H    12    30       P1  8028  0.99

> <Gold.Chemscore.Hbond.Weighted>
-6.3220

> <Gold.Chemscore.Metal.Weighted>
-0.0000

> <Gold.Chemscore.Lipo.Weighted>
-9.7339

> <Gold.Chemscore.Internal_Hbond.Weighted>
0.0000

> <Gold.Chemscore.DEClash.Weighted>
0.5587

> <Gold.Chemscore.DEInternal.Weighted>
2.1378

> <Gold.Chemscore.Rot.Weighted>
4.8820

> <Gold.Chemscore.Internal.Correction.Weighted>
   9.000000E+99

> <Gold.Protein.RotatedTorsions>
[ 6907 6896 6895 6894 ] final   52.65 input  -60.11 | X-H torsion
[ 7974 7965 7964 7962 ] final  -22.53 input  175.53 | X-H torsion
[ 8008 7997 7996 7995 ] final   33.87 input   59.86 | X-H torsion
[ 10167 10162 10161 10158 ] final  176.95 input  -65.29 | X-H torsion
[ 10718 10713 10712 10709 ] final  -47.13 input   66.30 | X-H torsion
[ 10763 10752 10751 10750 ] final  -26.48 input  -60.55 | X-H torsion
[ 11005 11000 10999 10996 ] final  172.93 input  -57.11 | X-H torsion

> <Gold.Protein.ActiveResidues>
 VAL166  LYS551  ARG553  GLY616  TRP617  ASP618  TYR619  PRO620  LYS621  CYS622 
 ASP623  PHE694  ASN695  SER759  ASP760  ASP761  ALA762  ILE779  LEU786  VAL792 
 PHE793  MET794  SER795  GLU796  ALA797  LYS798  CYS799  TRP800  GLU811  SER814 

> <Gold.Protein.RotatedAtoms>
  152.3255  134.7327  160.0302 H   0  0  0  0  0  0  0  0  0  0  0  0  # atno 6907 bound_to 6896
  151.7761  133.3340  159.3466 H   0  0  0  0  0  0  0  0  0  0  0  0  # atno 6908 bound_to 6896
  150.7393  134.5905  159.6030 H   0  0  0  0  0  0  0  0  0  0  0  0  # atno 6909 bound_to 6896
  146.1670  140.4491  142.8548 H   0  0  0  0  0  0  0  0  0  0  0  0  # atno 7974 bound_to 7965
  155.1457  140.3270  155.4442 H   0  0  0  0  0  0  0  0  0  0  0  0  # atno 8008 bound_to 7997
  156.2590  140.1986  156.6521 H   0  0  0  0  0  0  0  0  0  0  0  0  # atno 8009 bound_to 7997
  154.6510  140.0558  156.9941 H   0  0  0  0  0  0  0  0  0  0  0  0  # atno 8010 bound_to 7997
  139.5234  144.2855  152.0509 H   0  0  0  0  0  0  0  0  0  0  0  0  # atno 10167 bound_to 10162
  156.2115  130.4161  149.9109 H   0  0  0  0  0  0  0  0  0  0  0  0  # atno 10718 bound_to 10713
  153.7166  135.6947  153.5023 H   0  0  0  0  0  0  0  0  0  0  0  0  # atno 10763 bound_to 10752
  153.2234  135.4362  155.0513 H   0  0  0  0  0  0  0  0  0  0  0  0  # atno 10764 bound_to 10752
  154.8298  135.3466  154.6701 H   0  0  0  0  0  0  0  0  0  0  0  0  # atno 10765 bound_to 10752
  140.3350  134.7325  157.4162 H   0  0  0  0  0  0  0  0  0  0  0  0  # atno 11005 bound_to 11000
  144.8107  140.6381  143.6417 LP  0  0  0  0  0  0  0  0  0  0  0  0  # atno 17320 bound_to 7965
  145.4440  139.1532  143.3955 LP  0  0  0  0  0  0  0  0  0  0  0  0  # atno 17321 bound_to 7965
  140.2308  144.4370  150.6301 LP  0  0  0  0  0  0  0  0  0  0  0  0  # atno 17342 bound_to 10162
  140.6356  143.2194  151.6401 LP  0  0  0  0  0  0  0  0  0  0  0  0  # atno 17343 bound_to 10162
  156.6786  130.8849  151.3572 LP  0  0  0  0  0  0  0  0  0  0  0  0  # atno 17370 bound_to 10713
  157.7041  130.9365  150.0874 LP  0  0  0  0  0  0  0  0  0  0  0  0  # atno 17371 bound_to 10713
  140.0828  134.5707  155.8522 LP  0  0  0  0  0  0  0  0  0  0  0  0  # atno 17394 bound_to 11000
  141.2053  133.6646  156.6175 LP  0  0  0  0  0  0  0  0  0  0  0  0  # atno 17395 bound_to 11000

$$$$
