#       Name:                AV-unprocessed.smi:532
#       Creating user name   scv26
#       Creation time:       Thu Mar 26 23:34:19 2020


#       File generated by GOLD software.
#

@<TRIPOS>MOLECULE
AV-unprocessed.smi:532
    56    58     1
SMALL
NO_CHARGES


@<TRIPOS>ATOM
      1 ****        -4.3064   1.3674  -1.1349 C.3            1 S1                 0.0000
      2 ****        -3.5303   0.1826  -1.1376 O.3            1 S1                 0.0000
      3 ****        -2.1541   0.4383  -1.3596 C.3            1 S1                 0.0000
      4 ****        -1.3900  -0.8898  -1.3161 C.3            1 S1                 0.0000
      5 ****         0.0484  -0.6813  -1.4377 N.pl3          1 S1                 0.0000
      6 ****         0.9619  -0.4821  -0.4476 C.2            1 S1                 0.0000
      7 ****         0.6246  -0.4768   0.9100 N.pl3          1 S1                 0.0000
      8 ****         1.2314   0.4731   1.8437 C.3            1 S1                 0.0000
      9 ****         0.2373   0.9806   2.9035 C.3            1 S1                 0.0000
     10 ****         0.8894   2.0145   3.8313 C.3            1 S1                 0.0000
     11 ****        -0.3247  -0.2096   3.6961 C.3            1 S1                 0.0000
     12 ****        -0.9065  -1.2754   2.7525 C.3            1 S1                 0.0000
     13 ****        -2.2867  -0.8790   2.2021 C.3            1 S1                 0.0000
     14 ****         0.1182  -1.6371   1.6512 C.3            1 S1                 0.0000
     15 ****         2.2040  -0.2543  -0.8817 N.2            1 S1                 0.0000
     16 ****         2.0763  -0.3280  -2.2593 C.2            1 S1                 0.0000
     17 ****         0.7886  -0.5722  -2.6203 C.2            1 S1                 0.0000
     18 ****         0.3328  -0.6610  -4.0260 C.2            1 S1                 0.0000
     19 ****        -0.8505  -0.8485  -4.3009 O.2            1 S1                 0.0000
     20 ****         1.3642  -0.5047  -4.9151 N.pl3          1 S1                -1.0000
     21 ****         2.6830  -0.2666  -4.5925 C.2            1 S1                 0.0000
     22 ****         3.5507  -0.1375  -5.4572 O.2            1 S1                 0.0000
     23 ****         3.0548  -0.1673  -3.2777 N.am           1 S1                 0.0000
     24 ****         4.4475   0.0975  -2.9054 C.3            1 S1                 0.0000
     25 ****        -5.3541   1.1183  -0.9674 H              1 S1                 0.0000
     26 ****        -4.2324   1.8900  -2.0895 H              1 S1                 0.0000
     27 ****        -3.9899   2.0434  -0.3395 H              1 S1                 0.0000
     28 ****        -2.0122   0.9249  -2.3257 H              1 S1                 0.0000
     29 ****        -1.7730   1.1139  -0.5918 H              1 S1                 0.0000
     30 ****        -1.6092  -1.4133  -0.3936 H              1 S1                 0.0000
     31 ****        -1.7317  -1.5614  -2.1019 H              1 S1                 0.0000
     32 ****         2.0919   0.0029   2.3218 H              1 S1                 0.0000
     33 ****         1.6184   1.3242   1.2818 H              1 S1                 0.0000
     34 ****        -0.5849   1.4785   2.3883 H              1 S1                 0.0000
     35 ****         1.7279   1.5830   4.3789 H              1 S1                 0.0000
     36 ****         0.1736   2.3934   4.5613 H              1 S1                 0.0000
     37 ****         1.2651   2.8671   3.2653 H              1 S1                 0.0000
     38 ****         0.4758  -0.6577   4.2866 H              1 S1                 0.0000
     39 ****        -1.0796   0.1244   4.4088 H              1 S1                 0.0000
     40 ****        -1.0690  -2.1751   3.3471 H              1 S1                 0.0000
     41 ****        -2.2319   0.0018   1.5637 H              1 S1                 0.0000
     42 ****        -2.9807  -0.6546   3.0124 H              1 S1                 0.0000
     43 ****        -2.7240  -1.6897   1.6194 H              1 S1                 0.0000
     44 ****        -0.2952  -2.3804   0.9708 H              1 S1                 0.0000
     45 ****         0.9757  -2.1258   2.1157 H              1 S1                 0.0000
     46 ****         5.1005  -0.6902  -3.2836 H              1 S1                 0.0000
     47 ****         4.5925   0.1501  -1.8267 H              1 S1                 0.0000
     48 ****         4.7802   1.0478  -3.3250 H              1 S1                 0.0000
     49 ****        -3.8659  -0.4194  -1.8620 LP             1 S1                 0.0000
     50 ****        -3.6338  -0.2711  -0.2524 LP             1 S1                 0.0000
     51 ****         3.0270  -0.0741  -0.3429 LP             1 S1                 0.0000
     52 ****        -1.5248  -0.9440  -3.5687 LP             1 S1                 0.0000
     53 ****        -1.1388  -0.9055  -5.2567 LP             1 S1                 0.0000
     54 ****         1.1393  -0.5693  -5.8873 LP             1 S1                 0.0000
     55 ****         3.3065  -0.2048  -6.4245 LP             1 S1                 0.0000
     56 ****         4.4994   0.0347  -5.1918 LP             1 S1                 0.0000
@<TRIPOS>BOND
    1    1    2 1     
    2    1   25 1     
    3    1   26 1     
    4    1   27 1     
    5    2    3 1     
    6    3    4 1     
    7    3   28 1     
    8    3   29 1     
    9    4    5 1     
   10    4   30 1     
   11    4   31 1     
   12    5   17 1     
   13    5    6 1     
   14    6    7 1     
   15    6   15 2     
   16    7   14 1     
   17    7    8 1     
   18    8    9 1     
   19    8   32 1     
   20    8   33 1     
   21    9   10 1     
   22    9   11 1     
   23    9   34 1     
   24   10   35 1     
   25   10   36 1     
   26   10   37 1     
   27   11   12 1     
   28   11   38 1     
   29   11   39 1     
   30   12   13 1     
   31   12   14 1     
   32   12   40 1     
   33   13   41 1     
   34   13   42 1     
   35   13   43 1     
   36   14   44 1     
   37   14   45 1     
   38   15   16 1     
   39   16   23 1     
   40   16   17 2     
   41   17   18 1     
   42   18   19 2     
   43   18   20 1     
   44   20   21 1     
   45   21   22 2     
   46   21   23 am    
   47   23   24 1     
   48   24   46 1     
   49   24   47 1     
   50   24   48 1     
   51    2   49 1     
   52    2   50 1     
   53   15   51 1     
   54   19   52 1     
   55   19   53 1     
   56   20   54 1     
   57   22   55 1     
   58   22   56 1     
@<TRIPOS>SUBSTRUCTURE
      1 S1             1
@<TRIPOS>SET
LONE_PAIRS      STATIC     ATOMS    <user>   **** ""
8 49 50 51 52 53 54 55 56
ATOM$BLUE        STATIC     ATOMS    COLORGROUP SYSTEM
8 49 50 51 52 53 54 55 56
