AV-unprocessed.smi:2968|AV-procd|sdf|11328|dock8
  -GOLD-   2272016233D 1   1.00000     0.00000
 Structure written by MMmdl.
 45 46  0  0  0  0  0  0  0  0  1 V2000
  151.3956  138.8126  159.3204 O   0  0  0  0  0  0  0  0  0  0  0  0
  151.8569  139.8352  158.3682 S   0  0  0  0  0  0  0  0  0  0  0  0
  153.2638  139.8533  157.9374 O   0  0  0  0  0  0  0  0  0  0  0  0
  150.8264  139.7473  156.9106 C   0  0  0  0  0  0  0  0  0  0  0  0
  149.5747  139.1048  156.9563 C   0  0  0  0  0  0  0  0  0  0  0  0
  148.7898  139.0858  155.7868 C   0  0  0  0  0  0  0  0  0  0  0  0
  149.2811  139.7225  154.6269 C   0  0  0  0  0  0  0  0  0  0  0  0
  148.4730  139.7488  153.4812 N   0  0  0  0  0  0  0  0  0  0  0  0
  147.3018  138.8783  153.4334 C   0  0  0  0  0  0  0  0  0  0  0  0
  146.8549  138.5790  151.9921 C   0  0  0  0  0  0  0  0  0  0  0  0
  145.7501  137.6919  152.0257 O   0  0  0  0  0  0  0  0  0  0  0  0
  146.1149  136.3273  152.1173 C   0  0  0  0  0  0  0  0  0  0  0  0
  145.2056  135.5225  151.1804 C   0  0  0  0  0  0  0  0  0  0  0  0
  145.3418  135.9884  149.8540 O   0  0  0  0  0  0  0  0  0  0  0  0
  150.4931  140.3277  154.5836 N   0  0  0  0  0  0  0  0  0  0  0  0
  151.2414  140.3484  155.7067 C   0  0  0  0  0  0  0  0  0  0  0  0
  151.4842  141.3977  159.0394 N   0  0  0  0  0  0  0  0  0  0  0  0
  152.4286  142.0373  159.9788 C   0  0  0  0  0  0  0  0  0  0  0  0
  153.2837  143.1116  159.2830 C   0  0  0  0  0  0  0  0  0  0  0  0
  152.4044  144.1376  158.5605 C   0  0  0  0  0  0  0  0  0  0  0  0
  151.4802  143.4188  157.5720 C   0  0  0  0  0  0  0  0  0  0  0  0
  150.6382  142.3413  158.2792 C   0  0  0  0  0  0  0  0  0  0  0  0
  149.2203  138.6368  157.8625 H   0  0  0  0  0  0  0  0  0  0  0  0
  147.8204  138.6092  155.7903 H   0  0  0  0  0  0  0  0  0  0  0  0
  148.9557  139.8784  152.6040 H   0  0  0  0  0  0  0  0  0  0  0  0
  147.4705  137.9563  153.9909 H   0  0  0  0  0  0  0  0  0  0  0  0
  146.4974  139.4016  153.9504 H   0  0  0  0  0  0  0  0  0  0  0  0
  146.5502  139.5013  151.4961 H   0  0  0  0  0  0  0  0  0  0  0  0
  147.6839  138.1590  151.4197 H   0  0  0  0  0  0  0  0  0  0  0  0
  147.1542  136.2231  151.8025 H   0  0  0  0  0  0  0  0  0  0  0  0
  146.0438  135.9583  153.1419 H   0  0  0  0  0  0  0  0  0  0  0  0
  145.4259  134.4559  151.2333 H   0  0  0  0  0  0  0  0  0  0  0  0
  144.1637  135.6534  151.4730 H   0  0  0  0  0  0  0  0  0  0  0  0
  145.1478  136.9133  149.8386 H   0  0  0  0  0  0  0  0  0  0  0  0
  152.1951  140.8498  155.6357 H   0  0  0  0  0  0  0  0  0  0  0  0
  151.8544  142.4950  160.7847 H   0  0  0  0  0  0  0  0  0  0  0  0
  153.0674  141.2876  160.4448 H   0  0  0  0  0  0  0  0  0  0  0  0
  153.9122  143.6153  160.0176 H   0  0  0  0  0  0  0  0  0  0  0  0
  153.9627  142.6466  158.5695 H   0  0  0  0  0  0  0  0  0  0  0  0
  151.8109  144.6952  159.2861 H   0  0  0  0  0  0  0  0  0  0  0  0
  153.0254  144.8645  158.0363 H   0  0  0  0  0  0  0  0  0  0  0  0
  150.8222  144.1410  157.0881 H   0  0  0  0  0  0  0  0  0  0  0  0
  152.0751  142.9700  156.7778 H   0  0  0  0  0  0  0  0  0  0  0  0
  150.0246  141.8042  157.5565 H   0  0  0  0  0  0  0  0  0  0  0  0
  149.9467  142.8186  158.9743 H   0  0  0  0  0  0  0  0  0  0  0  0
  1  2  2  0  0  0  0
  2  3  2  0  0  0  0
  2  4  1  0  0  0  0
  2 17  1  0  0  0  0
  4 16  1  0  0  0  0
  4  5  2  0  0  0  0
  5  6  1  0  0  0  0
  5 23  1  0  0  0  0
  6  7  2  0  0  0  0
  6 24  1  0  0  0  0
  7  8  1  0  0  0  0
  7 15  1  0  0  0  0
  8  9  1  0  0  0  0
  8 25  1  0  0  0  0
  9 10  1  0  0  0  0
  9 26  1  0  0  0  0
  9 27  1  0  0  0  0
 10 11  1  0  0  0  0
 10 28  1  0  0  0  0
 10 29  1  0  0  0  0
 11 12  1  0  0  0  0
 12 13  1  0  0  0  0
 12 30  1  0  0  0  0
 12 31  1  0  0  0  0
 13 14  1  0  0  0  0
 13 32  1  0  0  0  0
 13 33  1  0  0  0  0
 14 34  1  0  0  0  0
 15 16  2  0  0  0  0
 16 35  1  0  0  0  0
 17 22  1  0  0  0  0
 17 18  1  0  0  0  0
 18 19  1  0  0  0  0
 18 36  1  0  0  0  0
 18 37  1  0  0  0  0
 19 20  1  0  0  0  0
 19 38  1  0  0  0  0
 19 39  1  0  0  0  0
 20 21  1  0  0  0  0
 20 40  1  0  0  0  0
 20 41  1  0  0  0  0
 21 22  1  0  0  0  0
 21 42  1  0  0  0  0
 21 43  1  0  0  0  0
 22 44  1  0  0  0  0
 22 45  1  0  0  0  0
M  END
> <s_m_source_file>
AV-unprocessed.smi

> <i_m_source_file_index>
2968

> <i_lp_mmshare_version>
43012

> <i_f3d_flags>
0

> <s_epik_input>
W0NIMl0xW0NIMl1bQ0gyXVtDSDJdW0NIMl1OMVMoPU8pKD1PKWMyW2NIXVtjSF1jKG5bY0hdMilbTkhdW0NIMl1bQ0gyXU9bQ0gyXVtDSDJdW09IXQ==

> <s_epik_cmdline>
J2VwaWtfcHl0aG9uJywgJy1waCcsICc3LjAnLCAnLXRuJywgJzgnLCAnLW1hJywgJzIwMCcsICctbWV0YWxfYmluZGluZycsICctaW1hZScsICc8aW5maWxlLm1hZT4nLCAnLW9tYWUnLCAnPG91dGZpbGUubWFlPic=

> <r_lp_tautomer_probability>
1

> <r_epik_Ionization_Penalty>
0.000398056

> <r_epik_Ionization_Penalty_Charging>
0

> <r_epik_Ionization_Penalty_Neutral>
0.000398056

> <r_epik_State_Penalty>
0.00024364

> <r_epik_Charging_Adjusted_Penalty>
0.00024364

> <i_epik_Tot_Q>
0

> <i_epik_Tot_abs_Q>
0

> <r_epik_Metal_State_Penalty>
-0

> <b_epik_Metal_Only>
0

> <s_lp_Force_Field>
OPLS_2005

> <r_lp_Energy>
3.3881

> <b_lp_Chiralities_Consistent>
1

> <s_lp_Variant>
AV-unprocessed.smi:2968-1

> <Gold.Version>
5.8.1

> <Gold.Id.Protein>
6NUR|6NUR_protein|mol2

> <Gold.PLP.Fitness>
52.3367

> <Gold.PLP.PLP>
-41.8903

> <Gold.PLP.part.hbond>
-5.2542

> <Gold.PLP.part.metal>
0.0000

> <Gold.PLP.part.buried>
-2.9053

> <Gold.PLP.part.nonpolar>
-34.7443

> <Gold.PLP.part.repulsive>
1.5877

> <Gold.PLP.ligand.clash>
0.0000

> <Gold.PLP.ligand.torsion>
2.8651

> <Gold.PLP.Chemscore.Hbond>
4.0000

> <Gold.PLP.Chemscore.CHOScore>
0.0000

> <Gold.PLP.Chemscore.Metal>
0.0000

> <Gold.Chemscore.Hbonds>
donor molecule, donor type, donor heavy atom, donor atom, acceptor molecule, acceptor atom, score
      L1  H     8    25       P1  7957  1.00
      L1  H    14    34       P1 10171  0.86
      P1  H  7989  7998       L1    15  1.00
      P1  H  7997  8010       L1     3  1.00

> <Gold.PLP.Chemscore.Internal.Correction>
4.1765

> <Gold.Rescore>
     Score         DG    S(hbond)    S(metal)    S(lipo)     H(rot)  DE(clash)    DE(int)     intcor
     18.41     -21.81       3.51        0.00      96.27       2.60       0.59       2.80       ----

> <Gold.Chemscore.Fitness>
18.4078

> <Gold.Chemscore.DG>
-21.8060

> <Gold.Chemscore.ZeroCoef>
-5.4800

> <Gold.Chemscore.Hbond>
3.5093

> <Gold.Chemscore.Metal>
0.0000

> <Gold.Chemscore.Lipo>
96.2678

> <Gold.Chemscore.Internal_Hbond>
0.0000

> <Gold.Chemscore.DEClash>
0.5946

> <Gold.Chemscore.DEInternal>
2.8036

> <Gold.Chemscore.Rot>
2.6009

> <Gold.Chemscore.Internal.Correction>
   9.000000E+99

> <Gold.Chemscore.Hbonds>
donor molecule, donor type, donor heavy atom, donor atom, acceptor molecule, acceptor atom, score
      L1  H     8    25       P1  7957  0.98
      L1  H    14    34       P1 10171  0.82
      P1  H  7989  7998       L1    15  0.25
      P1  H  7997  8010       L1     3  0.98

> <Gold.Chemscore.Hbond.Weighted>
-11.7211

> <Gold.Chemscore.Metal.Weighted>
-0.0000

> <Gold.Chemscore.Lipo.Weighted>
-11.2633

> <Gold.Chemscore.Internal_Hbond.Weighted>
0.0000

> <Gold.Chemscore.DEClash.Weighted>
0.5946

> <Gold.Chemscore.DEInternal.Weighted>
2.8036

> <Gold.Chemscore.Rot.Weighted>
6.6583

> <Gold.Chemscore.Internal.Correction.Weighted>
   9.000000E+99

> <Gold.Protein.RotatedTorsions>
[ 6907 6896 6895 6894 ] final  -19.67 input  -60.11 | X-H torsion
[ 7974 7965 7964 7962 ] final  162.84 input  175.53 | X-H torsion
[ 8008 7997 7996 7995 ] final   29.50 input   59.86 | X-H torsion
[ 10167 10162 10161 10158 ] final   94.54 input  -65.29 | X-H torsion
[ 10718 10713 10712 10709 ] final -107.79 input   66.30 | X-H torsion
[ 10763 10752 10751 10750 ] final  -11.95 input  -60.55 | X-H torsion
[ 11005 11000 10999 10996 ] final -100.29 input  -57.11 | X-H torsion

> <Gold.Protein.ActiveResidues>
 VAL166  LYS551  ARG553  GLY616  TRP617  ASP618  TYR619  PRO620  LYS621  CYS622 
 ASP623  PHE694  ASN695  SER759  ASP760  ASP761  ALA762  ILE779  LEU786  VAL792 
 PHE793  MET794  SER795  GLU796  ALA797  LYS798  CYS799  TRP800  GLU811  SER814 

> <Gold.Protein.RotatedAtoms>
  151.2597  135.0650  159.9093 H   0  0  0  0  0  0  0  0  0  0  0  0  # atno 6907 bound_to 6896
  152.5368  134.0244  159.8006 H   0  0  0  0  0  0  0  0  0  0  0  0  # atno 6908 bound_to 6896
  151.0465  133.5611  159.2677 H   0  0  0  0  0  0  0  0  0  0  0  0  # atno 6909 bound_to 6896
  144.7617  139.8098  143.6330 H   0  0  0  0  0  0  0  0  0  0  0  0  # atno 7974 bound_to 7965
  155.0755  140.3205  155.4617 H   0  0  0  0  0  0  0  0  0  0  0  0  # atno 8008 bound_to 7997
  156.2780  140.2104  156.5828 H   0  0  0  0  0  0  0  0  0  0  0  0  # atno 8009 bound_to 7997
  154.7020  140.0506  157.0455 H   0  0  0  0  0  0  0  0  0  0  0  0  # atno 8010 bound_to 7997
  139.8073  144.6788  150.9686 H   0  0  0  0  0  0  0  0  0  0  0  0  # atno 10167 bound_to 10162
  156.0453  130.5680  150.7871 H   0  0  0  0  0  0  0  0  0  0  0  0  # atno 10718 bound_to 10713
  153.4913  135.7017  153.5883 H   0  0  0  0  0  0  0  0  0  0  0  0  # atno 10763 bound_to 10752
  153.4054  135.3861  155.2015 H   0  0  0  0  0  0  0  0  0  0  0  0  # atno 10764 bound_to 10752
  154.8716  135.3891  154.4373 H   0  0  0  0  0  0  0  0  0  0  0  0  # atno 10765 bound_to 10752
  141.1276  133.8388  157.1084 H   0  0  0  0  0  0  0  0  0  0  0  0  # atno 11005 bound_to 11000
  146.1687  139.4829  142.9941 LP  0  0  0  0  0  0  0  0  0  0  0  0  # atno 17320 bound_to 7965
  145.6597  141.0243  143.1715 LP  0  0  0  0  0  0  0  0  0  0  0  0  # atno 17321 bound_to 7965
  140.7819  143.4220  151.0827 LP  0  0  0  0  0  0  0  0  0  0  0  0  # atno 17342 bound_to 10162
  139.7889  143.8248  152.3149 LP  0  0  0  0  0  0  0  0  0  0  0  0  # atno 17343 bound_to 10162
  157.5322  131.0937  150.9940 LP  0  0  0  0  0  0  0  0  0  0  0  0  # atno 17370 bound_to 10713
  157.0244  130.5686  149.5335 LP  0  0  0  0  0  0  0  0  0  0  0  0  # atno 17371 bound_to 10713
  140.0290  134.9910  157.0743 LP  0  0  0  0  0  0  0  0  0  0  0  0  # atno 17394 bound_to 11000
  140.4315  134.1775  155.7168 LP  0  0  0  0  0  0  0  0  0  0  0  0  # atno 17395 bound_to 11000

$$$$
