#       Name:                AV-unprocessed.smi:830
#       Creating user name   scv26
#       Creation time:       Fri Mar 27 01:32:35 2020


#       File generated by GOLD software.
#

@<TRIPOS>MOLECULE
AV-unprocessed.smi:830
    58    60     1
SMALL
NO_CHARGES


@<TRIPOS>ATOM
      1 ****        -2.5156  -1.6738   1.2210 C.3            1 S1                 0.0000
      2 ****        -2.0474  -0.5845   0.2417 C.3            1 S1                 0.0000
      3 ****        -0.5900  -0.5895   0.1287 N.am           1 S1                 0.0000
      4 ****         0.1309  -1.3921  -0.6665 C.2            1 S1                 0.0000
      5 ****        -0.3622  -2.2497  -1.3987 O.2            1 S1                 0.0000
      6 ****         1.4454  -1.1460  -0.5380 N.am           1 S1                 0.0000
      7 ****         2.5333  -1.8044  -1.1787 C.ar           1 S1                 0.0000
      8 ****         2.4034  -2.3446  -2.4844 C.ar           1 S1                 0.0000
      9 ****         3.4904  -3.0095  -3.0821 C.ar           1 S1                 0.0000
     10 ****         4.6951  -3.1213  -2.3676 C.ar           1 S1                 0.0000
     11 ****         4.7943  -2.5790  -1.1366 N.pl3          1 S1                 1.0000
     12 ****         3.7895  -1.9139  -0.5134 C.ar           1 S1                 0.0000
     13 ****         4.0482  -1.3874   0.7731 N.3            1 S1                 0.0000
     14 ****         5.2834  -1.7204   1.4733 C.3            1 S1                 0.0000
     15 ****         5.3653  -0.7243   2.6268 C.3            1 S1                 0.0000
     16 ****         4.7584   0.5347   2.0151 C.3            1 S1                 0.0000
     17 ****         3.6827  -0.0050   1.0661 C.3            1 S1                 0.0000
     18 ****        -2.5680   0.8137   0.5939 C.2            1 S1                 0.0000
     19 ****        -1.8701   1.5991   1.2374 O.2            1 S1                 0.0000
     20 ****        -3.8089   1.1073   0.1764 N.am           1 S1                 0.0000
     21 ****        -4.4969   2.3733   0.4128 C.3            1 S1                 0.0000
     22 ****        -6.0111   2.2170   0.1816 C.3            1 S1                 0.0000
     23 ****        -6.3156   2.9557  -1.1218 C.3            1 S1                 0.0000
     24 ****        -5.2948   4.0888  -1.1533 C.3            1 S1                 0.0000
     25 ****        -4.0255   3.4710  -0.5640 C.3            1 S1                 0.0000
     26 ****        -3.6027  -1.6878   1.3060 H              1 S1                 0.0000
     27 ****        -2.1066  -1.5124   2.2191 H              1 S1                 0.0000
     28 ****        -2.2032  -2.6647   0.8900 H              1 S1                 0.0000
     29 ****        -2.4590  -0.8237  -0.7411 H              1 S1                 0.0000
     30 ****        -0.0990   0.0860   0.6964 H              1 S1                 0.0000
     31 ****         1.7006  -0.4775   0.1741 H              1 S1                 0.0000
     32 ****         1.4846  -2.2548  -3.0436 H              1 S1                 0.0000
     33 ****         3.3992  -3.4285  -4.0735 H              1 S1                 0.0000
     34 ****         5.5791  -3.6161  -2.7430 H              1 S1                 0.0000
     35 ****         5.2762  -2.7514   1.8280 H              1 S1                 0.0000
     36 ****         6.1425  -1.5880   0.8146 H              1 S1                 0.0000
     37 ****         4.7511  -1.0661   3.4612 H              1 S1                 0.0000
     38 ****         6.3825  -0.5769   2.9908 H              1 S1                 0.0000
     39 ****         4.3583   1.2216   2.7614 H              1 S1                 0.0000
     40 ****         5.5202   1.0663   1.4431 H              1 S1                 0.0000
     41 ****         3.6094   0.6027   0.1632 H              1 S1                 0.0000
     42 ****         2.7121   0.0030   1.5626 H              1 S1                 0.0000
     43 ****        -4.3147   0.4032  -0.3412 H              1 S1                 0.0000
     44 ****        -4.3301   2.6889   1.4446 H              1 S1                 0.0000
     45 ****        -6.3414   1.1776   0.1515 H              1 S1                 0.0000
     46 ****        -6.5498   2.6989   0.9988 H              1 S1                 0.0000
     47 ****        -6.1519   2.2895  -1.9699 H              1 S1                 0.0000
     48 ****        -7.3442   3.3140  -1.1714 H              1 S1                 0.0000
     49 ****        -5.1406   4.4890  -2.1557 H              1 S1                 0.0000
     50 ****        -5.6353   4.9064  -0.5166 H              1 S1                 0.0000
     51 ****        -3.4003   4.2168  -0.0722 H              1 S1                 0.0000
     52 ****        -3.4338   3.0389  -1.3728 H              1 S1                 0.0000
     53 ****         5.6850  -2.6679  -0.6476 H              1 S1                 0.0000
     54 ****        -1.3538  -2.3772  -1.4221 LP             1 S1                 0.0000
     55 ****         0.2287  -2.8191  -1.9702 LP             1 S1                 0.0000
     56 ****         3.3425  -1.9785   1.1639 LP             1 S1                 0.0000
     57 ****        -0.9551   1.3266   1.5349 LP             1 S1                 0.0000
     58 ****        -2.2187   2.5090   1.4622 LP             1 S1                 0.0000
@<TRIPOS>BOND
    1    1    2 1     
    2    1   26 1     
    3    1   27 1     
    4    1   28 1     
    5    2    3 1     
    6    2   18 1     
    7    2   29 1     
    8    3    4 am    
    9    3   30 1     
   10    4    5 2     
   11    4    6 am    
   12    6    7 1     
   13    6   31 1     
   14    7   12 ar    
   15    7    8 ar    
   16    8    9 ar    
   17    8   32 1     
   18    9   10 ar    
   19    9   33 1     
   20   10   11 ar    
   21   10   34 1     
   22   11   12 ar    
   23   11   53 1     
   24   12   13 1     
   25   13   17 1     
   26   13   14 1     
   27   14   15 1     
   28   14   35 1     
   29   14   36 1     
   30   15   16 1     
   31   15   37 1     
   32   15   38 1     
   33   16   17 1     
   34   16   39 1     
   35   16   40 1     
   36   17   41 1     
   37   17   42 1     
   38   18   19 2     
   39   18   20 am    
   40   20   21 1     
   41   20   43 1     
   42   21   25 1     
   43   21   22 1     
   44   21   44 1     
   45   22   23 1     
   46   22   45 1     
   47   22   46 1     
   48   23   24 1     
   49   23   47 1     
   50   23   48 1     
   51   24   25 1     
   52   24   49 1     
   53   24   50 1     
   54   25   51 1     
   55   25   52 1     
   56    5   54 1     
   57    5   55 1     
   58   13   56 1     
   59   19   57 1     
   60   19   58 1     
@<TRIPOS>SUBSTRUCTURE
      1 S1             1
@<TRIPOS>SET
LONE_PAIRS      STATIC     ATOMS    <user>   **** ""
5 54 55 56 57 58
DONOR_HYDROGENS      STATIC     ATOMS    <user>   **** ""
4 30 31 53 43
ATOM$BLUE        STATIC     ATOMS    COLORGROUP SYSTEM
5 54 55 56 57 58
ATOM$RED        STATIC     ATOMS    COLORGROUP SYSTEM
4 30 31 53 43
