AV-unprocessed.smi:3252|AV-procd|sdf|12444|dock2
  -GOLD-   2272018333D 1   1.00000     0.00000
 Structure written by MMmdl.
 36 37  0  0  0  0  0  0  0  0  1 V2000
  154.3199  140.8230  159.8335 C   0  0  0  0  0  0  0  0  0  0  0  0
  153.3779  141.6859  160.6852 C   0  0  0  0  0  0  0  0  0  0  0  0
  153.0935  143.0116  160.1391 N   0  0  0  0  0  0  0  0  0  0  0  0
  152.2182  143.7985  161.0044 C   0  0  0  0  0  0  0  0  0  0  0  0
  151.8978  145.1750  160.3966 C   0  0  0  0  0  0  0  0  0  0  0  0
  151.3335  145.0069  159.1000 O   0  0  0  0  0  0  0  0  0  0  0  0
  152.1892  144.2958  158.2082 C   0  0  2  0  0  0  0  0  0  0  0  0
  151.4893  144.1774  156.8479 C   0  0  0  0  0  0  0  0  0  0  0  0
  150.4457  143.1621  156.8671 N   0  0  0  0  0  0  0  0  0  0  0  0
  150.6805  141.8807  156.3510 C   0  0  0  0  0  0  0  0  0  0  0  0
  149.8633  141.4160  155.2988 C   0  0  0  0  0  0  0  0  0  0  0  0
  150.0980  140.1303  154.7729 C   0  0  0  0  0  0  0  0  0  0  0  0
  151.1399  139.3542  155.3179 C   0  0  0  0  0  0  0  0  0  0  0  0
  151.4221  138.0228  154.8092 C   0  0  0  0  0  0  0  0  0  0  0  0
  151.6471  136.9627  154.4040 N   0  0  0  0  0  0  0  0  0  0  0  0
  151.9022  139.9030  156.3692 C   0  0  0  0  0  0  0  0  0  0  0  0
  151.6826  141.1354  156.8764 N   0  0  0  0  0  0  0  0  0  0  0  0
  152.4843  142.9115  158.8174 C   0  0  0  0  0  0  0  0  0  0  0  0
  154.3993  139.8192  160.2509 H   0  0  0  0  0  0  0  0  0  0  0  0
  155.3275  141.2365  159.7919 H   0  0  0  0  0  0  0  0  0  0  0  0
  153.9501  140.7275  158.8123 H   0  0  0  0  0  0  0  0  0  0  0  0
  152.4392  141.1396  160.7866 H   0  0  0  0  0  0  0  0  0  0  0  0
  153.7806  141.7785  161.6948 H   0  0  0  0  0  0  0  0  0  0  0  0
  151.2876  143.2568  161.1796 H   0  0  0  0  0  0  0  0  0  0  0  0
  152.6828  143.9471  161.9785 H   0  0  0  0  0  0  0  0  0  0  0  0
  151.1889  145.7122  161.0268 H   0  0  0  0  0  0  0  0  0  0  0  0
  152.7978  145.7884  160.3317 H   0  0  0  0  0  0  0  0  0  0  0  0
  153.1268  144.8423  158.0874 H   0  0  0  0  0  0  0  0  0  0  0  0
  151.0336  145.1347  156.5920 H   0  0  0  0  0  0  0  0  0  0  0  0
  152.2153  143.9466  156.0673 H   0  0  0  0  0  0  0  0  0  0  0  0
  149.5367  143.4026  157.2357 H   0  0  0  0  0  0  0  0  0  0  0  0
  149.0714  142.0317  154.8978 H   0  0  0  0  0  0  0  0  0  0  0  0
  149.4869  139.7530  153.9655 H   0  0  0  0  0  0  0  0  0  0  0  0
  152.7111  139.3443  156.8179 H   0  0  0  0  0  0  0  0  0  0  0  0
  153.1468  142.3595  158.1494 H   0  0  0  0  0  0  0  0  0  0  0  0
  151.5583  142.3374  158.8801 H   0  0  0  0  0  0  0  0  0  0  0  0
  1  2  1  0  0  0  0
  1 19  1  0  0  0  0
  1 20  1  0  0  0  0
  1 21  1  0  0  0  0
  2  3  1  0  0  0  0
  2 22  1  0  0  0  0
  2 23  1  0  0  0  0
  3 18  1  0  0  0  0
  3  4  1  0  0  0  0
  4  5  1  0  0  0  0
  4 24  1  0  0  0  0
  4 25  1  0  0  0  0
  5  6  1  0  0  0  0
  5 26  1  0  0  0  0
  5 27  1  0  0  0  0
  6  7  1  0  0  0  0
  7  8  1  0  0  0  0
  7 18  1  0  0  0  0
  7 28  1  0  0  0  0
  8  9  1  0  0  0  0
  8 29  1  0  0  0  0
  8 30  1  0  0  0  0
  9 10  1  0  0  0  0
  9 31  1  0  0  0  0
 10 17  1  0  0  0  0
 10 11  2  0  0  0  0
 11 12  1  0  0  0  0
 11 32  1  0  0  0  0
 12 13  2  0  0  0  0
 12 33  1  0  0  0  0
 13 14  1  0  0  0  0
 13 16  1  0  0  0  0
 14 15  3  0  0  0  0
 16 17  2  0  0  0  0
 16 34  1  0  0  0  0
 18 35  1  0  0  0  0
 18 36  1  0  0  0  0
M  END
> <s_m_source_file>
AV-unprocessed.smi

> <i_m_source_file_index>
3252

> <i_lp_mmshare_version>
43012

> <i_f3d_flags>
0

> <s_epik_input>
W0NIM11bQ0gyXU4xW0NIMl1bQ0gyXU9bQ0BIXShbQ0gyXTEpW0NIMl1bTkhdYzJbY0hdW2NIXWMoQyNOKVtjSF1uMg==

> <s_epik_cmdline>
J2VwaWtfcHl0aG9uJywgJy1waCcsICc3LjAnLCAnLXRuJywgJzgnLCAnLW1hJywgJzIwMCcsICctbWV0YWxfYmluZGluZycsICctaW1hZScsICc8aW5maWxlLm1hZT4nLCAnLW9tYWUnLCAnPG91dGZpbGUubWFlPic=

> <r_epik_Ionization_Penalty>
0.797836

> <r_epik_Ionization_Penalty_Charging>
0

> <r_epik_Ionization_Penalty_Neutral>
0.797836

> <r_epik_State_Penalty>
0.828842

> <r_epik_Charging_Adjusted_Penalty>
0.828842

> <i_epik_Tot_Q>
0

> <i_epik_Tot_abs_Q>
0

> <r_epik_Metal_State_Penalty>
0.828842

> <b_epik_Metal_Only>
0

> <s_lp_Force_Field>
OPLS_2005

> <r_lp_Energy>
23.1529

> <b_lp_Chiralities_Consistent>
1

> <s_lp_Variant>
AV-unprocessed.smi:3252-6

> <Gold.Version>
5.8.1

> <Gold.Id.Protein>
6NUR|6NUR_protein|mol2

> <Gold.PLP.Fitness>
45.9174

> <Gold.PLP.PLP>
-44.5655

> <Gold.PLP.part.hbond>
-1.9187

> <Gold.PLP.part.metal>
0.0000

> <Gold.PLP.part.buried>
-2.3571

> <Gold.PLP.part.nonpolar>
-40.1780

> <Gold.PLP.part.repulsive>
0.4753

> <Gold.PLP.ligand.clash>
0.0000

> <Gold.PLP.ligand.torsion>
0.8274

> <Gold.PLP.Chemscore.Hbond>
1.0000

> <Gold.PLP.Chemscore.CHOScore>
0.0000

> <Gold.PLP.Chemscore.Metal>
0.0000

> <Gold.Chemscore.Hbonds>
donor molecule, donor type, donor heavy atom, donor atom, acceptor molecule, acceptor atom, score
      P1  H 10752 10765       L1    15  1.00

> <Gold.PLP.Chemscore.Internal.Correction>
0.0067

> <Gold.Rescore>
     Score         DG    S(hbond)    S(metal)    S(lipo)     H(rot)  DE(clash)    DE(int)     intcor
     13.86     -17.80       1.00        0.00     108.28       1.43       1.58       2.36       ----

> <Gold.Chemscore.Fitness>
13.8611

> <Gold.Chemscore.DG>
-17.8044

> <Gold.Chemscore.ZeroCoef>
-5.4800

> <Gold.Chemscore.Hbond>
0.9955

> <Gold.Chemscore.Metal>
0.0000

> <Gold.Chemscore.Lipo>
108.2762

> <Gold.Chemscore.Internal_Hbond>
0.0000

> <Gold.Chemscore.DEClash>
1.5843

> <Gold.Chemscore.DEInternal>
2.3590

> <Gold.Chemscore.Rot>
1.4331

> <Gold.Chemscore.Internal.Correction>
   9.000000E+99

> <Gold.Chemscore.Hbonds>
donor molecule, donor type, donor heavy atom, donor atom, acceptor molecule, acceptor atom, score
      L1  H     9    31       P1  8028  0.03
      P1  H 10752 10765       L1    15  1.00

> <Gold.Chemscore.Hbond.Weighted>
-3.3249

> <Gold.Chemscore.Metal.Weighted>
-0.0000

> <Gold.Chemscore.Lipo.Weighted>
-12.6683

> <Gold.Chemscore.Internal_Hbond.Weighted>
0.0000

> <Gold.Chemscore.DEClash.Weighted>
1.5843

> <Gold.Chemscore.DEInternal.Weighted>
2.3590

> <Gold.Chemscore.Rot.Weighted>
3.6688

> <Gold.Chemscore.Internal.Correction.Weighted>
   9.000000E+99

> <Gold.Protein.RotatedTorsions>
[ 6907 6896 6895 6894 ] final  162.32 input  -60.11 | X-H torsion
[ 7974 7965 7964 7962 ] final  -39.74 input  175.53 | X-H torsion
[ 8008 7997 7996 7995 ] final   90.08 input   59.86 | X-H torsion
[ 10167 10162 10161 10158 ] final  -98.53 input  -65.29 | X-H torsion
[ 10718 10713 10712 10709 ] final  -68.92 input   66.30 | X-H torsion
[ 10763 10752 10751 10750 ] final  163.53 input  -60.55 | X-H torsion
[ 11005 11000 10999 10996 ] final  -61.86 input  -57.11 | X-H torsion

> <Gold.Protein.ActiveResidues>
 VAL166  LYS551  ARG553  GLY616  TRP617  ASP618  TYR619  PRO620  LYS621  CYS622 
 ASP623  PHE694  ASN695  SER759  ASP760  ASP761  ALA762  ILE779  LEU786  VAL792 
 PHE793  MET794  SER795  GLU796  ALA797  LYS798  CYS799  TRP800  GLU811  SER814 

> <Gold.Protein.RotatedAtoms>
  151.9422  133.3641  159.3969 H   0  0  0  0  0  0  0  0  0  0  0  0  # atno 6907 bound_to 6896
  150.6996  134.4427  159.5309 H   0  0  0  0  0  0  0  0  0  0  0  0  # atno 6908 bound_to 6896
  152.2086  134.8522  160.0551 H   0  0  0  0  0  0  0  0  0  0  0  0  # atno 6909 bound_to 6896
  146.0369  140.6660  142.9106 H   0  0  0  0  0  0  0  0  0  0  0  0  # atno 7974 bound_to 7965
  156.0077  140.3353  155.6909 H   0  0  0  0  0  0  0  0  0  0  0  0  # atno 8008 bound_to 7997
  155.6202  140.0674  157.2698 H   0  0  0  0  0  0  0  0  0  0  0  0  # atno 8009 bound_to 7997
  154.4270  140.1778  156.1351 H   0  0  0  0  0  0  0  0  0  0  0  0  # atno 8010 bound_to 7997
  140.2720  143.3337  152.0525 H   0  0  0  0  0  0  0  0  0  0  0  0  # atno 10167 bound_to 10162
  156.0481  130.4303  150.2071 H   0  0  0  0  0  0  0  0  0  0  0  0  # atno 10718 bound_to 10713
  154.2951  135.2760  155.2637 H   0  0  0  0  0  0  0  0  0  0  0  0  # atno 10763 bound_to 10752
  154.5098  135.5785  153.6599 H   0  0  0  0  0  0  0  0  0  0  0  0  # atno 10764 bound_to 10752
  152.9908  135.6178  154.3119 H   0  0  0  0  0  0  0  0  0  0  0  0  # atno 10765 bound_to 10752
  141.1339  133.6634  156.5440 H   0  0  0  0  0  0  0  0  0  0  0  0  # atno 11005 bound_to 11000
  144.7056  140.3836  143.7121 LP  0  0  0  0  0  0  0  0  0  0  0  0  # atno 17320 bound_to 7965
  145.6949  139.1647  143.2625 LP  0  0  0  0  0  0  0  0  0  0  0  0  # atno 17321 bound_to 7965
  139.4986  144.6650  151.6378 LP  0  0  0  0  0  0  0  0  0  0  0  0  # atno 17342 bound_to 10162
  140.5882  143.9827  150.6308 LP  0  0  0  0  0  0  0  0  0  0  0  0  # atno 17343 bound_to 10162
  157.0158  130.9965  151.3353 LP  0  0  0  0  0  0  0  0  0  0  0  0  # atno 17370 bound_to 10713
  157.5378  130.8100  149.7993 LP  0  0  0  0  0  0  0  0  0  0  0  0  # atno 17371 bound_to 10713
  140.4117  134.7266  157.4839 LP  0  0  0  0  0  0  0  0  0  0  0  0  # atno 17394 bound_to 11000
  140.0423  134.6250  155.8965 LP  0  0  0  0  0  0  0  0  0  0  0  0  # atno 17395 bound_to 11000

$$$$
