#       Name:                AV-unprocessed.smi:3202
#       Creating user name   scv26
#       Creation time:       Fri Mar 27 18:07:41 2020


#       File generated by GOLD software.
#

@<TRIPOS>MOLECULE
AV-unprocessed.smi:3202
    44    45     1
SMALL
NO_CHARGES


@<TRIPOS>ATOM
      1 ****        -6.0202  -0.0796   1.4499 C.3            1 S1                 0.0000
      2 ****        -4.6392  -0.6243   1.3131 C.2            1 S1                 0.0000
      3 ****        -3.4253  -0.0023   1.2325 C.2            1 S1                 0.0000
      4 ****        -2.4881  -1.0704   1.1145 C.2            1 S1                 0.0000
      5 ****        -0.9921  -0.9721   0.9835 C.3            1 S1                 0.0000
      6 ****        -0.5073  -0.8727  -0.4817 C.3            1 S1                 0.0000
      7 ****        -0.8986  -2.0984  -1.3238 C.3            1 S1                 0.0000
      8 ****         0.9634  -0.7066  -0.5370 N.4            1 S1                 1.0000
      9 ****         1.4760   0.6613  -0.2827 C.3            1 S1                 0.0000
     10 ****         1.1679   1.6483  -1.4179 C.3            1 S1                 0.0000
     11 ****         2.2644   2.7185  -1.3416 C.3            1 S1                 0.0000
     12 ****         3.2796   2.2227  -0.3014 C.3            1 S1                 0.0000
     13 ****         3.0092   0.7193  -0.1106 C.3            1 S1                 0.0000
     14 ****         3.4455   0.2490   1.2895 C.3            1 S1                 0.0000
     15 ****         3.7678  -0.0905  -1.1879 C.3            1 S1                 0.0000
     16 ****        -3.0746  -2.2593   1.1216 N.2            1 S1                 0.0000
     17 ****        -4.3844  -1.9743   1.2418 N.pl3          1 S1                 0.0000
     18 ****        -5.0848  -2.7019   1.2759 H              1 S1                 0.0000
     19 ****        -6.0032   1.0058   1.5505 H              1 S1                 0.0000
     20 ****        -6.5146  -0.4909   2.3302 H              1 S1                 0.0000
     21 ****        -6.6224  -0.3271   0.5756 H              1 S1                 0.0000
     22 ****        -3.2340   1.0605   1.2541 H              1 S1                 0.0000
     23 ****        -0.6545  -0.1046   1.5495 H              1 S1                 0.0000
     24 ****        -0.5216  -1.8317   1.4636 H              1 S1                 0.0000
     25 ****        -0.9710  -0.0027  -0.9470 H              1 S1                 0.0000
     26 ****        -1.9804  -2.1939  -1.4170 H              1 S1                 0.0000
     27 ****        -0.5179  -3.0211  -0.8847 H              1 S1                 0.0000
     28 ****        -0.4988  -2.0221  -2.3354 H              1 S1                 0.0000
     29 ****         1.3759  -1.3392   0.1336 H              1 S1                 0.0000
     30 ****         1.0224   1.0488   0.6301 H              1 S1                 0.0000
     31 ****         1.2157   1.1467  -2.3856 H              1 S1                 0.0000
     32 ****         0.1714   2.0811  -1.3249 H              1 S1                 0.0000
     33 ****         2.7377   2.8398  -2.3166 H              1 S1                 0.0000
     34 ****         1.8584   3.6892  -1.0547 H              1 S1                 0.0000
     35 ****         4.3085   2.4360  -0.5934 H              1 S1                 0.0000
     36 ****         3.1023   2.7528   0.6357 H              1 S1                 0.0000
     37 ****         4.5190   0.3785   1.4310 H              1 S1                 0.0000
     38 ****         3.2180  -0.8066   1.4419 H              1 S1                 0.0000
     39 ****         2.9422   0.8094   2.0782 H              1 S1                 0.0000
     40 ****         4.8444   0.0617  -1.1038 H              1 S1                 0.0000
     41 ****         3.4798   0.1986  -2.1988 H              1 S1                 0.0000
     42 ****         3.5892  -1.1615  -1.0886 H              1 S1                 0.0000
     43 ****         1.2759  -0.9755  -1.4591 H              1 S1                 0.0000
     44 ****        -2.6438  -3.1591   1.0534 LP             1 S1                 0.0000
@<TRIPOS>BOND
    1    1    2 1     
    2    1   19 1     
    3    1   20 1     
    4    1   21 1     
    5    2   17 1     
    6    2    3 2     
    7    3    4 1     
    8    3   22 1     
    9    4    5 1     
   10    4   16 2     
   11    5    6 1     
   12    5   23 1     
   13    5   24 1     
   14    6    7 1     
   15    6    8 1     
   16    6   25 1     
   17    7   26 1     
   18    7   27 1     
   19    7   28 1     
   20    8    9 1     
   21    8   29 1     
   22    8   43 1     
   23    9   13 1     
   24    9   10 1     
   25    9   30 1     
   26   10   11 1     
   27   10   31 1     
   28   10   32 1     
   29   11   12 1     
   30   11   33 1     
   31   11   34 1     
   32   12   13 1     
   33   12   35 1     
   34   12   36 1     
   35   13   14 1     
   36   13   15 1     
   37   14   37 1     
   38   14   38 1     
   39   14   39 1     
   40   15   40 1     
   41   15   41 1     
   42   15   42 1     
   43   16   17 1     
   44   17   18 1     
   45   16   44 1     
@<TRIPOS>SUBSTRUCTURE
      1 S1             1
@<TRIPOS>SET
LONE_PAIRS      STATIC     ATOMS    <user>   **** ""
1 44
DONOR_HYDROGENS      STATIC     ATOMS    <user>   **** ""
3 29 43 18
ATOM$BLUE        STATIC     ATOMS    COLORGROUP SYSTEM
1 44
ATOM$RED        STATIC     ATOMS    COLORGROUP SYSTEM
3 29 43 18
