AV-unprocessed.smi:11|AV-procd|sdf|56|dock2
  -GOLD-   2262015173D 1   1.00000     0.00000
 Structure written by MMmdl.
 33 35  0  0  0  0  0  0  0  0  1 V2000
  147.4513  141.5801  155.7929 C   0  0  0  0  0  0  0  0  0  0  0  0
  148.3576  140.3433  155.6677 C   0  0  0  0  0  0  0  0  0  0  0  0
  149.6837  140.5688  154.8991 C   0  0  2  0  0  0  0  0  0  0  0  0
  149.3822  141.0884  153.6187 O   0  0  0  0  0  0  0  0  0  0  0  0
  150.4772  139.2631  154.7522 C   0  0  0  0  0  0  0  0  0  0  0  0
  151.3047  139.2085  156.0347 C   0  0  0  0  0  0  0  0  0  0  0  0
  151.5989  140.6003  156.3432 N   0  0  0  0  0  0  0  0  0  0  0  0
  152.1463  140.9718  157.5881 C   0  0  0  0  0  0  0  0  0  0  0  0
  152.9317  140.0715  158.2341 N   0  0  0  0  0  0  0  0  0  0  0  0
  153.4658  140.3801  159.4191 C   0  0  0  0  0  0  0  0  0  0  0  0
  153.3486  141.5109  160.1185 N   0  0  0  0  0  0  0  0  0  0  0  0
  152.5735  142.4205  159.4641 C   0  0  0  0  0  0  0  0  0  0  0  0
  152.2489  143.6925  159.8868 N   0  0  0  0  0  0  0  0  0  0  0  0
  151.4522  144.3224  158.9473 C   0  0  0  0  0  0  0  0  0  0  0  0
  151.2423  143.4680  157.8951 C   0  0  0  0  0  0  0  0  0  0  0  0
  151.9375  142.2421  158.2011 C   0  0  0  0  0  0  0  0  0  0  0  0
  150.6750  141.4838  155.6446 C   0  0  0  0  0  0  0  0  0  0  0  0
  152.5420  144.1272  160.7499 H   0  0  0  0  0  0  0  0  0  0  0  0
  146.5320  141.3265  156.3209 H   0  0  0  0  0  0  0  0  0  0  0  0
  147.1673  141.9699  154.8155 H   0  0  0  0  0  0  0  0  0  0  0  0
  147.9311  142.3846  156.3489 H   0  0  0  0  0  0  0  0  0  0  0  0
  148.5742  139.9701  156.6693 H   0  0  0  0  0  0  0  0  0  0  0  0
  147.7898  139.5535  155.1739 H   0  0  0  0  0  0  0  0  0  0  0  0
  149.3318  140.3689  153.0082 H   0  0  0  0  0  0  0  0  0  0  0  0
  149.8499  138.3821  154.6126 H   0  0  0  0  0  0  0  0  0  0  0  0
  151.1537  139.3249  153.8979 H   0  0  0  0  0  0  0  0  0  0  0  0
  150.7240  138.7624  156.8432 H   0  0  0  0  0  0  0  0  0  0  0  0
  152.2167  138.6254  155.9033 H   0  0  0  0  0  0  0  0  0  0  0  0
  154.0732  139.6107  159.8722 H   0  0  0  0  0  0  0  0  0  0  0  0
  151.1005  145.3319  159.1029 H   0  0  0  0  0  0  0  0  0  0  0  0
  150.6657  143.6734  157.0060 H   0  0  0  0  0  0  0  0  0  0  0  0
  151.2539  142.0839  154.9414 H   0  0  0  0  0  0  0  0  0  0  0  0
  150.1693  142.1649  156.3277 H   0  0  0  0  0  0  0  0  0  0  0  0
  1  2  1  0  0  0  0
  1 19  1  0  0  0  0
  1 20  1  0  0  0  0
  1 21  1  0  0  0  0
  2  3  1  0  0  0  0
  2 22  1  0  0  0  0
  2 23  1  0  0  0  0
  3 17  1  0  0  0  0
  3  4  1  0  0  0  0
  3  5  1  0  0  0  0
  4 24  1  0  0  0  0
  5  6  1  0  0  0  0
  5 25  1  0  0  0  0
  5 26  1  0  0  0  0
  6  7  1  0  0  0  0
  6 27  1  0  0  0  0
  6 28  1  0  0  0  0
  7  8  1  0  0  0  0
  7 17  1  0  0  0  0
  8 16  1  0  0  0  0
  8  9  2  0  0  0  0
  9 10  1  0  0  0  0
 10 11  2  0  0  0  0
 10 29  1  0  0  0  0
 11 12  1  0  0  0  0
 12 16  2  0  0  0  0
 12 13  1  0  0  0  0
 13 18  1  0  0  0  0
 13 14  1  0  0  0  0
 14 15  2  0  0  0  0
 14 30  1  0  0  0  0
 15 16  1  0  0  0  0
 15 31  1  0  0  0  0
 17 32  1  0  0  0  0
 17 33  1  0  0  0  0
M  END
> <s_m_source_file>
AV-unprocessed.smi

> <i_m_source_file_index>
11

> <i_lp_mmshare_version>
43012

> <i_f3d_flags>
0

> <s_epik_input>
W0NIM11bQ0gyXVtDQEBdMShbT0hdKVtDSDJdW0NIMl1OKFtDSDJdMSljKG5bY0hdbjIpYyhjMjMpW2NIXVtjSF1bbkhdMw==

> <s_epik_cmdline>
J2VwaWtfcHl0aG9uJywgJy1waCcsICc3LjAnLCAnLXRuJywgJzgnLCAnLW1hJywgJzIwMCcsICctbWV0YWxfYmluZGluZycsICctaW1hZScsICc8aW5maWxlLm1hZT4nLCAnLW9tYWUnLCAnPG91dGZpbGUubWFlPic=

> <r_lp_tautomer_probability>
0.999998

> <r_epik_Ionization_Penalty>
0.0511253

> <r_epik_Ionization_Penalty_Charging>
0

> <r_epik_Ionization_Penalty_Neutral>
0.0511253

> <r_epik_State_Penalty>
0.0394181

> <r_epik_Charging_Adjusted_Penalty>
0.0394181

> <i_epik_Tot_Q>
0

> <i_epik_Tot_abs_Q>
0

> <r_epik_Metal_State_Penalty>
0.0367127

> <b_epik_Metal_Only>
0

> <s_lp_Force_Field>
OPLS_2005

> <r_lp_Energy>
27.4112

> <b_lp_Chiralities_Consistent>
1

> <s_lp_Variant>
AV-unprocessed.smi:11-2

> <Gold.Version>
5.8.1

> <Gold.Id.Protein>
6NUR|6NUR_protein|mol2

> <Gold.PLP.Fitness>
40.7585

> <Gold.PLP.PLP>
-33.0579

> <Gold.PLP.part.hbond>
-4.0000

> <Gold.PLP.part.metal>
0.0000

> <Gold.PLP.part.buried>
-4.3416

> <Gold.PLP.part.nonpolar>
-23.1749

> <Gold.PLP.part.repulsive>
0.0380

> <Gold.PLP.ligand.clash>
0.0000

> <Gold.PLP.ligand.torsion>
0.2045

> <Gold.PLP.Chemscore.Hbond>
2.6180

> <Gold.PLP.Chemscore.CHOScore>
0.0000

> <Gold.PLP.Chemscore.Metal>
0.0000

> <Gold.Chemscore.Hbonds>
donor molecule, donor type, donor heavy atom, donor atom, acceptor molecule, acceptor atom, score
      L1  H     4    24       P1  7957  0.77
      P1  H  7997  8009       L1     9  0.98
      P1  H  8011  8017       L1     4  0.80

> <Gold.PLP.Chemscore.Internal.Correction>
0.2557

> <Gold.Rescore>
     Score         DG    S(hbond)    S(metal)    S(lipo)     H(rot)  DE(clash)    DE(int)     intcor
     12.41     -13.59       1.24        0.00      65.19       1.43       0.17       1.01       ----

> <Gold.Chemscore.Fitness>
12.4054

> <Gold.Chemscore.DG>
-13.5852

> <Gold.Chemscore.ZeroCoef>
-5.4800

> <Gold.Chemscore.Hbond>
1.2378

> <Gold.Chemscore.Metal>
0.0000

> <Gold.Chemscore.Lipo>
65.1911

> <Gold.Chemscore.Internal_Hbond>
0.0000

> <Gold.Chemscore.DEClash>
0.1653

> <Gold.Chemscore.DEInternal>
1.0145

> <Gold.Chemscore.Rot>
1.4283

> <Gold.Chemscore.Internal.Correction>
   9.000000E+99

> <Gold.Chemscore.Hbonds>
donor molecule, donor type, donor heavy atom, donor atom, acceptor molecule, acceptor atom, score
      L1  H     4    24       P1  7957  0.76
      P1  H  7997  8009       L1     9  0.09
      P1  H  8011  8017       L1     4  0.11

> <Gold.Chemscore.Hbond.Weighted>
-4.1344

> <Gold.Chemscore.Metal.Weighted>
-0.0000

> <Gold.Chemscore.Lipo.Weighted>
-7.6274

> <Gold.Chemscore.Internal_Hbond.Weighted>
0.0000

> <Gold.Chemscore.DEClash.Weighted>
0.1653

> <Gold.Chemscore.DEInternal.Weighted>
1.0145

> <Gold.Chemscore.Rot.Weighted>
3.6566

> <Gold.Chemscore.Internal.Correction.Weighted>
   9.000000E+99

> <Gold.Protein.RotatedTorsions>
[ 6907 6896 6895 6894 ] final -127.19 input  -60.11 | X-H torsion
[ 7974 7965 7964 7962 ] final  -58.03 input  175.53 | X-H torsion
[ 8008 7997 7996 7995 ] final  157.61 input   59.86 | X-H torsion
[ 10167 10162 10161 10158 ] final   98.58 input  -65.29 | X-H torsion
[ 10718 10713 10712 10709 ] final  157.87 input   66.30 | X-H torsion
[ 10763 10752 10751 10750 ] final  -62.03 input  -60.55 | X-H torsion
[ 11005 11000 10999 10996 ] final   88.14 input  -57.11 | X-H torsion

> <Gold.Protein.ActiveResidues>
 VAL166  LYS551  ARG553  GLY616  TRP617  ASP618  TYR619  PRO620  LYS621  CYS622 
 ASP623  PHE694  ASN695  SER759  ASP760  ASP761  ALA762  ILE779  LEU786  VAL792 
 PHE793  MET794  SER795  GLU796  ALA797  LYS798  CYS799  TRP800  GLU811  SER814 

> <Gold.Protein.RotatedAtoms>
  150.9047  133.7073  159.2869 H   0  0  0  0  0  0  0  0  0  0  0  0  # atno 6907 bound_to 6896
  151.4580  135.1034  159.9726 H   0  0  0  0  0  0  0  0  0  0  0  0  # atno 6908 bound_to 6896
  152.4896  133.8417  159.7211 H   0  0  0  0  0  0  0  0  0  0  0  0  # atno 6909 bound_to 6896
  145.8441  140.8397  143.0019 H   0  0  0  0  0  0  0  0  0  0  0  0  # atno 7974 bound_to 7965
  156.2354  140.1881  156.7134 H   0  0  0  0  0  0  0  0  0  0  0  0  # atno 8008 bound_to 7997
  154.6096  140.0624  156.9504 H   0  0  0  0  0  0  0  0  0  0  0  0  # atno 8009 bound_to 7997
  155.2038  140.3294  155.4341 H   0  0  0  0  0  0  0  0  0  0  0  0  # atno 8010 bound_to 7997
  139.7695  144.6927  151.0175 H   0  0  0  0  0  0  0  0  0  0  0  0  # atno 10167 bound_to 10162
  157.1856  131.0642  151.2108 H   0  0  0  0  0  0  0  0  0  0  0  0  # atno 10718 bound_to 10713
  154.2937  135.6248  153.5396 H   0  0  0  0  0  0  0  0  0  0  0  0  # atno 10763 bound_to 10752
  152.9849  135.5662  154.5361 H   0  0  0  0  0  0  0  0  0  0  0  0  # atno 10764 bound_to 10752
  154.4977  135.2870  155.1422 H   0  0  0  0  0  0  0  0  0  0  0  0  # atno 10765 bound_to 10752
  139.8903  134.8468  156.2959 H   0  0  0  0  0  0  0  0  0  0  0  0  # atno 11005 bound_to 11000
  144.6732  140.0856  143.7467 LP  0  0  0  0  0  0  0  0  0  0  0  0  # atno 17320 bound_to 7965
  145.9431  139.2682  143.1256 LP  0  0  0  0  0  0  0  0  0  0  0  0  # atno 17321 bound_to 7965
  140.7813  143.4604  151.0286 LP  0  0  0  0  0  0  0  0  0  0  0  0  # atno 17342 bound_to 10162
  139.8288  143.7719  152.3179 LP  0  0  0  0  0  0  0  0  0  0  0  0  # atno 17343 bound_to 10162
  157.3910  130.7282  149.6697 LP  0  0  0  0  0  0  0  0  0  0  0  0  # atno 17370 bound_to 10713
  155.9718  130.4146  150.4142 LP  0  0  0  0  0  0  0  0  0  0  0  0  # atno 17371 bound_to 10713
  140.9946  133.7188  156.0866 LP  0  0  0  0  0  0  0  0  0  0  0  0  # atno 17394 bound_to 11000
  140.7580  134.3971  157.5530 LP  0  0  0  0  0  0  0  0  0  0  0  0  # atno 17395 bound_to 11000

$$$$
