AV-unprocessed.smi:2310|AV-procd|sdf|9256|dock10
  -GOLD-   2272012473D 1   1.00000     0.00000
 Structure written by MMmdl.
 45 46  0  0  0  0  0  0  0  0  1 V2000
  148.2456  131.8400  153.6469 C   0  0  0  0  0  0  0  0  0  0  0  0
  148.7346  133.2797  153.8617 C   0  0  0  0  0  0  0  0  0  0  0  0
  149.5601  133.4708  155.1480 C   0  0  1  0  0  0  0  0  0  0  0  0
  150.5745  132.3316  155.3333 C   0  0  0  0  0  0  0  0  0  0  0  0
  151.3804  132.4632  156.5577 C   0  0  0  0  0  0  0  0  0  0  0  0
  152.0130  132.5669  157.5206 N   0  0  0  0  0  0  0  0  0  0  0  0
  150.2644  134.7536  155.1153 N   0  0  0  0  0  0  0  0  0  0  0  0
  150.3883  135.6079  156.1421 C   0  0  0  0  0  0  0  0  0  0  0  0
  149.8955  135.4144  157.2530 O   0  0  0  0  0  0  0  0  0  0  0  0
  151.0942  136.6947  155.7847 N   0  0  0  0  0  0  0  0  0  0  0  0
  151.4418  137.8252  156.5771 C   0  0  0  0  0  0  0  0  0  0  0  0
  150.9330  138.0297  157.8827 C   0  0  0  0  0  0  0  0  0  0  0  0
  151.3418  139.1611  158.6121 C   0  0  0  0  0  0  0  0  0  0  0  0
  152.2586  140.0535  158.0243 C   0  0  0  0  0  0  0  0  0  0  0  0
  152.6684  141.1805  158.7528 N   0  0  0  0  0  0  0  0  0  0  0  0
  151.6101  142.1105  159.1113 C   0  0  0  0  0  0  0  0  0  0  0  0
  152.2097  143.0114  160.1936 C   0  0  0  0  0  0  0  0  0  0  0  0
  153.3683  142.1982  160.7840 C   0  0  0  0  0  0  0  0  0  0  0  0
  153.3784  140.8904  159.9875 C   0  0  0  0  0  0  0  0  0  0  0  0
  152.7628  139.8604  156.7834 N   0  0  0  0  0  0  0  0  0  0  0  0
  152.3705  138.7755  156.0799 C   0  0  0  0  0  0  0  0  0  0  0  0
  153.0082  138.6651  154.7038 C   0  0  0  0  0  0  0  0  0  0  0  0
  147.7153  131.7491  152.6987 H   0  0  0  0  0  0  0  0  0  0  0  0
  147.5633  131.5247  154.4365 H   0  0  0  0  0  0  0  0  0  0  0  0
  149.0817  131.1405  153.6279 H   0  0  0  0  0  0  0  0  0  0  0  0
  149.3422  133.5698  153.0036 H   0  0  0  0  0  0  0  0  0  0  0  0
  147.8786  133.9557  153.8675 H   0  0  0  0  0  0  0  0  0  0  0  0
  148.8720  133.4345  155.9944 H   0  0  0  0  0  0  0  0  0  0  0  0
  150.0580  131.3732  155.3907 H   0  0  0  0  0  0  0  0  0  0  0  0
  151.2552  132.2782  154.4831 H   0  0  0  0  0  0  0  0  0  0  0  0
  150.6975  135.0068  154.2394 H   0  0  0  0  0  0  0  0  0  0  0  0
  151.3540  136.7543  154.8111 H   0  0  0  0  0  0  0  0  0  0  0  0
  150.2502  137.3343  158.3455 H   0  0  0  0  0  0  0  0  0  0  0  0
  150.9616  139.3337  159.6084 H   0  0  0  0  0  0  0  0  0  0  0  0
  151.2832  142.6864  158.2451 H   0  0  0  0  0  0  0  0  0  0  0  0
  150.7453  141.5763  159.5075 H   0  0  0  0  0  0  0  0  0  0  0  0
  152.5912  143.9322  159.7505 H   0  0  0  0  0  0  0  0  0  0  0  0
  151.4684  143.2861  160.9446 H   0  0  0  0  0  0  0  0  0  0  0  0
  154.3074  142.7353  160.6459 H   0  0  0  0  0  0  0  0  0  0  0  0
  153.2445  142.0149  161.8517 H   0  0  0  0  0  0  0  0  0  0  0  0
  152.8676  140.1062  160.5482 H   0  0  0  0  0  0  0  0  0  0  0  0
  154.3950  140.5515  159.7855 H   0  0  0  0  0  0  0  0  0  0  0  0
  152.6460  137.8179  154.1232 H   0  0  0  0  0  0  0  0  0  0  0  0
  154.0891  138.5635  154.8025 H   0  0  0  0  0  0  0  0  0  0  0  0
  152.8062  139.5683  154.1270 H   0  0  0  0  0  0  0  0  0  0  0  0
  1  2  1  0  0  0  0
  1 23  1  0  0  0  0
  1 24  1  0  0  0  0
  1 25  1  0  0  0  0
  2  3  1  0  0  0  0
  2 26  1  0  0  0  0
  2 27  1  0  0  0  0
  3  4  1  0  0  0  0
  3  7  1  0  0  0  0
  3 28  1  0  0  0  0
  4  5  1  0  0  0  0
  4 29  1  0  0  0  0
  4 30  1  0  0  0  0
  5  6  3  0  0  0  0
  7  8  1  0  0  0  0
  7 31  1  0  0  0  0
  8  9  2  0  0  0  0
  8 10  1  0  0  0  0
 10 11  1  0  0  0  0
 10 32  1  0  0  0  0
 11 21  1  0  0  0  0
 11 12  2  0  0  0  0
 12 13  1  0  0  0  0
 12 33  1  0  0  0  0
 13 14  2  0  0  0  0
 13 34  1  0  0  0  0
 14 15  1  0  0  0  0
 14 20  1  0  0  0  0
 15 19  1  0  0  0  0
 15 16  1  0  0  0  0
 16 17  1  0  0  0  0
 16 35  1  0  0  0  0
 16 36  1  0  0  0  0
 17 18  1  0  0  0  0
 17 37  1  0  0  0  0
 17 38  1  0  0  0  0
 18 19  1  0  0  0  0
 18 39  1  0  0  0  0
 18 40  1  0  0  0  0
 19 41  1  0  0  0  0
 19 42  1  0  0  0  0
 20 21  2  0  0  0  0
 21 22  1  0  0  0  0
 22 43  1  0  0  0  0
 22 44  1  0  0  0  0
 22 45  1  0  0  0  0
M  END
> <s_m_source_file>
AV-unprocessed.smi

> <i_m_source_file_index>
2310

> <i_lp_mmshare_version>
43012

> <i_f3d_flags>
0

> <s_epik_input>
TiNDW0NIMl1bQ0BASF0oW0NIMl1bQ0gzXSlbTkhdQyg9TylbTkhdYzFbY0hdW2NIXWMobmMxW0NIM10pTjJbQ0gyXVtDSDJdW0NIMl1bQ0gyXTI=

> <s_epik_cmdline>
J2VwaWtfcHl0aG9uJywgJy1waCcsICc3LjAnLCAnLXRuJywgJzgnLCAnLW1hJywgJzIwMCcsICctbWV0YWxfYmluZGluZycsICctaW1hZScsICc8aW5maWxlLm1hZT4nLCAnLW9tYWUnLCAnPG91dGZpbGUubWFlPic=

> <r_lp_tautomer_probability>
1

> <r_epik_Ionization_Penalty>
0.281354

> <r_epik_Ionization_Penalty_Charging>
0

> <r_epik_Ionization_Penalty_Neutral>
0.281354

> <r_epik_State_Penalty>
0.273364

> <r_epik_Charging_Adjusted_Penalty>
0.273364

> <i_epik_Tot_Q>
0

> <i_epik_Tot_abs_Q>
0

> <r_epik_Metal_State_Penalty>
0.18752

> <b_epik_Metal_Only>
0

> <s_lp_Force_Field>
OPLS_2005

> <r_lp_Energy>
36.0303

> <b_lp_Chiralities_Consistent>
1

> <s_lp_Variant>
AV-unprocessed.smi:2310-2

> <Gold.Version>
5.8.1

> <Gold.Id.Protein>
6NUR|6NUR_protein|mol2

> <Gold.PLP.Fitness>
43.4589

> <Gold.PLP.PLP>
-38.2284

> <Gold.PLP.part.hbond>
-2.0000

> <Gold.PLP.part.metal>
0.0000

> <Gold.PLP.part.buried>
-4.2267

> <Gold.PLP.part.nonpolar>
-30.9137

> <Gold.PLP.part.repulsive>
0.1590

> <Gold.PLP.ligand.clash>
0.0000

> <Gold.PLP.ligand.torsion>
0.4087

> <Gold.PLP.Chemscore.Hbond>
2.0000

> <Gold.PLP.Chemscore.CHOScore>
0.0000

> <Gold.PLP.Chemscore.Metal>
0.0000

> <Gold.Chemscore.Hbonds>
donor molecule, donor type, donor heavy atom, donor atom, acceptor molecule, acceptor atom, score
      P1  H  6896  6908       L1     6  1.00
      P1  H  7997  8010       L1    20  1.00

> <Gold.PLP.Chemscore.Internal.Correction>
0.0480

> <Gold.Rescore>
     Score         DG    S(hbond)    S(metal)    S(lipo)     H(rot)  DE(clash)    DE(int)     intcor
     18.49     -20.28       2.79        0.00      82.99       1.65       0.01       1.79       ----

> <Gold.Chemscore.Fitness>
18.4877

> <Gold.Chemscore.DG>
-20.2795

> <Gold.Chemscore.ZeroCoef>
-5.4800

> <Gold.Chemscore.Hbond>
2.7895

> <Gold.Chemscore.Metal>
0.0000

> <Gold.Chemscore.Lipo>
82.9916

> <Gold.Chemscore.Internal_Hbond>
0.0000

> <Gold.Chemscore.DEClash>
0.0060

> <Gold.Chemscore.DEInternal>
1.7858

> <Gold.Chemscore.Rot>
1.6514

> <Gold.Chemscore.Internal.Correction>
   9.000000E+99

> <Gold.Chemscore.Hbonds>
donor molecule, donor type, donor heavy atom, donor atom, acceptor molecule, acceptor atom, score
      P1  H  6896  6908       L1     6  0.96
      P1  H  7997  8010       L1    20  0.69

> <Gold.Chemscore.Hbond.Weighted>
-9.3171

> <Gold.Chemscore.Metal.Weighted>
-0.0000

> <Gold.Chemscore.Lipo.Weighted>
-9.7100

> <Gold.Chemscore.Internal_Hbond.Weighted>
0.0000

> <Gold.Chemscore.DEClash.Weighted>
0.0060

> <Gold.Chemscore.DEInternal.Weighted>
1.7858

> <Gold.Chemscore.Rot.Weighted>
4.2276

> <Gold.Chemscore.Internal.Correction.Weighted>
   9.000000E+99

> <Gold.Protein.RotatedTorsions>
[ 6907 6896 6895 6894 ] final   53.22 input  -60.11 | X-H torsion
[ 7974 7965 7964 7962 ] final   59.25 input  175.53 | X-H torsion
[ 8008 7997 7996 7995 ] final   53.73 input   59.86 | X-H torsion
[ 10167 10162 10161 10158 ] final   96.83 input  -65.29 | X-H torsion
[ 10718 10713 10712 10709 ] final  -46.97 input   66.30 | X-H torsion
[ 10763 10752 10751 10750 ] final   -4.81 input  -60.55 | X-H torsion
[ 11005 11000 10999 10996 ] final   84.32 input  -57.11 | X-H torsion

> <Gold.Protein.ActiveResidues>
 VAL166  LYS551  ARG553  GLY616  TRP617  ASP618  TYR619  PRO620  LYS621  CYS622 
 ASP623  PHE694  ASN695  SER759  ASP760  ASP761  ALA762  ILE779  LEU786  VAL792 
 PHE793  MET794  SER795  GLU796  ALA797  LYS798  CYS799  TRP800  GLU811  SER814 

> <Gold.Protein.RotatedAtoms>
  152.3314  134.7254  160.0288 H   0  0  0  0  0  0  0  0  0  0  0  0  # atno 6907 bound_to 6896
  151.7669  133.3332  159.3441 H   0  0  0  0  0  0  0  0  0  0  0  0  # atno 6908 bound_to 6896
  150.7425  134.5986  159.6069 H   0  0  0  0  0  0  0  0  0  0  0  0  # atno 6909 bound_to 6896
  145.9093  139.3641  143.0545 H   0  0  0  0  0  0  0  0  0  0  0  0  # atno 7974 bound_to 7965
  155.4731  140.3466  155.4328 H   0  0  0  0  0  0  0  0  0  0  0  0  # atno 8008 bound_to 7997
  156.1088  140.1455  156.9396 H   0  0  0  0  0  0  0  0  0  0  0  0  # atno 8009 bound_to 7997
  154.4742  140.0890  156.7199 H   0  0  0  0  0  0  0  0  0  0  0  0  # atno 8010 bound_to 7997
  139.7858  144.6871  150.9960 H   0  0  0  0  0  0  0  0  0  0  0  0  # atno 10167 bound_to 10162
  156.2131  130.4162  149.9089 H   0  0  0  0  0  0  0  0  0  0  0  0  # atno 10718 bound_to 10713
  153.3899  135.7001  153.6502 H   0  0  0  0  0  0  0  0  0  0  0  0  # atno 10763 bound_to 10752
  153.5079  135.3638  155.2572 H   0  0  0  0  0  0  0  0  0  0  0  0  # atno 10764 bound_to 10752
  154.8701  135.4127  154.3214 H   0  0  0  0  0  0  0  0  0  0  0  0  # atno 10765 bound_to 10752
  139.9004  134.8208  156.2429 H   0  0  0  0  0  0  0  0  0  0  0  0  # atno 11005 bound_to 11000
  145.8692  140.9430  143.0659 LP  0  0  0  0  0  0  0  0  0  0  0  0  # atno 17320 bound_to 7965
  144.6742  140.0633  143.7475 LP  0  0  0  0  0  0  0  0  0  0  0  0  # atno 17321 bound_to 7965
  140.7819  143.4434  151.0518 LP  0  0  0  0  0  0  0  0  0  0  0  0  # atno 17342 bound_to 10162
  139.8113  143.7947  152.3171 LP  0  0  0  0  0  0  0  0  0  0  0  0  # atno 17343 bound_to 10162
  156.6761  130.8839  151.3569 LP  0  0  0  0  0  0  0  0  0  0  0  0  # atno 17370 bound_to 10713
  157.7049  130.9373  150.0899 LP  0  0  0  0  0  0  0  0  0  0  0  0  # atno 17371 bound_to 10713
  141.0273  133.7008  156.1369 LP  0  0  0  0  0  0  0  0  0  0  0  0  # atno 17394 bound_to 11000
  140.7148  134.4423  157.5579 LP  0  0  0  0  0  0  0  0  0  0  0  0  # atno 17395 bound_to 11000

$$$$
