AV-unprocessed.smi:3231|AV-procd|sdf|12334|dock10
  -GOLD-   2272018193D 1   1.00000     0.00000
 Structure written by MMmdl.
 41 42  0  0  0  0  0  0  0  0  2 V2000
  146.5531  138.4092  150.6573 O   0  0  0  0  0  0  0  0  0  0  0  0
  146.5862  137.6968  151.8792 C   0  0  1  0  0  0  0  0  0  0  0  0
  146.3736  138.6922  153.0358 C   0  0  0  0  0  0  0  0  0  0  0  0
  147.3446  139.7829  153.0123 N   0  0  0  0  0  0  0  0  0  0  0  0
  147.9297  140.0732  154.3179 C   0  0  0  0  0  0  0  0  0  0  0  0
  149.0038  141.1691  154.2252 C   0  0  0  0  0  0  0  0  0  0  0  0
  149.9266  141.1325  155.3463 N   0  0  0  0  0  0  0  0  0  0  0  0
  149.8373  141.8007  156.5493 C   0  0  0  0  0  0  0  0  0  0  0  0
  150.9293  141.4509  157.2908 C   0  0  0  0  0  0  0  0  0  0  0  0
  151.6380  140.5523  156.4452 C   0  0  0  0  0  0  0  0  0  0  0  0
  151.0355  140.3629  155.2825 N   0  0  0  0  0  0  0  0  0  0  0  0
  145.5677  136.5347  151.8641 C   0  0  0  0  0  0  0  0  0  0  0  0
  146.2126  135.1975  151.8063 N   0  3  0  0  0  0  0  0  0  0  0  0
  146.2284  134.4852  153.1090 C   0  0  0  0  0  0  0  0  0  0  0  0
  146.9416  133.1294  152.9723 C   0  0  0  0  0  0  0  0  0  0  0  0
  146.3048  132.3521  151.9661 O   0  0  0  0  0  0  0  0  0  0  0  0
  146.3594  132.9831  150.6931 C   0  0  0  0  0  0  0  0  0  0  0  0
  145.6250  134.3330  150.7548 C   0  0  0  0  0  0  0  0  0  0  0  0
  145.6731  138.7160  150.5041 H   0  0  0  0  0  0  0  0  0  0  0  0
  147.5965  137.3048  151.9873 H   0  0  0  0  0  0  0  0  0  0  0  0
  145.3659  139.1041  152.9713 H   0  0  0  0  0  0  0  0  0  0  0  0
  146.4266  138.1613  153.9874 H   0  0  0  0  0  0  0  0  0  0  0  0
  148.0850  139.5653  152.3517 H   0  0  0  0  0  0  0  0  0  0  0  0
  147.1473  140.3931  155.0069 H   0  0  0  0  0  0  0  0  0  0  0  0
  148.3686  139.1702  154.7444 H   0  0  0  0  0  0  0  0  0  0  0  0
  149.5642  141.0866  153.2924 H   0  0  0  0  0  0  0  0  0  0  0  0
  148.5264  142.1495  154.2148 H   0  0  0  0  0  0  0  0  0  0  0  0
  149.0130  142.4610  156.7754 H   0  0  0  0  0  0  0  0  0  0  0  0
  151.1834  141.7859  158.2854 H   0  0  0  0  0  0  0  0  0  0  0  0
  152.5658  140.0354  156.6407 H   0  0  0  0  0  0  0  0  0  0  0  0
  144.9232  136.5822  152.7434 H   0  0  0  0  0  0  0  0  0  0  0  0
  144.9115  136.6548  151.0004 H   0  0  0  0  0  0  0  0  0  0  0  0
  146.7351  135.0797  153.8679 H   0  0  0  0  0  0  0  0  0  0  0  0
  145.2050  134.3319  153.4552 H   0  0  0  0  0  0  0  0  0  0  0  0
  147.9971  133.2664  152.7311 H   0  0  0  0  0  0  0  0  0  0  0  0
  146.8993  132.5864  153.9166 H   0  0  0  0  0  0  0  0  0  0  0  0
  147.3971  133.1171  150.3833 H   0  0  0  0  0  0  0  0  0  0  0  0
  145.8889  132.3324  149.9558 H   0  0  0  0  0  0  0  0  0  0  0  0
  144.5654  134.1730  150.9614 H   0  0  0  0  0  0  0  0  0  0  0  0
  145.6923  134.8289  149.7856 H   0  0  0  0  0  0  0  0  0  0  0  0
  147.1739  135.3519  151.5380 H   0  0  0  0  0  0  0  0  0  0  0  0
  1  2  1  0  0  0  0
  1 19  1  0  0  0  0
  2  3  1  0  0  0  0
  2 12  1  0  0  0  0
  2 20  1  0  0  0  0
  3  4  1  0  0  0  0
  3 21  1  0  0  0  0
  3 22  1  0  0  0  0
  4  5  1  0  0  0  0
  4 23  1  0  0  0  0
  5  6  1  0  0  0  0
  5 24  1  0  0  0  0
  5 25  1  0  0  0  0
  6  7  1  0  0  0  0
  6 26  1  0  0  0  0
  6 27  1  0  0  0  0
  7 11  1  0  0  0  0
  7  8  1  0  0  0  0
  8  9  2  0  0  0  0
  8 28  1  0  0  0  0
  9 10  1  0  0  0  0
  9 29  1  0  0  0  0
 10 11  2  0  0  0  0
 10 30  1  0  0  0  0
 12 13  1  0  0  0  0
 12 31  1  0  0  0  0
 12 32  1  0  0  0  0
 13 18  1  0  0  0  0
 13 14  1  0  0  0  0
 13 41  1  0  0  0  0
 14 15  1  0  0  0  0
 14 33  1  0  0  0  0
 14 34  1  0  0  0  0
 15 16  1  0  0  0  0
 15 35  1  0  0  0  0
 15 36  1  0  0  0  0
 16 17  1  0  0  0  0
 17 18  1  0  0  0  0
 17 37  1  0  0  0  0
 17 38  1  0  0  0  0
 18 39  1  0  0  0  0
 18 40  1  0  0  0  0
M  CHG  1  13   1
M  END
> <s_m_source_file>
AV-unprocessed.smi

> <i_m_source_file_index>
3231

> <i_lp_mmshare_version>
43012

> <i_f3d_flags>
0

> <s_epik_input>
W0NIMl0xW0NIMl1PW0NIMl1bQ0gyXU4xW0NIMl1bQ0BIXShbT0hdKVtDSDJdW05IXVtDSDJdW0NIMl1uMltjSF1bY0hdW2NIXW4y

> <s_epik_cmdline>
J2VwaWtfcHl0aG9uJywgJy1waCcsICc3LjAnLCAnLXRuJywgJzgnLCAnLW1hJywgJzIwMCcsICctbWV0YWxfYmluZGluZycsICctaW1hZScsICc8aW5maWxlLm1hZT4nLCAnLW9tYWUnLCAnPG91dGZpbGUubWFlPic=

> <r_epik_Ionization_Penalty>
0.33973

> <r_epik_Ionization_Penalty_Charging>
0.202493

> <r_epik_Ionization_Penalty_Neutral>
0.137237

> <r_epik_State_Penalty>
0.943915

> <r_epik_Charging_Adjusted_Penalty>
1.14641

> <i_epik_Tot_Q>
1

> <i_epik_Tot_abs_Q>
1

> <r_epik_Metal_State_Penalty>
0.94313

> <b_epik_Metal_Only>
0

> <s_lp_Force_Field>
OPLS_2005

> <r_lp_Energy>
28.856

> <b_lp_Chiralities_Consistent>
1

> <s_lp_Variant>
AV-unprocessed.smi:3231-4

> <Gold.Version>
5.8.1

> <Gold.Id.Protein>
6NUR|6NUR_protein|mol2

> <Gold.PLP.Fitness>
48.2981

> <Gold.PLP.PLP>
-32.5161

> <Gold.PLP.part.hbond>
-5.0000

> <Gold.PLP.part.metal>
0.0000

> <Gold.PLP.part.buried>
-0.5223

> <Gold.PLP.part.nonpolar>
-27.1675

> <Gold.PLP.part.repulsive>
0.1927

> <Gold.PLP.ligand.clash>
0.0000

> <Gold.PLP.ligand.torsion>
2.1695

> <Gold.PLP.Chemscore.Hbond>
5.7960

> <Gold.PLP.Chemscore.CHOScore>
0.8403

> <Gold.PLP.Chemscore.Metal>
0.0000

> <Gold.Chemscore.Hbonds>
donor molecule, donor type, donor heavy atom, donor atom, acceptor molecule, acceptor atom, score
      L1  H     1    19       P1 10171  1.00
      L1  H     4    23       P1  7957  1.00
      L1  H    13    41       P1  7948  2.00
      P1  H  7954  7966       L1     1  0.91
      P1  H  7989  7998       L1    11  0.90
      L1  C     8    28       P1  8028  0.80

> <Gold.PLP.Chemscore.Internal.Correction>
0.2123

> <Gold.Rescore>
     Score         DG    S(hbond)    S(metal)    S(lipo)     H(rot)  DE(clash)    DE(int)     intcor
     16.36     -20.08       3.94        0.00      74.35       2.84       1.50       2.22       ----

> <Gold.Chemscore.Fitness>
16.3616

> <Gold.Chemscore.DG>
-20.0846

> <Gold.Chemscore.ZeroCoef>
-5.4800

> <Gold.Chemscore.Hbond>
3.9448

> <Gold.Chemscore.Metal>
0.0000

> <Gold.Chemscore.Lipo>
74.3474

> <Gold.Chemscore.Internal_Hbond>
0.0000

> <Gold.Chemscore.DEClash>
1.5015

> <Gold.Chemscore.DEInternal>
2.2215

> <Gold.Chemscore.Rot>
2.8397

> <Gold.Chemscore.Internal.Correction>
   9.000000E+99

> <Gold.Chemscore.Hbonds>
donor molecule, donor type, donor heavy atom, donor atom, acceptor molecule, acceptor atom, score
      L1  H     1    19       P1 10171  0.98
      L1  H     4    23       P1  7957  0.95
      L1  H    13    41       P1  7948  0.91
      P1  H  7954  7966       L1     1  0.31
      P1  H  7989  7998       L1    11  0.17

> <Gold.Chemscore.Hbond.Weighted>
-13.1756

> <Gold.Chemscore.Metal.Weighted>
-0.0000

> <Gold.Chemscore.Lipo.Weighted>
-8.6986

> <Gold.Chemscore.Internal_Hbond.Weighted>
0.0000

> <Gold.Chemscore.DEClash.Weighted>
1.5015

> <Gold.Chemscore.DEInternal.Weighted>
2.2215

> <Gold.Chemscore.Rot.Weighted>
7.2696

> <Gold.Chemscore.Internal.Correction.Weighted>
   9.000000E+99

> <Gold.Protein.RotatedTorsions>
[ 6907 6896 6895 6894 ] final   91.82 input  -60.11 | X-H torsion
[ 7974 7965 7964 7962 ] final  -40.32 input  175.53 | X-H torsion
[ 8008 7997 7996 7995 ] final -140.37 input   59.86 | X-H torsion
[ 10167 10162 10161 10158 ] final  139.25 input  -65.29 | X-H torsion
[ 10718 10713 10712 10709 ] final -153.04 input   66.30 | X-H torsion
[ 10763 10752 10751 10750 ] final  115.98 input  -60.55 | X-H torsion
[ 11005 11000 10999 10996 ] final  103.63 input  -57.11 | X-H torsion

> <Gold.Protein.ActiveResidues>
 VAL166  LYS551  ARG553  GLY616  TRP617  ASP618  TYR619  PRO620  LYS621  CYS622 
 ASP623  PHE694  ASN695  SER759  ASP760  ASP761  ALA762  ILE779  LEU786  VAL792 
 PHE793  MET794  SER795  GLU796  ALA797  LYS798  CYS799  TRP800  GLU811  SER814 

> <Gold.Protein.RotatedAtoms>
  152.5451  134.1598  159.8552 H   0  0  0  0  0  0  0  0  0  0  0  0  # atno 6907 bound_to 6896
  151.1617  133.4834  159.2601 H   0  0  0  0  0  0  0  0  0  0  0  0  # atno 6908 bound_to 6896
  151.1366  135.0169  159.8662 H   0  0  0  0  0  0  0  0  0  0  0  0  # atno 6909 bound_to 6896
  146.0316  140.6725  142.9130 H   0  0  0  0  0  0  0  0  0  0  0  0  # atno 7974 bound_to 7965
  155.4602  140.0545  157.2992 H   0  0  0  0  0  0  0  0  0  0  0  0  # atno 8008 bound_to 7997
  154.4740  140.2053  155.9877 H   0  0  0  0  0  0  0  0  0  0  0  0  # atno 8009 bound_to 7997
  156.1103  140.3205  155.8068 H   0  0  0  0  0  0  0  0  0  0  0  0  # atno 8010 bound_to 7997
  139.5085  144.6306  151.5828 H   0  0  0  0  0  0  0  0  0  0  0  0  # atno 10167 bound_to 10162
  156.4806  130.8301  151.2528 H   0  0  0  0  0  0  0  0  0  0  0  0  # atno 10718 bound_to 10713
  153.5304  135.3579  155.2673 H   0  0  0  0  0  0  0  0  0  0  0  0  # atno 10763 bound_to 10752
  154.8727  135.4067  154.3158 H   0  0  0  0  0  0  0  0  0  0  0  0  # atno 10764 bound_to 10752
  153.3846  135.7069  153.6607 H   0  0  0  0  0  0  0  0  0  0  0  0  # atno 10765 bound_to 10752
  139.8785  134.9270  156.5239 H   0  0  0  0  0  0  0  0  0  0  0  0  # atno 11005 bound_to 11000
  144.7033  140.3745  143.7138 LP  0  0  0  0  0  0  0  0  0  0  0  0  # atno 17320 bound_to 7965
  145.7032  139.1666  143.2581 LP  0  0  0  0  0  0  0  0  0  0  0  0  # atno 17321 bound_to 7965
  140.6037  143.9563  150.6404 LP  0  0  0  0  0  0  0  0  0  0  0  0  # atno 17342 bound_to 10162
  140.2783  143.3407  152.1175 LP  0  0  0  0  0  0  0  0  0  0  0  0  # atno 17343 bound_to 10162
  157.7483  131.0046  150.3083 LP  0  0  0  0  0  0  0  0  0  0  0  0  # atno 17370 bound_to 10713
  156.3526  130.3833  149.7317 LP  0  0  0  0  0  0  0  0  0  0  0  0  # atno 17371 bound_to 10713
  140.8430  133.8190  155.9094 LP  0  0  0  0  0  0  0  0  0  0  0  0  # atno 17394 bound_to 11000
  140.9218  134.2131  157.4921 LP  0  0  0  0  0  0  0  0  0  0  0  0  # atno 17395 bound_to 11000

$$$$
