#       Name:                AV-unprocessed.smi:1613
#       Creating user name   scv26
#       Creation time:       Fri Mar 27 07:14:07 2020


#       File generated by GOLD software.
#

@<TRIPOS>MOLECULE
AV-unprocessed.smi:1613
    58    60     1
SMALL
NO_CHARGES


@<TRIPOS>ATOM
      1 ****         0.0349   4.4207  -1.6848 O.2            1 S1                 0.0000
      2 ****        -0.3066   3.6365  -0.8010 C.2            1 S1                 0.0000
      3 ****        -1.7895   3.5424  -0.3995 C.3            1 S1                 0.0000
      4 ****        -2.1078   2.4193   0.5038 N.am           1 S1                 0.0000
      5 ****        -2.2128   2.7006   1.8766 C.2            1 S1                 0.0000
      6 ****        -2.4730   1.7267   2.7608 C.2            1 S1                 0.0000
      7 ****        -2.6376   0.3739   2.2130 C.2            1 S1                 0.0000
      8 ****        -2.5436   0.1146   0.9627 N.2            1 S1                 0.0000
      9 ****        -2.2736   1.1383   0.0357 C.2            1 S1                 0.0000
     10 ****        -2.1731   0.8932  -1.1665 O.2            1 S1                 0.0000
     11 ****         0.5568   2.8224  -0.1732 N.am           1 S1                 0.0000
     12 ****         1.9746   2.6523  -0.4754 C.3            1 S1                 0.0000
     13 ****         2.1774   1.8372  -1.7685 C.3            1 S1                 0.0000
     14 ****         1.6721   0.3916  -1.6107 C.3            1 S1                 0.0000
     15 ****         2.3209  -0.2809  -0.4557 N.4            1 S1                 1.0000
     16 ****         2.0155  -1.7324  -0.3399 C.3            1 S1                 0.0000
     17 ****         0.5117  -2.0777  -0.1639 C.3            1 S1                 0.0000
     18 ****         0.3209  -3.1993   0.8784 C.3            1 S1                 0.0000
     19 ****        -1.1626  -3.5516   1.0737 C.3            1 S1                 0.0000
     20 ****        -1.8189  -3.9512  -0.2557 C.3            1 S1                 0.0000
     21 ****        -1.6355  -2.8534  -1.3133 C.3            1 S1                 0.0000
     22 ****        -0.1511  -2.4974  -1.4966 C.3            1 S1                 0.0000
     23 ****         2.1583   0.4663   0.8204 C.3            1 S1                 0.0000
     24 ****         2.6635   1.9163   0.6869 C.3            1 S1                 0.0000
     25 ****        -2.0756   4.4906   0.0580 H              1 S1                 0.0000
     26 ****        -2.3921   3.4716  -1.3069 H              1 S1                 0.0000
     27 ****        -2.0657   3.7342   2.1547 H              1 S1                 0.0000
     28 ****        -2.5646   1.8734   3.8267 H              1 S1                 0.0000
     29 ****        -2.8470  -0.4068   2.9487 H              1 S1                 0.0000
     30 ****         0.1775   2.2280   0.5497 H              1 S1                 0.0000
     31 ****         2.4274   3.6387  -0.5898 H              1 S1                 0.0000
     32 ****         1.6744   2.3170  -2.6088 H              1 S1                 0.0000
     33 ****         3.2380   1.8222  -2.0224 H              1 S1                 0.0000
     34 ****         0.5899   0.3955  -1.4818 H              1 S1                 0.0000
     35 ****         1.8826  -0.1687  -2.5221 H              1 S1                 0.0000
     36 ****         2.4200  -2.2467  -1.2125 H              1 S1                 0.0000
     37 ****         2.5908  -2.1157   0.5040 H              1 S1                 0.0000
     38 ****        -0.0218  -1.2072   0.2154 H              1 S1                 0.0000
     39 ****         0.8687  -4.0900   0.5678 H              1 S1                 0.0000
     40 ****         0.7450  -2.8941   1.8357 H              1 S1                 0.0000
     41 ****        -1.2601  -4.3642   1.7943 H              1 S1                 0.0000
     42 ****        -1.6892  -2.6971   1.4998 H              1 S1                 0.0000
     43 ****        -1.3795  -4.8825  -0.6152 H              1 S1                 0.0000
     44 ****        -2.8803  -4.1484  -0.1030 H              1 S1                 0.0000
     45 ****        -2.0587  -3.1804  -2.2636 H              1 S1                 0.0000
     46 ****        -2.1939  -1.9650  -1.0189 H              1 S1                 0.0000
     47 ****        -0.0671  -1.7042  -2.2380 H              1 S1                 0.0000
     48 ****         0.3732  -3.3586  -1.9132 H              1 S1                 0.0000
     49 ****         1.1135   0.4661   1.1313 H              1 S1                 0.0000
     50 ****         2.7173  -0.0368   1.6101 H              1 S1                 0.0000
     51 ****         3.7416   1.9091   0.5216 H              1 S1                 0.0000
     52 ****         2.5040   2.4543   1.6223 H              1 S1                 0.0000
     53 ****         3.3108  -0.2427  -0.6531 H              1 S1                 0.0000
     54 ****        -0.6493   4.9923  -2.1378 LP             1 S1                 0.0000
     55 ****         0.9967   4.4867  -1.9504 LP             1 S1                 0.0000
     56 ****        -2.6633  -0.8249   0.6417 LP             1 S1                 0.0000
     57 ****        -1.9692   1.6296  -1.8115 LP             1 S1                 0.0000
     58 ****        -2.2954  -0.0423  -1.4980 LP             1 S1                 0.0000
@<TRIPOS>BOND
    1    1    2 2     
    2    2    3 1     
    3    2   11 am    
    4    3    4 1     
    5    3   25 1     
    6    3   26 1     
    7    4    9 am    
    8    4    5 1     
    9    5    6 2     
   10    5   27 1     
   11    6    7 1     
   12    6   28 1     
   13    7    8 2     
   14    7   29 1     
   15    8    9 1     
   16    9   10 2     
   17   11   12 1     
   18   11   30 1     
   19   12   24 1     
   20   12   13 1     
   21   12   31 1     
   22   13   14 1     
   23   13   32 1     
   24   13   33 1     
   25   14   15 1     
   26   14   34 1     
   27   14   35 1     
   28   15   16 1     
   29   15   23 1     
   30   15   53 1     
   31   16   17 1     
   32   16   36 1     
   33   16   37 1     
   34   17   22 1     
   35   17   18 1     
   36   17   38 1     
   37   18   19 1     
   38   18   39 1     
   39   18   40 1     
   40   19   20 1     
   41   19   41 1     
   42   19   42 1     
   43   20   21 1     
   44   20   43 1     
   45   20   44 1     
   46   21   22 1     
   47   21   45 1     
   48   21   46 1     
   49   22   47 1     
   50   22   48 1     
   51   23   24 1     
   52   23   49 1     
   53   23   50 1     
   54   24   51 1     
   55   24   52 1     
   56    1   54 1     
   57    1   55 1     
   58    8   56 1     
   59   10   57 1     
   60   10   58 1     
@<TRIPOS>SUBSTRUCTURE
      1 S1             1
@<TRIPOS>SET
LONE_PAIRS      STATIC     ATOMS    <user>   **** ""
5 54 55 56 57 58
DONOR_HYDROGENS      STATIC     ATOMS    <user>   **** ""
2 30 53
ATOM$BLUE        STATIC     ATOMS    COLORGROUP SYSTEM
5 54 55 56 57 58
ATOM$RED        STATIC     ATOMS    COLORGROUP SYSTEM
2 30 53
