AV-unprocessed.smi:148|AV-procd|sdf|1232|dock3
  -GOLD-   2262018433D 1   1.00000     0.00000
 Structure written by MMmdl.
 63 67  0  0  0  0  0  0  0  0  1 V2000
  147.8912  134.2086  153.3830 O   0  0  0  0  0  0  0  0  0  0  0  0
  148.5473  133.3797  154.3187 C   0  0  0  0  0  0  0  0  0  0  0  0
  149.1757  134.1965  155.4768 C   0  0  2  0  0  0  0  0  0  0  0  0
  150.1516  135.2698  154.9309 C   0  0  0  0  0  0  0  0  0  0  0  0
  150.4415  136.3266  155.8844 N   0  0  0  0  0  0  0  0  0  0  0  0
  149.9727  136.4311  157.1753 C   0  0  0  0  0  0  0  0  0  0  0  0
  150.3740  137.4873  157.8296 N   0  0  0  0  0  0  0  0  0  0  0  0
  151.1695  138.1652  156.9150 C   0  0  0  0  0  0  0  0  0  0  0  0
  151.9003  139.3809  156.9540 C   0  0  0  0  0  0  0  0  0  0  0  0
  151.9306  140.1617  158.0587 N   0  0  0  0  0  0  0  0  0  0  0  0
  153.0622  139.7724  158.9006 C   0  0  0  0  0  0  0  0  0  0  0  0
  153.0190  140.4764  160.2619 C   0  0  0  0  0  0  0  0  0  0  0  0
  152.9555  141.9935  160.0671 C   0  0  0  0  0  0  0  0  0  0  0  0
  151.7417  142.3582  159.2025 C   0  0  0  0  0  0  0  0  0  0  0  0
  151.7480  141.6100  157.8427 C   0  0  2  0  0  0  0  0  0  0  0  0
  150.4966  141.9294  156.9633 C   0  0  1  0  0  0  0  0  0  0  0  0
  150.6459  141.6580  155.4519 C   0  0  0  0  0  0  0  0  0  0  0  0
  149.2555  141.2438  154.9436 C   0  0  0  0  0  0  0  0  0  0  0  0
  148.3006  141.4193  156.1270 C   0  0  0  0  0  0  0  0  0  0  0  0
  149.1892  141.2224  157.3541 C   0  0  2  0  0  0  0  0  0  0  0  0
  148.6029  141.7826  158.5109 O   0  0  0  0  0  0  0  0  0  0  0  0
  152.5903  139.7467  155.8408 N   0  0  0  0  0  0  0  0  0  0  0  0
  152.5514  138.9753  154.7499 C   0  0  0  0  0  0  0  0  0  0  0  0
  151.9041  137.8223  154.5649 N   0  0  0  0  0  0  0  0  0  0  0  0
  151.2220  137.4512  155.6864 C   0  0  0  0  0  0  0  0  0  0  0  0
  149.8924  133.2910  156.5168 C   0  0  1  0  0  0  0  0  0  0  0  0
  148.9717  132.3775  157.3105 C   0  0  0  0  0  0  0  0  0  0  0  0
  149.9369  131.3394  157.8718 C   0  0  0  0  0  0  0  0  0  0  0  0
  150.9776  131.2205  156.9099 O   0  0  0  0  0  0  0  0  0  0  0  0
  150.8574  132.2511  155.9350 C   0  0  0  0  0  0  0  0  0  0  0  0
  148.5151  134.8319  153.0432 H   0  0  0  0  0  0  0  0  0  0  0  0
  147.8476  132.6377  154.7041 H   0  0  0  0  0  0  0  0  0  0  0  0
  149.3045  132.8344  153.7575 H   0  0  0  0  0  0  0  0  0  0  0  0
  148.3696  134.7250  155.9881 H   0  0  0  0  0  0  0  0  0  0  0  0
  151.1074  134.8245  154.6563 H   0  0  0  0  0  0  0  0  0  0  0  0
  149.7472  135.7189  154.0228 H   0  0  0  0  0  0  0  0  0  0  0  0
  149.3228  135.6920  157.6210 H   0  0  0  0  0  0  0  0  0  0  0  0
  153.0581  138.6919  159.0535 H   0  0  0  0  0  0  0  0  0  0  0  0
  153.9947  140.0169  158.3893 H   0  0  0  0  0  0  0  0  0  0  0  0
  152.1486  140.1377  160.8255 H   0  0  0  0  0  0  0  0  0  0  0  0
  153.8972  140.2087  160.8497 H   0  0  0  0  0  0  0  0  0  0  0  0
  152.8936  142.4956  161.0329 H   0  0  0  0  0  0  0  0  0  0  0  0
  153.8705  142.3447  159.5885 H   0  0  0  0  0  0  0  0  0  0  0  0
  150.8351  142.1303  159.7619 H   0  0  0  0  0  0  0  0  0  0  0  0
  151.7482  143.4362  159.0504 H   0  0  0  0  0  0  0  0  0  0  0  0
  152.6255  141.9599  157.2968 H   0  0  0  0  0  0  0  0  0  0  0  0
  150.2782  142.9947  157.0531 H   0  0  0  0  0  0  0  0  0  0  0  0
  151.0016  142.5513  154.9378 H   0  0  0  0  0  0  0  0  0  0  0  0
  151.3646  140.8677  155.2404 H   0  0  0  0  0  0  0  0  0  0  0  0
  148.9409  141.8277  154.0783 H   0  0  0  0  0  0  0  0  0  0  0  0
  149.2767  140.1961  154.6400 H   0  0  0  0  0  0  0  0  0  0  0  0
  147.8941  142.4322  156.1153 H   0  0  0  0  0  0  0  0  0  0  0  0
  147.4608  140.7242  156.0977 H   0  0  0  0  0  0  0  0  0  0  0  0
  149.3373  140.1540  157.5037 H   0  0  0  0  0  0  0  0  0  0  0  0
  148.4968  141.0992  159.1550 H   0  0  0  0  0  0  0  0  0  0  0  0
  153.1195  139.3338  153.9042 H   0  0  0  0  0  0  0  0  0  0  0  0
  150.4432  133.9167  157.2212 H   0  0  0  0  0  0  0  0  0  0  0  0
  148.4224  132.8925  158.0989 H   0  0  0  0  0  0  0  0  0  0  0  0
  148.2496  131.8976  156.6479 H   0  0  0  0  0  0  0  0  0  0  0  0
  150.3706  131.6909  158.8089 H   0  0  0  0  0  0  0  0  0  0  0  0
  149.4541  130.3802  158.0599 H   0  0  0  0  0  0  0  0  0  0  0  0
  150.4482  131.8107  155.0246 H   0  0  0  0  0  0  0  0  0  0  0  0
  151.8346  132.6728  155.6986 H   0  0  0  0  0  0  0  0  0  0  0  0
  1  2  1  0  0  0  0
  1 31  1  0  0  0  0
  2  3  1  0  0  0  0
  2 32  1  0  0  0  0
  2 33  1  0  0  0  0
  3  4  1  0  0  0  0
  3 26  1  0  0  0  0
  3 34  1  0  0  0  0
  4  5  1  0  0  0  0
  4 35  1  0  0  0  0
  4 36  1  0  0  0  0
  5 25  1  0  0  0  0
  5  6  1  0  0  0  0
  6  7  2  0  0  0  0
  6 37  1  0  0  0  0
  7  8  1  0  0  0  0
  8 25  2  0  0  0  0
  8  9  1  0  0  0  0
  9 10  1  0  0  0  0
  9 22  2  0  0  0  0
 10 15  1  0  0  0  0
 10 11  1  0  0  0  0
 11 12  1  0  0  0  0
 11 38  1  0  0  0  0
 11 39  1  0  0  0  0
 12 13  1  0  0  0  0
 12 40  1  0  0  0  0
 12 41  1  0  0  0  0
 13 14  1  0  0  0  0
 13 42  1  0  0  0  0
 13 43  1  0  0  0  0
 14 15  1  0  0  0  0
 14 44  1  0  0  0  0
 14 45  1  0  0  0  0
 15 16  1  0  0  0  0
 15 46  1  0  0  0  0
 16 20  1  0  0  0  0
 16 17  1  0  0  0  0
 16 47  1  0  0  0  0
 17 18  1  0  0  0  0
 17 48  1  0  0  0  0
 17 49  1  0  0  0  0
 18 19  1  0  0  0  0
 18 50  1  0  0  0  0
 18 51  1  0  0  0  0
 19 20  1  0  0  0  0
 19 52  1  0  0  0  0
 19 53  1  0  0  0  0
 20 21  1  0  0  0  0
 20 54  1  0  0  0  0
 21 55  1  0  0  0  0
 22 23  1  0  0  0  0
 23 24  2  0  0  0  0
 23 56  1  0  0  0  0
 24 25  1  0  0  0  0
 26 30  1  0  0  0  0
 26 27  1  0  0  0  0
 26 57  1  0  0  0  0
 27 28  1  0  0  0  0
 27 58  1  0  0  0  0
 27 59  1  0  0  0  0
 28 29  1  0  0  0  0
 28 60  1  0  0  0  0
 28 61  1  0  0  0  0
 29 30  1  0  0  0  0
 30 62  1  0  0  0  0
 30 63  1  0  0  0  0
M  END
> <s_m_source_file>
AV-unprocessed.smi

> <i_m_source_file_index>
148

> <i_lp_mmshare_version>
43012

> <i_f3d_flags>
0

> <s_epik_input>
W0NIMl0xT1tDSDJdW0NIMl1bQ0BIXTFbQ0BIXShbQ0gyXVtPSF0pW0NIMl1uKFtjSF1uMiljKGMyMyluW2NIXW5jM040W0NIMl1bQ0gyXVtDSDJdW0NIMl1bQ0BIXTRbQ0BASF01W0NIMl1bQ0gyXVtDSDJdW0NASF01W09IXQ==

> <s_epik_cmdline>
J2VwaWtfcHl0aG9uJywgJy1waCcsICc3LjAnLCAnLXRuJywgJzgnLCAnLW1hJywgJzIwMCcsICctbWV0YWxfYmluZGluZycsICctaW1hZScsICc8aW5maWxlLm1hZT4nLCAnLW9tYWUnLCAnPG91dGZpbGUubWFlPic=

> <r_lp_tautomer_probability>
1

> <r_epik_Ionization_Penalty>
0.00556303

> <r_epik_Ionization_Penalty_Charging>
0

> <r_epik_Ionization_Penalty_Neutral>
0.00556303

> <r_epik_State_Penalty>
0.00401767

> <r_epik_Charging_Adjusted_Penalty>
0.00401767

> <i_epik_Tot_Q>
0

> <i_epik_Tot_abs_Q>
0

> <r_epik_Metal_State_Penalty>
-0

> <b_epik_Metal_Only>
0

> <s_lp_Force_Field>
OPLS_2005

> <r_lp_Energy>
68.3277

> <b_lp_Chiralities_Consistent>
1

> <s_lp_Variant>
AV-unprocessed.smi:148-31

> <Gold.Version>
5.8.1

> <Gold.Id.Protein>
6NUR|6NUR_protein|mol2

> <Gold.PLP.Fitness>
46.0926

> <Gold.PLP.PLP>
-41.9167

> <Gold.PLP.part.hbond>
-4.0499

> <Gold.PLP.part.metal>
0.0000

> <Gold.PLP.part.buried>
-4.8384

> <Gold.PLP.part.nonpolar>
-32.8071

> <Gold.PLP.part.repulsive>
0.1268

> <Gold.PLP.ligand.clash>
0.0000

> <Gold.PLP.ligand.torsion>
1.0982

> <Gold.PLP.Chemscore.Hbond>
1.9920

> <Gold.PLP.Chemscore.CHOScore>
0.0000

> <Gold.PLP.Chemscore.Metal>
0.0000

> <Gold.Chemscore.Hbonds>
donor molecule, donor type, donor heavy atom, donor atom, acceptor molecule, acceptor atom, score
      L1  H     1    31       P1  7948  1.00
      P1  H  7997  8008       L1    22  1.00

> <Gold.PLP.Chemscore.Internal.Correction>
0.3962

> <Gold.Rescore>
     Score         DG    S(hbond)    S(metal)    S(lipo)     H(rot)  DE(clash)    DE(int)     intcor
     11.32     -14.62       1.67        0.00     103.06       3.32       0.82       2.48       ----

> <Gold.Chemscore.Fitness>
11.3243

> <Gold.Chemscore.DG>
-14.6238

> <Gold.Chemscore.ZeroCoef>
-5.4800

> <Gold.Chemscore.Hbond>
1.6724

> <Gold.Chemscore.Metal>
0.0000

> <Gold.Chemscore.Lipo>
103.0594

> <Gold.Chemscore.Internal_Hbond>
0.0000

> <Gold.Chemscore.DEClash>
0.8224

> <Gold.Chemscore.DEInternal>
2.4770

> <Gold.Chemscore.Rot>
3.3203

> <Gold.Chemscore.Internal.Correction>
   9.000000E+99

> <Gold.Chemscore.Hbonds>
donor molecule, donor type, donor heavy atom, donor atom, acceptor molecule, acceptor atom, score
      L1  H     1    31       P1  7948  0.48
      P1  H  7997  8008       L1    22  0.58

> <Gold.Chemscore.Hbond.Weighted>
-5.5858

> <Gold.Chemscore.Metal.Weighted>
-0.0000

> <Gold.Chemscore.Lipo.Weighted>
-12.0579

> <Gold.Chemscore.Internal_Hbond.Weighted>
0.0000

> <Gold.Chemscore.DEClash.Weighted>
0.8224

> <Gold.Chemscore.DEInternal.Weighted>
2.4770

> <Gold.Chemscore.Rot.Weighted>
8.5000

> <Gold.Chemscore.Internal.Correction.Weighted>
   9.000000E+99

> <Gold.Protein.RotatedTorsions>
[ 6907 6896 6895 6894 ] final -127.04 input  -60.11 | X-H torsion
[ 7974 7965 7964 7962 ] final   37.18 input  175.53 | X-H torsion
[ 8008 7997 7996 7995 ] final  -38.66 input   59.86 | X-H torsion
[ 10167 10162 10161 10158 ] final  -17.84 input  -65.29 | X-H torsion
[ 10718 10713 10712 10709 ] final  -30.27 input   66.30 | X-H torsion
[ 10763 10752 10751 10750 ] final   16.20 input  -60.55 | X-H torsion
[ 11005 11000 10999 10996 ] final   63.44 input  -57.11 | X-H torsion

> <Gold.Protein.ActiveResidues>
 VAL166  LYS551  ARG553  GLY616  TRP617  ASP618  TYR619  PRO620  LYS621  CYS622 
 ASP623  PHE694  ASN695  SER759  ASP760  ASP761  ALA762  ILE779  LEU786  VAL792 
 PHE793  MET794  SER795  GLU796  ALA797  LYS798  CYS799  TRP800  GLU811  SER814 

> <Gold.Protein.RotatedAtoms>
  150.9032  133.7092  159.2873 H   0  0  0  0  0  0  0  0  0  0  0  0  # atno 6907 bound_to 6896
  151.4603  135.1036  159.9732 H   0  0  0  0  0  0  0  0  0  0  0  0  # atno 6908 bound_to 6896
  152.4888  133.8396  159.7201 H   0  0  0  0  0  0  0  0  0  0  0  0  # atno 6909 bound_to 6896
  146.1156  139.5925  142.9323 H   0  0  0  0  0  0  0  0  0  0  0  0  # atno 7974 bound_to 7965
  154.4033  140.1572  156.2736 H   0  0  0  0  0  0  0  0  0  0  0  0  # atno 8008 bound_to 7997
  155.8931  140.3437  155.5949 H   0  0  0  0  0  0  0  0  0  0  0  0  # atno 8009 bound_to 7997
  155.7535  140.0808  157.2180 H   0  0  0  0  0  0  0  0  0  0  0  0  # atno 8010 bound_to 7997
  140.7252  143.4975  150.9911 H   0  0  0  0  0  0  0  0  0  0  0  0  # atno 10167 bound_to 10162
  156.4020  130.4392  149.7316 H   0  0  0  0  0  0  0  0  0  0  0  0  # atno 10718 bound_to 10713
  153.1453  135.6768  153.8964 H   0  0  0  0  0  0  0  0  0  0  0  0  # atno 10763 bound_to 10752
  153.8408  135.3105  155.3427 H   0  0  0  0  0  0  0  0  0  0  0  0  # atno 10764 bound_to 10752
  154.7820  135.4883  153.9950 H   0  0  0  0  0  0  0  0  0  0  0  0  # atno 10765 bound_to 10752
  140.0025  134.6421  155.9908 H   0  0  0  0  0  0  0  0  0  0  0  0  # atno 11005 bound_to 11000
  145.5573  141.0408  143.2245 LP  0  0  0  0  0  0  0  0  0  0  0  0  # atno 17320 bound_to 7965
  144.7550  139.7097  143.7257 LP  0  0  0  0  0  0  0  0  0  0  0  0  # atno 17321 bound_to 7965
  139.8683  143.7225  152.3168 LP  0  0  0  0  0  0  0  0  0  0  0  0  # atno 17342 bound_to 10162
  139.7465  144.7546  151.0572 LP  0  0  0  0  0  0  0  0  0  0  0  0  # atno 17343 bound_to 10162
  156.4328  130.7823  151.2843 LP  0  0  0  0  0  0  0  0  0  0  0  0  # atno 17370 bound_to 10713
  157.7504  131.0149  150.3481 LP  0  0  0  0  0  0  0  0  0  0  0  0  # atno 17371 bound_to 10713
  141.1652  133.6537  156.4456 LP  0  0  0  0  0  0  0  0  0  0  0  0  # atno 17394 bound_to 11000
  140.4702  134.6760  157.5126 LP  0  0  0  0  0  0  0  0  0  0  0  0  # atno 17395 bound_to 11000

$$$$
