#       Name:                AV-unprocessed.smi:708
#       Creating user name   scv26
#       Creation time:       Fri Mar 27 00:44:35 2020


#       File generated by GOLD software.
#

@<TRIPOS>MOLECULE
AV-unprocessed.smi:708
    48    49     1
SMALL
NO_CHARGES


@<TRIPOS>ATOM
      1 ****        -1.0681   2.1032   1.4032 O.2            1 S1                 0.0000
      2 ****        -1.4591   0.9923   1.7629 C.2            1 S1                 0.0000
      3 ****        -2.9596   0.6847   1.8457 C.3            1 S1                 0.0000
      4 ****        -3.7114   1.2261   0.7017 N.am           1 S1                 0.0000
      5 ****        -4.4352   2.4170   0.9108 C.2            1 S1                 0.0000
      6 ****        -5.1566   2.9899  -0.0659 C.2            1 S1                 0.0000
      7 ****        -5.1801   2.3526  -1.3613 C.2            1 S1                 0.0000
      8 ****        -4.4881   1.2157  -1.5733 C.2            1 S1                 0.0000
      9 ****        -3.6951   0.5879  -0.5100 C.2            1 S1                 0.0000
     10 ****        -3.0559  -0.4482  -0.6968 O.2            1 S1                 0.0000
     11 ****        -0.6314  -0.0048   2.1087 N.am           1 S1                 0.0000
     12 ****         0.8252   0.0481   2.0460 C.3            1 S1                 0.0000
     13 ****         1.3629  -0.0201   0.5996 C.3            1 S1                 0.0000
     14 ****         0.8490  -1.2567  -0.1765 C.3            1 S1                 0.0000
     15 ****         1.4954  -1.3509  -1.5697 C.3            1 S1                 0.0000
     16 ****         2.9549  -1.3823  -1.4138 N.am           1 S1                 0.0000
     17 ****         3.6899  -2.4991  -1.6463 C.2            1 S1                 0.0000
     18 ****         3.1762  -3.5427  -2.0542 O.2            1 S1                 0.0000
     19 ****         5.2096  -2.4854  -1.4014 C.3            1 S1                 0.0000
     20 ****         5.7894  -1.5874  -2.1989 F              1 S1                 0.0000
     21 ****         5.4631  -2.1989  -0.1237 F              1 S1                 0.0000
     22 ****         5.7215  -3.6867  -1.6750 F              1 S1                 0.0000
     23 ****         3.4561  -0.1223  -0.8516 C.3            1 S1                 0.0000
     24 ****         2.9063   0.0373   0.5776 C.3            1 S1                 0.0000
     25 ****        -3.1176  -0.3936   1.9147 H              1 S1                 0.0000
     26 ****        -3.3360   1.0900   2.7858 H              1 S1                 0.0000
     27 ****        -4.3612   2.8337   1.9048 H              1 S1                 0.0000
     28 ****        -5.7025   3.9048   0.1114 H              1 S1                 0.0000
     29 ****        -5.7545   2.7900  -2.1646 H              1 S1                 0.0000
     30 ****        -4.5173   0.7535  -2.5491 H              1 S1                 0.0000
     31 ****        -1.0419  -0.8800   2.4002 H              1 S1                 0.0000
     32 ****         1.1793   0.9536   2.5415 H              1 S1                 0.0000
     33 ****         1.2128  -0.7909   2.6248 H              1 S1                 0.0000
     34 ****         1.0067   0.8631   0.0675 H              1 S1                 0.0000
     35 ****         1.0666  -2.1651   0.3869 H              1 S1                 0.0000
     36 ****        -0.2348  -1.2132  -0.2876 H              1 S1                 0.0000
     37 ****         1.1049  -2.2200  -2.1008 H              1 S1                 0.0000
     38 ****         1.2132  -0.4871  -2.1734 H              1 S1                 0.0000
     39 ****         4.5413  -0.0486  -0.8381 H              1 S1                 0.0000
     40 ****         3.1191   0.7076  -1.4745 H              1 S1                 0.0000
     41 ****         3.2491   0.9822   1.0006 H              1 S1                 0.0000
     42 ****         3.3156  -0.7507   1.2112 H              1 S1                 0.0000
     43 ****        -1.7305   2.8127   1.1625 LP             1 S1                 0.0000
     44 ****        -0.0882   2.2959   1.3518 LP             1 S1                 0.0000
     45 ****        -2.5260  -0.8502   0.0499 LP             1 S1                 0.0000
     46 ****        -3.0669  -0.8873  -1.5951 LP             1 S1                 0.0000
     47 ****         2.1913  -3.5825  -2.2230 LP             1 S1                 0.0000
     48 ****         3.7442  -4.3495  -2.2163 LP             1 S1                 0.0000
@<TRIPOS>BOND
    1    1    2 2     
    2    2    3 1     
    3    2   11 am    
    4    3    4 1     
    5    3   25 1     
    6    3   26 1     
    7    4    9 am    
    8    4    5 1     
    9    5    6 2     
   10    5   27 1     
   11    6    7 1     
   12    6   28 1     
   13    7    8 2     
   14    7   29 1     
   15    8    9 1     
   16    8   30 1     
   17    9   10 2     
   18   11   12 1     
   19   11   31 1     
   20   12   13 1     
   21   12   32 1     
   22   12   33 1     
   23   13   24 1     
   24   13   14 1     
   25   13   34 1     
   26   14   15 1     
   27   14   35 1     
   28   14   36 1     
   29   15   16 1     
   30   15   37 1     
   31   15   38 1     
   32   16   17 am    
   33   16   23 1     
   34   17   18 2     
   35   17   19 1     
   36   19   20 1     
   37   19   21 1     
   38   19   22 1     
   39   23   24 1     
   40   23   39 1     
   41   23   40 1     
   42   24   41 1     
   43   24   42 1     
   44    1   43 1     
   45    1   44 1     
   46   10   45 1     
   47   10   46 1     
   48   18   47 1     
   49   18   48 1     
@<TRIPOS>SUBSTRUCTURE
      1 S1             1
@<TRIPOS>SET
LONE_PAIRS      STATIC     ATOMS    <user>   **** ""
6 43 44 45 46 47 48
DONOR_HYDROGENS      STATIC     ATOMS    <user>   **** ""
1 31
ATOM$BLUE        STATIC     ATOMS    COLORGROUP SYSTEM
6 43 44 45 46 47 48
ATOM$RED        STATIC     ATOMS    COLORGROUP SYSTEM
1 31
