AV-unprocessed.smi:703|AV-procd|sdf|3436|dock1
  -GOLD-   22720 0423D 1   1.00000     0.00000
 Structure written by MMmdl.
 37 38  0  0  0  0  0  0  0  0  3 V2000
  146.9718  138.8487  151.9383 C   0  0  0  0  0  0  0  0  0  0  0  0
  146.9059  138.6918  153.4633 C   0  0  0  0  0  0  0  0  0  0  0  0
  148.1488  138.1070  154.0208 N   0  3  1  0  0  0  0  0  0  0  0  0
  149.3406  138.9842  153.9118 C   0  0  0  0  0  0  0  0  0  0  0  0
  150.0446  138.9617  155.2801 C   0  0  2  0  0  0  0  0  0  0  0  0
  151.5802  139.0449  155.1784 C   0  0  0  0  0  0  0  0  0  0  0  0
  149.4893  137.6934  155.9442 C   0  0  1  0  0  0  0  0  0  0  0  0
  149.5286  137.7745  157.3956 N   0  5  0  0  0  0  0  0  0  0  0  0
  149.4088  136.4126  158.2667 S   0  0  0  0  0  0  0  0  0  0  0  0
  149.5458  135.2047  157.4365 O   0  0  0  0  0  0  0  0  0  0  0  0
  150.2015  136.4632  159.5059 O   0  0  0  0  0  0  0  0  0  0  0  0
  147.6404  136.4871  158.7827 C   0  0  0  0  0  0  0  0  0  0  0  0
  147.5241  136.2467  160.2620 C   0  0  0  0  0  0  0  0  0  0  0  0
  147.3637  135.0109  160.9488 C   0  0  0  0  0  0  0  0  0  0  0  0
  147.3128  135.3796  162.2620 C   0  0  0  0  0  0  0  0  0  0  0  0
  147.4212  136.7268  162.3821 O   0  0  0  0  0  0  0  0  0  0  0  0
  147.5524  137.2720  161.0998 N   0  0  0  0  0  0  0  0  0  0  0  0
  148.0546  137.6511  155.4246 C   0  0  0  0  0  0  0  0  0  0  0  0
  146.0706  139.3333  151.5620 H   0  0  0  0  0  0  0  0  0  0  0  0
  147.0574  137.8840  151.4375 H   0  0  0  0  0  0  0  0  0  0  0  0
  147.8250  139.4593  151.6411 H   0  0  0  0  0  0  0  0  0  0  0  0
  146.7538  139.6757  153.9089 H   0  0  0  0  0  0  0  0  0  0  0  0
  146.0474  138.0814  153.7473 H   0  0  0  0  0  0  0  0  0  0  0  0
  149.9814  138.5939  153.1188 H   0  0  0  0  0  0  0  0  0  0  0  0
  149.0756  140.0067  153.6369 H   0  0  0  0  0  0  0  0  0  0  0  0
  149.6916  139.8293  155.8415 H   0  0  0  0  0  0  0  0  0  0  0  0
  152.0046  138.2105  154.6167 H   0  0  0  0  0  0  0  0  0  0  0  0
  152.0515  139.0581  156.1628 H   0  0  0  0  0  0  0  0  0  0  0  0
  151.8792  139.9619  154.6701 H   0  0  0  0  0  0  0  0  0  0  0  0
  150.0213  136.8257  155.5500 H   0  0  0  0  0  0  0  0  0  0  0  0
  147.2464  137.4658  158.5071 H   0  0  0  0  0  0  0  0  0  0  0  0
  147.0867  135.7356  158.2204 H   0  0  0  0  0  0  0  0  0  0  0  0
  147.3041  134.0129  160.5408 H   0  0  0  0  0  0  0  0  0  0  0  0
  147.2056  134.8280  163.1842 H   0  0  0  0  0  0  0  0  0  0  0  0
  147.4224  138.3391  155.9901 H   0  0  0  0  0  0  0  0  0  0  0  0
  147.6177  136.6544  155.4957 H   0  0  0  0  0  0  0  0  0  0  0  0
  148.3664  137.2862  153.4740 H   0  0  0  0  0  0  0  0  0  0  0  0
  1  2  1  0  0  0  0
  1 19  1  0  0  0  0
  1 20  1  0  0  0  0
  1 21  1  0  0  0  0
  2  3  1  0  0  0  0
  2 22  1  0  0  0  0
  2 23  1  0  0  0  0
  3 18  1  0  0  0  0
  3  4  1  0  0  0  0
  3 37  1  0  0  0  0
  4  5  1  0  0  0  0
  4 24  1  0  0  0  0
  4 25  1  0  0  0  0
  5  6  1  0  0  0  0
  5  7  1  0  0  0  0
  5 26  1  0  0  0  0
  6 27  1  0  0  0  0
  6 28  1  0  0  0  0
  6 29  1  0  0  0  0
  7  8  1  0  0  0  0
  7 18  1  0  0  0  0
  7 30  1  0  0  0  0
  8  9  1  0  0  0  0
  9 10  2  0  0  0  0
  9 11  2  0  0  0  0
  9 12  1  0  0  0  0
 12 13  1  0  0  0  0
 12 31  1  0  0  0  0
 12 32  1  0  0  0  0
 13 17  2  0  0  0  0
 13 14  1  0  0  0  0
 14 15  2  0  0  0  0
 14 33  1  0  0  0  0
 15 16  1  0  0  0  0
 15 34  1  0  0  0  0
 16 17  1  0  0  0  0
 18 35  1  0  0  0  0
 18 36  1  0  0  0  0
M  CHG  1   3   1
M  CHG  1   8  -1
M  END
> <s_m_source_file>
AV-unprocessed.smi

> <i_m_source_file_index>
703

> <i_lp_mmshare_version>
43012

> <i_f3d_flags>
0

> <s_epik_input>
W0NIM11bQ0gyXU4xW0NIMl1bQ0BASF0oW0NIM10pW0NASF0oW0NIMl0xKVtOSF1TKD1PKSg9TylbQ0gyXWMyW2NIXVtjSF1vbjI=

> <s_epik_cmdline>
J2VwaWtfcHl0aG9uJywgJy1waCcsICc3LjAnLCAnLXRuJywgJzgnLCAnLW1hJywgJzIwMCcsICctbWV0YWxfYmluZGluZycsICctaW1hZScsICc8aW5maWxlLm1hZT4nLCAnLW9tYWUnLCAnPG91dGZpbGUubWFlPic=

> <r_epik_Ionization_Penalty>
3.62494

> <r_epik_Ionization_Penalty_Charging>
3.62494

> <r_epik_Ionization_Penalty_Neutral>
2.0321e-10

> <r_epik_State_Penalty>
3.62558

> <r_epik_Charging_Adjusted_Penalty>
7.25052

> <i_epik_Tot_Q>
0

> <i_epik_Tot_abs_Q>
2

> <r_epik_Metal_State_Penalty>
0.530836

> <b_epik_Metal_Only>
1

> <s_lp_Force_Field>
OPLS_2005

> <r_lp_Energy>
15.7231

> <b_lp_Chiralities_Consistent>
1

> <s_lp_Variant>
AV-unprocessed.smi:703-11

> <Gold.Version>
5.8.1

> <Gold.Id.Protein>
6NUR|6NUR_protein|mol2

> <Gold.PLP.Fitness>
37.6434

> <Gold.PLP.PLP>
-27.0761

> <Gold.PLP.part.hbond>
-4.8120

> <Gold.PLP.part.metal>
0.0000

> <Gold.PLP.part.buried>
-1.3077

> <Gold.PLP.part.nonpolar>
-20.5607

> <Gold.PLP.part.repulsive>
0.0000

> <Gold.PLP.ligand.clash>
0.0000

> <Gold.PLP.ligand.torsion>
1.3789

> <Gold.PLP.Chemscore.Hbond>
4.0944

> <Gold.PLP.Chemscore.CHOScore>
0.0000

> <Gold.PLP.Chemscore.Metal>
0.0000

> <Gold.Chemscore.Hbonds>
donor molecule, donor type, donor heavy atom, donor atom, acceptor molecule, acceptor atom, score
      L1  H     3    37       P1  7948  2.00
      P1  H  6896  6909       L1    11  1.00
      P1  H  6931  6943       L1    17  0.17
      P1  H  6934  6947       L1    17  0.94

> <Gold.PLP.Chemscore.Internal.Correction>
1.0419

> <Gold.Rescore>
     Score         DG    S(hbond)    S(metal)    S(lipo)     H(rot)  DE(clash)    DE(int)     intcor
     16.40     -17.83       2.88        0.00      59.11       1.63       0.27       1.16       ----

> <Gold.Chemscore.Fitness>
16.4023

> <Gold.Chemscore.DG>
-17.8254

> <Gold.Chemscore.ZeroCoef>
-5.4800

> <Gold.Chemscore.Hbond>
2.8780

> <Gold.Chemscore.Metal>
0.0000

> <Gold.Chemscore.Lipo>
59.1062

> <Gold.Chemscore.Internal_Hbond>
0.0000

> <Gold.Chemscore.DEClash>
0.2669

> <Gold.Chemscore.DEInternal>
1.1562

> <Gold.Chemscore.Rot>
1.6338

> <Gold.Chemscore.Internal.Correction>
   9.000000E+99

> <Gold.Chemscore.Hbonds>
donor molecule, donor type, donor heavy atom, donor atom, acceptor molecule, acceptor atom, score
      L1  H     3    37       P1  7948  0.94
      P1  H  6896  6909       L1    11  0.74
      P1  H  6934  6947       L1    17  0.84

> <Gold.Chemscore.Hbond.Weighted>
-9.6125

> <Gold.Chemscore.Metal.Weighted>
-0.0000

> <Gold.Chemscore.Lipo.Weighted>
-6.9154

> <Gold.Chemscore.Internal_Hbond.Weighted>
0.0000

> <Gold.Chemscore.DEClash.Weighted>
0.2669

> <Gold.Chemscore.DEInternal.Weighted>
1.1562

> <Gold.Chemscore.Rot.Weighted>
4.1825

> <Gold.Chemscore.Internal.Correction.Weighted>
   9.000000E+99

> <Gold.Protein.RotatedTorsions>
[ 6907 6896 6895 6894 ] final   78.83 input  -60.11 | X-H torsion
[ 7974 7965 7964 7962 ] final  -12.98 input  175.53 | X-H torsion
[ 8008 7997 7996 7995 ] final  136.84 input   59.86 | X-H torsion
[ 10167 10162 10161 10158 ] final   42.45 input  -65.29 | X-H torsion
[ 10718 10713 10712 10709 ] final  115.67 input   66.30 | X-H torsion
[ 10763 10752 10751 10750 ] final  -66.88 input  -60.55 | X-H torsion
[ 11005 11000 10999 10996 ] final  -98.23 input  -57.11 | X-H torsion

> <Gold.Protein.ActiveResidues>
 VAL166  LYS551  ARG553  GLY616  TRP617  ASP618  TYR619  PRO620  LYS621  CYS622 
 ASP623  PHE694  ASN695  SER759  ASP760  ASP761  ALA762  ILE779  LEU786  VAL792 
 PHE793  MET794  SER795  GLU796  ALA797  LYS798  CYS799  TRP800  GLU811  SER814 

> <Gold.Protein.RotatedAtoms>
  152.5175  134.3604  159.9282 H   0  0  0  0  0  0  0  0  0  0  0  0  # atno 6907 bound_to 6896
  151.3556  133.3902  159.2692 H   0  0  0  0  0  0  0  0  0  0  0  0  # atno 6908 bound_to 6896
  150.9692  134.9087  159.7836 H   0  0  0  0  0  0  0  0  0  0  0  0  # atno 6909 bound_to 6896
  146.2132  140.3136  142.8384 H   0  0  0  0  0  0  0  0  0  0  0  0  # atno 7974 bound_to 7965
  156.3003  140.2435  156.3812 H   0  0  0  0  0  0  0  0  0  0  0  0  # atno 8008 bound_to 7997
  154.8699  140.0416  157.1738 H   0  0  0  0  0  0  0  0  0  0  0  0  # atno 8009 bound_to 7997
  154.8806  140.2948  155.5431 H   0  0  0  0  0  0  0  0  0  0  0  0  # atno 8010 bound_to 7997
  140.3543  144.2311  150.6143 H   0  0  0  0  0  0  0  0  0  0  0  0  # atno 10167 bound_to 10162
  157.6208  131.1015  150.7362 H   0  0  0  0  0  0  0  0  0  0  0  0  # atno 10718 bound_to 10713
  154.3664  135.6105  153.5717 H   0  0  0  0  0  0  0  0  0  0  0  0  # atno 10763 bound_to 10752
  152.9791  135.5827  154.4573 H   0  0  0  0  0  0  0  0  0  0  0  0  # atno 10764 bound_to 10752
  154.4320  135.2848  155.1884 H   0  0  0  0  0  0  0  0  0  0  0  0  # atno 10765 bound_to 10752
  141.1352  133.8230  157.0812 H   0  0  0  0  0  0  0  0  0  0  0  0  # atno 11005 bound_to 11000
  144.8970  140.7595  143.5891 LP  0  0  0  0  0  0  0  0  0  0  0  0  # atno 17320 bound_to 7965
  145.3061  139.1834  143.4664 LP  0  0  0  0  0  0  0  0  0  0  0  0  # atno 17321 bound_to 7965
  140.5189  143.2271  151.8420 LP  0  0  0  0  0  0  0  0  0  0  0  0  # atno 17342 bound_to 10162
  139.4822  144.4861  151.9245 LP  0  0  0  0  0  0  0  0  0  0  0  0  # atno 17343 bound_to 10162
  156.7720  130.4832  149.5416 LP  0  0  0  0  0  0  0  0  0  0  0  0  # atno 17370 bound_to 10713
  156.1352  130.6206  151.0391 LP  0  0  0  0  0  0  0  0  0  0  0  0  # atno 17371 bound_to 10713
  140.0450  134.9835  157.1032 LP  0  0  0  0  0  0  0  0  0  0  0  0  # atno 17394 bound_to 11000
  140.4076  134.2015  155.7163 LP  0  0  0  0  0  0  0  0  0  0  0  0  # atno 17395 bound_to 11000

$$$$
