#       Name:                AV-unprocessed.smi:1781
#       Creating user name   scv26
#       Creation time:       Fri Mar 27 08:42:55 2020


#       File generated by GOLD software.
#

@<TRIPOS>MOLECULE
AV-unprocessed.smi:1781
    46    47     1
SMALL
NO_CHARGES


@<TRIPOS>ATOM
      1 ****        -5.6878   5.0997  -0.1282 C.3            1 S1                 0.0000
      2 ****        -4.1579   5.1052  -0.1621 C.3            1 S1                 0.0000
      3 ****        -3.6894   3.7727  -0.0417 O.3            1 S1                 0.0000
      4 ****        -2.2724   3.6862  -0.0612 C.3            1 S1                 0.0000
      5 ****        -1.8414   2.2239   0.0702 C.2            1 S1                 0.0000
      6 ****        -2.6650   1.3609   0.3768 O.2            1 S1                 0.0000
      7 ****        -0.5374   1.9873  -0.1675 N.am           1 S1                 0.0000
      8 ****         0.1591   0.7505  -0.1139 C.ar           1 S1                 0.0000
      9 ****         1.5378   0.8268  -0.4124 C.ar           1 S1                 0.0000
     10 ****         2.3197  -0.3440  -0.3828 C.ar           1 S1                 0.0000
     11 ****         1.7059  -1.5688  -0.0580 C.ar           1 S1                 0.0000
     12 ****         2.4711  -2.7433  -0.0178 N.3            1 S1                 0.0000
     13 ****         2.6800  -3.2409   1.3359 C.3            1 S1                 0.0000
     14 ****         3.6300  -4.4516   1.3122 C.3            1 S1                 0.0000
     15 ****         3.1129  -5.4511   0.4377 O.3            1 S1                 0.0000
     16 ****         2.9815  -4.9760  -0.8995 C.3            1 S1                 0.0000
     17 ****         2.0094  -3.7836  -0.9288 C.3            1 S1                 0.0000
     18 ****         0.3227  -1.5526   0.2279 C.ar           1 S1                 0.0000
     19 ****        -0.4270  -0.4309   0.2010 N.ar           1 S1                 0.0000
     20 ****        -6.0836   6.1115  -0.2173 H              1 S1                 0.0000
     21 ****        -6.0571   4.6766   0.8063 H              1 S1                 0.0000
     22 ****        -6.0946   4.5080  -0.9485 H              1 S1                 0.0000
     23 ****        -3.8089   5.5430  -1.0984 H              1 S1                 0.0000
     24 ****        -3.7700   5.7163   0.6542 H              1 S1                 0.0000
     25 ****        -1.8828   4.0976  -0.9939 H              1 S1                 0.0000
     26 ****        -1.8461   4.2583   0.7643 H              1 S1                 0.0000
     27 ****         0.0226   2.7905  -0.4127 H              1 S1                 0.0000
     28 ****         1.9977   1.7720  -0.6619 H              1 S1                 0.0000
     29 ****         3.3756  -0.2991  -0.6077 H              1 S1                 0.0000
     30 ****         3.0971  -2.4510   1.9618 H              1 S1                 0.0000
     31 ****         1.7234  -3.5301   1.7735 H              1 S1                 0.0000
     32 ****         4.6297  -4.1548   0.9907 H              1 S1                 0.0000
     33 ****         3.7286  -4.8716   2.3133 H              1 S1                 0.0000
     34 ****         3.9586  -4.6915  -1.2935 H              1 S1                 0.0000
     35 ****         2.6060  -5.7829  -1.5288 H              1 S1                 0.0000
     36 ****         1.0123  -4.1181  -0.6401 H              1 S1                 0.0000
     37 ****         1.9376  -3.3835  -1.9409 H              1 S1                 0.0000
     38 ****        -0.1997  -2.4599   0.4931 H              1 S1                 0.0000
     39 ****        -4.0531   3.2356  -0.8028 LP             1 S1                 0.0000
     40 ****        -4.0211   3.3937   0.8222 LP             1 S1                 0.0000
     41 ****        -3.6181   1.6151   0.5405 LP             1 S1                 0.0000
     42 ****        -2.3804   0.4060   0.4619 LP             1 S1                 0.0000
     43 ****         3.3698  -2.4715  -0.3620 LP             1 S1                 0.0000
     44 ****         2.2133  -5.7356   0.7689 LP             1 S1                 0.0000
     45 ****         3.7330  -6.2357   0.4419 LP             1 S1                 0.0000
     46 ****        -1.4039  -0.4706   0.4109 LP             1 S1                 0.0000
@<TRIPOS>BOND
    1    1    2 1     
    2    1   20 1     
    3    1   21 1     
    4    1   22 1     
    5    2    3 1     
    6    2   23 1     
    7    2   24 1     
    8    3    4 1     
    9    4    5 1     
   10    4   25 1     
   11    4   26 1     
   12    5    6 2     
   13    5    7 am    
   14    7    8 1     
   15    7   27 1     
   16    8   19 ar    
   17    8    9 ar    
   18    9   10 ar    
   19    9   28 1     
   20   10   11 ar    
   21   10   29 1     
   22   11   12 1     
   23   11   18 ar    
   24   12   17 1     
   25   12   13 1     
   26   13   14 1     
   27   13   30 1     
   28   13   31 1     
   29   14   15 1     
   30   14   32 1     
   31   14   33 1     
   32   15   16 1     
   33   16   17 1     
   34   16   34 1     
   35   16   35 1     
   36   17   36 1     
   37   17   37 1     
   38   18   19 ar    
   39   18   38 1     
   40    3   39 1     
   41    3   40 1     
   42    6   41 1     
   43    6   42 1     
   44   12   43 1     
   45   15   44 1     
   46   15   45 1     
   47   19   46 1     
@<TRIPOS>SUBSTRUCTURE
      1 S1             1
@<TRIPOS>SET
LONE_PAIRS      STATIC     ATOMS    <user>   **** ""
8 39 40 41 42 43 44 45 46
DONOR_HYDROGENS      STATIC     ATOMS    <user>   **** ""
1 27
ATOM$BLUE        STATIC     ATOMS    COLORGROUP SYSTEM
8 39 40 41 42 43 44 45 46
ATOM$RED        STATIC     ATOMS    COLORGROUP SYSTEM
1 27
