#       Name:                AV-unprocessed.smi:2193
#       Creating user name   scv26
#       Creation time:       Fri Mar 27 12:10:47 2020


#       File generated by GOLD software.
#

@<TRIPOS>MOLECULE
AV-unprocessed.smi:2193
    47    49     1
SMALL
NO_CHARGES


@<TRIPOS>ATOM
      1 ****        -1.2512   1.5734  -3.7541 O.3            1 S1                 0.0000
      2 ****        -2.3316   1.7412  -2.8623 C.3            1 S1                 0.0000
      3 ****        -1.9241   2.3637  -1.5613 C.2            1 S1                 0.0000
      4 ****        -2.2306   3.6277  -1.2666 N.2            1 S1                 0.0000
      5 ****        -1.6998   3.7841  -0.0017 C.ar           1 S1                 0.0000
      6 ****        -1.6984   4.9030   0.8618 C.ar           1 S1                 0.0000
      7 ****        -1.0889   4.8244   2.1311 C.ar           1 S1                 0.0000
      8 ****        -0.4754   3.6280   2.5553 C.ar           1 S1                 0.0000
      9 ****        -0.4661   2.5014   1.7104 C.ar           1 S1                 0.0000
     10 ****        -1.0723   2.5862   0.4423 C.ar           1 S1                 0.0000
     11 ****        -1.2301   1.6876  -0.6089 N.pl3          1 S1                 0.0000
     12 ****        -0.7520   0.3100  -0.6296 C.3            1 S1                 0.0000
     13 ****         0.7833   0.2131  -0.7453 C.3            1 S1                 0.0000
     14 ****         1.2162   0.8154  -1.9480 O.3            1 S1                 0.0000
     15 ****         1.2814  -1.2391  -0.7211 C.3            1 S1                 0.0000
     16 ****         1.0350  -1.7875   0.5674 O.3            1 S1                 0.0000
     17 ****         1.3919  -3.0983   0.7992 C.ar           1 S1                 0.0000
     18 ****         1.1163  -3.6187   2.0809 C.ar           1 S1                 0.0000
     19 ****         1.4464  -4.9486   2.4057 C.ar           1 S1                 0.0000
     20 ****         2.0596  -5.7751   1.4463 C.ar           1 S1                 0.0000
     21 ****         2.3780  -7.0542   1.7564 F              1 S1                 0.0000
     22 ****         2.3414  -5.2691   0.1637 C.ar           1 S1                 0.0000
     23 ****         2.0103  -3.9389  -0.1613 C.ar           1 S1                 0.0000
     24 ****        -1.5786   1.1913  -4.5537 H              1 S1                 0.0000
     25 ****        -3.0792   2.3726  -3.3441 H              1 S1                 0.0000
     26 ****        -2.8121   0.7803  -2.6788 H              1 S1                 0.0000
     27 ****        -2.1683   5.8232   0.5471 H              1 S1                 0.0000
     28 ****        -1.0936   5.6858   2.7828 H              1 S1                 0.0000
     29 ****        -0.0118   3.5754   3.5296 H              1 S1                 0.0000
     30 ****         0.0023   1.5834   2.0333 H              1 S1                 0.0000
     31 ****        -1.0861  -0.1688   0.2915 H              1 S1                 0.0000
     32 ****        -1.2255  -0.2391  -1.4423 H              1 S1                 0.0000
     33 ****         1.2516   0.7573   0.0751 H              1 S1                 0.0000
     34 ****         0.9007   1.7062  -1.9679 H              1 S1                 0.0000
     35 ****         0.7772  -1.8216  -1.4943 H              1 S1                 0.0000
     36 ****         2.3535  -1.2623  -0.9241 H              1 S1                 0.0000
     37 ****         0.6460  -2.9912   2.8237 H              1 S1                 0.0000
     38 ****         1.2291  -5.3335   3.3912 H              1 S1                 0.0000
     39 ****         2.8128  -5.9020  -0.5737 H              1 S1                 0.0000
     40 ****         2.2424  -3.5874  -1.1550 H              1 S1                 0.0000
     41 ****        -0.5680   0.9678  -3.3460 LP             1 S1                 0.0000
     42 ****        -0.8349   2.4612  -3.9504 LP             1 S1                 0.0000
     43 ****        -2.7229   4.2965  -1.8237 LP             1 S1                 0.0000
     44 ****         0.8496   0.3102  -2.7293 LP             1 S1                 0.0000
     45 ****         2.2154   0.8105  -1.9871 LP             1 S1                 0.0000
     46 ****         0.0523  -1.7138   0.7375 LP             1 S1                 0.0000
     47 ****         1.5309  -1.2244   1.2285 LP             1 S1                 0.0000
@<TRIPOS>BOND
    1    1    2 1     
    2    1   24 1     
    3    2    3 1     
    4    2   25 1     
    5    2   26 1     
    6    3   11 1     
    7    3    4 2     
    8    4    5 1     
    9    5   10 ar    
   10    5    6 ar    
   11    6    7 ar    
   12    6   27 1     
   13    7    8 ar    
   14    7   28 1     
   15    8    9 ar    
   16    8   29 1     
   17    9   10 ar    
   18    9   30 1     
   19   10   11 1     
   20   11   12 1     
   21   12   13 1     
   22   12   31 1     
   23   12   32 1     
   24   13   14 1     
   25   13   15 1     
   26   13   33 1     
   27   14   34 1     
   28   15   16 1     
   29   15   35 1     
   30   15   36 1     
   31   16   17 1     
   32   17   23 ar    
   33   17   18 ar    
   34   18   19 ar    
   35   18   37 1     
   36   19   20 ar    
   37   19   38 1     
   38   20   21 1     
   39   20   22 ar    
   40   22   23 ar    
   41   22   39 1     
   42   23   40 1     
   43    1   41 1     
   44    1   42 1     
   45    4   43 1     
   46   14   44 1     
   47   14   45 1     
   48   16   46 1     
   49   16   47 1     
@<TRIPOS>SUBSTRUCTURE
      1 S1             1
@<TRIPOS>SET
LONE_PAIRS      STATIC     ATOMS    <user>   **** ""
7 41 42 43 44 45 46 47
DONOR_HYDROGENS      STATIC     ATOMS    <user>   **** ""
2 24 34
ATOM$BLUE        STATIC     ATOMS    COLORGROUP SYSTEM
7 41 42 43 44 45 46 47
ATOM$RED        STATIC     ATOMS    COLORGROUP SYSTEM
2 24 34
