AV-unprocessed.smi:3111|AV-procd|sdf|11833|dock6
  -GOLD-   2272017203D 1   1.00000     0.00000
 Structure written by MMmdl.
 29 29  0  0  0  0  0  0  0  0  1 V2000
  151.7832  138.2675  154.3275 C   0  0  0  0  0  0  0  0  0  0  0  0
  151.0971  139.4639  154.7907 N   0  0  0  0  0  0  0  0  0  0  0  0
  151.5195  140.2291  155.8066 C   0  0  0  0  0  0  0  0  0  0  0  0
  152.5479  139.9938  156.4432 O   0  0  0  0  0  0  0  0  0  0  0  0
  150.6537  141.4528  156.1335 C   0  0  0  0  0  0  0  0  0  0  0  0
  151.3222  142.3944  157.0275 N   0  0  0  0  0  0  0  0  0  0  0  0
  151.8254  142.0916  158.2353 C   0  0  0  0  0  0  0  0  0  0  0  0
  151.7241  140.9748  158.7447 O   0  0  0  0  0  0  0  0  0  0  0  0
  152.5642  143.2258  158.9630 C   0  0  1  0  0  0  0  0  0  0  0  0
  151.7684  144.5446  158.9884 C   0  0  0  0  0  0  0  0  0  0  0  0
  152.9334  142.8067  160.3081 N   0  0  0  0  0  0  0  0  0  0  0  0
  152.4569  143.3314  161.5035 C   0  0  0  0  0  0  0  0  0  0  0  0
  153.0836  142.6418  162.5165 C   0  0  0  0  0  0  0  0  0  0  0  0
  153.9476  141.6942  161.9743 N   0  0  0  0  0  0  0  0  0  0  0  0
  153.8062  141.8509  160.6645 C   0  0  0  0  0  0  0  0  0  0  0  0
  151.2433  137.8310  153.4873 H   0  0  0  0  0  0  0  0  0  0  0  0
  151.8402  137.5211  155.1209 H   0  0  0  0  0  0  0  0  0  0  0  0
  152.7956  138.5033  153.9974 H   0  0  0  0  0  0  0  0  0  0  0  0
  150.2459  139.7235  154.3135 H   0  0  0  0  0  0  0  0  0  0  0  0
  150.4201  141.9706  155.2030 H   0  0  0  0  0  0  0  0  0  0  0  0
  149.7020  141.1347  156.5635 H   0  0  0  0  0  0  0  0  0  0  0  0
  151.4558  143.3332  156.6807 H   0  0  0  0  0  0  0  0  0  0  0  0
  153.4876  143.4119  158.4118 H   0  0  0  0  0  0  0  0  0  0  0  0
  151.5138  144.8719  157.9798 H   0  0  0  0  0  0  0  0  0  0  0  0
  152.3524  145.3406  159.4515 H   0  0  0  0  0  0  0  0  0  0  0  0
  150.8392  144.4482  159.5516 H   0  0  0  0  0  0  0  0  0  0  0  0
  151.7317  144.1312  161.5349 H   0  0  0  0  0  0  0  0  0  0  0  0
  152.9811  142.7552  163.5857 H   0  0  0  0  0  0  0  0  0  0  0  0
  154.3533  141.2579  159.9462 H   0  0  0  0  0  0  0  0  0  0  0  0
  1  2  1  0  0  0  0
  1 16  1  0  0  0  0
  1 17  1  0  0  0  0
  1 18  1  0  0  0  0
  2  3  1  0  0  0  0
  2 19  1  0  0  0  0
  3  4  2  0  0  0  0
  3  5  1  0  0  0  0
  5  6  1  0  0  0  0
  5 20  1  0  0  0  0
  5 21  1  0  0  0  0
  6  7  1  0  0  0  0
  6 22  1  0  0  0  0
  7  8  2  0  0  0  0
  7  9  1  0  0  0  0
  9 10  1  0  0  0  0
  9 11  1  0  0  0  0
  9 23  1  0  0  0  0
 10 24  1  0  0  0  0
 10 25  1  0  0  0  0
 10 26  1  0  0  0  0
 11 15  1  0  0  0  0
 11 12  1  0  0  0  0
 12 13  2  0  0  0  0
 12 27  1  0  0  0  0
 13 14  1  0  0  0  0
 13 28  1  0  0  0  0
 14 15  2  0  0  0  0
 15 29  1  0  0  0  0
M  END
> <s_m_source_file>
AV-unprocessed.smi

> <i_m_source_file_index>
3111

> <i_lp_mmshare_version>
43012

> <i_f3d_flags>
0

> <s_epik_input>
W0NIM11bTkhdQyg9TylbQ0gyXVtOSF1DKD1PKVtDQEhdKFtDSDNdKW4xW2NIXVtjSF1uW2NIXTE=

> <s_epik_cmdline>
J2VwaWtfcHl0aG9uJywgJy1waCcsICc3LjAnLCAnLXRuJywgJzgnLCAnLW1hJywgJzIwMCcsICctbWV0YWxfYmluZGluZycsICctaW1hZScsICc8aW5maWxlLm1hZT4nLCAnLW9tYWUnLCAnPG91dGZpbGUubWFlPic=

> <r_lp_tautomer_probability>
1

> <r_epik_Ionization_Penalty>
0.278299

> <r_epik_Ionization_Penalty_Charging>
0.278299

> <r_epik_Ionization_Penalty_Neutral>
1.78617e-07

> <r_epik_State_Penalty>
0.270759

> <r_epik_Charging_Adjusted_Penalty>
0.549058

> <i_epik_Tot_Q>
0

> <i_epik_Tot_abs_Q>
0

> <r_epik_Metal_State_Penalty>
0.183212

> <b_epik_Metal_Only>
0

> <s_lp_Force_Field>
OPLS_2005

> <r_lp_Energy>
4.73549

> <b_lp_Chiralities_Consistent>
1

> <s_lp_Variant>
AV-unprocessed.smi:3111-2

> <Gold.Version>
5.8.1

> <Gold.Id.Protein>
6NUR|6NUR_protein|mol2

> <Gold.PLP.Fitness>
42.1254

> <Gold.PLP.PLP>
-39.9913

> <Gold.PLP.part.hbond>
-1.6444

> <Gold.PLP.part.metal>
0.0000

> <Gold.PLP.part.buried>
-4.9908

> <Gold.PLP.part.nonpolar>
-33.1303

> <Gold.PLP.part.repulsive>
0.1810

> <Gold.PLP.ligand.clash>
0.0000

> <Gold.PLP.ligand.torsion>
0.4735

> <Gold.PLP.Chemscore.Hbond>
1.0000

> <Gold.PLP.Chemscore.CHOScore>
0.0000

> <Gold.PLP.Chemscore.Metal>
0.0000

> <Gold.Chemscore.Hbonds>
donor molecule, donor type, donor heavy atom, donor atom, acceptor molecule, acceptor atom, score
      P1  H  7997  8010       L1     4  1.00

> <Gold.PLP.Chemscore.Internal.Correction>
0.0812

> <Gold.Rescore>
     Score         DG    S(hbond)    S(metal)    S(lipo)     H(rot)  DE(clash)    DE(int)     intcor
      8.99     -10.35       0.99        0.00      63.02       2.27       0.07       1.29       ----

> <Gold.Chemscore.Fitness>
8.9881

> <Gold.Chemscore.DG>
-10.3503

> <Gold.Chemscore.ZeroCoef>
-5.4800

> <Gold.Chemscore.Hbond>
0.9913

> <Gold.Chemscore.Metal>
0.0000

> <Gold.Chemscore.Lipo>
63.0168

> <Gold.Chemscore.Internal_Hbond>
0.0000

> <Gold.Chemscore.DEClash>
0.0692

> <Gold.Chemscore.DEInternal>
1.2930

> <Gold.Chemscore.Rot>
2.2709

> <Gold.Chemscore.Internal.Correction>
   9.000000E+99

> <Gold.Chemscore.Hbonds>
donor molecule, donor type, donor heavy atom, donor atom, acceptor molecule, acceptor atom, score
      P1  H  7997  8010       L1     4  1.00

> <Gold.Chemscore.Hbond.Weighted>
-3.3108

> <Gold.Chemscore.Metal.Weighted>
-0.0000

> <Gold.Chemscore.Lipo.Weighted>
-7.3730

> <Gold.Chemscore.Internal_Hbond.Weighted>
0.0000

> <Gold.Chemscore.DEClash.Weighted>
0.0692

> <Gold.Chemscore.DEInternal.Weighted>
1.2930

> <Gold.Chemscore.Rot.Weighted>
5.8135

> <Gold.Chemscore.Internal.Correction.Weighted>
   9.000000E+99

> <Gold.Protein.RotatedTorsions>
[ 6907 6896 6895 6894 ] final -114.98 input  -60.11 | X-H torsion
[ 7974 7965 7964 7962 ] final  177.75 input  175.53 | X-H torsion
[ 8008 7997 7996 7995 ] final   71.73 input   59.86 | X-H torsion
[ 10167 10162 10161 10158 ] final  109.24 input  -65.29 | X-H torsion
[ 10718 10713 10712 10709 ] final   10.33 input   66.30 | X-H torsion
[ 10763 10752 10751 10750 ] final   15.43 input  -60.55 | X-H torsion
[ 11005 11000 10999 10996 ] final  105.53 input  -57.11 | X-H torsion

> <Gold.Protein.ActiveResidues>
 VAL166  LYS551  ARG553  GLY616  TRP617  ASP618  TYR619  PRO620  LYS621  CYS622 
 ASP623  PHE694  ASN695  SER759  ASP760  ASP761  ALA762  ILE779  LEU786  VAL792 
 PHE793  MET794  SER795  GLU796  ALA797  LYS798  CYS799  TRP800  GLU811  SER814 

> <Gold.Protein.RotatedAtoms>
  150.7943  133.8724  159.3262 H   0  0  0  0  0  0  0  0  0  0  0  0  # atno 6907 bound_to 6896
  151.6554  135.0994  160.0178 H   0  0  0  0  0  0  0  0  0  0  0  0  # atno 6908 bound_to 6896
  152.4022  133.6795  159.6361 H   0  0  0  0  0  0  0  0  0  0  0  0  # atno 6909 bound_to 6896
  144.7165  140.0293  143.6439 H   0  0  0  0  0  0  0  0  0  0  0  0  # atno 7974 bound_to 7965
  155.7582  140.3487  155.5184 H   0  0  0  0  0  0  0  0  0  0  0  0  # atno 8008 bound_to 7997
  155.8939  140.1022  157.1420 H   0  0  0  0  0  0  0  0  0  0  0  0  # atno 8009 bound_to 7997
  154.4036  140.1299  156.4338 H   0  0  0  0  0  0  0  0  0  0  0  0  # atno 8010 bound_to 7997
  139.6782  144.7120  151.1563 H   0  0  0  0  0  0  0  0  0  0  0  0  # atno 10167 bound_to 10162
  156.9794  130.6000  149.5675 H   0  0  0  0  0  0  0  0  0  0  0  0  # atno 10718 bound_to 10713
  153.1526  135.6781  153.8860 H   0  0  0  0  0  0  0  0  0  0  0  0  # atno 10763 bound_to 10752
  153.8281  135.3121  155.3417 H   0  0  0  0  0  0  0  0  0  0  0  0  # atno 10764 bound_to 10752
  154.7874  135.4854  154.0062 H   0  0  0  0  0  0  0  0  0  0  0  0  # atno 10765 bound_to 10752
  139.8803  134.9339  156.5528 H   0  0  0  0  0  0  0  0  0  0  0  0  # atno 11005 bound_to 11000
  146.0115  139.3174  143.0867 LP  0  0  0  0  0  0  0  0  0  0  0  0  # atno 17320 bound_to 7965
  145.8676  140.9439  143.0667 LP  0  0  0  0  0  0  0  0  0  0  0  0  # atno 17321 bound_to 7965
  140.7643  143.5739  150.8966 LP  0  0  0  0  0  0  0  0  0  0  0  0  # atno 17342 bound_to 10162
  139.9409  143.6383  152.3054 LP  0  0  0  0  0  0  0  0  0  0  0  0  # atno 17343 bound_to 10162
  156.0250  130.5344  150.8383 LP  0  0  0  0  0  0  0  0  0  0  0  0  # atno 17370 bound_to 10713
  157.5537  131.0944  150.9659 LP  0  0  0  0  0  0  0  0  0  0  0  0  # atno 17371 bound_to 10713
  140.8227  133.8341  155.8911 LP  0  0  0  0  0  0  0  0  0  0  0  0  # atno 17394 bound_to 11000
  140.9403  134.1909  157.4802 LP  0  0  0  0  0  0  0  0  0  0  0  0  # atno 17395 bound_to 11000

$$$$
