#       Name:                AV-unprocessed.smi:2179
#       Creating user name   scv26
#       Creation time:       Fri Mar 27 12:05:19 2020


#       File generated by GOLD software.
#

@<TRIPOS>MOLECULE
AV-unprocessed.smi:2179
    55    56     1
SMALL
NO_CHARGES


@<TRIPOS>ATOM
      1 ****        -8.6348   2.3975   1.3972 C.3            1 S1                 0.0000
      2 ****        -7.1128   2.3020   1.4187 C.2            1 S1                 0.0000
      3 ****        -6.4959   2.5555   2.4527 O.2            1 S1                 0.0000
      4 ****        -6.5207   1.9300   0.2738 N.am           1 S1                 0.0000
      5 ****        -5.0830   1.7750   0.0883 C.3            1 S1                 0.0000
      6 ****        -4.5849   0.4261   0.6378 C.3            1 S1                 0.0000
      7 ****        -3.1698   0.2242   0.3529 N.am           1 S1                 0.0000
      8 ****        -2.1594   0.7583   1.0582 C.2            1 S1                 0.0000
      9 ****        -2.3235   1.4653   2.0526 O.2            1 S1                 0.0000
     10 ****        -0.7796   0.3878   0.5973 C.ar           1 S1                 0.0000
     11 ****        -0.4862   0.1640  -0.7654 C.ar           1 S1                 0.0000
     12 ****         0.8332  -0.1554  -1.1394 C.ar           1 S1                 0.0000
     13 ****         1.8337  -0.2394  -0.1423 C.ar           1 S1                 0.0000
     14 ****         3.1636  -0.5589  -0.4935 N.3            1 S1                 0.0000
     15 ****         3.3351  -1.7606  -1.3056 C.3            1 S1                 0.0000
     16 ****         4.7614  -1.8197  -1.8846 C.3            1 S1                 0.0000
     17 ****         5.0210  -3.1260  -2.6420 C.3            1 S1                 0.0000
     18 ****         5.7043  -1.7254  -0.8205 O.3            1 S1                 0.0000
     19 ****         5.5989  -0.4962  -0.1076 C.3            1 S1                 0.0000
     20 ****         6.7107  -0.4537   0.9458 C.3            1 S1                 0.0000
     21 ****         4.1988  -0.3993   0.5258 C.3            1 S1                 0.0000
     22 ****         1.5521  -0.0073   1.1634 N.ar           1 S1                 0.0000
     23 ****         0.2864   0.2997   1.5175 C.ar           1 S1                 0.0000
     24 ****        -9.0750   1.4383   1.6708 H              1 S1                 0.0000
     25 ****        -8.9987   2.6754   0.4073 H              1 S1                 0.0000
     26 ****        -8.9807   3.1482   2.1085 H              1 S1                 0.0000
     27 ****        -7.1080   1.7429  -0.5261 H              1 S1                 0.0000
     28 ****        -4.8748   1.8406  -0.9800 H              1 S1                 0.0000
     29 ****        -4.5538   2.6056   0.5591 H              1 S1                 0.0000
     30 ****        -4.7640   0.3538   1.7122 H              1 S1                 0.0000
     31 ****        -5.1394  -0.3913   0.1757 H              1 S1                 0.0000
     32 ****        -2.9414  -0.3660  -0.4337 H              1 S1                 0.0000
     33 ****        -1.2517   0.2410  -1.5237 H              1 S1                 0.0000
     34 ****         1.0633  -0.3130  -2.1824 H              1 S1                 0.0000
     35 ****         3.1473  -2.6342  -0.6799 H              1 S1                 0.0000
     36 ****         2.6185  -1.7989  -2.1248 H              1 S1                 0.0000
     37 ****         4.9130  -0.9852  -2.5720 H              1 S1                 0.0000
     38 ****         4.3299  -3.2396  -3.4777 H              1 S1                 0.0000
     39 ****         4.9029  -3.9913  -1.9891 H              1 S1                 0.0000
     40 ****         6.0344  -3.1480  -3.0435 H              1 S1                 0.0000
     41 ****         5.7467   0.3338  -0.8009 H              1 S1                 0.0000
     42 ****         6.6779   0.4765   1.5135 H              1 S1                 0.0000
     43 ****         7.6931  -0.5230   0.4782 H              1 S1                 0.0000
     44 ****         6.6180  -1.2802   1.6510 H              1 S1                 0.0000
     45 ****         4.0934   0.5671   1.0208 H              1 S1                 0.0000
     46 ****         4.0749  -1.1718   1.2864 H              1 S1                 0.0000
     47 ****         0.1260   0.4747   2.5715 H              1 S1                 0.0000
     48 ****        -6.9925   2.8239   3.2781 LP             1 S1                 0.0000
     49 ****        -5.4980   2.4931   2.4676 LP             1 S1                 0.0000
     50 ****        -3.2482   1.6688   2.3743 LP             1 S1                 0.0000
     51 ****        -1.5321   1.8361   2.5385 LP             1 S1                 0.0000
     52 ****         3.3464   0.2087  -1.1079 LP             1 S1                 0.0000
     53 ****         6.6262  -1.7977  -1.2012 LP             1 S1                 0.0000
     54 ****         5.5464  -2.4802  -0.1839 LP             1 S1                 0.0000
     55 ****         2.2724  -0.0628   1.8547 LP             1 S1                 0.0000
@<TRIPOS>BOND
    1    1    2 1     
    2    1   24 1     
    3    1   25 1     
    4    1   26 1     
    5    2    3 2     
    6    2    4 am    
    7    4    5 1     
    8    4   27 1     
    9    5    6 1     
   10    5   28 1     
   11    5   29 1     
   12    6    7 1     
   13    6   30 1     
   14    6   31 1     
   15    7    8 am    
   16    7   32 1     
   17    8    9 2     
   18    8   10 1     
   19   10   23 ar    
   20   10   11 ar    
   21   11   12 ar    
   22   11   33 1     
   23   12   13 ar    
   24   12   34 1     
   25   13   14 1     
   26   13   22 ar    
   27   14   21 1     
   28   14   15 1     
   29   15   16 1     
   30   15   35 1     
   31   15   36 1     
   32   16   17 1     
   33   16   18 1     
   34   16   37 1     
   35   17   38 1     
   36   17   39 1     
   37   17   40 1     
   38   18   19 1     
   39   19   20 1     
   40   19   21 1     
   41   19   41 1     
   42   20   42 1     
   43   20   43 1     
   44   20   44 1     
   45   21   45 1     
   46   21   46 1     
   47   22   23 ar    
   48   23   47 1     
   49    3   48 1     
   50    3   49 1     
   51    9   50 1     
   52    9   51 1     
   53   14   52 1     
   54   18   53 1     
   55   18   54 1     
   56   22   55 1     
@<TRIPOS>SUBSTRUCTURE
      1 S1             1
@<TRIPOS>SET
LONE_PAIRS      STATIC     ATOMS    <user>   **** ""
8 48 49 50 51 52 53 54 55
DONOR_HYDROGENS      STATIC     ATOMS    <user>   **** ""
2 27 32
ATOM$BLUE        STATIC     ATOMS    COLORGROUP SYSTEM
8 48 49 50 51 52 53 54 55
ATOM$RED        STATIC     ATOMS    COLORGROUP SYSTEM
2 27 32
