AV-unprocessed.smi:3231|AV-procd|sdf|12336|dock8
  -GOLD-   2272018193D 1   1.00000     0.00000
 Structure written by MMmdl.
 42 43  0  0  0  0  0  0  0  0  3 V2000
  145.5275  138.8149  153.7557 O   0  0  0  0  0  0  0  0  0  0  0  0
  146.7164  138.2939  153.1961 C   0  0  1  0  0  0  0  0  0  0  0  0
  146.6283  138.4950  151.6714 C   0  0  0  0  0  0  0  0  0  0  0  0
  146.5076  137.2095  150.9539 N   0  3  0  0  0  0  0  0  0  0  0  0
  145.5431  136.2731  151.5628 C   0  0  0  0  0  0  0  0  0  0  0  0
  144.7573  135.5132  150.4847 C   0  0  0  0  0  0  0  0  0  0  0  0
  144.7552  134.0842  150.7296 N   0  0  0  0  0  0  0  0  0  0  0  0
  143.6757  133.2358  150.8596 C   0  0  0  0  0  0  0  0  0  0  0  0
  144.1699  131.9830  151.0843 C   0  0  0  0  0  0  0  0  0  0  0  0
  145.5806  132.1689  151.0774 C   0  0  0  0  0  0  0  0  0  0  0  0
  145.9275  133.4284  150.8655 N   0  0  0  0  0  0  0  0  0  0  0  0
  147.9223  139.0322  153.8197 C   0  0  0  0  0  0  0  0  0  0  0  0
  149.0454  138.1285  154.1829 N   0  3  0  0  0  0  0  0  0  0  0  0
  150.3031  138.8416  154.5202 C   0  0  0  0  0  0  0  0  0  0  0  0
  151.4181  137.8380  154.8623 C   0  0  0  0  0  0  0  0  0  0  0  0
  150.9958  137.0008  155.9310 O   0  0  0  0  0  0  0  0  0  0  0  0
  149.8458  136.2397  155.5861 C   0  0  0  0  0  0  0  0  0  0  0  0
  148.6775  137.1889  155.2699 C   0  0  0  0  0  0  0  0  0  0  0  0
  145.1261  139.4055  153.1368 H   0  0  0  0  0  0  0  0  0  0  0  0
  146.7487  137.2256  153.4083 H   0  0  0  0  0  0  0  0  0  0  0  0
  145.7516  139.0968  151.4265 H   0  0  0  0  0  0  0  0  0  0  0  0
  147.5000  139.0422  151.3086 H   0  0  0  0  0  0  0  0  0  0  0  0
  146.2126  137.3933  150.0058 H   0  0  0  0  0  0  0  0  0  0  0  0
  146.0768  135.5680  152.2017 H   0  0  0  0  0  0  0  0  0  0  0  0
  144.8592  136.8338  152.2014 H   0  0  0  0  0  0  0  0  0  0  0  0
  143.7229  135.8587  150.4482 H   0  0  0  0  0  0  0  0  0  0  0  0
  145.1884  135.6957  149.4994 H   0  0  0  0  0  0  0  0  0  0  0  0
  142.6576  133.5884  150.7821 H   0  0  0  0  0  0  0  0  0  0  0  0
  143.6092  131.0720  151.2329 H   0  0  0  0  0  0  0  0  0  0  0  0
  146.3571  131.4316  151.2193 H   0  0  0  0  0  0  0  0  0  0  0  0
  148.2955  139.8004  153.1409 H   0  0  0  0  0  0  0  0  0  0  0  0
  147.5801  139.5594  154.7122 H   0  0  0  0  0  0  0  0  0  0  0  0
  150.6280  139.4639  153.6875 H   0  0  0  0  0  0  0  0  0  0  0  0
  150.1320  139.5065  155.3683 H   0  0  0  0  0  0  0  0  0  0  0  0
  151.6815  137.2344  153.9921 H   0  0  0  0  0  0  0  0  0  0  0  0
  152.3207  138.3690  155.1656 H   0  0  0  0  0  0  0  0  0  0  0  0
  150.0637  135.5907  154.7364 H   0  0  0  0  0  0  0  0  0  0  0  0
  149.5871  135.5916  156.4235 H   0  0  0  0  0  0  0  0  0  0  0  0
  148.4020  137.7515  156.1633 H   0  0  0  0  0  0  0  0  0  0  0  0
  147.8042  136.6052  154.9762 H   0  0  0  0  0  0  0  0  0  0  0  0
  147.4148  136.7656  150.9321 H   0  0  0  0  0  0  0  0  0  0  0  0
  149.2347  137.5566  153.3721 H   0  0  0  0  0  0  0  0  0  0  0  0
  1  2  1  0  0  0  0
  1 19  1  0  0  0  0
  2  3  1  0  0  0  0
  2 12  1  0  0  0  0
  2 20  1  0  0  0  0
  3  4  1  0  0  0  0
  3 21  1  0  0  0  0
  3 22  1  0  0  0  0
  4  5  1  0  0  0  0
  4 23  1  0  0  0  0
  4 41  1  0  0  0  0
  5  6  1  0  0  0  0
  5 24  1  0  0  0  0
  5 25  1  0  0  0  0
  6  7  1  0  0  0  0
  6 26  1  0  0  0  0
  6 27  1  0  0  0  0
  7 11  1  0  0  0  0
  7  8  1  0  0  0  0
  8  9  2  0  0  0  0
  8 28  1  0  0  0  0
  9 10  1  0  0  0  0
  9 29  1  0  0  0  0
 10 11  2  0  0  0  0
 10 30  1  0  0  0  0
 12 13  1  0  0  0  0
 12 31  1  0  0  0  0
 12 32  1  0  0  0  0
 13 18  1  0  0  0  0
 13 14  1  0  0  0  0
 13 42  1  0  0  0  0
 14 15  1  0  0  0  0
 14 33  1  0  0  0  0
 14 34  1  0  0  0  0
 15 16  1  0  0  0  0
 15 35  1  0  0  0  0
 15 36  1  0  0  0  0
 16 17  1  0  0  0  0
 17 18  1  0  0  0  0
 17 37  1  0  0  0  0
 17 38  1  0  0  0  0
 18 39  1  0  0  0  0
 18 40  1  0  0  0  0
M  CHG  1   4   1
M  CHG  1  13   1
M  END
> <s_m_source_file>
AV-unprocessed.smi

> <i_m_source_file_index>
3231

> <i_lp_mmshare_version>
43012

> <i_f3d_flags>
0

> <s_epik_input>
W0NIMl0xW0NIMl1PW0NIMl1bQ0gyXU4xW0NIMl1bQ0BIXShbT0hdKVtDSDJdW05IXVtDSDJdW0NIMl1uMltjSF1bY0hdW2NIXW4y

> <s_epik_cmdline>
J2VwaWtfcHl0aG9uJywgJy1waCcsICc3LjAnLCAnLXRuJywgJzgnLCAnLW1hJywgJzIwMCcsICctbWV0YWxfYmluZGluZycsICctaW1hZScsICc8aW5maWxlLm1hZT4nLCAnLW9tYWUnLCAnPG91dGZpbGUubWFlPic=

> <r_lp_tautomer_probability>
1

> <r_epik_Ionization_Penalty>
2.09881

> <r_epik_Ionization_Penalty_Charging>
2.09628

> <r_epik_Ionization_Penalty_Neutral>
0.0025303

> <r_epik_State_Penalty>
1.58657

> <r_epik_Charging_Adjusted_Penalty>
3.68285

> <i_epik_Tot_Q>
2

> <i_epik_Tot_abs_Q>
2

> <r_epik_Metal_State_Penalty>
1.58685

> <b_epik_Metal_Only>
0

> <s_lp_Force_Field>
OPLS_2005

> <r_lp_Energy>
27.3068

> <b_lp_Chiralities_Consistent>
1

> <s_lp_Variant>
AV-unprocessed.smi:3231-6

> <Gold.Version>
5.8.1

> <Gold.Id.Protein>
6NUR|6NUR_protein|mol2

> <Gold.PLP.Fitness>
53.3251

> <Gold.PLP.PLP>
-36.6812

> <Gold.PLP.part.hbond>
-4.0000

> <Gold.PLP.part.metal>
0.0000

> <Gold.PLP.part.buried>
-5.1962

> <Gold.PLP.part.nonpolar>
-29.1399

> <Gold.PLP.part.repulsive>
0.8377

> <Gold.PLP.ligand.clash>
0.0000

> <Gold.PLP.ligand.torsion>
2.0766

> <Gold.PLP.Chemscore.Hbond>
4.8417

> <Gold.PLP.Chemscore.CHOScore>
2.0000

> <Gold.PLP.Chemscore.Metal>
0.0000

> <Gold.Chemscore.Hbonds>
donor molecule, donor type, donor heavy atom, donor atom, acceptor molecule, acceptor atom, score
      L1  H     1    19       P1 10175  1.00
      L1  H     4    41       P1  7948  2.00
      L1  H    13    42       P1  7948  2.00
      L1  C     8    28       P1 10186  1.00
      L1  C    10    30       P1 10747  0.22

> <Gold.PLP.Chemscore.Internal.Correction>
0.2720

> <Gold.Rescore>
     Score         DG    S(hbond)    S(metal)    S(lipo)     H(rot)  DE(clash)    DE(int)     intcor
     14.82     -17.01       2.81        0.00      82.66       2.94       0.08       2.11       ----

> <Gold.Chemscore.Fitness>
14.8221

> <Gold.Chemscore.DG>
-17.0139

> <Gold.Chemscore.ZeroCoef>
-5.4800

> <Gold.Chemscore.Hbond>
2.8138

> <Gold.Chemscore.Metal>
0.0000

> <Gold.Chemscore.Lipo>
82.6646

> <Gold.Chemscore.Internal_Hbond>
0.0000

> <Gold.Chemscore.DEClash>
0.0845

> <Gold.Chemscore.DEInternal>
2.1073

> <Gold.Chemscore.Rot>
2.9437

> <Gold.Chemscore.Internal.Correction>
   9.000000E+99

> <Gold.Chemscore.Hbonds>
donor molecule, donor type, donor heavy atom, donor atom, acceptor molecule, acceptor atom, score
      L1  H     1    19       P1 10175  0.97
      L1  H     4    41       P1  7948  0.93
      L1  H    13    42       P1  7948  0.95

> <Gold.Chemscore.Hbond.Weighted>
-9.3980

> <Gold.Chemscore.Metal.Weighted>
-0.0000

> <Gold.Chemscore.Lipo.Weighted>
-9.6718

> <Gold.Chemscore.Internal_Hbond.Weighted>
0.0000

> <Gold.Chemscore.DEClash.Weighted>
0.0845

> <Gold.Chemscore.DEInternal.Weighted>
2.1073

> <Gold.Chemscore.Rot.Weighted>
7.5359

> <Gold.Chemscore.Internal.Correction.Weighted>
   9.000000E+99

> <Gold.Protein.RotatedTorsions>
[ 6907 6896 6895 6894 ] final   37.29 input  -60.11 | X-H torsion
[ 7974 7965 7964 7962 ] final  -48.10 input  175.53 | X-H torsion
[ 8008 7997 7996 7995 ] final  116.39 input   59.86 | X-H torsion
[ 10167 10162 10161 10158 ] final   13.02 input  -65.29 | X-H torsion
[ 10718 10713 10712 10709 ] final  132.92 input   66.30 | X-H torsion
[ 10763 10752 10751 10750 ] final  125.02 input  -60.55 | X-H torsion
[ 11005 11000 10999 10996 ] final -151.55 input  -57.11 | X-H torsion

> <Gold.Protein.ActiveResidues>
 VAL166  LYS551  ARG553  GLY616  TRP617  ASP618  TYR619  PRO620  LYS621  CYS622 
 ASP623  PHE694  ASN695  SER759  ASP760  ASP761  ALA762  ILE779  LEU786  VAL792 
 PHE793  MET794  SER795  GLU796  ALA797  LYS798  CYS799  TRP800  GLU811  SER814 

> <Gold.Protein.RotatedAtoms>
  152.1411  134.9061  160.0553 H   0  0  0  0  0  0  0  0  0  0  0  0  # atno 6907 bound_to 6896
  152.0129  133.3863  159.4235 H   0  0  0  0  0  0  0  0  0  0  0  0  # atno 6908 bound_to 6896
  150.6865  134.3632  159.5003 H   0  0  0  0  0  0  0  0  0  0  0  0  # atno 6909 bound_to 6896
  145.9547  140.7538  142.9487 H   0  0  0  0  0  0  0  0  0  0  0  0  # atno 7974 bound_to 7965
  156.2436  140.2918  156.0516 H   0  0  0  0  0  0  0  0  0  0  0  0  # atno 8008 bound_to 7997
  155.1875  140.0406  157.2911 H   0  0  0  0  0  0  0  0  0  0  0  0  # atno 8009 bound_to 7997
  154.6217  140.2477  155.7548 H   0  0  0  0  0  0  0  0  0  0  0  0  # atno 8010 bound_to 7997
  140.6030  143.8566  150.6984 H   0  0  0  0  0  0  0  0  0  0  0  0  # atno 10167 bound_to 10162
  157.4824  131.1086  150.9664 H   0  0  0  0  0  0  0  0  0  0  0  0  # atno 10718 bound_to 10713
  153.6706  135.3331  155.3152 H   0  0  0  0  0  0  0  0  0  0  0  0  # atno 10763 bound_to 10752
  154.8492  135.4385  154.1709 H   0  0  0  0  0  0  0  0  0  0  0  0  # atno 10764 bound_to 10752
  153.2699  135.6999  153.7567 H   0  0  0  0  0  0  0  0  0  0  0  0  # atno 10765 bound_to 10752
  140.7283  134.3649  157.5171 H   0  0  0  0  0  0  0  0  0  0  0  0  # atno 11005 bound_to 11000
  144.6802  140.2492  143.7334 LP  0  0  0  0  0  0  0  0  0  0  0  0  # atno 17320 bound_to 7965
  145.8123  139.2008  143.1986 LP  0  0  0  0  0  0  0  0  0  0  0  0  # atno 17321 bound_to 7965
  140.2117  143.3878  152.1713 LP  0  0  0  0  0  0  0  0  0  0  0  0  # atno 17342 bound_to 10162
  139.5304  144.7152  151.5076 LP  0  0  0  0  0  0  0  0  0  0  0  0  # atno 17343 bound_to 10162
  157.0393  130.5742  149.5354 LP  0  0  0  0  0  0  0  0  0  0  0  0  # atno 17370 bound_to 10713
  156.0129  130.5221  150.8044 LP  0  0  0  0  0  0  0  0  0  0  0  0  # atno 17371 bound_to 10713
  139.8832  134.9001  156.2782 LP  0  0  0  0  0  0  0  0  0  0  0  0  # atno 17394 bound_to 11000
  140.9943  133.7190  156.0861 LP  0  0  0  0  0  0  0  0  0  0  0  0  # atno 17395 bound_to 11000

$$$$
