AV-unprocessed.smi:54|AV-procd|sdf|542|dock8
  -GOLD-   2262016433D 1   1.00000     0.00000
 Structure written by MMmdl.
 44 46  0  0  0  0  0  0  0  0  1 V2000
  150.8807  134.2908  151.9014 C   0  0  0  0  0  0  0  0  0  0  0  0
  151.8874  134.4657  153.0498 C   0  0  0  0  0  0  0  0  0  0  0  0
  151.5349  133.5632  154.2433 C   0  0  0  0  0  0  0  0  0  0  0  0
  151.9588  135.9348  153.4818 C   0  0  0  0  0  0  0  0  0  0  0  0
  152.9518  136.4040  154.0395 O   0  0  0  0  0  0  0  0  0  0  0  0
  150.7736  136.7250  153.1988 N   0  0  0  0  0  0  0  0  0  0  0  0
  150.5686  138.0301  153.4922 C   0  0  0  0  0  0  0  0  0  0  0  0
  149.3611  138.5646  153.6072 N   0  0  0  0  0  0  0  0  0  0  0  0
  149.3554  139.8997  153.8996 C   0  0  0  0  0  0  0  0  0  0  0  0
  150.4584  140.7044  154.0920 C   0  0  0  0  0  0  0  0  0  0  0  0
  150.0571  142.0045  154.3767 N   0  0  0  0  0  0  0  0  0  0  0  0
  148.7544  141.9481  154.3494 C   0  0  0  0  0  0  0  0  0  0  0  0
  148.2466  140.7044  154.0502 N   0  0  0  0  0  0  0  0  0  0  0  0
  146.8224  140.2496  153.9473 C   0  0  1  0  0  0  0  0  0  0  0  0
  146.6146  139.7550  152.6584 O   0  0  0  0  0  0  0  0  0  0  0  0
  146.7848  138.3418  152.6619 C   0  0  2  0  0  0  0  0  0  0  0  0
  146.1823  137.7024  151.3990 C   0  0  0  0  0  0  0  0  0  0  0  0
  146.2798  138.5994  150.3136 O   0  0  0  0  0  0  0  0  0  0  0  0
  146.1212  137.9528  153.9884 C   0  0  2  0  0  0  0  0  0  0  0  0
  144.7114  137.8946  153.8402 O   0  0  0  0  0  0  0  0  0  0  0  0
  146.5703  139.0796  154.9191 C   0  0  2  0  0  0  0  0  0  0  0  0
  145.6175  139.3768  155.9229 O   0  0  0  0  0  0  0  0  0  0  0  0
  151.7724  140.1382  153.9861 C   0  0  0  0  0  0  0  0  0  0  0  0
  152.8573  140.6980  154.1286 O   0  0  0  0  0  0  0  0  0  0  0  0
  151.7356  138.7717  153.6776 N   0  0  0  0  0  0  0  0  0  0  0  0
  146.2276  141.1445  154.1354 H   0  0  0  0  0  0  0  0  0  0  0  0
  147.8491  138.1057  152.7285 H   0  0  0  0  0  0  0  0  0  0  0  0
  146.4652  136.9803  154.3420 H   0  0  0  0  0  0  0  0  0  0  0  0
  147.5082  138.7952  155.3991 H   0  0  0  0  0  0  0  0  0  0  0  0
  151.1303  134.9313  151.0544 H   0  0  0  0  0  0  0  0  0  0  0  0
  149.8653  134.5355  152.2161 H   0  0  0  0  0  0  0  0  0  0  0  0
  150.8757  133.2617  151.5416 H   0  0  0  0  0  0  0  0  0  0  0  0
  152.8718  134.1699  152.6842 H   0  0  0  0  0  0  0  0  0  0  0  0
  152.2420  133.6944  155.0634 H   0  0  0  0  0  0  0  0  0  0  0  0
  151.5600  132.5118  153.9562 H   0  0  0  0  0  0  0  0  0  0  0  0
  150.5360  133.7756  154.6270 H   0  0  0  0  0  0  0  0  0  0  0  0
  150.0073  136.2321  152.7648 H   0  0  0  0  0  0  0  0  0  0  0  0
  148.1374  142.8130  154.5455 H   0  0  0  0  0  0  0  0  0  0  0  0
  146.7388  136.8037  151.1317 H   0  0  0  0  0  0  0  0  0  0  0  0
  145.1435  137.4095  151.5542 H   0  0  0  0  0  0  0  0  0  0  0  0
  145.4094  138.7645  149.9843 H   0  0  0  0  0  0  0  0  0  0  0  0
  144.4261  138.6853  153.4075 H   0  0  0  0  0  0  0  0  0  0  0  0
  145.5695  140.3164  156.0210 H   0  0  0  0  0  0  0  0  0  0  0  0
  152.6269  138.3076  153.5819 H   0  0  0  0  0  0  0  0  0  0  0  0
  1  2  1  0  0  0  0
  1 30  1  0  0  0  0
  1 31  1  0  0  0  0
  1 32  1  0  0  0  0
  2  3  1  0  0  0  0
  2  4  1  0  0  0  0
  2 33  1  0  0  0  0
  3 34  1  0  0  0  0
  3 35  1  0  0  0  0
  3 36  1  0  0  0  0
  4  5  2  0  0  0  0
  4  6  1  0  0  0  0
  6 37  1  0  0  0  0
  6  7  1  0  0  0  0
  7 25  1  0  0  0  0
  7  8  2  0  0  0  0
  8  9  1  0  0  0  0
  9 13  1  0  0  0  0
  9 10  2  0  0  0  0
 10 11  1  0  0  0  0
 10 23  1  0  0  0  0
 11 12  2  0  0  0  0
 12 13  1  0  0  0  0
 12 38  1  0  0  0  0
 13 14  1  0  0  0  0
 14 26  1  0  0  0  0
 14 21  1  0  0  0  0
 14 15  1  0  0  0  0
 15 16  1  0  0  0  0
 16 27  1  0  0  0  0
 16 17  1  0  0  0  0
 16 19  1  0  0  0  0
 17 18  1  0  0  0  0
 17 39  1  0  0  0  0
 17 40  1  0  0  0  0
 18 41  1  0  0  0  0
 19 28  1  0  0  0  0
 19 20  1  0  0  0  0
 19 21  1  0  0  0  0
 20 42  1  0  0  0  0
 21 29  1  0  0  0  0
 21 22  1  0  0  0  0
 22 43  1  0  0  0  0
 23 24  2  0  0  0  0
 23 25  1  0  0  0  0
 25 44  1  0  0  0  0
M  END
> <s_m_source_file>
AV-unprocessed.smi

> <i_m_source_file_index>
54

> <i_lp_mmshare_version>
43012

> <i_f3d_flags>
0

> <s_epik_input>
W0NIM11bQ0hdKFtDSDNdKUMoPU8pW05IXWMobjEpW25IXWMoPU8pYyhjMTIpbltjSF1uMltDQEBIXTNPW0NASF0oW0NIMl1bT0hdKVtDQEBIXShbT0hdKVtDQEhdM1tPSF0=

> <s_epik_cmdline>
J2VwaWtfcHl0aG9uJywgJy1waCcsICc3LjAnLCAnLXRuJywgJzgnLCAnLW1hJywgJzIwMCcsICctbWV0YWxfYmluZGluZycsICctaW1hZScsICc8aW5maWxlLm1hZT4nLCAnLW9tYWUnLCAnPG91dGZpbGUubWFlPic=

> <r_lp_tautomer_probability>
0.85571

> <r_epik_Ionization_Penalty>
0.0316551

> <r_epik_Ionization_Penalty_Charging>
0.0316043

> <r_epik_Ionization_Penalty_Neutral>
5.07097e-05

> <r_epik_State_Penalty>
3.15494e-07

> <r_epik_Charging_Adjusted_Penalty>
0.0316047

> <i_epik_Tot_Q>
0

> <i_epik_Tot_abs_Q>
0

> <r_epik_Metal_State_Penalty>
0.421206

> <b_epik_Metal_Only>
0

> <s_epik_Chemistry_Notes>
This compound contains an acetal/aminal-like group ( X-CH(R)-Y where X, Y are N, S, or O) that may be acid/base labile, releasing an aldehyde.

> <s_lp_Force_Field>
OPLS_2005

> <r_lp_Energy>
43.5631

> <b_lp_Chiralities_Consistent>
1

> <s_lp_Variant>
AV-unprocessed.smi:54-14

> <Gold.Version>
5.8.1

> <Gold.Id.Protein>
6NUR|6NUR_protein|mol2

> <Gold.PLP.Fitness>
50.6216

> <Gold.PLP.PLP>
-34.8123

> <Gold.PLP.part.hbond>
-7.1134

> <Gold.PLP.part.metal>
0.0000

> <Gold.PLP.part.buried>
-3.4231

> <Gold.PLP.part.nonpolar>
-26.5671

> <Gold.PLP.part.repulsive>
0.6880

> <Gold.PLP.ligand.clash>
0.0000

> <Gold.PLP.ligand.torsion>
1.1621

> <Gold.PLP.Chemscore.Hbond>
5.0296

> <Gold.PLP.Chemscore.CHOScore>
1.0000

> <Gold.PLP.Chemscore.Metal>
0.0000

> <Gold.Chemscore.Hbonds>
donor molecule, donor type, donor heavy atom, donor atom, acceptor molecule, acceptor atom, score
      L1  H    18    41       P1 10171  0.99
      L1  H    20    42       P1 10175  0.73
      P1  H  7954  7966       L1    18  0.35
      P1  H  8011  8017       L1    11  0.02
      L1  C    12    38       P1  8028  0.90

> <Gold.PLP.Chemscore.Internal.Correction>
0.0449

> <Gold.Rescore>
     Score         DG    S(hbond)    S(metal)    S(lipo)     H(rot)  DE(clash)    DE(int)     intcor
      8.26     -11.20       3.61        0.00      34.49       4.05       0.16       2.78       ----

> <Gold.Chemscore.Fitness>
8.2612

> <Gold.Chemscore.DG>
-11.2036

> <Gold.Chemscore.ZeroCoef>
-5.4800

> <Gold.Chemscore.Hbond>
3.6092

> <Gold.Chemscore.Metal>
0.0000

> <Gold.Chemscore.Lipo>
34.4890

> <Gold.Chemscore.Internal_Hbond>
0.0000

> <Gold.Chemscore.DEClash>
0.1618

> <Gold.Chemscore.DEInternal>
2.7807

> <Gold.Chemscore.Rot>
4.0493

> <Gold.Chemscore.Internal.Correction>
   9.000000E+99

> <Gold.Chemscore.Hbonds>
donor molecule, donor type, donor heavy atom, donor atom, acceptor molecule, acceptor atom, score
      L1  H    18    41       P1 10171  0.92
      L1  H    20    42       P1 10175  0.73
      P1  H  7954  7966       L1    18  0.02

> <Gold.Chemscore.Hbond.Weighted>
-12.0546

> <Gold.Chemscore.Metal.Weighted>
-0.0000

> <Gold.Chemscore.Lipo.Weighted>
-4.0352

> <Gold.Chemscore.Internal_Hbond.Weighted>
0.0000

> <Gold.Chemscore.DEClash.Weighted>
0.1618

> <Gold.Chemscore.DEInternal.Weighted>
2.7807

> <Gold.Chemscore.Rot.Weighted>
10.3662

> <Gold.Chemscore.Internal.Correction.Weighted>
   9.000000E+99

> <Gold.Protein.RotatedTorsions>
[ 6907 6896 6895 6894 ] final -104.73 input  -60.11 | X-H torsion
[ 7974 7965 7964 7962 ] final  103.19 input  175.53 | X-H torsion
[ 8008 7997 7996 7995 ] final -163.27 input   59.86 | X-H torsion
[ 10167 10162 10161 10158 ] final   71.74 input  -65.29 | X-H torsion
[ 10718 10713 10712 10709 ] final  -10.75 input   66.30 | X-H torsion
[ 10763 10752 10751 10750 ] final  -25.02 input  -60.55 | X-H torsion
[ 11005 11000 10999 10996 ] final   92.91 input  -57.11 | X-H torsion

> <Gold.Protein.ActiveResidues>
 VAL166  LYS551  ARG553  GLY616  TRP617  ASP618  TYR619  PRO620  LYS621  CYS622 
 ASP623  PHE694  ASN695  SER759  ASP760  ASP761  ALA762  ILE779  LEU786  VAL792 
 PHE793  MET794  SER795  GLU796  ALA797  LYS798  CYS799  TRP800  GLU811  SER814 

> <Gold.Protein.RotatedAtoms>
  150.7301  134.0234  159.3708 H   0  0  0  0  0  0  0  0  0  0  0  0  # atno 6907 bound_to 6896
  151.8199  135.0652  160.0433 H   0  0  0  0  0  0  0  0  0  0  0  0  # atno 6908 bound_to 6896
  152.3011  133.5620  159.5655 H   0  0  0  0  0  0  0  0  0  0  0  0  # atno 6909 bound_to 6896
  145.3492  139.2443  143.3567 H   0  0  0  0  0  0  0  0  0  0  0  0  # atno 7974 bound_to 7965
  155.8188  140.0916  157.1861 H   0  0  0  0  0  0  0  0  0  0  0  0  # atno 8008 bound_to 7997
  154.3979  140.1440  156.3535 H   0  0  0  0  0  0  0  0  0  0  0  0  # atno 8009 bound_to 7997
  155.8288  140.3443  155.5562 H   0  0  0  0  0  0  0  0  0  0  0  0  # atno 8010 bound_to 7997
  140.0428  144.5375  150.7421 H   0  0  0  0  0  0  0  0  0  0  0  0  # atno 10167 bound_to 10162
  156.6690  130.5004  149.6006 H   0  0  0  0  0  0  0  0  0  0  0  0  # atno 10718 bound_to 10713
  153.6931  135.6960  153.5084 H   0  0  0  0  0  0  0  0  0  0  0  0  # atno 10763 bound_to 10752
  153.2398  135.4309  155.0685 H   0  0  0  0  0  0  0  0  0  0  0  0  # atno 10764 bound_to 10752
  154.8367  135.3505  154.6472 H   0  0  0  0  0  0  0  0  0  0  0  0  # atno 10765 bound_to 10752
  139.8817  134.8760  156.3641 H   0  0  0  0  0  0  0  0  0  0  0  0  # atno 11005 bound_to 11000
  146.2975  140.4105  142.8716 LP  0  0  0  0  0  0  0  0  0  0  0  0  # atno 17320 bound_to 7965
  144.8730  140.7299  143.6034 LP  0  0  0  0  0  0  0  0  0  0  0  0  # atno 17321 bound_to 7965
  140.7252  143.2629  151.4144 LP  0  0  0  0  0  0  0  0  0  0  0  0  # atno 17342 bound_to 10162
  139.6003  144.1310  152.2190 LP  0  0  0  0  0  0  0  0  0  0  0  0  # atno 17343 bound_to 10162
  156.1953  130.6585  151.1107 LP  0  0  0  0  0  0  0  0  0  0  0  0  # atno 17370 bound_to 10713
  157.7084  131.0746  150.6588 LP  0  0  0  0  0  0  0  0  0  0  0  0  # atno 17371 bound_to 10713
  140.9509  133.7451  156.0271 LP  0  0  0  0  0  0  0  0  0  0  0  0  # atno 17394 bound_to 11000
  140.8107  134.3403  157.5412 LP  0  0  0  0  0  0  0  0  0  0  0  0  # atno 17395 bound_to 11000

$$$$
