AV-unprocessed.smi:3344|AV-procd|sdf|12898|dock8
  -GOLD-   2272019303D 1   1.00000     0.00000
 Structure written by MMmdl.
 43 44  0  0  0  0  0  0  0  0  2 V2000
  141.7936  139.6228  155.0948 C   0  0  0  0  0  0  0  0  0  0  0  0
  141.1192  138.9971  153.8571 C   0  0  1  0  0  0  0  0  0  0  0  0
  141.7631  137.6635  153.4461 C   0  0  0  0  0  0  0  0  0  0  0  0
  141.1417  136.6056  153.5527 O   0  0  0  0  0  0  0  0  0  0  0  0
  143.0185  137.7268  152.9742 N   0  0  0  0  0  0  0  0  0  0  0  0
  143.7948  136.5818  152.5131 C   0  0  0  0  0  0  0  0  0  0  0  0
  145.2700  136.6832  152.9498 C   0  0  0  0  0  0  0  0  0  0  0  0
  146.1407  135.6700  152.2948 N   0  3  0  0  0  0  0  0  0  0  0  0
  145.7782  135.4499  150.8664 C   0  0  0  0  0  0  0  0  0  0  0  0
  144.6673  134.4067  150.6395 C   0  0  0  0  0  0  0  0  0  0  0  0
  145.2217  132.9877  150.4386 C   0  0  0  0  0  0  0  0  0  0  0  0
  145.8227  132.3633  151.7048 C   0  0  0  0  0  0  0  0  0  0  0  0
  146.9044  133.2216  152.3824 C   0  0  0  0  0  0  0  0  0  0  0  0
  146.3253  134.4433  153.1227 C   0  0  0  0  0  0  0  0  0  0  0  0
  139.6827  138.8284  154.0400 N   0  0  0  0  0  0  0  0  0  0  0  0
  138.6625  139.3950  153.3917 C   0  0  0  0  0  0  0  0  0  0  0  0
  137.4701  138.9756  153.7914 N   0  0  0  0  0  0  0  0  0  0  0  0
  137.8527  138.0808  154.7502 C   0  0  0  0  0  0  0  0  0  0  0  0
  139.1663  137.9457  154.9315 N   0  0  0  0  0  0  0  0  0  0  0  0
  142.8579  139.7862  154.9218 H   0  0  0  0  0  0  0  0  0  0  0  0
  141.6967  138.9920  155.9796 H   0  0  0  0  0  0  0  0  0  0  0  0
  141.3495  140.5902  155.3309 H   0  0  0  0  0  0  0  0  0  0  0  0
  141.2563  139.6956  153.0297 H   0  0  0  0  0  0  0  0  0  0  0  0
  143.4599  138.6333  152.9169 H   0  0  0  0  0  0  0  0  0  0  0  0
  143.3474  135.6565  152.8804 H   0  0  0  0  0  0  0  0  0  0  0  0
  143.7135  136.5587  151.4266 H   0  0  0  0  0  0  0  0  0  0  0  0
  145.6572  137.6837  152.7522 H   0  0  0  0  0  0  0  0  0  0  0  0
  145.3154  136.5445  154.0306 H   0  0  0  0  0  0  0  0  0  0  0  0
  145.4779  136.3980  150.4186 H   0  0  0  0  0  0  0  0  0  0  0  0
  146.6757  135.1646  150.3164 H   0  0  0  0  0  0  0  0  0  0  0  0
  143.9231  134.4321  151.4363 H   0  0  0  0  0  0  0  0  0  0  0  0
  144.1327  134.6787  149.7286 H   0  0  0  0  0  0  0  0  0  0  0  0
  144.4192  132.3412  150.0814 H   0  0  0  0  0  0  0  0  0  0  0  0
  145.9697  132.9959  149.6448 H   0  0  0  0  0  0  0  0  0  0  0  0
  145.0277  132.1431  152.4184 H   0  0  0  0  0  0  0  0  0  0  0  0
  146.2548  131.3980  151.4385 H   0  0  0  0  0  0  0  0  0  0  0  0
  147.3955  132.5905  153.1242 H   0  0  0  0  0  0  0  0  0  0  0  0
  147.6892  133.5079  151.6813 H   0  0  0  0  0  0  0  0  0  0  0  0
  147.0096  134.7004  153.9312 H   0  0  0  0  0  0  0  0  0  0  0  0
  145.3842  134.1686  153.6017 H   0  0  0  0  0  0  0  0  0  0  0  0
  138.7939  140.1276  152.6087 H   0  0  0  0  0  0  0  0  0  0  0  0
  137.1425  137.5065  155.3268 H   0  0  0  0  0  0  0  0  0  0  0  0
  147.0525  136.1025  152.2484 H   0  0  0  0  0  0  0  0  0  0  0  0
  1  2  1  0  0  0  0
  1 20  1  0  0  0  0
  1 21  1  0  0  0  0
  1 22  1  0  0  0  0
  2  3  1  0  0  0  0
  2 15  1  0  0  0  0
  2 23  1  0  0  0  0
  3  4  2  0  0  0  0
  3  5  1  0  0  0  0
  5  6  1  0  0  0  0
  5 24  1  0  0  0  0
  6  7  1  0  0  0  0
  6 25  1  0  0  0  0
  6 26  1  0  0  0  0
  7  8  1  0  0  0  0
  7 27  1  0  0  0  0
  7 28  1  0  0  0  0
  8 14  1  0  0  0  0
  8  9  1  0  0  0  0
  8 43  1  0  0  0  0
  9 10  1  0  0  0  0
  9 29  1  0  0  0  0
  9 30  1  0  0  0  0
 10 11  1  0  0  0  0
 10 31  1  0  0  0  0
 10 32  1  0  0  0  0
 11 12  1  0  0  0  0
 11 33  1  0  0  0  0
 11 34  1  0  0  0  0
 12 13  1  0  0  0  0
 12 35  1  0  0  0  0
 12 36  1  0  0  0  0
 13 14  1  0  0  0  0
 13 37  1  0  0  0  0
 13 38  1  0  0  0  0
 14 39  1  0  0  0  0
 14 40  1  0  0  0  0
 15 19  1  0  0  0  0
 15 16  1  0  0  0  0
 16 17  2  0  0  0  0
 16 41  1  0  0  0  0
 17 18  1  0  0  0  0
 18 19  2  0  0  0  0
 18 42  1  0  0  0  0
M  CHG  1   8   1
M  END
> <s_m_source_file>
AV-unprocessed.smi

> <i_m_source_file_index>
3344

> <i_lp_mmshare_version>
43012

> <i_f3d_flags>
0

> <s_epik_input>
bjFbY0hdbltjSF1uMVtDQEhdKFtDSDNdKUMoPU8pW05IXVtDSDJdW0NIMl1OMltDSDJdW0NIMl1bQ0gyXVtDSDJdW0NIMl1bQ0gyXTI=

> <s_epik_cmdline>
J2VwaWtfcHl0aG9uJywgJy1waCcsICc3LjAnLCAnLXRuJywgJzgnLCAnLW1hJywgJzIwMCcsICctbWV0YWxfYmluZGluZycsICctaW1hZScsICc8aW5maWxlLm1hZT4nLCAnLW9tYWUnLCAnPG91dGZpbGUubWFlPic=

> <r_lp_tautomer_probability>
1

> <r_epik_Ionization_Penalty>
0.00266407

> <r_epik_Ionization_Penalty_Charging>
0.00265606

> <r_epik_Ionization_Penalty_Neutral>
8.01095e-06

> <r_epik_State_Penalty>
0.00184955

> <r_epik_Charging_Adjusted_Penalty>
0.00450561

> <i_epik_Tot_Q>
1

> <i_epik_Tot_abs_Q>
1

> <r_epik_Metal_State_Penalty>
-0

> <b_epik_Metal_Only>
0

> <s_lp_Force_Field>
OPLS_2005

> <r_lp_Energy>
28.0166

> <b_lp_Chiralities_Consistent>
1

> <s_lp_Variant>
AV-unprocessed.smi:3344-2

> <Gold.Version>
5.8.1

> <Gold.Id.Protein>
6NUR|6NUR_protein|mol2

> <Gold.PLP.Fitness>
39.5970

> <Gold.PLP.PLP>
-28.9767

> <Gold.PLP.part.hbond>
-2.0209

> <Gold.PLP.part.metal>
0.0000

> <Gold.PLP.part.buried>
-3.0205

> <Gold.PLP.part.nonpolar>
-23.1041

> <Gold.PLP.part.repulsive>
0.1939

> <Gold.PLP.ligand.clash>
0.0000

> <Gold.PLP.ligand.torsion>
0.7615

> <Gold.PLP.Chemscore.Hbond>
3.0000

> <Gold.PLP.Chemscore.CHOScore>
1.0000

> <Gold.PLP.Chemscore.Metal>
0.0000

> <Gold.Chemscore.Hbonds>
donor molecule, donor type, donor heavy atom, donor atom, acceptor molecule, acceptor atom, score
      L1  H     5    24       P1 10175  1.00
      L1  H     8    43       P1  7948  2.00
      L1  C    16    41       P1 10160  1.00

> <Gold.PLP.Chemscore.Internal.Correction>
0.1432

> <Gold.Rescore>
     Score         DG    S(hbond)    S(metal)    S(lipo)     H(rot)  DE(clash)    DE(int)     intcor
      8.85     -11.70       1.98        0.00      52.15       2.54       0.03       2.82       ----

> <Gold.Chemscore.Fitness>
8.8503

> <Gold.Chemscore.DG>
-11.7001

> <Gold.Chemscore.ZeroCoef>
-5.4800

> <Gold.Chemscore.Hbond>
1.9807

> <Gold.Chemscore.Metal>
0.0000

> <Gold.Chemscore.Lipo>
52.1466

> <Gold.Chemscore.Internal_Hbond>
0.0000

> <Gold.Chemscore.DEClash>
0.0262

> <Gold.Chemscore.DEInternal>
2.8236

> <Gold.Chemscore.Rot>
2.5377

> <Gold.Chemscore.Internal.Correction>
   9.000000E+99

> <Gold.Chemscore.Hbonds>
donor molecule, donor type, donor heavy atom, donor atom, acceptor molecule, acceptor atom, score
      L1  H     5    24       P1 10175  0.99
      L1  H     8    43       P1  7948  0.98

> <Gold.Chemscore.Hbond.Weighted>
-6.6155

> <Gold.Chemscore.Metal.Weighted>
-0.0000

> <Gold.Chemscore.Lipo.Weighted>
-6.1012

> <Gold.Chemscore.Internal_Hbond.Weighted>
0.0000

> <Gold.Chemscore.DEClash.Weighted>
0.0262

> <Gold.Chemscore.DEInternal.Weighted>
2.8236

> <Gold.Chemscore.Rot.Weighted>
6.4966

> <Gold.Chemscore.Internal.Correction.Weighted>
   9.000000E+99

> <Gold.Protein.RotatedTorsions>
[ 6907 6896 6895 6894 ] final   39.23 input  -60.11 | X-H torsion
[ 7974 7965 7964 7962 ] final  -30.87 input  175.53 | X-H torsion
[ 8008 7997 7996 7995 ] final  126.14 input   59.86 | X-H torsion
[ 10167 10162 10161 10158 ] final  148.45 input  -65.29 | X-H torsion
[ 10718 10713 10712 10709 ] final  -28.36 input   66.30 | X-H torsion
[ 10763 10752 10751 10750 ] final -118.77 input  -60.55 | X-H torsion
[ 11005 11000 10999 10996 ] final  -35.49 input  -57.11 | X-H torsion

> <Gold.Protein.ActiveResidues>
 VAL166  LYS551  ARG553  GLY616  TRP617  ASP618  TYR619  PRO620  LYS621  CYS622 
 ASP623  PHE694  ASN695  SER759  ASP760  ASP761  ALA762  ILE779  LEU786  VAL792 
 PHE793  MET794  SER795  GLU796  ALA797  LYS798  CYS799  TRP800  GLU811  SER814 

> <Gold.Protein.RotatedAtoms>
  152.1668  134.8867  160.0537 H   0  0  0  0  0  0  0  0  0  0  0  0  # atno 6907 bound_to 6896
  151.9842  133.3763  159.4127 H   0  0  0  0  0  0  0  0  0  0  0  0  # atno 6908 bound_to 6896
  150.6896  134.3929  159.5128 H   0  0  0  0  0  0  0  0  0  0  0  0  # atno 6909 bound_to 6896
  146.1111  140.5595  142.8777 H   0  0  0  0  0  0  0  0  0  0  0  0  # atno 7974 bound_to 7965
  156.2855  140.2699  156.2063 H   0  0  0  0  0  0  0  0  0  0  0  0  # atno 8008 bound_to 7997
  155.0309  140.0386  157.2492 H   0  0  0  0  0  0  0  0  0  0  0  0  # atno 8009 bound_to 7997
  154.7355  140.2715  155.6424 H   0  0  0  0  0  0  0  0  0  0  0  0  # atno 8010 bound_to 7997
  139.4875  144.5678  151.7111 H   0  0  0  0  0  0  0  0  0  0  0  0  # atno 10167 bound_to 10162
  156.4263  130.4436  149.7149 H   0  0  0  0  0  0  0  0  0  0  0  0  # atno 10718 bound_to 10713
  154.8597  135.4262  154.2193 H   0  0  0  0  0  0  0  0  0  0  0  0  # atno 10763 bound_to 10752
  153.3201  135.6981  153.7044 H   0  0  0  0  0  0  0  0  0  0  0  0  # atno 10764 bound_to 10752
  153.6102  135.3521  155.2950 H   0  0  0  0  0  0  0  0  0  0  0  0  # atno 10765 bound_to 10752
  140.9800  133.7061  156.1668 H   0  0  0  0  0  0  0  0  0  0  0  0  # atno 11005 bound_to 11000
  144.7512  140.5195  143.6800 LP  0  0  0  0  0  0  0  0  0  0  0  0  # atno 17320 bound_to 7965
  145.5662  139.1481  143.3314 LP  0  0  0  0  0  0  0  0  0  0  0  0  # atno 17321 bound_to 7965
  140.5260  144.0805  150.6038 LP  0  0  0  0  0  0  0  0  0  0  0  0  # atno 17342 bound_to 10162
  140.3779  143.2819  152.0204 LP  0  0  0  0  0  0  0  0  0  0  0  0  # atno 17343 bound_to 10162
  156.4070  130.7703  151.2714 LP  0  0  0  0  0  0  0  0  0  0  0  0  # atno 17370 bound_to 10713
  157.7508  131.0223  150.3786 LP  0  0  0  0  0  0  0  0  0  0  0  0  # atno 17371 bound_to 10713
  140.7201  134.4368  157.5575 LP  0  0  0  0  0  0  0  0  0  0  0  0  # atno 17394 bound_to 11000
  139.8946  134.8702  156.2169 LP  0  0  0  0  0  0  0  0  0  0  0  0  # atno 17395 bound_to 11000

$$$$
