AV-unprocessed.smi:3047|AV-procd|sdf|11624|dock10
  -GOLD-   2272017 13D 1   1.00000     0.00000
 Structure written by MMmdl.
 37 38  0  0  0  0  0  0  0  0  1 V2000
  152.5119  138.4830  158.3095 C   0  0  0  0  0  0  0  0  0  0  0  0
  152.7687  137.7406  156.6449 S   0  0  0  0  0  0  0  0  0  0  0  0
  153.4216  138.7485  155.7956 O   0  0  0  0  0  0  0  0  0  0  0  0
  153.3772  136.4114  156.8088 O   0  0  0  0  0  0  0  0  0  0  0  0
  151.1540  137.5265  156.0460 N   0  0  0  0  0  0  0  0  0  0  0  0
  150.8269  136.5379  155.0216 C   0  0  0  0  0  0  0  0  0  0  0  0
  149.3017  136.5339  154.9808 C   0  0  0  0  0  0  0  0  0  0  0  0
  148.9199  137.9678  155.3398 C   0  0  0  0  0  0  0  0  0  0  0  0
  150.0329  138.4513  156.2945 C   0  0  2  0  0  0  0  0  0  0  0  0
  150.3589  139.9408  156.1020 C   0  0  0  0  0  0  0  0  0  0  0  0
  150.9046  140.3373  155.0715 O   0  0  0  0  0  0  0  0  0  0  0  0
  150.0444  140.7539  157.1201 N   0  0  0  0  0  0  0  0  0  0  0  0
  150.3404  142.1781  157.1580 C   0  0  0  0  0  0  0  0  0  0  0  0
  151.6910  142.4270  157.8415 C   0  0  0  0  0  0  0  0  0  0  0  0
  151.6550  143.6141  158.6712 N   0  0  0  0  0  0  0  0  0  0  0  0
  152.0821  143.7305  159.9873 C   0  0  0  0  0  0  0  0  0  0  0  0
  151.8496  145.0350  160.3614 C   0  0  0  0  0  0  0  0  0  0  0  0
  151.2824  145.7338  159.2981 N   0  0  0  0  0  0  0  0  0  0  0  0
  151.1973  144.8273  158.3329 C   0  0  0  0  0  0  0  0  0  0  0  0
  153.4788  138.7436  158.7391 H   0  0  0  0  0  0  0  0  0  0  0  0
  152.0142  137.7717  158.9661 H   0  0  0  0  0  0  0  0  0  0  0  0
  151.9041  139.3827  158.2191 H   0  0  0  0  0  0  0  0  0  0  0  0
  151.2466  136.8593  154.0679 H   0  0  0  0  0  0  0  0  0  0  0  0
  151.2348  135.5585  155.2722 H   0  0  0  0  0  0  0  0  0  0  0  0
  148.9052  136.2188  154.0152 H   0  0  0  0  0  0  0  0  0  0  0  0
  148.9168  135.8509  155.7394 H   0  0  0  0  0  0  0  0  0  0  0  0
  148.8747  138.5600  154.4247 H   0  0  0  0  0  0  0  0  0  0  0  0
  147.9342  138.0162  155.8038 H   0  0  0  0  0  0  0  0  0  0  0  0
  149.7062  138.2890  157.3230 H   0  0  0  0  0  0  0  0  0  0  0  0
  149.6092  140.3507  157.9374 H   0  0  0  0  0  0  0  0  0  0  0  0
  150.3598  142.5699  156.1396 H   0  0  0  0  0  0  0  0  0  0  0  0
  149.5441  142.7000  157.6914 H   0  0  0  0  0  0  0  0  0  0  0  0
  151.9675  141.5757  158.4652 H   0  0  0  0  0  0  0  0  0  0  0  0
  152.4800  142.5471  157.0975 H   0  0  0  0  0  0  0  0  0  0  0  0
  152.5028  142.8991  160.5336 H   0  0  0  0  0  0  0  0  0  0  0  0
  152.0445  145.5204  161.3064 H   0  0  0  0  0  0  0  0  0  0  0  0
  150.7907  145.0509  157.3573 H   0  0  0  0  0  0  0  0  0  0  0  0
  1  2  1  0  0  0  0
  1 20  1  0  0  0  0
  1 21  1  0  0  0  0
  1 22  1  0  0  0  0
  2  3  2  0  0  0  0
  2  4  2  0  0  0  0
  2  5  1  0  0  0  0
  5  9  1  0  0  0  0
  5  6  1  0  0  0  0
  6  7  1  0  0  0  0
  6 23  1  0  0  0  0
  6 24  1  0  0  0  0
  7  8  1  0  0  0  0
  7 25  1  0  0  0  0
  7 26  1  0  0  0  0
  8  9  1  0  0  0  0
  8 27  1  0  0  0  0
  8 28  1  0  0  0  0
  9 10  1  0  0  0  0
  9 29  1  0  0  0  0
 10 11  2  0  0  0  0
 10 12  1  0  0  0  0
 12 13  1  0  0  0  0
 12 30  1  0  0  0  0
 13 14  1  0  0  0  0
 13 31  1  0  0  0  0
 13 32  1  0  0  0  0
 14 15  1  0  0  0  0
 14 33  1  0  0  0  0
 14 34  1  0  0  0  0
 15 19  1  0  0  0  0
 15 16  1  0  0  0  0
 16 17  2  0  0  0  0
 16 35  1  0  0  0  0
 17 18  1  0  0  0  0
 17 36  1  0  0  0  0
 18 19  2  0  0  0  0
 19 37  1  0  0  0  0
M  END
> <s_m_source_file>
AV-unprocessed.smi

> <i_m_source_file_index>
3047

> <i_lp_mmshare_version>
43012

> <i_f3d_flags>
0

> <s_epik_input>
W0NIM11TKD1PKSg9TylOMVtDSDJdW0NIMl1bQ0gyXVtDQEhdMUMoPU8pW05IXVtDSDJdW0NIMl1uMltjSF1bY0hdbltjSF0y

> <s_epik_cmdline>
J2VwaWtfcHl0aG9uJywgJy1waCcsICc3LjAnLCAnLXRuJywgJzgnLCAnLW1hJywgJzIwMCcsICctbWV0YWxfYmluZGluZycsICctaW1hZScsICc8aW5maWxlLm1hZT4nLCAnLW9tYWUnLCAnPG91dGZpbGUubWFlPic=

> <r_lp_tautomer_probability>
1

> <r_epik_Ionization_Penalty>
0.575721

> <r_epik_Ionization_Penalty_Charging>
0.575721

> <r_epik_Ionization_Penalty_Neutral>
1.33078e-07

> <r_epik_State_Penalty>
0.588056

> <r_epik_Charging_Adjusted_Penalty>
1.16378

> <i_epik_Tot_Q>
0

> <i_epik_Tot_abs_Q>
0

> <r_epik_Metal_State_Penalty>
0.294357

> <b_epik_Metal_Only>
0

> <s_lp_Force_Field>
OPLS_2005

> <r_lp_Energy>
9.27481

> <b_lp_Chiralities_Consistent>
1

> <s_lp_Variant>
AV-unprocessed.smi:3047-4

> <Gold.Version>
5.8.1

> <Gold.Id.Protein>
6NUR|6NUR_protein|mol2

> <Gold.PLP.Fitness>
39.7818

> <Gold.PLP.PLP>
-29.6879

> <Gold.PLP.part.hbond>
-4.1668

> <Gold.PLP.part.metal>
0.0000

> <Gold.PLP.part.buried>
-4.8406

> <Gold.PLP.part.nonpolar>
-21.5717

> <Gold.PLP.part.repulsive>
0.2561

> <Gold.PLP.ligand.clash>
0.0000

> <Gold.PLP.ligand.torsion>
1.8648

> <Gold.PLP.Chemscore.Hbond>
2.9280

> <Gold.PLP.Chemscore.CHOScore>
1.0000

> <Gold.PLP.Chemscore.Metal>
0.0000

> <Gold.Chemscore.Hbonds>
donor molecule, donor type, donor heavy atom, donor atom, acceptor molecule, acceptor atom, score
      P1  H  7989  7998       L1    11  1.00
      P1  H  7997  8010       L1     3  0.93
      P1  H 10752 10765       L1     4  1.00
      L1  C    19    37       P1  8028  1.00

> <Gold.PLP.Chemscore.Internal.Correction>
2.0395

> <Gold.Rescore>
     Score         DG    S(hbond)    S(metal)    S(lipo)     H(rot)  DE(clash)    DE(int)     intcor
     14.79     -16.59       2.87        0.00      57.32       2.03       0.02       1.79       ----

> <Gold.Chemscore.Fitness>
14.7882

> <Gold.Chemscore.DG>
-16.5930

> <Gold.Chemscore.ZeroCoef>
-5.4800

> <Gold.Chemscore.Hbond>
2.8720

> <Gold.Chemscore.Metal>
0.0000

> <Gold.Chemscore.Lipo>
57.3244

> <Gold.Chemscore.Internal_Hbond>
0.0000

> <Gold.Chemscore.DEClash>
0.0187

> <Gold.Chemscore.DEInternal>
1.7861

> <Gold.Chemscore.Rot>
2.0259

> <Gold.Chemscore.Internal.Correction>
   9.000000E+99

> <Gold.Chemscore.Hbonds>
donor molecule, donor type, donor heavy atom, donor atom, acceptor molecule, acceptor atom, score
      P1  H  7989  7998       L1    11  0.98
      P1  H  7997  8010       L1     3  0.90
      P1  H 10752 10765       L1     4  0.86

> <Gold.Chemscore.Hbond.Weighted>
-9.5924

> <Gold.Chemscore.Metal.Weighted>
-0.0000

> <Gold.Chemscore.Lipo.Weighted>
-6.7070

> <Gold.Chemscore.Internal_Hbond.Weighted>
0.0000

> <Gold.Chemscore.DEClash.Weighted>
0.0187

> <Gold.Chemscore.DEInternal.Weighted>
1.7861

> <Gold.Chemscore.Rot.Weighted>
5.1863

> <Gold.Chemscore.Internal.Correction.Weighted>
   9.000000E+99

> <Gold.Protein.RotatedTorsions>
[ 6907 6896 6895 6894 ] final   99.58 input  -60.11 | X-H torsion
[ 7974 7965 7964 7962 ] final  -23.87 input  175.53 | X-H torsion
[ 8008 7997 7996 7995 ] final   79.83 input   59.86 | X-H torsion
[ 10167 10162 10161 10158 ] final  114.01 input  -65.29 | X-H torsion
[ 10718 10713 10712 10709 ] final  140.85 input   66.30 | X-H torsion
[ 10763 10752 10751 10750 ] final -129.06 input  -60.55 | X-H torsion
[ 11005 11000 10999 10996 ] final  -82.95 input  -57.11 | X-H torsion

> <Gold.Protein.ActiveResidues>
 VAL166  LYS551  ARG553  GLY616  TRP617  ASP618  TYR619  PRO620  LYS621  CYS622 
 ASP623  PHE694  ASN695  SER759  ASP760  ASP761  ALA762  ILE779  LEU786  VAL792 
 PHE793  MET794  SER795  GLU796  ALA797  LYS798  CYS799  TRP800  GLU811  SER814 

> <Gold.Protein.RotatedAtoms>
  152.5389  134.0407  159.8065 H   0  0  0  0  0  0  0  0  0  0  0  0  # atno 6907 bound_to 6896
  151.0563  133.5573  159.2645 H   0  0  0  0  0  0  0  0  0  0  0  0  # atno 6908 bound_to 6896
  151.2489  135.0623  159.9108 H   0  0  0  0  0  0  0  0  0  0  0  0  # atno 6909 bound_to 6896
  146.1590  140.4674  142.8579 H   0  0  0  0  0  0  0  0  0  0  0  0  # atno 7974 bound_to 7965
  155.8751  140.3447  155.5848 H   0  0  0  0  0  0  0  0  0  0  0  0  # atno 8008 bound_to 7997
  155.7784  140.0855  157.2091 H   0  0  0  0  0  0  0  0  0  0  0  0  # atno 8009 bound_to 7997
  154.4020  140.1505  156.3010 H   0  0  0  0  0  0  0  0  0  0  0  0  # atno 8010 bound_to 7997
  139.6419  144.7124  151.2219 H   0  0  0  0  0  0  0  0  0  0  0  0  # atno 10167 bound_to 10162
  157.3987  131.1014  151.0574 H   0  0  0  0  0  0  0  0  0  0  0  0  # atno 10718 bound_to 10713
  154.8757  135.3908  154.3858 H   0  0  0  0  0  0  0  0  0  0  0  0  # atno 10763 bound_to 10752
  153.4600  135.7029  153.6061 H   0  0  0  0  0  0  0  0  0  0  0  0  # atno 10764 bound_to 10752
  153.4564  135.3822  155.2282 H   0  0  0  0  0  0  0  0  0  0  0  0  # atno 10765 bound_to 10752
  141.1660  133.7270  156.8647 H   0  0  0  0  0  0  0  0  0  0  0  0  # atno 11005 bound_to 11000
  144.8001  140.6197  143.6484 LP  0  0  0  0  0  0  0  0  0  0  0  0  # atno 17320 bound_to 7965
  145.4637  139.1510  143.3852 LP  0  0  0  0  0  0  0  0  0  0  0  0  # atno 17321 bound_to 7965
  140.7495  143.6296  150.8435 LP  0  0  0  0  0  0  0  0  0  0  0  0  # atno 17342 bound_to 10162
  139.9935  143.5821  152.2902 LP  0  0  0  0  0  0  0  0  0  0  0  0  # atno 17343 bound_to 10162
  157.1581  130.6213  149.5602 LP  0  0  0  0  0  0  0  0  0  0  0  0  # atno 17370 bound_to 10713
  155.9817  130.4826  150.6843 LP  0  0  0  0  0  0  0  0  0  0  0  0  # atno 17371 bound_to 10713
  140.1823  134.9024  157.2963 LP  0  0  0  0  0  0  0  0  0  0  0  0  # atno 17394 bound_to 11000
  140.2381  134.3829  155.7492 LP  0  0  0  0  0  0  0  0  0  0  0  0  # atno 17395 bound_to 11000

$$$$
