AV-unprocessed.smi:613|AV-procd|sdf|3066|dock1
  -GOLD-   2262023593D 1   1.00000     0.00000
 Structure written by MMmdl.
 39 40  0  0  0  0  0  0  0  0  2 V2000
  150.6933  142.0517  156.2802 C   0  0  0  0  0  0  0  0  0  0  0  0
  150.2927  140.9761  155.3809 N   0  0  0  0  0  0  0  0  0  0  0  0
  151.0144  139.7045  155.4451 C   0  0  0  0  0  0  0  0  0  0  0  0
  152.1502  139.7179  156.4845 C   0  0  2  0  0  0  0  0  0  0  0  0
  152.9306  138.3880  156.4941 C   0  0  0  0  0  0  0  0  0  0  0  0
  153.9620  138.3658  157.5354 N   0  0  0  0  0  0  0  0  0  0  0  0
  154.7491  137.1261  157.5730 C   0  0  0  0  0  0  0  0  0  0  0  0
  154.0185  135.9257  158.1892 C   0  0  0  0  0  0  0  0  0  0  0  0
  153.8410  134.8550  157.4114 N   0  0  0  0  0  0  0  0  0  0  0  0
  153.6245  135.9633  159.3532 O   0  0  0  0  0  0  0  0  0  0  0  0
  153.3569  138.6562  158.8318 C   0  0  0  0  0  0  0  0  0  0  0  0
  152.5645  139.9732  158.8112 C   0  0  0  0  0  0  0  0  0  0  0  0
  151.5871  139.9206  157.7782 O   0  0  0  0  0  0  0  0  0  0  0  0
  149.0305  141.0529  154.7466 C   0  0  0  0  0  0  0  0  0  0  0  0
  148.4436  139.9571  154.0672 C   0  0  0  0  0  0  0  0  0  0  0  0
  147.1862  140.1273  153.4637 C   0  0  0  0  0  0  0  0  0  0  0  0
  146.5774  141.3884  153.5736 C   0  0  0  0  0  0  0  0  0  0  0  0
  147.1424  142.4263  154.2270 N   0  0  0  0  0  0  0  0  0  0  0  0
  148.3451  142.2285  154.7931 N   0  3  0  0  0  0  0  0  0  0  0  0
  150.8060  142.9884  155.7335 H   0  0  0  0  0  0  0  0  0  0  0  0
  151.6492  141.8286  156.7551 H   0  0  0  0  0  0  0  0  0  0  0  0
  149.9543  142.1915  157.0699 H   0  0  0  0  0  0  0  0  0  0  0  0
  150.3400  138.8659  155.6199 H   0  0  0  0  0  0  0  0  0  0  0  0
  151.4413  139.5262  154.4573 H   0  0  0  0  0  0  0  0  0  0  0  0
  152.8417  140.5324  156.2593 H   0  0  0  0  0  0  0  0  0  0  0  0
  152.2382  137.5573  156.6425 H   0  0  0  0  0  0  0  0  0  0  0  0
  153.3752  138.2481  155.5086 H   0  0  0  0  0  0  0  0  0  0  0  0
  155.0289  136.8401  156.5581 H   0  0  0  0  0  0  0  0  0  0  0  0
  155.6842  137.2981  158.1096 H   0  0  0  0  0  0  0  0  0  0  0  0
  153.3701  134.0389  157.7738 H   0  0  0  0  0  0  0  0  0  0  0  0
  154.1842  134.8645  156.4616 H   0  0  0  0  0  0  0  0  0  0  0  0
  152.6921  137.8413  159.1239 H   0  0  0  0  0  0  0  0  0  0  0  0
  154.1292  138.7169  159.5996 H   0  0  0  0  0  0  0  0  0  0  0  0
  152.0645  140.1311  159.7671 H   0  0  0  0  0  0  0  0  0  0  0  0
  153.2285  140.8241  158.6517 H   0  0  0  0  0  0  0  0  0  0  0  0
  148.9326  138.9970  153.9980 H   0  0  0  0  0  0  0  0  0  0  0  0
  146.7046  139.3185  152.9342 H   0  0  0  0  0  0  0  0  0  0  0  0
  145.6110  141.5716  153.1269 H   0  0  0  0  0  0  0  0  0  0  0  0
  148.7786  143.0117  155.2827 H   0  0  0  0  0  0  0  0  0  0  0  0
  1  2  1  0  0  0  0
  1 20  1  0  0  0  0
  1 21  1  0  0  0  0
  1 22  1  0  0  0  0
  2  3  1  0  0  0  0
  2 14  1  0  0  0  0
  3  4  1  0  0  0  0
  3 23  1  0  0  0  0
  3 24  1  0  0  0  0
  4 13  1  0  0  0  0
  4  5  1  0  0  0  0
  4 25  1  0  0  0  0
  5  6  1  0  0  0  0
  5 26  1  0  0  0  0
  5 27  1  0  0  0  0
  6  7  1  0  0  0  0
  6 11  1  0  0  0  0
  7  8  1  0  0  0  0
  7 28  1  0  0  0  0
  7 29  1  0  0  0  0
  8  9  1  0  0  0  0
  8 10  2  0  0  0  0
  9 30  1  0  0  0  0
  9 31  1  0  0  0  0
 11 12  1  0  0  0  0
 11 32  1  0  0  0  0
 11 33  1  0  0  0  0
 12 13  1  0  0  0  0
 12 34  1  0  0  0  0
 12 35  1  0  0  0  0
 14 19  1  0  0  0  0
 14 15  2  0  0  0  0
 15 16  1  0  0  0  0
 15 36  1  0  0  0  0
 16 17  2  0  0  0  0
 16 37  1  0  0  0  0
 17 18  1  0  0  0  0
 17 38  1  0  0  0  0
 18 19  2  0  0  0  0
 19 39  1  0  0  0  0
M  CHG  1  19   1
M  END
> <s_m_source_file>
AV-unprocessed.smi

> <i_m_source_file_index>
613

> <i_lp_mmshare_version>
43012

> <i_f3d_flags>
0

> <s_epik_input>
bjFuW2NIXVtjSF1bY0hdYzFOKFtDSDNdKVtDSDJdW0NAQEhdMltDSDJdTihbQ0gyXVtDSDJdTzIpW0NIMl1DKD1PKVtOSDJd

> <s_epik_cmdline>
J2VwaWtfcHl0aG9uJywgJy1waCcsICc3LjAnLCAnLXRuJywgJzgnLCAnLW1hJywgJzIwMCcsICctbWV0YWxfYmluZGluZycsICctaW1hZScsICc8aW5maWxlLm1hZT4nLCAnLW9tYWUnLCAnPG91dGZpbGUubWFlPic=

> <r_lp_tautomer_probability>
0.966961

> <r_epik_Ionization_Penalty>
1.86301

> <r_epik_Ionization_Penalty_Charging>
1.86058

> <r_epik_Ionization_Penalty_Neutral>
0.00243207

> <r_epik_State_Penalty>
1.48112

> <r_epik_Charging_Adjusted_Penalty>
3.3417

> <i_epik_Tot_Q>
1

> <i_epik_Tot_abs_Q>
1

> <r_epik_Metal_State_Penalty>
1.50193

> <b_epik_Metal_Only>
0

> <s_lp_Force_Field>
OPLS_2005

> <r_lp_Energy>
27.1625

> <b_lp_Chiralities_Consistent>
1

> <s_lp_Variant>
AV-unprocessed.smi:613-3

> <Gold.Version>
5.8.1

> <Gold.Id.Protein>
6NUR|6NUR_protein|mol2

> <Gold.PLP.Fitness>
40.2886

> <Gold.PLP.PLP>
-27.2330

> <Gold.PLP.part.hbond>
-3.0000

> <Gold.PLP.part.metal>
0.0000

> <Gold.PLP.part.buried>
-1.3012

> <Gold.PLP.part.nonpolar>
-23.6316

> <Gold.PLP.part.repulsive>
1.2758

> <Gold.PLP.ligand.clash>
0.0000

> <Gold.PLP.ligand.torsion>
0.2331

> <Gold.PLP.Chemscore.Hbond>
3.8320

> <Gold.PLP.Chemscore.CHOScore>
0.5818

> <Gold.PLP.Chemscore.Metal>
0.0000

> <Gold.Chemscore.Hbonds>
donor molecule, donor type, donor heavy atom, donor atom, acceptor molecule, acceptor atom, score
      L1  H    19    39       P1  8028  2.00
      P1  H  6896  6907       L1    10  1.00
      P1  H  7997  8009       L1     6  0.79
      L1  C    17    38       P1 10175  0.55

> <Gold.PLP.Chemscore.Internal.Correction>
0.2802

> <Gold.Rescore>
     Score         DG    S(hbond)    S(metal)    S(lipo)     H(rot)  DE(clash)    DE(int)     intcor
     10.57     -13.96       2.03        0.00      63.35       2.23       0.24       3.15       ----

> <Gold.Chemscore.Fitness>
10.5693

> <Gold.Chemscore.DG>
-13.9641

> <Gold.Chemscore.ZeroCoef>
-5.4800

> <Gold.Chemscore.Hbond>
2.0339

> <Gold.Chemscore.Metal>
0.0000

> <Gold.Chemscore.Lipo>
63.3502

> <Gold.Chemscore.Internal_Hbond>
0.0000

> <Gold.Chemscore.DEClash>
0.2411

> <Gold.Chemscore.DEInternal>
3.1537

> <Gold.Chemscore.Rot>
2.2348

> <Gold.Chemscore.Internal.Correction>
   9.000000E+99

> <Gold.Chemscore.Hbonds>
donor molecule, donor type, donor heavy atom, donor atom, acceptor molecule, acceptor atom, score
      L1  H    19    39       P1  8028  0.94
      P1  H  6896  6907       L1    10  0.97
      P1  H  7997  8009       L1     6  0.05

> <Gold.Chemscore.Hbond.Weighted>
-6.7932

> <Gold.Chemscore.Metal.Weighted>
-0.0000

> <Gold.Chemscore.Lipo.Weighted>
-7.4120

> <Gold.Chemscore.Internal_Hbond.Weighted>
0.0000

> <Gold.Chemscore.DEClash.Weighted>
0.2411

> <Gold.Chemscore.DEInternal.Weighted>
3.1537

> <Gold.Chemscore.Rot.Weighted>
5.7211

> <Gold.Chemscore.Internal.Correction.Weighted>
   9.000000E+99

> <Gold.Protein.RotatedTorsions>
[ 6907 6896 6895 6894 ] final   50.18 input  -60.11 | X-H torsion
[ 7974 7965 7964 7962 ] final   -0.71 input  175.53 | X-H torsion
[ 8008 7997 7996 7995 ] final  140.08 input   59.86 | X-H torsion
[ 10167 10162 10161 10158 ] final -156.04 input  -65.29 | X-H torsion
[ 10718 10713 10712 10709 ] final   57.93 input   66.30 | X-H torsion
[ 10763 10752 10751 10750 ] final   74.62 input  -60.55 | X-H torsion
[ 11005 11000 10999 10996 ] final -132.89 input  -57.11 | X-H torsion

> <Gold.Protein.ActiveResidues>
 VAL166  LYS551  ARG553  GLY616  TRP617  ASP618  TYR619  PRO620  LYS621  CYS622 
 ASP623  PHE694  ASN695  SER759  ASP760  ASP761  ALA762  ILE779  LEU786  VAL792 
 PHE793  MET794  SER795  GLU796  ALA797  LYS798  CYS799  TRP800  GLU811  SER814 

> <Gold.Protein.RotatedAtoms>
  152.2990  134.7633  160.0361 H   0  0  0  0  0  0  0  0  0  0  0  0  # atno 6907 bound_to 6896
  151.8153  133.3382  159.3576 H   0  0  0  0  0  0  0  0  0  0  0  0  # atno 6908 bound_to 6896
  150.7265  134.5555  159.5860 H   0  0  0  0  0  0  0  0  0  0  0  0  # atno 6909 bound_to 6896
  146.2424  140.1311  142.8338 H   0  0  0  0  0  0  0  0  0  0  0  0  # atno 7974 bound_to 7965
  156.2983  140.2351  156.4342 H   0  0  0  0  0  0  0  0  0  0  0  0  # atno 8008 bound_to 7997
  154.8243  140.0436  157.1453 H   0  0  0  0  0  0  0  0  0  0  0  0  # atno 8009 bound_to 7997
  154.9279  140.3012  155.5186 H   0  0  0  0  0  0  0  0  0  0  0  0  # atno 8010 bound_to 7997
  139.6882  143.9465  152.2372 H   0  0  0  0  0  0  0  0  0  0  0  0  # atno 10167 bound_to 10162
  157.5555  130.8797  149.9029 H   0  0  0  0  0  0  0  0  0  0  0  0  # atno 10718 bound_to 10713
  153.0599  135.5019  154.8069 H   0  0  0  0  0  0  0  0  0  0  0  0  # atno 10763 bound_to 10752
  154.6866  135.2977  154.9541 H   0  0  0  0  0  0  0  0  0  0  0  0  # atno 10764 bound_to 10752
  154.0309  135.6729  153.4833 H   0  0  0  0  0  0  0  0  0  0  0  0  # atno 10765 bound_to 10752
  140.9130  134.1543  157.4374 H   0  0  0  0  0  0  0  0  0  0  0  0  # atno 11005 bound_to 11000
  145.0325  140.8882  143.5101 LP  0  0  0  0  0  0  0  0  0  0  0  0  # atno 17320 bound_to 7965
  145.1378  139.2591  143.5506 LP  0  0  0  0  0  0  0  0  0  0  0  0  # atno 17321 bound_to 7965
  139.9274  144.6762  150.8398 LP  0  0  0  0  0  0  0  0  0  0  0  0  # atno 17342 bound_to 10162
  140.7674  143.3332  151.2364 LP  0  0  0  0  0  0  0  0  0  0  0  0  # atno 17343 bound_to 10162
  156.0614  130.3699  150.0973 LP  0  0  0  0  0  0  0  0  0  0  0  0  # atno 17370 bound_to 10713
  156.9142  130.9662  151.3558 LP  0  0  0  0  0  0  0  0  0  0  0  0  # atno 17371 bound_to 10713
  139.8761  134.9943  156.5686 LP  0  0  0  0  0  0  0  0  0  0  0  0  # atno 17394 bound_to 11000
  140.8086  133.8447  155.8789 LP  0  0  0  0  0  0  0  0  0  0  0  0  # atno 17395 bound_to 11000

$$$$
