#       Name:                AV-unprocessed.smi:2226
#       Creating user name   scv26
#       Creation time:       Fri Mar 27 12:21:49 2020


#       File generated by GOLD software.
#

@<TRIPOS>MOLECULE
AV-unprocessed.smi:2226
    45    47     1
SMALL
NO_CHARGES


@<TRIPOS>ATOM
      1 ****        -3.2483  -2.9931   0.0008 C.3            1 S1                 0.0000
      2 ****        -2.0796  -2.0815   0.0005 N.4            1 S1                 1.0000
      3 ****        -1.9418  -1.2441  -1.2158 C.3            1 S1                 0.0000
      4 ****        -3.0472  -0.1594  -1.2810 C.3            1 S1                 0.0000
      5 ****        -3.1709   0.6881  -0.0005 C.3            1 S1                 0.0000
      6 ****        -3.0475  -0.1585   1.2806 C.3            1 S1                 0.0000
      7 ****        -1.9418  -1.2432   1.2162 C.3            1 S1                 0.0000
      8 ****        -0.4951  -0.7019   1.2873 C.3            1 S1                 0.0000
      9 ****        -0.0109   0.0080  -0.0005 C.3            1 S1                 0.0000
     10 ****         1.4509   0.0550  -0.0005 N.am           1 S1                 0.0000
     11 ****         2.2172   1.1572   0.0007 C.2            1 S1                 0.0000
     12 ****         1.7266   2.2906   0.0018 O.2            1 S1                 0.0000
     13 ****         3.5567   0.7961   0.0003 N.2            1 S1                 0.0000
     14 ****         4.4723   1.7153   0.0001 C.2            1 S1                 0.0000
     15 ****         5.8469   1.5388  -0.0001 N.pl3          1 S1                 0.0000
     16 ****         6.4348   2.7736  -0.0003 C.2            1 S1                 0.0000
     17 ****         5.4716   3.6905  -0.0001 C.2            1 S1                 0.0000
     18 ****         4.2568   3.0743   0.0001 O.3            1 S1                 0.0000
     19 ****        -0.4950  -0.7033  -1.2874 C.3            1 S1                 0.0000
     20 ****        -4.1951  -2.4537   0.0002 H              1 S1                 0.0000
     21 ****        -3.2270  -3.6363   0.8809 H              1 S1                 0.0000
     22 ****        -3.2266  -3.6375  -0.8784 H              1 S1                 0.0000
     23 ****        -2.0720  -1.8922  -2.0840 H              1 S1                 0.0000
     24 ****        -2.8845   0.4924  -2.1401 H              1 S1                 0.0000
     25 ****        -4.0057  -0.6454  -1.4651 H              1 S1                 0.0000
     26 ****        -2.4317   1.4842  -0.0006 H              1 S1                 0.0000
     27 ****        -4.1292   1.2085  -0.0007 H              1 S1                 0.0000
     28 ****        -2.8850   0.4936   2.1393 H              1 S1                 0.0000
     29 ****        -4.0058  -0.6447   1.4646 H              1 S1                 0.0000
     30 ****        -2.0718  -1.8905   2.0847 H              1 S1                 0.0000
     31 ****        -0.3796  -0.0386   2.1454 H              1 S1                 0.0000
     32 ****         0.1602  -1.5525   1.4833 H              1 S1                 0.0000
     33 ****        -0.3994   1.0226  -0.0011 H              1 S1                 0.0000
     34 ****         1.9290  -0.8345  -0.0014 H              1 S1                 0.0000
     35 ****         6.3669   0.6732  -0.0002 H              1 S1                 0.0000
     36 ****         7.5109   2.8670  -0.0005 H              1 S1                 0.0000
     37 ****         5.4861   4.7705  -0.0001 H              1 S1                 0.0000
     38 ****         0.1602  -1.5542  -1.4824 H              1 S1                 0.0000
     39 ****        -0.3793  -0.0410  -2.1463 H              1 S1                 0.0000
     40 ****        -1.2773  -2.6951   0.0007 H              1 S1                 0.0000
     41 ****         0.7332   2.4055   0.0018 LP             1 S1                 0.0000
     42 ****         2.3228   3.0935   0.0027 LP             1 S1                 0.0000
     43 ****         3.8158  -0.1697   0.0002 LP             1 S1                 0.0000
     44 ****         3.7427   3.3369   0.8167 LP             1 S1                 0.0000
     45 ****         3.7425   3.3369  -0.8163 LP             1 S1                 0.0000
@<TRIPOS>BOND
    1    1    2 1     
    2    1   20 1     
    3    1   21 1     
    4    1   22 1     
    5    2    7 1     
    6    2    3 1     
    7    2   40 1     
    8    3   19 1     
    9    3    4 1     
   10    3   23 1     
   11    4    5 1     
   12    4   24 1     
   13    4   25 1     
   14    5    6 1     
   15    5   26 1     
   16    5   27 1     
   17    6    7 1     
   18    6   28 1     
   19    6   29 1     
   20    7    8 1     
   21    7   30 1     
   22    8    9 1     
   23    8   31 1     
   24    8   32 1     
   25    9   10 1     
   26    9   19 1     
   27    9   33 1     
   28   10   34 1     
   29   10   11 am    
   30   11   13 1     
   31   11   12 2     
   32   13   14 2     
   33   14   18 1     
   34   14   15 1     
   35   15   35 1     
   36   15   16 1     
   37   16   36 1     
   38   16   17 2     
   39   17   37 1     
   40   17   18 1     
   41   19   38 1     
   42   19   39 1     
   43   12   41 1     
   44   12   42 1     
   45   13   43 1     
   46   18   44 1     
   47   18   45 1     
@<TRIPOS>SUBSTRUCTURE
      1 S1             1
@<TRIPOS>SET
LONE_PAIRS      STATIC     ATOMS    <user>   **** ""
5 41 42 43 44 45
DONOR_HYDROGENS      STATIC     ATOMS    <user>   **** ""
3 40 34 35
ATOM$BLUE        STATIC     ATOMS    COLORGROUP SYSTEM
5 41 42 43 44 45
ATOM$RED        STATIC     ATOMS    COLORGROUP SYSTEM
3 40 34 35
