AV-unprocessed.smi:634|AV-procd|sdf|3133|dock8
  -GOLD-   22720 0 53D 1   1.00000     0.00000
 Structure written by MMmdl.
 33 34  0  0  0  0  0  0  0  0  1 V2000
  143.5102  133.7404  151.6434 C   0  0  0  0  0  0  0  0  0  0  0  0
  144.3567  134.7625  152.3215 C   0  0  0  0  0  0  0  0  0  0  0  0
  145.6961  135.0317  152.2881 C   0  0  0  0  0  0  0  0  0  0  0  0
  145.8214  136.1401  153.1674 C   0  0  0  0  0  0  0  0  0  0  0  0
  147.0846  136.7379  153.4081 N   0  0  0  0  0  0  0  0  0  0  0  0
  147.3423  137.8554  154.1084 C   0  0  0  0  0  0  0  0  0  0  0  0
  146.4945  138.5438  154.6767 O   0  0  0  0  0  0  0  0  0  0  0  0
  148.6570  138.1326  154.1065 N   0  0  0  0  0  0  0  0  0  0  0  0
  149.3492  139.2698  154.7289 C   0  0  1  0  0  0  0  0  0  0  0  0
  148.6510  140.5957  154.3585 C   0  0  0  0  0  0  0  0  0  0  0  0
  149.2947  139.0553  156.2608 C   0  0  0  0  0  0  0  0  0  0  0  0
  150.3022  137.9730  156.6692 C   0  0  0  0  0  0  0  0  0  0  0  0
  151.6930  138.1206  155.4896 S   0  0  0  0  0  0  0  0  0  0  0  0
  152.8196  138.8097  156.1366 O   0  0  0  0  0  0  0  0  0  0  0  0
  151.8819  136.8275  154.8147 O   0  0  0  0  0  0  0  0  0  0  0  0
  150.8496  139.2857  154.3524 C   0  0  0  0  0  0  0  0  0  0  0  0
  144.6642  136.5107  153.6938 N   0  0  0  0  0  0  0  0  0  0  0  0
  143.7197  135.6293  153.1547 O   0  0  0  0  0  0  0  0  0  0  0  0
  144.0625  133.2447  150.8448 H   0  0  0  0  0  0  0  0  0  0  0  0
  142.6244  134.2000  151.2049 H   0  0  0  0  0  0  0  0  0  0  0  0
  143.1825  132.9796  152.3518 H   0  0  0  0  0  0  0  0  0  0  0  0
  146.4594  134.5187  151.7223 H   0  0  0  0  0  0  0  0  0  0  0  0
  147.8756  136.2714  152.9900 H   0  0  0  0  0  0  0  0  0  0  0  0
  149.2519  137.4899  153.6043 H   0  0  0  0  0  0  0  0  0  0  0  0
  149.0929  141.4376  154.8923 H   0  0  0  0  0  0  0  0  0  0  0  0
  147.5905  140.5684  154.6112 H   0  0  0  0  0  0  0  0  0  0  0  0
  148.7322  140.8174  153.2946 H   0  0  0  0  0  0  0  0  0  0  0  0
  149.5783  139.9830  156.7598 H   0  0  0  0  0  0  0  0  0  0  0  0
  148.2890  138.8148  156.6084 H   0  0  0  0  0  0  0  0  0  0  0  0
  150.6607  138.0885  157.6920 H   0  0  0  0  0  0  0  0  0  0  0  0
  149.8714  136.9775  156.5603 H   0  0  0  0  0  0  0  0  0  0  0  0
  151.0648  139.0192  153.3181 H   0  0  0  0  0  0  0  0  0  0  0  0
  151.2767  140.2728  154.5312 H   0  0  0  0  0  0  0  0  0  0  0  0
  1  2  1  0  0  0  0
  1 19  1  0  0  0  0
  1 20  1  0  0  0  0
  1 21  1  0  0  0  0
  2 18  1  0  0  0  0
  2  3  2  0  0  0  0
  3  4  1  0  0  0  0
  3 22  1  0  0  0  0
  4  5  1  0  0  0  0
  4 17  2  0  0  0  0
  5  6  1  0  0  0  0
  5 23  1  0  0  0  0
  6  7  2  0  0  0  0
  6  8  1  0  0  0  0
  8  9  1  0  0  0  0
  8 24  1  0  0  0  0
  9 16  1  0  0  0  0
  9 10  1  0  0  0  0
  9 11  1  0  0  0  0
 10 25  1  0  0  0  0
 10 26  1  0  0  0  0
 10 27  1  0  0  0  0
 11 12  1  0  0  0  0
 11 28  1  0  0  0  0
 11 29  1  0  0  0  0
 12 13  1  0  0  0  0
 12 30  1  0  0  0  0
 12 31  1  0  0  0  0
 13 14  2  0  0  0  0
 13 15  2  0  0  0  0
 13 16  1  0  0  0  0
 16 32  1  0  0  0  0
 16 33  1  0  0  0  0
 17 18  1  0  0  0  0
M  END
> <s_m_source_file>
AV-unprocessed.smi

> <i_m_source_file_index>
634

> <i_lp_mmshare_version>
43012

> <i_f3d_flags>
0

> <s_epik_input>
W0NIM11jMVtjSF1jKG5vMSlbTkhdQyg9TylbTkhdW0NAQF0yKFtDSDNdKVtDSDJdW0NIMl1TKD1PKSg9TylbQ0gyXTI=

> <s_epik_cmdline>
J2VwaWtfcHl0aG9uJywgJy1waCcsICc3LjAnLCAnLXRuJywgJzgnLCAnLW1hJywgJzIwMCcsICctbWV0YWxfYmluZGluZycsICctaW1hZScsICc8aW5maWxlLm1hZT4nLCAnLW9tYWUnLCAnPG91dGZpbGUubWFlPic=

> <r_lp_tautomer_probability>
1

> <r_epik_Ionization_Penalty>
3.87281e-05

> <r_epik_Ionization_Penalty_Charging>
0

> <r_epik_Ionization_Penalty_Neutral>
3.87281e-05

> <r_epik_State_Penalty>
-0

> <r_epik_Charging_Adjusted_Penalty>
0

> <i_epik_Tot_Q>
0

> <i_epik_Tot_abs_Q>
0

> <r_epik_Metal_State_Penalty>
0.0249287

> <b_epik_Metal_Only>
0

> <s_lp_Force_Field>
OPLS_2005

> <r_lp_Energy>
3.17223

> <b_lp_Chiralities_Consistent>
1

> <s_lp_Variant>
AV-unprocessed.smi:634-1

> <Gold.Version>
5.8.1

> <Gold.Id.Protein>
6NUR|6NUR_protein|mol2

> <Gold.PLP.Fitness>
29.5596

> <Gold.PLP.PLP>
-19.1937

> <Gold.PLP.part.hbond>
-3.8201

> <Gold.PLP.part.metal>
0.0000

> <Gold.PLP.part.buried>
-2.1445

> <Gold.PLP.part.nonpolar>
-13.8516

> <Gold.PLP.part.repulsive>
0.3651

> <Gold.PLP.ligand.clash>
0.0000

> <Gold.PLP.ligand.torsion>
0.1363

> <Gold.PLP.Chemscore.Hbond>
3.5411

> <Gold.PLP.Chemscore.CHOScore>
0.0000

> <Gold.PLP.Chemscore.Metal>
0.0000

> <Gold.Chemscore.Hbonds>
donor molecule, donor type, donor heavy atom, donor atom, acceptor molecule, acceptor atom, score
      L1  H     5    23       P1  7948  0.98
      L1  H     8    24       P1  7948  0.49
      P1  H  7997  8008       L1    14  0.98
      P1  H 10752 10763       L1    15  1.00

> <Gold.PLP.Chemscore.Internal.Correction>
0.0151

> <Gold.Rescore>
     Score         DG    S(hbond)    S(metal)    S(lipo)     H(rot)  DE(clash)    DE(int)     intcor
     16.70     -19.87       3.63        0.00      41.30       1.00       0.98       2.19       ----

> <Gold.Chemscore.Fitness>
16.6951

> <Gold.Chemscore.DG>
-19.8688

> <Gold.Chemscore.ZeroCoef>
-5.4800

> <Gold.Chemscore.Hbond>
3.6277

> <Gold.Chemscore.Metal>
0.0000

> <Gold.Chemscore.Lipo>
41.3025

> <Gold.Chemscore.Internal_Hbond>
0.0000

> <Gold.Chemscore.DEClash>
0.9843

> <Gold.Chemscore.DEInternal>
2.1894

> <Gold.Chemscore.Rot>
1.0000

> <Gold.Chemscore.Internal.Correction>
   9.000000E+99

> <Gold.Chemscore.Hbonds>
donor molecule, donor type, donor heavy atom, donor atom, acceptor molecule, acceptor atom, score
      L1  H     5    23       P1  7948  0.90
      L1  H     8    24       P1  7948  0.48
      P1  H  7997  8008       L1    14  0.89
      P1  H 10752 10763       L1    15  0.98

> <Gold.Chemscore.Hbond.Weighted>
-12.1164

> <Gold.Chemscore.Metal.Weighted>
-0.0000

> <Gold.Chemscore.Lipo.Weighted>
-4.8324

> <Gold.Chemscore.Internal_Hbond.Weighted>
0.0000

> <Gold.Chemscore.DEClash.Weighted>
0.9843

> <Gold.Chemscore.DEInternal.Weighted>
2.1894

> <Gold.Chemscore.Rot.Weighted>
2.5600

> <Gold.Chemscore.Internal.Correction.Weighted>
   9.000000E+99

> <Gold.Protein.RotatedTorsions>
[ 6907 6896 6895 6894 ] final -138.33 input  -60.11 | X-H torsion
[ 7974 7965 7964 7962 ] final -100.71 input  175.53 | X-H torsion
[ 8008 7997 7996 7995 ] final  -30.19 input   59.86 | X-H torsion
[ 10167 10162 10161 10158 ] final -124.86 input  -65.29 | X-H torsion
[ 10718 10713 10712 10709 ] final  116.50 input   66.30 | X-H torsion
[ 10763 10752 10751 10750 ] final   59.04 input  -60.55 | X-H torsion
[ 11005 11000 10999 10996 ] final  127.17 input  -57.11 | X-H torsion

> <Gold.Protein.ActiveResidues>
 VAL166  LYS551  ARG553  GLY616  TRP617  ASP618  TYR619  PRO620  LYS621  CYS622 
 ASP623  PHE694  ASN695  SER759  ASP760  ASP761  ALA762  ILE779  LEU786  VAL792 
 PHE793  MET794  SER795  GLU796  ALA797  LYS798  CYS799  TRP800  GLU811  SER814 

> <Gold.Protein.RotatedAtoms>
  151.0337  133.5767  159.2657 H   0  0  0  0  0  0  0  0  0  0  0  0  # atno 6907 bound_to 6896
  151.2839  135.0721  159.9189 H   0  0  0  0  0  0  0  0  0  0  0  0  # atno 6908 bound_to 6896
  152.5350  134.0047  159.7965 H   0  0  0  0  0  0  0  0  0  0  0  0  # atno 6909 bound_to 6896
  145.2910  140.9352  143.2878 H   0  0  0  0  0  0  0  0  0  0  0  0  # atno 7974 bound_to 7965
  154.4260  140.1798  156.1367 H   0  0  0  0  0  0  0  0  0  0  0  0  # atno 8008 bound_to 7997
  156.0024  140.3358  155.6834 H   0  0  0  0  0  0  0  0  0  0  0  0  # atno 8009 bound_to 7997
  155.6224  140.0661  157.2665 H   0  0  0  0  0  0  0  0  0  0  0  0  # atno 8010 bound_to 7997
  139.9883  143.5668  152.2352 H   0  0  0  0  0  0  0  0  0  0  0  0  # atno 10167 bound_to 10162
  157.6156  131.1026  150.7481 H   0  0  0  0  0  0  0  0  0  0  0  0  # atno 10718 bound_to 10713
  152.9885  135.5585  154.5649 H   0  0  0  0  0  0  0  0  0  0  0  0  # atno 10763 bound_to 10752
  154.5061  135.2800  155.1383 H   0  0  0  0  0  0  0  0  0  0  0  0  # atno 10764 bound_to 10752
  154.2794  135.6348  153.5394 H   0  0  0  0  0  0  0  0  0  0  0  0  # atno 10765 bound_to 10752
  139.9493  134.9624  156.8815 H   0  0  0  0  0  0  0  0  0  0  0  0  # atno 11005 bound_to 11000
  144.9173  139.4455  143.6558 LP  0  0  0  0  0  0  0  0  0  0  0  0  # atno 17320 bound_to 7965
  146.3185  139.8014  142.8964 LP  0  0  0  0  0  0  0  0  0  0  0  0  # atno 17321 bound_to 7965
  139.6359  144.7650  151.2439 LP  0  0  0  0  0  0  0  0  0  0  0  0  # atno 17342 bound_to 10162
  140.7464  143.6399  150.8344 LP  0  0  0  0  0  0  0  0  0  0  0  0  # atno 17343 bound_to 10162
  156.7849  130.4871  149.5394 LP  0  0  0  0  0  0  0  0  0  0  0  0  # atno 17370 bound_to 10713
  156.1277  130.6156  151.0288 LP  0  0  0  0  0  0  0  0  0  0  0  0  # atno 17371 bound_to 10713
  140.5757  134.0400  155.7446 LP  0  0  0  0  0  0  0  0  0  0  0  0  # atno 17394 bound_to 11000
  141.1152  133.9551  157.2835 LP  0  0  0  0  0  0  0  0  0  0  0  0  # atno 17395 bound_to 11000

$$$$
