#       Name:                AV-unprocessed.smi:236
#       Creating user name   scv26
#       Creation time:       Thu Mar 26 20:39:32 2020


#       File generated by GOLD software.
#

@<TRIPOS>MOLECULE
AV-unprocessed.smi:236
    70    74     1
SMALL
NO_CHARGES


@<TRIPOS>ATOM
      1 ****        -7.1536  -2.9612   0.0538 C.3            1 S1                 0.0000
      2 ****        -6.6108  -1.5324   0.2155 C.3            1 S1                 0.0000
      3 ****        -7.1639  -0.6964  -0.7944 O.3            1 S1                 0.0000
      4 ****        -6.2805   0.3928  -0.9897 C.3            1 S1                 0.0000
      5 ****        -4.9223  -0.2907  -0.9786 C.3            1 S1                 0.0000
      6 ****        -5.0706  -1.3506   0.1169 C.3            1 S1                 0.0000
      7 ****        -4.4146  -2.5302  -0.3182 O.3            1 S1                 0.0000
      8 ****        -4.4719  -0.9301   1.4845 C.3            1 S1                 0.0000
      9 ****        -3.0445  -0.6455   1.4541 N.pl3          1 S1                 0.0000
     10 ****        -2.0174  -1.5618   1.4997 C.2            1 S1                 0.0000
     11 ****        -0.8155  -1.0539   1.4681 N.2            1 S1                 0.0000
     12 ****        -1.0292   0.3181   1.4109 C.ar           1 S1                 0.0000
     13 ****        -0.1782   1.4584   1.3636 C.ar           1 S1                 0.0000
     14 ****         1.1701   1.4162   1.3661 N.3            1 S1                 0.0000
     15 ****         1.7370   0.9565   2.6267 C.3            1 S1                 0.0000
     16 ****         3.2683   1.0844   2.5860 C.3            1 S1                 0.0000
     17 ****         3.7726   0.3757   1.4577 O.3            1 S1                 0.0000
     18 ****         3.2825   0.8955   0.2225 C.3            1 S1                 0.0000
     19 ****         3.9396   0.1145  -0.9227 C.3            1 S1                 0.0000
     20 ****         5.2987   0.5044  -1.0308 O.3            1 S1                 0.0000
     21 ****         5.9903  -0.2014  -2.0466 C.3            1 S1                 0.0000
     22 ****         7.4265   0.2757  -2.0898 C.3            1 S1                 0.0000
     23 ****         7.8542   1.3681  -3.0445 C.3            1 S1                 0.0000
     24 ****         8.2997  -0.0524  -3.2798 C.3            1 S1                 0.0000
     25 ****         1.7484   0.7475   0.2076 C.3            1 S1                 0.0000
     26 ****        -0.7559   2.6836   1.3219 N.ar           1 S1                 0.0000
     27 ****        -2.0877   2.7937   1.3244 C.ar           1 S1                 0.0000
     28 ****        -3.0062   1.8258   1.3650 N.ar           1 S1                 0.0000
     29 ****        -2.4257   0.5918   1.4071 C.ar           1 S1                 0.0000
     30 ****        -6.7462  -3.6249   0.8169 H              1 S1                 0.0000
     31 ****        -6.9052  -3.3752  -0.9238 H              1 S1                 0.0000
     32 ****        -8.2393  -2.9749   0.1496 H              1 S1                 0.0000
     33 ****        -6.9643  -1.1391   1.1700 H              1 S1                 0.0000
     34 ****        -6.4826   0.9150  -1.9250 H              1 S1                 0.0000
     35 ****        -6.3724   1.1022  -0.1656 H              1 S1                 0.0000
     36 ****        -4.7682  -0.7612  -1.9513 H              1 S1                 0.0000
     37 ****        -4.1022   0.4091  -0.8277 H              1 S1                 0.0000
     38 ****        -3.5035  -2.3282  -0.4659 H              1 S1                 0.0000
     39 ****        -4.9852  -0.0445   1.8616 H              1 S1                 0.0000
     40 ****        -4.6426  -1.7148   2.2228 H              1 S1                 0.0000
     41 ****        -2.1888  -2.6272   1.5553 H              1 S1                 0.0000
     42 ****         1.3336   1.5435   3.4531 H              1 S1                 0.0000
     43 ****         1.4583  -0.0836   2.8016 H              1 S1                 0.0000
     44 ****         3.5715   2.1314   2.5377 H              1 S1                 0.0000
     45 ****         3.7052   0.6671   3.4933 H              1 S1                 0.0000
     46 ****         3.5462   1.9512   0.1333 H              1 S1                 0.0000
     47 ****         3.8537  -0.9597  -0.7504 H              1 S1                 0.0000
     48 ****         3.4320   0.3385  -1.8623 H              1 S1                 0.0000
     49 ****         5.9808  -1.2716  -1.8346 H              1 S1                 0.0000
     50 ****         5.5172  -0.0466  -3.0178 H              1 S1                 0.0000
     51 ****         7.9264   0.2535  -1.1232 H              1 S1                 0.0000
     52 ****         7.1043   1.7769  -3.7187 H              1 S1                 0.0000
     53 ****         8.6000   2.0778  -2.6921 H              1 S1                 0.0000
     54 ****         9.3435  -0.2908  -3.0859 H              1 S1                 0.0000
     55 ****         7.8455  -0.5902  -4.1096 H              1 S1                 0.0000
     56 ****         1.4796  -0.3094   0.2150 H              1 S1                 0.0000
     57 ****         1.3385   1.1790  -0.7067 H              1 S1                 0.0000
     58 ****        -2.4729   3.8021   1.2914 H              1 S1                 0.0000
     59 ****        -8.0596  -0.3596  -0.5038 LP             1 S1                 0.0000
     60 ****        -7.2617  -1.2115  -1.6459 LP             1 S1                 0.0000
     61 ****        -4.8307  -2.8540  -1.1679 LP             1 S1                 0.0000
     62 ****        -4.4940  -3.2388   0.3830 LP             1 S1                 0.0000
     63 ****         0.0582  -1.5402   1.4819 LP             1 S1                 0.0000
     64 ****         1.4451   2.3735   1.2778 LP             1 S1                 0.0000
     65 ****         3.4994  -0.5834   1.5331 LP             1 S1                 0.0000
     66 ****         4.7705   0.4391   1.4590 LP             1 S1                 0.0000
     67 ****         5.7516   0.3320  -0.1561 LP             1 S1                 0.0000
     68 ****         5.3356   1.4819  -1.2383 LP             1 S1                 0.0000
     69 ****        -0.1860   3.5046   1.2893 LP             1 S1                 0.0000
     70 ****        -3.9935   1.9848   1.3646 LP             1 S1                 0.0000
@<TRIPOS>BOND
    1    1    2 1     
    2    1   30 1     
    3    1   31 1     
    4    1   32 1     
    5    2    6 1     
    6    2    3 1     
    7    2   33 1     
    8    3    4 1     
    9    4    5 1     
   10    4   34 1     
   11    4   35 1     
   12    5    6 1     
   13    5   36 1     
   14    5   37 1     
   15    6    7 1     
   16    6    8 1     
   17    7   38 1     
   18    8    9 1     
   19    8   39 1     
   20    8   40 1     
   21    9   29 1     
   22    9   10 1     
   23   10   11 2     
   24   10   41 1     
   25   11   12 1     
   26   12   29 ar    
   27   12   13 ar    
   28   13   14 1     
   29   13   26 ar    
   30   14   25 1     
   31   14   15 1     
   32   15   16 1     
   33   15   42 1     
   34   15   43 1     
   35   16   17 1     
   36   16   44 1     
   37   16   45 1     
   38   17   18 1     
   39   18   19 1     
   40   18   25 1     
   41   18   46 1     
   42   19   20 1     
   43   19   47 1     
   44   19   48 1     
   45   20   21 1     
   46   21   22 1     
   47   21   49 1     
   48   21   50 1     
   49   22   24 1     
   50   22   23 1     
   51   22   51 1     
   52   23   24 1     
   53   23   52 1     
   54   23   53 1     
   55   24   54 1     
   56   24   55 1     
   57   25   56 1     
   58   25   57 1     
   59   26   27 ar    
   60   27   28 ar    
   61   27   58 1     
   62   28   29 ar    
   63    3   59 1     
   64    3   60 1     
   65    7   61 1     
   66    7   62 1     
   67   11   63 1     
   68   14   64 1     
   69   17   65 1     
   70   17   66 1     
   71   20   67 1     
   72   20   68 1     
   73   26   69 1     
   74   28   70 1     
@<TRIPOS>SUBSTRUCTURE
      1 S1             1
@<TRIPOS>SET
LONE_PAIRS      STATIC     ATOMS    <user>   **** ""
12 59 60 61 62 63 64 65 66 67 68 69 70
DONOR_HYDROGENS      STATIC     ATOMS    <user>   **** ""
1 38
ATOM$BLUE        STATIC     ATOMS    COLORGROUP SYSTEM
12 59 60 61 62 63 64 65 66 67 68 69 70
ATOM$RED        STATIC     ATOMS    COLORGROUP SYSTEM
1 38
