#       Name:                AV-unprocessed.smi:229
#       Creating user name   scv26
#       Creation time:       Thu Mar 26 20:28:04 2020


#       File generated by GOLD software.
#

@<TRIPOS>MOLECULE
AV-unprocessed.smi:229
    70    74     1
SMALL
NO_CHARGES


@<TRIPOS>ATOM
      1 ****        -3.8585  -0.7374   4.0680 C.3            1 S1                 0.0000
      2 ****        -4.6794   0.0107   3.0091 C.3            1 S1                 0.0000
      3 ****        -4.0987  -0.0927   1.5893 C.3            1 S1                 0.0000
      4 ****        -2.7511   0.6354   1.4367 C.3            1 S1                 0.0000
      5 ****        -2.3193   0.5955   0.0456 N.3            1 S1                 0.0000
      6 ****        -1.0125   0.8971  -0.1636 C.ar           1 S1                 0.0000
      7 ****        -0.6772   1.9679  -0.9328 N.ar           1 S1                 0.0000
      8 ****         0.6064   2.2773  -1.1390 C.ar           1 S1                 0.0000
      9 ****         1.6975   1.6597  -0.6826 N.ar           1 S1                 0.0000
     10 ****         1.3684   0.5794   0.0815 C.ar           1 S1                 0.0000
     11 ****         0.0529   0.1309   0.3894 C.ar           1 S1                 0.0000
     12 ****         0.1178  -1.0091   1.1832 N.2            1 S1                 0.0000
     13 ****         1.3967  -1.2163   1.3425 C.2            1 S1                 0.0000
     14 ****         2.2185  -0.3101   0.7124 N.pl3          1 S1                 0.0000
     15 ****         3.6706  -0.2996   0.7119 C.3            1 S1                 0.0000
     16 ****         4.2611  -0.8550  -0.6018 C.3            1 S1                 0.0000
     17 ****         3.8303  -2.1949  -0.7438 O.3            1 S1                 0.0000
     18 ****         5.8023  -0.8525  -0.6207 C.3            1 S1                 0.0000
     19 ****         6.4434   0.5041  -0.3191 C.3            1 S1                 0.0000
     20 ****         7.8038   0.4170  -0.9908 C.3            1 S1                 0.0000
     21 ****         7.6496  -0.7386  -1.9821 C.3            1 S1                 0.0000
     22 ****         6.2713  -1.0812  -1.9416 O.3            1 S1                 0.0000
     23 ****        -3.3109   1.1431  -0.8753 C.3            1 S1                 0.0000
     24 ****        -4.6803   0.4525  -0.6866 C.3            1 S1                 0.0000
     25 ****        -4.7288  -0.9782  -1.2365 C.3            1 S1                 0.0000
     26 ****        -5.5104  -0.8449  -2.5360 C.3            1 S1                 0.0000
     27 ****        -6.4646   0.1484  -2.2120 O.3            1 S1                 0.0000
     28 ****        -5.7779   1.1665  -1.4985 C.3            1 S1                 0.0000
     29 ****        -5.0467   0.4944   0.6962 O.3            1 S1                 0.0000
     30 ****        -4.3466  -0.6848   5.0413 H              1 S1                 0.0000
     31 ****        -2.8616  -0.3110   4.1786 H              1 S1                 0.0000
     32 ****        -3.7478  -1.7906   3.8090 H              1 S1                 0.0000
     33 ****        -5.6898  -0.3996   3.0056 H              1 S1                 0.0000
     34 ****        -4.7791   1.0587   3.2937 H              1 S1                 0.0000
     35 ****        -3.9719  -1.1478   1.3434 H              1 S1                 0.0000
     36 ****        -2.8485   1.6770   1.7459 H              1 S1                 0.0000
     37 ****        -2.0103   0.1807   2.0920 H              1 S1                 0.0000
     38 ****         0.7844   3.1429  -1.7597 H              1 S1                 0.0000
     39 ****         1.7781  -2.0448   1.9216 H              1 S1                 0.0000
     40 ****         3.9930   0.7287   0.8766 H              1 S1                 0.0000
     41 ****         4.0260  -0.8781   1.5659 H              1 S1                 0.0000
     42 ****         3.8839  -0.2728  -1.4438 H              1 S1                 0.0000
     43 ****         4.1740  -2.5319  -1.5574 H              1 S1                 0.0000
     44 ****         6.2067  -1.6105   0.0535 H              1 S1                 0.0000
     45 ****         5.8618   1.3043  -0.7796 H              1 S1                 0.0000
     46 ****         6.5142   0.7112   0.7492 H              1 S1                 0.0000
     47 ****         8.0570   1.3529  -1.4900 H              1 S1                 0.0000
     48 ****         8.5895   0.1967  -0.2673 H              1 S1                 0.0000
     49 ****         7.9533  -0.4663  -2.9932 H              1 S1                 0.0000
     50 ****         8.2443  -1.5971  -1.6668 H              1 S1                 0.0000
     51 ****        -3.4088   2.2135  -0.6867 H              1 S1                 0.0000
     52 ****        -2.9754   1.0270  -1.9070 H              1 S1                 0.0000
     53 ****        -3.7453  -1.4260  -1.3825 H              1 S1                 0.0000
     54 ****        -5.2899  -1.6238  -0.5597 H              1 S1                 0.0000
     55 ****        -4.8702  -0.4958  -3.3478 H              1 S1                 0.0000
     56 ****        -5.9843  -1.7777  -2.8417 H              1 S1                 0.0000
     57 ****        -6.4667   1.7353  -0.8733 H              1 S1                 0.0000
     58 ****        -5.3458   1.8579  -2.2237 H              1 S1                 0.0000
     59 ****        -2.2994  -0.3693  -0.2166 LP             1 S1                 0.0000
     60 ****        -1.3957   2.5270  -1.3465 LP             1 S1                 0.0000
     61 ****         2.6344   1.9511  -0.8757 LP             1 S1                 0.0000
     62 ****        -0.6418  -1.5472   1.5485 LP             1 S1                 0.0000
     63 ****         2.8310  -2.2292  -0.7587 LP             1 S1                 0.0000
     64 ****         4.1713  -2.7426   0.0202 LP             1 S1                 0.0000
     65 ****         5.7609  -0.5123  -2.5865 LP             1 S1                 0.0000
     66 ****         6.1537  -2.0448  -2.1816 LP             1 S1                 0.0000
     67 ****        -7.1874  -0.2425  -1.6422 LP             1 S1                 0.0000
     68 ****        -6.8655   0.5250  -3.0471 LP             1 S1                 0.0000
     69 ****        -5.1664   1.4525   0.9567 LP             1 S1                 0.0000
     70 ****        -5.9146   0.0092   0.8021 LP             1 S1                 0.0000
@<TRIPOS>BOND
    1    1    2 1     
    2    1   30 1     
    3    1   31 1     
    4    1   32 1     
    5    2    3 1     
    6    2   33 1     
    7    2   34 1     
    8    3   29 1     
    9    3    4 1     
   10    3   35 1     
   11    4    5 1     
   12    4   36 1     
   13    4   37 1     
   14    5    6 1     
   15    5   23 1     
   16    6   11 ar    
   17    6    7 ar    
   18    7    8 ar    
   19    8    9 ar    
   20    8   38 1     
   21    9   10 ar    
   22   10   14 1     
   23   10   11 ar    
   24   11   12 1     
   25   12   13 2     
   26   13   14 1     
   27   13   39 1     
   28   14   15 1     
   29   15   16 1     
   30   15   40 1     
   31   15   41 1     
   32   16   17 1     
   33   16   18 1     
   34   16   42 1     
   35   17   43 1     
   36   18   22 1     
   37   18   19 1     
   38   18   44 1     
   39   19   20 1     
   40   19   45 1     
   41   19   46 1     
   42   20   21 1     
   43   20   47 1     
   44   20   48 1     
   45   21   22 1     
   46   21   49 1     
   47   21   50 1     
   48   23   24 1     
   49   23   51 1     
   50   23   52 1     
   51   24   28 1     
   52   24   25 1     
   53   24   29 1     
   54   25   26 1     
   55   25   53 1     
   56   25   54 1     
   57   26   27 1     
   58   26   55 1     
   59   26   56 1     
   60   27   28 1     
   61   28   57 1     
   62   28   58 1     
   63    5   59 1     
   64    7   60 1     
   65    9   61 1     
   66   12   62 1     
   67   17   63 1     
   68   17   64 1     
   69   22   65 1     
   70   22   66 1     
   71   27   67 1     
   72   27   68 1     
   73   29   69 1     
   74   29   70 1     
@<TRIPOS>SUBSTRUCTURE
      1 S1             1
@<TRIPOS>SET
LONE_PAIRS      STATIC     ATOMS    <user>   **** ""
12 59 60 61 62 63 64 65 66 67 68 69 70
DONOR_HYDROGENS      STATIC     ATOMS    <user>   **** ""
1 43
ATOM$BLUE        STATIC     ATOMS    COLORGROUP SYSTEM
12 59 60 61 62 63 64 65 66 67 68 69 70
ATOM$RED        STATIC     ATOMS    COLORGROUP SYSTEM
1 43
