AV-unprocessed.smi:1338|AV-procd|sdf|5501|dock7
  -GOLD-   22720 5 83D 1   1.00000     0.00000
 Structure written by MMmdl.
 39 40  0  0  0  0  0  0  0  0  2 V2000
  147.9944  136.2104  161.2028 C   0  0  0  0  0  0  0  0  0  0  0  0
  148.3904  136.8568  159.8923 C   0  0  0  0  0  0  0  0  0  0  0  0
  147.6058  137.7102  159.3536 N   0  0  0  0  0  0  0  0  0  0  0  0
  147.9716  138.3167  158.1398 C   0  0  0  0  0  0  0  0  0  0  0  0
  146.9797  139.3201  157.5771 C   0  0  0  0  0  0  0  0  0  0  0  0
  149.1492  138.0093  157.5237 C   0  0  0  0  0  0  0  0  0  0  0  0
  149.5957  138.6452  156.2078 C   0  0  0  0  0  0  0  0  0  0  0  0
  150.5412  139.8396  156.3455 C   0  0  0  0  0  0  0  0  0  0  0  0
  151.0068  140.3771  155.3410 O   0  0  0  0  0  0  0  0  0  0  0  0
  150.8159  140.2454  157.5951 N   0  0  0  0  0  0  0  0  0  0  0  0
  151.6819  141.3654  157.9483 C   0  0  0  0  0  0  0  0  0  0  0  0
  151.9732  141.3716  159.4637 C   0  0  0  0  0  0  0  0  0  0  0  0
  152.8181  142.5901  159.8694 C   0  0  0  0  0  0  0  0  0  0  0  0
  152.1498  143.9027  159.4318 C   0  0  0  0  0  0  0  0  0  0  0  0
  151.8655  143.9026  157.9215 C   0  0  0  0  0  0  0  0  0  0  0  0
  151.0188  142.6861  157.5132 C   0  0  0  0  0  0  0  0  0  0  0  0
  150.0225  137.0162  158.1750 C   0  0  0  0  0  0  0  0  0  0  0  0
  151.0909  136.6930  157.6573 O   0  0  0  0  0  0  0  0  0  0  0  0
  149.5997  136.4784  159.3546 N   0  5  0  0  0  0  0  0  0  0  0  0
  146.9595  136.4417  161.4583 H   0  0  0  0  0  0  0  0  0  0  0  0
  148.6351  136.5711  162.0078 H   0  0  0  0  0  0  0  0  0  0  0  0
  148.0953  135.1265  161.1390 H   0  0  0  0  0  0  0  0  0  0  0  0
  147.4438  140.3000  157.4662 H   0  0  0  0  0  0  0  0  0  0  0  0
  146.1172  139.4335  158.2347 H   0  0  0  0  0  0  0  0  0  0  0  0
  146.6152  138.9934  156.6032 H   0  0  0  0  0  0  0  0  0  0  0  0
  150.0720  137.8776  155.5974 H   0  0  0  0  0  0  0  0  0  0  0  0
  148.7343  138.9610  155.6188 H   0  0  0  0  0  0  0  0  0  0  0  0
  150.3850  139.7446  158.3585 H   0  0  0  0  0  0  0  0  0  0  0  0
  152.6253  141.2675  157.4075 H   0  0  0  0  0  0  0  0  0  0  0  0
  151.0347  141.3823  160.0199 H   0  0  0  0  0  0  0  0  0  0  0  0
  152.4923  140.4568  159.7521 H   0  0  0  0  0  0  0  0  0  0  0  0
  152.9717  142.5925  160.9488 H   0  0  0  0  0  0  0  0  0  0  0  0
  153.8075  142.5145  159.4165 H   0  0  0  0  0  0  0  0  0  0  0  0
  151.2168  144.0391  159.9802 H   0  0  0  0  0  0  0  0  0  0  0  0
  152.7868  144.7489  159.6907 H   0  0  0  0  0  0  0  0  0  0  0  0
  151.3535  144.8231  157.6395 H   0  0  0  0  0  0  0  0  0  0  0  0
  152.8079  143.8925  157.3725 H   0  0  0  0  0  0  0  0  0  0  0  0
  150.8680  142.6901  156.4329 H   0  0  0  0  0  0  0  0  0  0  0  0
  150.0285  142.7696  157.9635 H   0  0  0  0  0  0  0  0  0  0  0  0
  1  2  1  0  0  0  0
  1 20  1  0  0  0  0
  1 21  1  0  0  0  0
  1 22  1  0  0  0  0
  2 19  1  0  0  0  0
  2  3  2  0  0  0  0
  3  4  1  0  0  0  0
  4  5  1  0  0  0  0
  4  6  2  0  0  0  0
  5 23  1  0  0  0  0
  5 24  1  0  0  0  0
  5 25  1  0  0  0  0
  6  7  1  0  0  0  0
  6 17  1  0  0  0  0
  7  8  1  0  0  0  0
  7 26  1  0  0  0  0
  7 27  1  0  0  0  0
  8  9  2  0  0  0  0
  8 10  1  0  0  0  0
 10 11  1  0  0  0  0
 10 28  1  0  0  0  0
 11 16  1  0  0  0  0
 11 12  1  0  0  0  0
 11 29  1  0  0  0  0
 12 13  1  0  0  0  0
 12 30  1  0  0  0  0
 12 31  1  0  0  0  0
 13 14  1  0  0  0  0
 13 32  1  0  0  0  0
 13 33  1  0  0  0  0
 14 15  1  0  0  0  0
 14 34  1  0  0  0  0
 14 35  1  0  0  0  0
 15 16  1  0  0  0  0
 15 36  1  0  0  0  0
 15 37  1  0  0  0  0
 16 38  1  0  0  0  0
 16 39  1  0  0  0  0
 17 18  2  0  0  0  0
 17 19  1  0  0  0  0
M  CHG  1  19  -1
M  END
> <s_m_source_file>
AV-unprocessed.smi

> <i_m_source_file_index>
1338

> <i_lp_mmshare_version>
43012

> <i_f3d_flags>
0

> <s_epik_input>
W0NIM11jMW5jKFtDSDNdKWMoYyg9TylbbkhdMSlbQ0gyXUMoPU8pW05IXVtDSF0yW0NIMl1bQ0gyXVtDSDJdW0NIMl1bQ0gyXTI=

> <s_epik_cmdline>
J2VwaWtfcHl0aG9uJywgJy1waCcsICc3LjAnLCAnLXRuJywgJzgnLCAnLW1hJywgJzIwMCcsICctbWV0YWxfYmluZGluZycsICctaW1hZScsICc8aW5maWxlLm1hZT4nLCAnLW9tYWUnLCAnPG91dGZpbGUubWFlPic=

> <r_lp_tautomer_probability>
0.839158

> <r_epik_Ionization_Penalty>
6.66811

> <r_epik_Ionization_Penalty_Charging>
7.5907e-08

> <r_epik_Ionization_Penalty_Neutral>
6.66811

> <r_epik_State_Penalty>
4.51402

> <r_epik_Charging_Adjusted_Penalty>
4.51402

> <i_epik_Tot_Q>
-1

> <i_epik_Tot_abs_Q>
1

> <r_epik_Metal_State_Penalty>
0.85041

> <b_epik_Metal_Only>
1

> <s_lp_Force_Field>
OPLS_2005

> <r_lp_Energy>
13.4348

> <b_lp_Chiralities_Consistent>
1

> <s_lp_Variant>
AV-unprocessed.smi:1338-3

> <Gold.Version>
5.8.1

> <Gold.Id.Protein>
6NUR|6NUR_protein|mol2

> <Gold.PLP.Fitness>
41.7635

> <Gold.PLP.PLP>
-32.3647

> <Gold.PLP.part.hbond>
-3.0000

> <Gold.PLP.part.metal>
0.0000

> <Gold.PLP.part.buried>
-4.6775

> <Gold.PLP.part.nonpolar>
-25.1951

> <Gold.PLP.part.repulsive>
0.0809

> <Gold.PLP.ligand.clash>
0.0000

> <Gold.PLP.ligand.torsion>
0.4304

> <Gold.PLP.Chemscore.Hbond>
3.4186

> <Gold.PLP.Chemscore.CHOScore>
0.0000

> <Gold.PLP.Chemscore.Metal>
0.0000

> <Gold.Chemscore.Hbonds>
donor molecule, donor type, donor heavy atom, donor atom, acceptor molecule, acceptor atom, score
      P1  H  6896  6908       L1    19  1.85
      P1  H  6934  6947       L1     3  0.53
      P1  H  7989  7998       L1     9  1.00

> <Gold.PLP.Chemscore.Internal.Correction>
0.0037

> <Gold.Rescore>
     Score         DG    S(hbond)    S(metal)    S(lipo)     H(rot)  DE(clash)    DE(int)     intcor
     17.08     -17.63       2.20        0.00      73.04       1.46       0.03       0.52       ----

> <Gold.Chemscore.Fitness>
17.0780

> <Gold.Chemscore.DG>
-17.6273

> <Gold.Chemscore.ZeroCoef>
-5.4800

> <Gold.Chemscore.Hbond>
2.1968

> <Gold.Chemscore.Metal>
0.0000

> <Gold.Chemscore.Lipo>
73.0380

> <Gold.Chemscore.Internal_Hbond>
0.0000

> <Gold.Chemscore.DEClash>
0.0272

> <Gold.Chemscore.DEInternal>
0.5220

> <Gold.Chemscore.Rot>
1.4591

> <Gold.Chemscore.Internal.Correction>
   9.000000E+99

> <Gold.Chemscore.Hbonds>
donor molecule, donor type, donor heavy atom, donor atom, acceptor molecule, acceptor atom, score
      P1  H  6896  6908       L1    19  0.49
      P1  H  6934  6947       L1     3  0.21
      P1  H  7989  7998       L1     9  0.92

> <Gold.Chemscore.Hbond.Weighted>
-7.3372

> <Gold.Chemscore.Metal.Weighted>
-0.0000

> <Gold.Chemscore.Lipo.Weighted>
-8.5454

> <Gold.Chemscore.Internal_Hbond.Weighted>
0.0000

> <Gold.Chemscore.DEClash.Weighted>
0.0272

> <Gold.Chemscore.DEInternal.Weighted>
0.5220

> <Gold.Chemscore.Rot.Weighted>
3.7353

> <Gold.Chemscore.Internal.Correction.Weighted>
   9.000000E+99

> <Gold.Protein.RotatedTorsions>
[ 6907 6896 6895 6894 ] final -169.28 input  -60.11 | X-H torsion
[ 7974 7965 7964 7962 ] final  -80.83 input  175.53 | X-H torsion
[ 8008 7997 7996 7995 ] final  176.44 input   59.86 | X-H torsion
[ 10167 10162 10161 10158 ] final -138.51 input  -65.29 | X-H torsion
[ 10718 10713 10712 10709 ] final   49.98 input   66.30 | X-H torsion
[ 10763 10752 10751 10750 ] final  143.42 input  -60.55 | X-H torsion
[ 11005 11000 10999 10996 ] final  -38.91 input  -57.11 | X-H torsion

> <Gold.Protein.ActiveResidues>
 VAL166  LYS551  ARG553  GLY616  TRP617  ASP618  TYR619  PRO620  LYS621  CYS622 
 ASP623  PHE694  ASN695  SER759  ASP760  ASP761  ALA762  ILE779  LEU786  VAL792 
 PHE793  MET794  SER795  GLU796  ALA797  LYS798  CYS799  TRP800  GLU811  SER814 

> <Gold.Protein.RotatedAtoms>
  151.4892  133.3529  159.2850 H   0  0  0  0  0  0  0  0  0  0  0  0  # atno 6907 bound_to 6896
  150.8846  134.8244  159.7261 H   0  0  0  0  0  0  0  0  0  0  0  0  # atno 6908 bound_to 6896
  152.4785  134.4794  159.9712 H   0  0  0  0  0  0  0  0  0  0  0  0  # atno 6909 bound_to 6896
  145.5547  140.9491  143.1480 H   0  0  0  0  0  0  0  0  0  0  0  0  # atno 7974 bound_to 7965
  156.0764  140.1383  156.9766 H   0  0  0  0  0  0  0  0  0  0  0  0  # atno 8008 bound_to 7997
  154.4560  140.0961  156.6809 H   0  0  0  0  0  0  0  0  0  0  0  0  # atno 8009 bound_to 7997
  155.5146  140.3454  155.4397 H   0  0  0  0  0  0  0  0  0  0  0  0  # atno 8010 bound_to 7997
  139.8471  143.7247  152.2660 H   0  0  0  0  0  0  0  0  0  0  0  0  # atno 10167 bound_to 10162
  157.4840  130.8333  149.8125 H   0  0  0  0  0  0  0  0  0  0  0  0  # atno 10718 bound_to 10713
  153.9720  135.2949  155.3426 H   0  0  0  0  0  0  0  0  0  0  0  0  # atno 10763 bound_to 10752
  154.7317  135.5065  153.8977 H   0  0  0  0  0  0  0  0  0  0  0  0  # atno 10764 bound_to 10752
  153.0895  135.6703  153.9994 H   0  0  0  0  0  0  0  0  0  0  0  0  # atno 10765 bound_to 10752
  141.0063  133.6930  156.2116 H   0  0  0  0  0  0  0  0  0  0  0  0  # atno 11005 bound_to 11000
  144.7512  139.7189  143.7272 LP  0  0  0  0  0  0  0  0  0  0  0  0  # atno 17320 bound_to 7965
  146.1892  139.5124  142.9816 LP  0  0  0  0  0  0  0  0  0  0  0  0  # atno 17321 bound_to 7965
  139.7502  144.7536  151.0518 LP  0  0  0  0  0  0  0  0  0  0  0  0  # atno 17342 bound_to 10162
  140.7792  143.4869  150.9944 LP  0  0  0  0  0  0  0  0  0  0  0  0  # atno 17343 bound_to 10162
  156.0137  130.3822  150.2181 LP  0  0  0  0  0  0  0  0  0  0  0  0  # atno 17370 bound_to 10713
  157.0368  131.0023  151.3295 LP  0  0  0  0  0  0  0  0  0  0  0  0  # atno 17371 bound_to 10713
  140.6808  134.4769  157.5589 LP  0  0  0  0  0  0  0  0  0  0  0  0  # atno 17394 bound_to 11000
  139.9065  134.8438  156.1687 LP  0  0  0  0  0  0  0  0  0  0  0  0  # atno 17395 bound_to 11000

$$$$
