AV-unprocessed.smi:1495|AV-procd|sdf|6053|dock5
  -GOLD-   22720 6173D 1   1.00000     0.00000
 Structure written by MMmdl.
 40 41  0  0  0  0  0  0  0  0  1 V2000
  151.8514  145.3788  159.1867 C   0  0  0  0  0  0  0  0  0  0  0  0
  151.1645  144.1016  158.6879 C   0  0  0  0  0  0  0  0  0  0  0  0
  152.0729  142.8648  158.7613 C   0  0  2  0  0  0  0  0  0  0  0  0
  151.3015  141.5608  158.4694 C   0  0  0  0  0  0  0  0  0  0  0  0
  152.2373  140.4340  158.5951 N   0  0  0  0  0  0  0  0  0  0  0  0
  152.7458  139.6861  157.5844 C   0  0  0  0  0  0  0  0  0  0  0  0
  153.7452  138.9761  157.7058 O   0  0  0  0  0  0  0  0  0  0  0  0
  152.0532  139.7503  156.4362 N   0  0  0  0  0  0  0  0  0  0  0  0
  152.3978  139.0303  155.2185 C   0  0  0  0  0  0  0  0  0  0  0  0
  151.2188  138.1655  154.7521 C   0  0  0  0  0  0  0  0  0  0  0  0
  149.9837  138.9774  154.5071 C   0  0  0  0  0  0  0  0  0  0  0  0
  148.7560  138.5092  154.1098 C   0  0  0  0  0  0  0  0  0  0  0  0
  147.5911  139.7948  153.9506 S   0  0  0  0  0  0  0  0  0  0  0  0
  148.8345  140.9400  154.4396 C   0  0  0  0  0  0  0  0  0  0  0  0
  148.5984  142.4065  154.5577 C   0  0  0  0  0  0  0  0  0  0  0  0
  150.0125  140.3633  154.6906 N   0  0  0  0  0  0  0  0  0  0  0  0
  152.7581  140.3662  159.9625 C   0  0  0  0  0  0  0  0  0  0  0  0
  153.5080  141.6773  160.2562 C   0  0  0  0  0  0  0  0  0  0  0  0
  152.6261  142.7833  160.0753 O   0  0  0  0  0  0  0  0  0  0  0  0
  151.1834  146.2360  159.1031 H   0  0  0  0  0  0  0  0  0  0  0  0
  152.7475  145.5974  158.6053 H   0  0  0  0  0  0  0  0  0  0  0  0
  152.1444  145.2878  160.2329 H   0  0  0  0  0  0  0  0  0  0  0  0
  150.2554  143.9267  159.2644 H   0  0  0  0  0  0  0  0  0  0  0  0
  150.8481  144.2569  157.6560 H   0  0  0  0  0  0  0  0  0  0  0  0
  152.8819  142.9765  158.0367 H   0  0  0  0  0  0  0  0  0  0  0  0
  150.4905  141.4341  159.1882 H   0  0  0  0  0  0  0  0  0  0  0  0
  150.8191  141.6264  157.4943 H   0  0  0  0  0  0  0  0  0  0  0  0
  151.2337  140.3390  156.4066 H   0  0  0  0  0  0  0  0  0  0  0  0
  152.6683  139.7439  154.4380 H   0  0  0  0  0  0  0  0  0  0  0  0
  153.2739  138.4070  155.4054 H   0  0  0  0  0  0  0  0  0  0  0  0
  151.4961  137.6313  153.8421 H   0  0  0  0  0  0  0  0  0  0  0  0
  151.0144  137.3969  155.4988 H   0  0  0  0  0  0  0  0  0  0  0  0
  148.4671  137.4893  153.9036 H   0  0  0  0  0  0  0  0  0  0  0  0
  149.0440  142.7877  155.4769 H   0  0  0  0  0  0  0  0  0  0  0  0
  147.5292  142.6181  154.5751 H   0  0  0  0  0  0  0  0  0  0  0  0
  149.0445  142.9252  153.7089 H   0  0  0  0  0  0  0  0  0  0  0  0
  151.9302  140.2407  160.6617 H   0  0  0  0  0  0  0  0  0  0  0  0
  153.4190  139.5134  160.1233 H   0  0  0  0  0  0  0  0  0  0  0  0
  153.8745  141.6818  161.2827 H   0  0  0  0  0  0  0  0  0  0  0  0
  154.3771  141.7830  159.6049 H   0  0  0  0  0  0  0  0  0  0  0  0
  1  2  1  0  0  0  0
  1 20  1  0  0  0  0
  1 21  1  0  0  0  0
  1 22  1  0  0  0  0
  2  3  1  0  0  0  0
  2 23  1  0  0  0  0
  2 24  1  0  0  0  0
  3 19  1  0  0  0  0
  3  4  1  0  0  0  0
  3 25  1  0  0  0  0
  4  5  1  0  0  0  0
  4 26  1  0  0  0  0
  4 27  1  0  0  0  0
  5  6  1  0  0  0  0
  5 17  1  0  0  0  0
  6  7  2  0  0  0  0
  6  8  1  0  0  0  0
  8  9  1  0  0  0  0
  8 28  1  0  0  0  0
  9 10  1  0  0  0  0
  9 29  1  0  0  0  0
  9 30  1  0  0  0  0
 10 11  1  0  0  0  0
 10 31  1  0  0  0  0
 10 32  1  0  0  0  0
 11 16  1  0  0  0  0
 11 12  2  0  0  0  0
 12 13  1  0  0  0  0
 12 33  1  0  0  0  0
 13 14  1  0  0  0  0
 14 15  1  0  0  0  0
 14 16  2  0  0  0  0
 15 34  1  0  0  0  0
 15 35  1  0  0  0  0
 15 36  1  0  0  0  0
 17 18  1  0  0  0  0
 17 37  1  0  0  0  0
 17 38  1  0  0  0  0
 18 19  1  0  0  0  0
 18 39  1  0  0  0  0
 18 40  1  0  0  0  0
M  END
> <s_m_source_file>
AV-unprocessed.smi

> <i_m_source_file_index>
1495

> <i_lp_mmshare_version>
43012

> <i_f3d_flags>
0

> <s_epik_input>
W0NIM11bQ0gyXVtDQEBIXTFbQ0gyXU4oW0NIMl1bQ0gyXU8xKUMoPU8pW05IXVtDSDJdW0NIMl1jMltjSF1zYyhuMilbQ0gzXQ==

> <s_epik_cmdline>
J2VwaWtfcHl0aG9uJywgJy1waCcsICc3LjAnLCAnLXRuJywgJzgnLCAnLW1hJywgJzIwMCcsICctbWV0YWxfYmluZGluZycsICctaW1hZScsICc8aW5maWxlLm1hZT4nLCAnLW9tYWUnLCAnPG91dGZpbGUubWFlPic=

> <r_epik_Ionization_Penalty>
0.00206013

> <r_epik_Ionization_Penalty_Charging>
0

> <r_epik_Ionization_Penalty_Neutral>
0.00206013

> <r_epik_State_Penalty>
0.00138662

> <r_epik_Charging_Adjusted_Penalty>
0.00138662

> <i_epik_Tot_Q>
0

> <i_epik_Tot_abs_Q>
0

> <r_epik_Metal_State_Penalty>
-0

> <b_epik_Metal_Only>
0

> <s_lp_Force_Field>
OPLS_2005

> <r_lp_Energy>
21.6891

> <b_lp_Chiralities_Consistent>
1

> <s_lp_Variant>
AV-unprocessed.smi:1495-1

> <Gold.Version>
5.8.1

> <Gold.Id.Protein>
6NUR|6NUR_protein|mol2

> <Gold.PLP.Fitness>
43.4853

> <Gold.PLP.PLP>
-35.0239

> <Gold.PLP.part.hbond>
-1.7481

> <Gold.PLP.part.metal>
0.0000

> <Gold.PLP.part.buried>
3.1596

> <Gold.PLP.part.nonpolar>
-37.4611

> <Gold.PLP.part.repulsive>
0.2427

> <Gold.PLP.ligand.clash>
0.0000

> <Gold.PLP.ligand.torsion>
0.1352

> <Gold.PLP.Chemscore.Hbond>
1.9184

> <Gold.PLP.Chemscore.CHOScore>
0.9744

> <Gold.PLP.Chemscore.Metal>
0.0000

> <Gold.Chemscore.Hbonds>
donor molecule, donor type, donor heavy atom, donor atom, acceptor molecule, acceptor atom, score
      P1  H  7989  7998       L1    16  0.87
      P1  H  7997  8009       L1     7  0.91
      L1  C    12    33       P1  7948  0.91

> <Gold.PLP.Chemscore.Internal.Correction>
0.0533

> <Gold.Rescore>
     Score         DG    S(hbond)    S(metal)    S(lipo)     H(rot)  DE(clash)    DE(int)     intcor
     14.90     -17.27       1.10        0.00     100.44       1.42       0.75       1.62       ----

> <Gold.Chemscore.Fitness>
14.8963

> <Gold.Chemscore.DG>
-17.2677

> <Gold.Chemscore.ZeroCoef>
-5.4800

> <Gold.Chemscore.Hbond>
1.1002

> <Gold.Chemscore.Metal>
0.0000

> <Gold.Chemscore.Lipo>
100.4435

> <Gold.Chemscore.Internal_Hbond>
0.0000

> <Gold.Chemscore.DEClash>
0.7464

> <Gold.Chemscore.DEInternal>
1.6249

> <Gold.Chemscore.Rot>
1.4214

> <Gold.Chemscore.Internal.Correction>
   9.000000E+99

> <Gold.Chemscore.Hbonds>
donor molecule, donor type, donor heavy atom, donor atom, acceptor molecule, acceptor atom, score
      P1  H  7989  7998       L1    16  0.23
      P1  H  7997  8009       L1     7  0.19

> <Gold.Chemscore.Hbond.Weighted>
-3.6746

> <Gold.Chemscore.Metal.Weighted>
-0.0000

> <Gold.Chemscore.Lipo.Weighted>
-11.7519

> <Gold.Chemscore.Internal_Hbond.Weighted>
0.0000

> <Gold.Chemscore.DEClash.Weighted>
0.7464

> <Gold.Chemscore.DEInternal.Weighted>
1.6249

> <Gold.Chemscore.Rot.Weighted>
3.6388

> <Gold.Chemscore.Internal.Correction.Weighted>
   9.000000E+99

> <Gold.Protein.RotatedTorsions>
[ 6907 6896 6895 6894 ] final  -19.08 input  -60.11 | X-H torsion
[ 7974 7965 7964 7962 ] final   35.11 input  175.53 | X-H torsion
[ 8008 7997 7996 7995 ] final  134.75 input   59.86 | X-H torsion
[ 10167 10162 10161 10158 ] final  -42.17 input  -65.29 | X-H torsion
[ 10718 10713 10712 10709 ] final  106.64 input   66.30 | X-H torsion
[ 10763 10752 10751 10750 ] final   75.25 input  -60.55 | X-H torsion
[ 11005 11000 10999 10996 ] final  -60.57 input  -57.11 | X-H torsion

> <Gold.Protein.ActiveResidues>
 VAL166  LYS551  ARG553  GLY616  TRP617  ASP618  TYR619  PRO620  LYS621  CYS622 
 ASP623  PHE694  ASN695  SER759  ASP760  ASP761  ALA762  ILE779  LEU786  VAL792 
 PHE793  MET794  SER795  GLU796  ALA797  LYS798  CYS799  TRP800  GLU811  SER814 

> <Gold.Protein.RotatedAtoms>
  151.2686  135.0677  159.9125 H   0  0  0  0  0  0  0  0  0  0  0  0  # atno 6907 bound_to 6896
  152.5354  134.0155  159.7968 H   0  0  0  0  0  0  0  0  0  0  0  0  # atno 6908 bound_to 6896
  151.0389  133.5673  159.2684 H   0  0  0  0  0  0  0  0  0  0  0  0  # atno 6909 bound_to 6896
  146.1306  139.6183  142.9229 H   0  0  0  0  0  0  0  0  0  0  0  0  # atno 7974 bound_to 7965
  156.3000  140.2488  156.3468 H   0  0  0  0  0  0  0  0  0  0  0  0  # atno 8008 bound_to 7997
  154.9003  140.0406  157.1908 H   0  0  0  0  0  0  0  0  0  0  0  0  # atno 8009 bound_to 7997
  154.8507  140.2905  155.5604 H   0  0  0  0  0  0  0  0  0  0  0  0  # atno 8010 bound_to 7997
  140.6978  143.3053  151.3171 H   0  0  0  0  0  0  0  0  0  0  0  0  # atno 10167 bound_to 10162
  157.6660  131.0855  150.6038 H   0  0  0  0  0  0  0  0  0  0  0  0  # atno 10718 bound_to 10713
  153.0642  135.4995  154.8162 H   0  0  0  0  0  0  0  0  0  0  0  0  # atno 10763 bound_to 10752
  154.6928  135.2987  154.9456 H   0  0  0  0  0  0  0  0  0  0  0  0  # atno 10764 bound_to 10752
  154.0205  135.6742  153.4825 H   0  0  0  0  0  0  0  0  0  0  0  0  # atno 10765 bound_to 10752
  141.1292  133.6623  156.5244 H   0  0  0  0  0  0  0  0  0  0  0  0  # atno 11005 bound_to 11000
  145.5269  141.0429  143.2404 LP  0  0  0  0  0  0  0  0  0  0  0  0  # atno 17320 bound_to 7965
  144.7686  139.6786  143.7204 LP  0  0  0  0  0  0  0  0  0  0  0  0  # atno 17321 bound_to 7965
  139.6456  144.0458  152.2588 LP  0  0  0  0  0  0  0  0  0  0  0  0  # atno 17342 bound_to 10162
  139.9977  144.6316  150.7757 LP  0  0  0  0  0  0  0  0  0  0  0  0  # atno 17343 bound_to 10162
  156.6338  130.4439  149.5777 LP  0  0  0  0  0  0  0  0  0  0  0  0  # atno 17370 bound_to 10713
  156.2261  130.6766  151.1417 LP  0  0  0  0  0  0  0  0  0  0  0  0  # atno 17371 bound_to 10713
  140.4266  134.7139  157.4919 LP  0  0  0  0  0  0  0  0  0  0  0  0  # atno 17394 bound_to 11000
  140.0322  134.6389  155.9091 LP  0  0  0  0  0  0  0  0  0  0  0  0  # atno 17395 bound_to 11000

$$$$
