AV-unprocessed.smi:72|AV-procd|sdf|716|dock1
  -GOLD-   2262017 43D 1   1.00000     0.00000
 Structure written by MMmdl.
 28 29  0  0  0  0  0  0  0  0  2 V2000
  154.0808  138.1979  154.7982 N   0  0  0  0  0  0  0  0  0  0  0  0
  152.8412  138.4027  154.8996 C   0  0  0  0  0  0  0  0  0  0  0  0
  152.3436  139.7380  155.1480 N   0  0  0  0  0  0  0  0  0  0  0  0
  151.0594  139.8971  155.2431 C   0  0  0  0  0  0  0  0  0  0  0  0
  150.1324  138.7807  155.1038 N   0  0  0  0  0  0  0  0  0  0  0  0
  148.6264  138.9575  155.2160 C   0  0  1  0  0  0  0  0  0  0  0  0
  148.3262  140.2588  155.6368 O   0  0  0  0  0  0  0  0  0  0  0  0
  147.7446  140.9964  154.5678 C   0  0  2  0  0  0  0  0  0  0  0  0
  146.9434  142.1984  155.0977 C   0  0  0  0  0  0  0  0  0  0  0  0
  146.8948  143.2228  154.1273 O   0  0  0  0  0  0  0  0  0  0  0  0
  146.9703  139.9343  153.7778 C   0  0  2  0  0  0  0  0  0  0  0  0
  145.7118  139.6688  154.3698 O   0  0  0  0  0  0  0  0  0  0  0  0
  147.8768  138.7144  153.8810 C   0  0  1  0  0  0  0  0  0  0  0  0
  148.7252  138.6556  152.7470 O   0  0  0  0  0  0  0  0  0  0  0  0
  150.6510  137.4807  154.8599 C   0  0  0  0  0  0  0  0  0  0  0  0
  149.8522  136.5513  154.7391 O   0  0  0  0  0  0  0  0  0  0  0  0
  152.0008  137.3200  154.7657 N   0  5  0  0  0  0  0  0  0  0  0  0
  148.3119  138.2820  156.0133 H   0  0  0  0  0  0  0  0  0  0  0  0
  148.5592  141.3646  153.9418 H   0  0  0  0  0  0  0  0  0  0  0  0
  146.7952  140.2428  152.7461 H   0  0  0  0  0  0  0  0  0  0  0  0
  147.3152  137.7807  153.9370 H   0  0  0  0  0  0  0  0  0  0  0  0
  154.6185  139.0453  154.9095 H   0  0  0  0  0  0  0  0  0  0  0  0
  150.6046  140.8691  155.4311 H   0  0  0  0  0  0  0  0  0  0  0  0
  145.9308  141.9131  155.3833 H   0  0  0  0  0  0  0  0  0  0  0  0
  147.4232  142.5963  155.9920 H   0  0  0  0  0  0  0  0  0  0  0  0
  147.5757  143.8498  154.3186 H   0  0  0  0  0  0  0  0  0  0  0  0
  145.0376  140.0007  153.7967 H   0  0  0  0  0  0  0  0  0  0  0  0
  148.5594  137.8455  152.2901 H   0  0  0  0  0  0  0  0  0  0  0  0
  1  2  2  0  0  0  0
  1 22  1  0  0  0  0
  2 17  1  0  0  0  0
  2  3  1  0  0  0  0
  3  4  2  0  0  0  0
  4  5  1  0  0  0  0
  4 23  1  0  0  0  0
  5  6  1  0  0  0  0
  5 15  1  0  0  0  0
  6 18  1  0  0  0  0
  6 13  1  0  0  0  0
  6  7  1  0  0  0  0
  7  8  1  0  0  0  0
  8 19  1  0  0  0  0
  8  9  1  0  0  0  0
  8 11  1  0  0  0  0
  9 10  1  0  0  0  0
  9 24  1  0  0  0  0
  9 25  1  0  0  0  0
 10 26  1  0  0  0  0
 11 20  1  0  0  0  0
 11 12  1  0  0  0  0
 11 13  1  0  0  0  0
 12 27  1  0  0  0  0
 13 21  1  0  0  0  0
 13 14  1  0  0  0  0
 14 28  1  0  0  0  0
 15 16  2  0  0  0  0
 15 17  1  0  0  0  0
M  CHG  1  17  -1
M  END
> <s_m_source_file>
AV-unprocessed.smi

> <i_m_source_file_index>
72

> <i_lp_mmshare_version>
43012

> <i_f3d_flags>
0

> <s_epik_input>
W05IMl1jMW5bY0hdbihjKD1PKW4xKVtDQEBIXTJPW0NASF0oW0NIMl1bT0hdKVtDQEBIXShbT0hdKVtDQEhdMltPSF0=

> <s_epik_cmdline>
J2VwaWtfcHl0aG9uJywgJy1waCcsICc3LjAnLCAnLXRuJywgJzgnLCAnLW1hJywgJzIwMCcsICctbWV0YWxfYmluZGluZycsICctaW1hZScsICc8aW5maWxlLm1hZT4nLCAnLW9tYWUnLCAnPG91dGZpbGUubWFlPic=

> <r_lp_tautomer_probability>
7.17554e-07

> <r_epik_Ionization_Penalty>
12.8705

> <r_epik_Ionization_Penalty_Charging>
5.64144

> <r_epik_Ionization_Penalty_Neutral>
7.22905

> <r_epik_State_Penalty>
3.30104

> <r_epik_Charging_Adjusted_Penalty>
8.94249

> <i_epik_Tot_Q>
-1

> <i_epik_Tot_abs_Q>
1

> <r_epik_Metal_State_Penalty>
0.529074

> <b_epik_Metal_Only>
1

> <s_epik_Chemistry_Notes>
This compound contains an acetal/aminal-like group ( X-CH(R)-Y where X, Y are N, S, or O) that may be acid/base labile, releasing an aldehyde.

> <s_lp_Force_Field>
OPLS_2005

> <r_lp_Energy>
37.2706

> <b_lp_Chiralities_Consistent>
1

> <s_lp_Variant>
AV-unprocessed.smi:72-54

> <Gold.Version>
5.8.1

> <Gold.Id.Protein>
6NUR|6NUR_protein|mol2

> <Gold.PLP.Fitness>
38.7908

> <Gold.PLP.PLP>
-26.0068

> <Gold.PLP.part.hbond>
-8.2359

> <Gold.PLP.part.metal>
0.0000

> <Gold.PLP.part.buried>
-2.5523

> <Gold.PLP.part.nonpolar>
-16.8558

> <Gold.PLP.part.repulsive>
1.2526

> <Gold.PLP.ligand.clash>
0.0000

> <Gold.PLP.ligand.torsion>
0.4398

> <Gold.PLP.Chemscore.Hbond>
4.5429

> <Gold.PLP.Chemscore.CHOScore>
0.0000

> <Gold.PLP.Chemscore.Metal>
0.0000

> <Gold.Chemscore.Hbonds>
donor molecule, donor type, donor heavy atom, donor atom, acceptor molecule, acceptor atom, score
      L1  H    10    26       P1  8028  0.85
      L1  H    12    27       P1 10175  1.00
      L1  H    14    28       P1  7948  1.00
      P1  H 10752 10763       L1    17  1.73

> <Gold.PLP.Chemscore.Internal.Correction>
0.0348

> <Gold.Rescore>
     Score         DG    S(hbond)    S(metal)    S(lipo)     H(rot)  DE(clash)    DE(int)     intcor
      6.18      -7.08       2.83        0.00      21.32       4.04       0.35       0.54       ----

> <Gold.Chemscore.Fitness>
6.1823

> <Gold.Chemscore.DG>
-7.0796

> <Gold.Chemscore.ZeroCoef>
-5.4800

> <Gold.Chemscore.Hbond>
2.8290

> <Gold.Chemscore.Metal>
0.0000

> <Gold.Chemscore.Lipo>
21.3154

> <Gold.Chemscore.Internal_Hbond>
0.0000

> <Gold.Chemscore.DEClash>
0.3526

> <Gold.Chemscore.DEInternal>
0.5447

> <Gold.Chemscore.Rot>
4.0403

> <Gold.Chemscore.Internal.Correction>
   9.000000E+99

> <Gold.Chemscore.Hbonds>
donor molecule, donor type, donor heavy atom, donor atom, acceptor molecule, acceptor atom, score
      L1  H    10    26       P1  8028  0.13
      L1  H    12    27       P1 10175  0.99
      L1  H    14    28       P1  7948  0.96
      P1  H 10752 10763       L1    17  0.71

> <Gold.Chemscore.Hbond.Weighted>
-9.4488

> <Gold.Chemscore.Metal.Weighted>
-0.0000

> <Gold.Chemscore.Lipo.Weighted>
-2.4939

> <Gold.Chemscore.Internal_Hbond.Weighted>
0.0000

> <Gold.Chemscore.DEClash.Weighted>
0.3526

> <Gold.Chemscore.DEInternal.Weighted>
0.5447

> <Gold.Chemscore.Rot.Weighted>
10.3431

> <Gold.Chemscore.Internal.Correction.Weighted>
   9.000000E+99

> <Gold.Protein.RotatedTorsions>
[ 6907 6896 6895 6894 ] final -142.44 input  -60.11 | X-H torsion
[ 7974 7965 7964 7962 ] final   -7.03 input  175.53 | X-H torsion
[ 8008 7997 7996 7995 ] final  -97.93 input   59.86 | X-H torsion
[ 10167 10162 10161 10158 ] final   64.57 input  -65.29 | X-H torsion
[ 10718 10713 10712 10709 ] final -133.99 input   66.30 | X-H torsion
[ 10763 10752 10751 10750 ] final   43.42 input  -60.55 | X-H torsion
[ 11005 11000 10999 10996 ] final -164.10 input  -57.11 | X-H torsion

> <Gold.Protein.ActiveResidues>
 VAL166  LYS551  ARG553  GLY616  TRP617  ASP618  TYR619  PRO620  LYS621  CYS622 
 ASP623  PHE694  ASN695  SER759  ASP760  ASP761  ALA762  ILE779  LEU786  VAL792 
 PHE793  MET794  SER795  GLU796  ALA797  LYS798  CYS799  TRP800  GLU811  SER814 

> <Gold.Protein.RotatedAtoms>
  151.0871  133.5345  159.2616 H   0  0  0  0  0  0  0  0  0  0  0  0  # atno 6907 bound_to 6896
  151.2226  135.0524  159.8966 H   0  0  0  0  0  0  0  0  0  0  0  0  # atno 6908 bound_to 6896
  152.5430  134.0671  159.8231 H   0  0  0  0  0  0  0  0  0  0  0  0  # atno 6909 bound_to 6896
  146.2317  140.2258  142.8338 H   0  0  0  0  0  0  0  0  0  0  0  0  # atno 7974 bound_to 7965
  154.7944  140.0459  157.1225 H   0  0  0  0  0  0  0  0  0  0  0  0  # atno 8008 bound_to 7997
  154.9552  140.3070  155.5036 H   0  0  0  0  0  0  0  0  0  0  0  0  # atno 8009 bound_to 7997
  156.2954  140.2280  156.4633 H   0  0  0  0  0  0  0  0  0  0  0  0  # atno 8010 bound_to 7997
  140.1208  144.4733  150.6922 H   0  0  0  0  0  0  0  0  0  0  0  0  # atno 10167 bound_to 10162
  156.2507  130.7151  151.1049 H   0  0  0  0  0  0  0  0  0  0  0  0  # atno 10718 bound_to 10713
  152.9861  135.6102  154.3109 H   0  0  0  0  0  0  0  0  0  0  0  0  # atno 10763 bound_to 10752
  154.2824  135.2776  155.2693 H   0  0  0  0  0  0  0  0  0  0  0  0  # atno 10764 bound_to 10752
  154.5025  135.5863  153.6599 H   0  0  0  0  0  0  0  0  0  0  0  0  # atno 10765 bound_to 10752
  140.5907  134.5047  157.5192 H   0  0  0  0  0  0  0  0  0  0  0  0  # atno 11005 bound_to 11000
  144.9596  140.8262  143.5521 LP  0  0  0  0  0  0  0  0  0  0  0  0  # atno 17320 bound_to 7965
  145.2227  139.2151  143.5084 LP  0  0  0  0  0  0  0  0  0  0  0  0  # atno 17321 bound_to 7965
  140.6873  143.2357  151.5225 LP  0  0  0  0  0  0  0  0  0  0  0  0  # atno 17342 bound_to 10162
  139.5570  144.2251  152.1628 LP  0  0  0  0  0  0  0  0  0  0  0  0  # atno 17343 bound_to 10162
  157.7213  131.0679  150.6123 LP  0  0  0  0  0  0  0  0  0  0  0  0  # atno 17370 bound_to 10713
  156.6203  130.4404  149.5825 LP  0  0  0  0  0  0  0  0  0  0  0  0  # atno 17371 bound_to 10713
  139.9275  134.8027  156.1025 LP  0  0  0  0  0  0  0  0  0  0  0  0  # atno 17394 bound_to 11000
  141.0936  133.6704  156.2596 LP  0  0  0  0  0  0  0  0  0  0  0  0  # atno 17395 bound_to 11000

$$$$
