AV-unprocessed.smi:2975|AV-procd|sdf|11357|dock1
  -GOLD-   2272016273D 1   1.00000     0.00000
 Structure written by MMmdl.
 40 42  0  0  0  0  0  0  0  0  2 V2000
  153.0213  138.4878  154.5055 C   0  0  0  0  0  0  0  0  0  0  0  0
  151.7041  137.8254  154.9288 C   0  0  2  0  0  0  0  0  0  0  0  0
  151.5997  136.5717  154.2862 O   0  0  0  0  0  0  0  0  0  0  0  0
  150.5379  138.7149  154.6264 C   0  0  0  0  0  0  0  0  0  0  0  0
  149.4466  138.3811  153.8793 N   0  3  0  0  0  0  0  0  0  0  0  0
  148.5698  139.4643  153.8104 C   0  0  0  0  0  0  0  0  0  0  0  0
  147.3389  139.6016  153.1763 C   0  0  0  0  0  0  0  0  0  0  0  0
  146.6960  140.8501  153.3068 C   0  0  0  0  0  0  0  0  0  0  0  0
  147.2768  141.9015  154.0458 C   0  0  0  0  0  0  0  0  0  0  0  0
  148.5260  141.7506  154.6835 C   0  0  0  0  0  0  0  0  0  0  0  0
  149.1566  140.5141  154.5461 C   0  0  0  0  0  0  0  0  0  0  0  0
  150.3736  140.0111  155.0191 N   0  0  0  0  0  0  0  0  0  0  0  0
  151.2463  140.8760  155.8234 C   0  0  0  0  0  0  0  0  0  0  0  0
  150.9704  140.7266  157.3240 C   0  0  0  0  0  0  0  0  0  0  0  0
  151.2589  141.9644  157.9566 O   0  0  0  0  0  0  0  0  0  0  0  0
  152.0257  141.9504  159.1024 C   0  0  0  0  0  0  0  0  0  0  0  0
  152.7109  140.8070  159.5875 C   0  0  0  0  0  0  0  0  0  0  0  0
  153.4748  140.8808  160.7685 C   0  0  0  0  0  0  0  0  0  0  0  0
  153.5644  142.0928  161.4779 C   0  0  0  0  0  0  0  0  0  0  0  0
  152.8878  143.2320  161.0050 C   0  0  0  0  0  0  0  0  0  0  0  0
  152.1227  143.1591  159.8248 C   0  0  0  0  0  0  0  0  0  0  0  0
  151.4765  144.2633  159.3798 F   0  0  0  0  0  0  0  0  0  0  0  0
  153.1645  139.4390  155.0192 H   0  0  0  0  0  0  0  0  0  0  0  0
  153.0424  138.6823  153.4325 H   0  0  0  0  0  0  0  0  0  0  0  0
  153.8748  137.8530  154.7460 H   0  0  0  0  0  0  0  0  0  0  0  0
  151.7299  137.6345  156.0020 H   0  0  0  0  0  0  0  0  0  0  0  0
  151.3702  136.7164  153.3807 H   0  0  0  0  0  0  0  0  0  0  0  0
  146.8912  138.7970  152.6112 H   0  0  0  0  0  0  0  0  0  0  0  0
  145.7379  141.0041  152.8315 H   0  0  0  0  0  0  0  0  0  0  0  0
  146.7537  142.8437  154.1245 H   0  0  0  0  0  0  0  0  0  0  0  0
  148.9608  142.5622  155.2480 H   0  0  0  0  0  0  0  0  0  0  0  0
  152.2784  140.6033  155.6019 H   0  0  0  0  0  0  0  0  0  0  0  0
  151.1265  141.9102  155.4996 H   0  0  0  0  0  0  0  0  0  0  0  0
  149.9272  140.4514  157.4873 H   0  0  0  0  0  0  0  0  0  0  0  0
  151.6021  139.9377  157.7357 H   0  0  0  0  0  0  0  0  0  0  0  0
  152.6661  139.8597  159.0723 H   0  0  0  0  0  0  0  0  0  0  0  0
  153.9935  140.0053  161.1305 H   0  0  0  0  0  0  0  0  0  0  0  0
  154.1511  142.1484  162.3830 H   0  0  0  0  0  0  0  0  0  0  0  0
  152.9553  144.1639  161.5471 H   0  0  0  0  0  0  0  0  0  0  0  0
  149.3165  137.4732  153.4518 H   0  0  0  0  0  0  0  0  0  0  0  0
  1  2  1  0  0  0  0
  1 23  1  0  0  0  0
  1 24  1  0  0  0  0
  1 25  1  0  0  0  0
  2  3  1  0  0  0  0
  2  4  1  0  0  0  0
  2 26  1  0  0  0  0
  3 27  1  0  0  0  0
  4 12  1  0  0  0  0
  4  5  2  0  0  0  0
  5  6  1  0  0  0  0
  5 40  1  0  0  0  0
  6 11  2  0  0  0  0
  6  7  1  0  0  0  0
  7  8  2  0  0  0  0
  7 28  1  0  0  0  0
  8  9  1  0  0  0  0
  8 29  1  0  0  0  0
  9 10  2  0  0  0  0
  9 30  1  0  0  0  0
 10 11  1  0  0  0  0
 10 31  1  0  0  0  0
 11 12  1  0  0  0  0
 12 13  1  0  0  0  0
 13 14  1  0  0  0  0
 13 32  1  0  0  0  0
 13 33  1  0  0  0  0
 14 15  1  0  0  0  0
 14 34  1  0  0  0  0
 14 35  1  0  0  0  0
 15 16  1  0  0  0  0
 16 21  1  0  0  0  0
 16 17  2  0  0  0  0
 17 18  1  0  0  0  0
 17 36  1  0  0  0  0
 18 19  2  0  0  0  0
 18 37  1  0  0  0  0
 19 20  1  0  0  0  0
 19 38  1  0  0  0  0
 20 21  2  0  0  0  0
 20 39  1  0  0  0  0
 21 22  1  0  0  0  0
M  CHG  1   5   1
M  END
> <s_m_source_file>
AV-unprocessed.smi

> <i_m_source_file_index>
2975

> <i_lp_mmshare_version>
43012

> <i_f3d_flags>
0

> <s_epik_input>
W2NIXTFbY0hdW2NIXVtjSF1jKGMxMiluKGMobjIpW0NASF0oW0NIM10pW09IXSlbQ0gyXVtDSDJdT2MzW2NIXVtjSF1bY0hdW2NIXWMzRg==

> <s_epik_cmdline>
J2VwaWtfcHl0aG9uJywgJy1waCcsICc3LjAnLCAnLXRuJywgJzgnLCAnLW1hJywgJzIwMCcsICctbWV0YWxfYmluZGluZycsICctaW1hZScsICc8aW5maWxlLm1hZT4nLCAnLW9tYWUnLCAnPG91dGZpbGUubWFlPic=

> <r_lp_tautomer_probability>
1

> <r_epik_Ionization_Penalty>
1.61121

> <r_epik_Ionization_Penalty_Charging>
1.61119

> <r_epik_Ionization_Penalty_Neutral>
2.92192e-05

> <r_epik_State_Penalty>
1.71016

> <r_epik_Charging_Adjusted_Penalty>
3.32134

> <i_epik_Tot_Q>
1

> <i_epik_Tot_abs_Q>
1

> <r_epik_Metal_State_Penalty>
5.76893

> <b_epik_Metal_Only>
0

> <s_lp_Force_Field>
OPLS_2005

> <r_lp_Energy>
21.0124

> <b_lp_Chiralities_Consistent>
1

> <s_lp_Variant>
AV-unprocessed.smi:2975-3

> <Gold.Version>
5.8.1

> <Gold.Id.Protein>
6NUR|6NUR_protein|mol2

> <Gold.PLP.Fitness>
63.2158

> <Gold.PLP.PLP>
-53.2670

> <Gold.PLP.part.hbond>
-3.5292

> <Gold.PLP.part.metal>
0.0000

> <Gold.PLP.part.buried>
-0.3592

> <Gold.PLP.part.nonpolar>
-48.9661

> <Gold.PLP.part.repulsive>
0.0774

> <Gold.PLP.ligand.clash>
0.0000

> <Gold.PLP.ligand.torsion>
1.0281

> <Gold.PLP.Chemscore.Hbond>
3.9600

> <Gold.PLP.Chemscore.CHOScore>
0.0000

> <Gold.PLP.Chemscore.Metal>
0.0000

> <Gold.Chemscore.Hbonds>
donor molecule, donor type, donor heavy atom, donor atom, acceptor molecule, acceptor atom, score
      L1  H     3    27       P1  7949  0.97
      L1  H     5    40       P1  7948  2.00
      P1  H 10752 10765       L1     3  0.85

> <Gold.PLP.Chemscore.Internal.Correction>
0.1251

> <Gold.Rescore>
     Score         DG    S(hbond)    S(metal)    S(lipo)     H(rot)  DE(clash)    DE(int)     intcor
     21.10     -22.62       2.33        0.00     129.91       2.28       0.39       1.13       ----

> <Gold.Chemscore.Fitness>
21.0991

> <Gold.Chemscore.DG>
-22.6228

> <Gold.Chemscore.ZeroCoef>
-5.4800

> <Gold.Chemscore.Hbond>
2.3273

> <Gold.Chemscore.Metal>
0.0000

> <Gold.Chemscore.Lipo>
129.9135

> <Gold.Chemscore.Internal_Hbond>
0.0000

> <Gold.Chemscore.DEClash>
0.3930

> <Gold.Chemscore.DEInternal>
1.1307

> <Gold.Chemscore.Rot>
2.2774

> <Gold.Chemscore.Internal.Correction>
   9.000000E+99

> <Gold.Chemscore.Hbonds>
donor molecule, donor type, donor heavy atom, donor atom, acceptor molecule, acceptor atom, score
      L1  H     3    27       P1  7949  0.64
      L1  H     5    40       P1  7948  0.89
      P1  H 10752 10765       L1     3  0.13

> <Gold.Chemscore.Hbond.Weighted>
-7.7731

> <Gold.Chemscore.Metal.Weighted>
-0.0000

> <Gold.Chemscore.Lipo.Weighted>
-15.1999

> <Gold.Chemscore.Internal_Hbond.Weighted>
0.0000

> <Gold.Chemscore.DEClash.Weighted>
0.3930

> <Gold.Chemscore.DEInternal.Weighted>
1.1307

> <Gold.Chemscore.Rot.Weighted>
5.8302

> <Gold.Chemscore.Internal.Correction.Weighted>
   9.000000E+99

> <Gold.Protein.RotatedTorsions>
[ 6907 6896 6895 6894 ] final -134.01 input  -60.11 | X-H torsion
[ 7974 7965 7964 7962 ] final -125.56 input  175.53 | X-H torsion
[ 8008 7997 7996 7995 ] final  -19.08 input   59.86 | X-H torsion
[ 10167 10162 10161 10158 ] final   25.61 input  -65.29 | X-H torsion
[ 10718 10713 10712 10709 ] final  -58.95 input   66.30 | X-H torsion
[ 10763 10752 10751 10750 ] final  142.94 input  -60.55 | X-H torsion
[ 11005 11000 10999 10996 ] final   15.36 input  -57.11 | X-H torsion

> <Gold.Protein.ActiveResidues>
 VAL166  LYS551  ARG553  GLY616  TRP617  ASP618  TYR619  PRO620  LYS621  CYS622 
 ASP623  PHE694  ASN695  SER759  ASP760  ASP761  ALA762  ILE779  LEU786  VAL792 
 PHE793  MET794  SER795  GLU796  ALA797  LYS798  CYS799  TRP800  GLU811  SER814 

> <Gold.Protein.RotatedAtoms>
  150.9807  133.6248  159.2722 H   0  0  0  0  0  0  0  0  0  0  0  0  # atno 6907 bound_to 6896
  151.3504  135.0882  159.9410 H   0  0  0  0  0  0  0  0  0  0  0  0  # atno 6908 bound_to 6896
  152.5215  133.9401  159.7677 H   0  0  0  0  0  0  0  0  0  0  0  0  # atno 6909 bound_to 6896
  144.9964  140.7780  143.4523 H   0  0  0  0  0  0  0  0  0  0  0  0  # atno 7974 bound_to 7965
  154.4861  140.2098  155.9652 H   0  0  0  0  0  0  0  0  0  0  0  0  # atno 8008 bound_to 7997
  156.1238  140.3209  155.8216 H   0  0  0  0  0  0  0  0  0  0  0  0  # atno 8009 bound_to 7997
  155.4420  140.0511  157.3000 H   0  0  0  0  0  0  0  0  0  0  0  0  # atno 8010 bound_to 7997
  140.5092  144.0188  150.6365 H   0  0  0  0  0  0  0  0  0  0  0  0  # atno 10167 bound_to 10162
  156.1097  130.4176  150.0648 H   0  0  0  0  0  0  0  0  0  0  0  0  # atno 10718 bound_to 10713
  153.9641  135.2957  155.3431 H   0  0  0  0  0  0  0  0  0  0  0  0  # atno 10763 bound_to 10752
  154.7358  135.5047  153.9043 H   0  0  0  0  0  0  0  0  0  0  0  0  # atno 10764 bound_to 10752
  153.0932  135.6713  153.9925 H   0  0  0  0  0  0  0  0  0  0  0  0  # atno 10765 bound_to 10752
  140.4592  134.1145  155.7714 H   0  0  0  0  0  0  0  0  0  0  0  0  # atno 11005 bound_to 11000
  145.2214  139.2157  143.5091 LP  0  0  0  0  0  0  0  0  0  0  0  0  # atno 17320 bound_to 7965
  146.3442  140.2073  142.8589 LP  0  0  0  0  0  0  0  0  0  0  0  0  # atno 17321 bound_to 7965
  140.3506  143.2965  152.0491 LP  0  0  0  0  0  0  0  0  0  0  0  0  # atno 17342 bound_to 10162
  139.4891  144.6376  151.6943 LP  0  0  0  0  0  0  0  0  0  0  0  0  # atno 17343 bound_to 10162
  156.8614  130.9493  151.3617 LP  0  0  0  0  0  0  0  0  0  0  0  0  # atno 17370 bound_to 10713
  157.6277  130.8705  149.9219 LP  0  0  0  0  0  0  0  0  0  0  0  0  # atno 17371 bound_to 10713
  141.1629  133.8758  157.1797 LP  0  0  0  0  0  0  0  0  0  0  0  0  # atno 17394 bound_to 11000
  139.9956  135.0048  157.0076 LP  0  0  0  0  0  0  0  0  0  0  0  0  # atno 17395 bound_to 11000

$$$$
