AV-unprocessed.smi:1868|AV-procd|sdf|7589|dock2
  -GOLD-   22720 9303D 1   1.00000     0.00000
 Structure written by MMmdl.
 48 50  0  0  0  0  0  0  0  0  3 V2000
  143.6426  135.7789  155.0604 C   0  0  0  0  0  0  0  0  0  0  0  0
  143.7774  135.1935  153.6949 C   0  0  0  0  0  0  0  0  0  0  0  0
  143.5202  133.9006  153.3489 N   0  3  0  0  0  0  0  0  0  0  0  0
  143.7625  133.7185  151.9864 C   0  0  0  0  0  0  0  0  0  0  0  0
  143.6480  132.5884  151.1829 C   0  0  0  0  0  0  0  0  0  0  0  0
  143.9780  132.7447  149.8205 C   0  0  0  0  0  0  0  0  0  0  0  0
  144.4014  133.9872  149.3051 C   0  0  0  0  0  0  0  0  0  0  0  0
  144.5138  135.1265  150.1296 C   0  0  0  0  0  0  0  0  0  0  0  0
  144.1855  134.9628  151.4751 C   0  0  0  0  0  0  0  0  0  0  0  0
  144.1761  135.8429  152.5630 N   0  0  0  0  0  0  0  0  0  0  0  0
  144.5798  137.2431  152.3594 C   0  0  0  0  0  0  0  0  0  0  0  0
  146.0933  137.4093  152.1156 C   0  0  1  0  0  0  0  0  0  0  0  0
  146.3195  137.6792  150.7458 O   0  0  0  0  0  0  0  0  0  0  0  0
  146.6756  138.5670  152.9508 C   0  0  0  0  0  0  0  0  0  0  0  0
  147.9917  138.2365  153.5563 N   0  3  2  0  0  0  0  0  0  0  0  0
  147.8930  137.2993  154.7070 C   0  0  0  0  0  0  0  0  0  0  0  0
  149.2876  136.8915  155.2113 C   0  0  0  0  0  0  0  0  0  0  0  0
  150.1242  138.1230  155.5968 C   0  0  1  0  0  0  0  0  0  0  0  0
  151.5290  137.7316  156.0759 C   0  0  0  0  0  0  0  0  0  0  0  0
  150.1790  139.0898  154.4023 C   0  0  0  0  0  0  0  0  0  0  0  0
  148.7673  139.4526  153.9123 C   0  0  0  0  0  0  0  0  0  0  0  0
  143.3480  135.0134  155.7787 H   0  0  0  0  0  0  0  0  0  0  0  0
  142.8861  136.5637  155.0611 H   0  0  0  0  0  0  0  0  0  0  0  0
  144.5918  136.2078  155.3825 H   0  0  0  0  0  0  0  0  0  0  0  0
  143.3254  131.6349  151.5752 H   0  0  0  0  0  0  0  0  0  0  0  0
  143.9057  131.8942  149.1579 H   0  0  0  0  0  0  0  0  0  0  0  0
  144.6467  134.0676  148.2559 H   0  0  0  0  0  0  0  0  0  0  0  0
  144.8408  136.0726  149.7249 H   0  0  0  0  0  0  0  0  0  0  0  0
  144.0149  137.6297  151.5102 H   0  0  0  0  0  0  0  0  0  0  0  0
  144.2594  137.8224  153.2265 H   0  0  0  0  0  0  0  0  0  0  0  0
  146.5916  136.4723  152.3603 H   0  0  0  0  0  0  0  0  0  0  0  0
  145.5375  138.0676  150.3830 H   0  0  0  0  0  0  0  0  0  0  0  0
  146.7774  139.4390  152.3022 H   0  0  0  0  0  0  0  0  0  0  0  0
  145.9812  138.8584  153.7402 H   0  0  0  0  0  0  0  0  0  0  0  0
  147.3273  137.7694  155.5130 H   0  0  0  0  0  0  0  0  0  0  0  0
  147.3459  136.4014  154.4225 H   0  0  0  0  0  0  0  0  0  0  0  0
  149.1861  136.2257  156.0691 H   0  0  0  0  0  0  0  0  0  0  0  0
  149.8022  136.3209  154.4365 H   0  0  0  0  0  0  0  0  0  0  0  0
  149.6226  138.6302  156.4225 H   0  0  0  0  0  0  0  0  0  0  0  0
  152.0888  137.2197  155.2924 H   0  0  0  0  0  0  0  0  0  0  0  0
  151.4789  137.0658  156.9379 H   0  0  0  0  0  0  0  0  0  0  0  0
  152.1010  138.6111  156.3730 H   0  0  0  0  0  0  0  0  0  0  0  0
  150.7142  139.9982  154.6812 H   0  0  0  0  0  0  0  0  0  0  0  0
  150.7434  138.6380  153.5850 H   0  0  0  0  0  0  0  0  0  0  0  0
  148.8507  140.1052  153.0422 H   0  0  0  0  0  0  0  0  0  0  0  0
  148.2336  140.0142  154.6809 H   0  0  0  0  0  0  0  0  0  0  0  0
  148.5228  137.7678  152.8356 H   0  0  0  0  0  0  0  0  0  0  0  0
  143.2044  133.1941  154.0013 H   0  0  0  0  0  0  0  0  0  0  0  0
  1  2  1  0  0  0  0
  1 22  1  0  0  0  0
  1 23  1  0  0  0  0
  1 24  1  0  0  0  0
  2 10  1  0  0  0  0
  2  3  2  0  0  0  0
  3  4  1  0  0  0  0
  3 48  1  0  0  0  0
  4  9  2  0  0  0  0
  4  5  1  0  0  0  0
  5  6  2  0  0  0  0
  5 25  1  0  0  0  0
  6  7  1  0  0  0  0
  6 26  1  0  0  0  0
  7  8  2  0  0  0  0
  7 27  1  0  0  0  0
  8  9  1  0  0  0  0
  8 28  1  0  0  0  0
  9 10  1  0  0  0  0
 10 11  1  0  0  0  0
 11 12  1  0  0  0  0
 11 29  1  0  0  0  0
 11 30  1  0  0  0  0
 12 13  1  0  0  0  0
 12 14  1  0  0  0  0
 12 31  1  0  0  0  0
 13 32  1  0  0  0  0
 14 15  1  0  0  0  0
 14 33  1  0  0  0  0
 14 34  1  0  0  0  0
 15 21  1  0  0  0  0
 15 16  1  0  0  0  0
 15 47  1  0  0  0  0
 16 17  1  0  0  0  0
 16 35  1  0  0  0  0
 16 36  1  0  0  0  0
 17 18  1  0  0  0  0
 17 37  1  0  0  0  0
 17 38  1  0  0  0  0
 18 19  1  0  0  0  0
 18 20  1  0  0  0  0
 18 39  1  0  0  0  0
 19 40  1  0  0  0  0
 19 41  1  0  0  0  0
 19 42  1  0  0  0  0
 20 21  1  0  0  0  0
 20 43  1  0  0  0  0
 20 44  1  0  0  0  0
 21 45  1  0  0  0  0
 21 46  1  0  0  0  0
M  CHG  1   3   1
M  CHG  1  15   1
M  END
> <s_m_source_file>
AV-unprocessed.smi

> <i_m_source_file_index>
1868

> <i_lp_mmshare_version>
43012

> <i_f3d_flags>
0

> <s_epik_input>
W2NIXTFbY0hdW2NIXVtjSF1jKGMxMiluKGMobjIpW0NIM10pW0NIMl1bQ0BIXShbT0hdKVtDSDJdTjNbQ0gyXVtDSDJdW0NIXShbQ0gzXSlbQ0gyXVtDSDJdMw==

> <s_epik_cmdline>
J2VwaWtfcHl0aG9uJywgJy1waCcsICc3LjAnLCAnLXRuJywgJzgnLCAnLW1hJywgJzIwMCcsICctbWV0YWxfYmluZGluZycsICctaW1hZScsICc8aW5maWxlLm1hZT4nLCAnLW9tYWUnLCAnPG91dGZpbGUubWFlPic=

> <r_epik_Ionization_Penalty>
1.10901

> <r_epik_Ionization_Penalty_Charging>
1.10901

> <r_epik_Ionization_Penalty_Neutral>
6.90208e-07

> <r_epik_State_Penalty>
1.18788

> <r_epik_Charging_Adjusted_Penalty>
2.29689

> <i_epik_Tot_Q>
2

> <i_epik_Tot_abs_Q>
2

> <r_epik_Metal_State_Penalty>
5.19353

> <b_epik_Metal_Only>
0

> <s_lp_Force_Field>
OPLS_2005

> <r_lp_Energy>
29.1884

> <b_lp_Chiralities_Consistent>
1

> <s_lp_Variant>
AV-unprocessed.smi:1868-6

> <Gold.Version>
5.8.1

> <Gold.Id.Protein>
6NUR|6NUR_protein|mol2

> <Gold.PLP.Fitness>
46.7530

> <Gold.PLP.PLP>
-31.7553

> <Gold.PLP.part.hbond>
-4.5809

> <Gold.PLP.part.metal>
0.0000

> <Gold.PLP.part.buried>
4.1120

> <Gold.PLP.part.nonpolar>
-30.5936

> <Gold.PLP.part.repulsive>
0.0220

> <Gold.PLP.ligand.clash>
0.0000

> <Gold.PLP.ligand.torsion>
1.5172

> <Gold.PLP.Chemscore.Hbond>
5.9913

> <Gold.PLP.Chemscore.CHOScore>
0.0000

> <Gold.PLP.Chemscore.Metal>
0.0000

> <Gold.Chemscore.Hbonds>
donor molecule, donor type, donor heavy atom, donor atom, acceptor molecule, acceptor atom, score
      L1  H     3    48       P1 10957  2.00
      L1  H    13    32       P1 10171  1.00
      L1  H    15    47       P1  7948  2.00
      P1  H  7954  7966       L1    13  0.99

> <Gold.PLP.Chemscore.Internal.Correction>
0.0582

> <Gold.Rescore>
     Score         DG    S(hbond)    S(metal)    S(lipo)     H(rot)  DE(clash)    DE(int)     intcor
     19.85     -23.47       3.81        0.00      88.43       1.99       2.04       1.58       ----

> <Gold.Chemscore.Fitness>
19.8528

> <Gold.Chemscore.DG>
-23.4690

> <Gold.Chemscore.ZeroCoef>
-5.4800

> <Gold.Chemscore.Hbond>
3.8106

> <Gold.Chemscore.Metal>
0.0000

> <Gold.Chemscore.Lipo>
88.4336

> <Gold.Chemscore.Internal_Hbond>
0.0000

> <Gold.Chemscore.DEClash>
2.0403

> <Gold.Chemscore.DEInternal>
1.5759

> <Gold.Chemscore.Rot>
1.9863

> <Gold.Chemscore.Internal.Correction>
   9.000000E+99

> <Gold.Chemscore.Hbonds>
donor molecule, donor type, donor heavy atom, donor atom, acceptor molecule, acceptor atom, score
      L1  H     3    48       P1 10957  1.00
      L1  H    13    32       P1 10171  1.00
      L1  H    15    47       P1  7948  0.96
      P1  H  7954  7966       L1    13  0.88

> <Gold.Chemscore.Hbond.Weighted>
-12.7273

> <Gold.Chemscore.Metal.Weighted>
-0.0000

> <Gold.Chemscore.Lipo.Weighted>
-10.3467

> <Gold.Chemscore.Internal_Hbond.Weighted>
0.0000

> <Gold.Chemscore.DEClash.Weighted>
2.0403

> <Gold.Chemscore.DEInternal.Weighted>
1.5759

> <Gold.Chemscore.Rot.Weighted>
5.0850

> <Gold.Chemscore.Internal.Correction.Weighted>
   9.000000E+99

> <Gold.Protein.RotatedTorsions>
[ 6907 6896 6895 6894 ] final  118.03 input  -60.11 | X-H torsion
[ 7974 7965 7964 7962 ] final -112.65 input  175.53 | X-H torsion
[ 8008 7997 7996 7995 ] final -138.48 input   59.86 | X-H torsion
[ 10167 10162 10161 10158 ] final  151.42 input  -65.29 | X-H torsion
[ 10718 10713 10712 10709 ] final  -60.03 input   66.30 | X-H torsion
[ 10763 10752 10751 10750 ] final   41.01 input  -60.55 | X-H torsion
[ 11005 11000 10999 10996 ] final   30.68 input  -57.11 | X-H torsion

> <Gold.Protein.ActiveResidues>
 VAL166  LYS551  ARG553  GLY616  TRP617  ASP618  TYR619  PRO620  LYS621  CYS622 
 ASP623  PHE694  ASN695  SER759  ASP760  ASP761  ALA762  ILE779  LEU786  VAL792 
 PHE793  MET794  SER795  GLU796  ALA797  LYS798  CYS799  TRP800  GLU811  SER814 

> <Gold.Protein.RotatedAtoms>
  152.4571  133.7746  159.6817 H   0  0  0  0  0  0  0  0  0  0  0  0  # atno 6907 bound_to 6896
  150.8502  133.7789  159.3034 H   0  0  0  0  0  0  0  0  0  0  0  0  # atno 6908 bound_to 6896
  151.5387  135.1071  159.9973 H   0  0  0  0  0  0  0  0  0  0  0  0  # atno 6909 bound_to 6896
  145.1415  140.8780  143.3699 H   0  0  0  0  0  0  0  0  0  0  0  0  # atno 7974 bound_to 7965
  155.4290  140.0524  157.3020 H   0  0  0  0  0  0  0  0  0  0  0  0  # atno 8008 bound_to 7997
  154.4868  140.2104  155.9595 H   0  0  0  0  0  0  0  0  0  0  0  0  # atno 8009 bound_to 7997
  156.1286  140.3176  155.8320 H   0  0  0  0  0  0  0  0  0  0  0  0  # atno 8010 bound_to 7997
  139.4841  144.5442  151.7512 H   0  0  0  0  0  0  0  0  0  0  0  0  # atno 10167 bound_to 10162
  156.1020  130.4185  150.0797 H   0  0  0  0  0  0  0  0  0  0  0  0  # atno 10718 bound_to 10713
  152.9920  135.6174  154.2718 H   0  0  0  0  0  0  0  0  0  0  0  0  # atno 10763 bound_to 10752
  154.2451  135.2787  155.2840 H   0  0  0  0  0  0  0  0  0  0  0  0  # atno 10764 bound_to 10752
  154.5336  135.5781  153.6837 H   0  0  0  0  0  0  0  0  0  0  0  0  # atno 10765 bound_to 10752
  140.2919  134.2855  155.7774 H   0  0  0  0  0  0  0  0  0  0  0  0  # atno 11005 bound_to 11000
  145.0527  139.3168  143.5920 LP  0  0  0  0  0  0  0  0  0  0  0  0  # atno 17320 bound_to 7965
  146.3504  139.9941  142.8682 LP  0  0  0  0  0  0  0  0  0  0  0  0  # atno 17321 bound_to 7965
  140.4986  144.1203  150.5966 LP  0  0  0  0  0  0  0  0  0  0  0  0  # atno 17342 bound_to 10162
  140.4088  143.2667  151.9858 LP  0  0  0  0  0  0  0  0  0  0  0  0  # atno 17343 bound_to 10162
  156.8782  130.9547  151.3602 LP  0  0  0  0  0  0  0  0  0  0  0  0  # atno 17370 bound_to 10713
  157.6191  130.8641  149.9078 LP  0  0  0  0  0  0  0  0  0  0  0  0  # atno 17371 bound_to 10713
  141.2144  133.7590  156.9637 LP  0  0  0  0  0  0  0  0  0  0  0  0  # atno 17394 bound_to 11000
  140.1188  134.9430  157.2173 LP  0  0  0  0  0  0  0  0  0  0  0  0  # atno 17395 bound_to 11000

$$$$
