#       Name:                AV-unprocessed.smi:1
#       Creating user name   scv26
#       Creation time:       Thu Mar 26 15:11:34 2020


#       File generated by GOLD software.
#

@<TRIPOS>MOLECULE
AV-unprocessed.smi:1
    66    71     1
SMALL
NO_CHARGES


@<TRIPOS>ATOM
      1 ****        -3.9095   3.0403   1.0582 O.2            1 S1                 0.0000
      2 ****        -4.2629   2.6805  -0.0669 C.2            1 S1                 0.0000
      3 ****        -3.5307   2.6798  -1.2099 N.pl3          1 S1                -1.0000
      4 ****        -2.2423   3.0523  -1.1753 C.ar           1 S1                 0.0000
      5 ****        -1.8882   4.3320  -1.4600 N.ar           1 S1                 0.0000
      6 ****        -0.6030   4.7035  -1.4198 C.ar           1 S1                 0.0000
      7 ****         0.4760   3.9698  -1.1284 N.ar           1 S1                 0.0000
      8 ****         0.1314   2.6785  -0.8532 C.ar           1 S1                 0.0000
      9 ****        -1.1908   2.1487  -0.8605 C.ar           1 S1                 0.0000
     10 ****        -1.1797   0.7995  -0.5386 N.2            1 S1                 0.0000
     11 ****         0.1196   0.5783  -0.3479 C.2            1 S1                 0.0000
     12 ****         0.9570   1.6261  -0.5021 N.pl3          1 S1                 0.0000
     13 ****         2.4444   1.6950  -0.3375 C.3            1 S1                 0.0000
     14 ****         2.9624   0.3996  -0.3860 O.3            1 S1                 0.0000
     15 ****         3.2134  -0.0727   0.9319 C.3            1 S1                 0.0000
     16 ****         4.2531  -1.1966   0.9038 C.3            1 S1                 0.0000
     17 ****         3.6512  -2.3767   0.3982 O.3            1 S1                 0.0000
     18 ****         4.3974  -3.4808   0.2028 C.2            1 S1                 0.0000
     19 ****         5.6032  -3.5414   0.4520 O.2            1 S1                 0.0000
     20 ****         3.6133  -4.6231  -0.3492 C.ar           1 S1                 0.0000
     21 ****         4.2706  -5.8458  -0.6212 C.ar           1 S1                 0.0000
     22 ****         3.5585  -6.9422  -1.1450 C.ar           1 S1                 0.0000
     23 ****         2.1802  -6.8292  -1.4037 C.ar           1 S1                 0.0000
     24 ****         1.5146  -5.6184  -1.1373 C.ar           1 S1                 0.0000
     25 ****         2.2248  -4.5207  -0.6127 C.ar           1 S1                 0.0000
     26 ****         3.6986   1.1844   1.6535 C.3            1 S1                 0.0000
     27 ****         3.4460   1.1245   3.0461 O.3            1 S1                 0.0000
     28 ****         1.9727   1.8472   3.3594 S.o2           1 S1                 0.0000
     29 ****         0.9767   0.7869   3.5768 O.2            1 S1                 0.0000
     30 ****         2.1914   2.9384   4.3208 O.2            1 S1                 0.0000
     31 ****         1.6987   2.5176   1.8558 O.3            1 S1                 0.0000
     32 ****         2.8334   2.2904   1.0313 C.3            1 S1                 0.0000
     33 ****        -5.6870   2.2383  -0.2718 C.ar           1 S1                 0.0000
     34 ****        -6.7259   2.8639   0.4546 C.ar           1 S1                 0.0000
     35 ****        -8.0617   2.4451   0.2988 C.ar           1 S1                 0.0000
     36 ****        -8.3719   1.3893  -0.5788 C.ar           1 S1                 0.0000
     37 ****        -7.3447   0.7504  -1.2980 C.ar           1 S1                 0.0000
     38 ****        -6.0087   1.1688  -1.1430 C.ar           1 S1                 0.0000
     39 ****        -0.4114   5.7399  -1.6548 H              1 S1                 0.0000
     40 ****         0.4762  -0.4039  -0.0767 H              1 S1                 0.0000
     41 ****         2.7903   2.2799  -1.1907 H              1 S1                 0.0000
     42 ****         2.2814  -0.4225   1.3786 H              1 S1                 0.0000
     43 ****         5.1109  -0.9076   0.2947 H              1 S1                 0.0000
     44 ****         4.6155  -1.3911   1.9141 H              1 S1                 0.0000
     45 ****         5.3288  -5.9560  -0.4320 H              1 S1                 0.0000
     46 ****         4.0713  -7.8704  -1.3490 H              1 S1                 0.0000
     47 ****         1.6346  -7.6700  -1.8061 H              1 S1                 0.0000
     48 ****         0.4565  -5.5310  -1.3359 H              1 S1                 0.0000
     49 ****         1.6831  -3.6063  -0.4192 H              1 S1                 0.0000
     50 ****         4.7546   1.3691   1.4523 H              1 S1                 0.0000
     51 ****         3.3875   3.2200   0.8984 H              1 S1                 0.0000
     52 ****        -6.5040   3.6744   1.1340 H              1 S1                 0.0000
     53 ****        -8.8477   2.9338   0.8551 H              1 S1                 0.0000
     54 ****        -9.3958   1.0675  -0.6976 H              1 S1                 0.0000
     55 ****        -7.5800  -0.0638  -1.9673 H              1 S1                 0.0000
     56 ****        -5.2336   0.6577  -1.6958 H              1 S1                 0.0000
     57 ****        -2.9813   3.3822   1.2053 LP             1 S1                 0.0000
     58 ****        -4.5510   2.9902   1.8237 LP             1 S1                 0.0000
     59 ****        -3.9500   2.4027  -2.0744 LP             1 S1                 0.0000
     60 ****        -2.5917   5.0006  -1.7010 LP             1 S1                 0.0000
     61 ****         1.4122   4.3210  -1.1140 LP             1 S1                 0.0000
     62 ****        -1.9459   0.1608  -0.4682 LP             1 S1                 0.0000
     63 ****         3.8173   0.4038  -0.9048 LP             1 S1                 0.0000
     64 ****         2.3033  -0.2042  -0.8344 LP             1 S1                 0.0000
     65 ****         6.0785  -2.7423   0.8200 LP             1 S1                 0.0000
     66 ****         6.1060  -4.3897   0.2861 LP             1 S1                 0.0000
@<TRIPOS>BOND
    1    1    2 2     
    2    2    3 1     
    3    2   33 1     
    4    3    4 1     
    5    4    9 ar    
    6    4    5 ar    
    7    5    6 ar    
    8    6    7 ar    
    9    6   39 1     
   10    7    8 ar    
   11    8   12 1     
   12    8    9 ar    
   13    9   10 1     
   14   10   11 2     
   15   11   12 1     
   16   11   40 1     
   17   12   13 1     
   18   13   32 1     
   19   13   14 1     
   20   13   41 1     
   21   14   15 1     
   22   15   16 1     
   23   15   26 1     
   24   15   42 1     
   25   16   17 1     
   26   16   43 1     
   27   16   44 1     
   28   17   18 1     
   29   18   19 2     
   30   18   20 1     
   31   20   25 ar    
   32   20   21 ar    
   33   21   22 ar    
   34   21   45 1     
   35   22   23 ar    
   36   22   46 1     
   37   23   24 ar    
   38   23   47 1     
   39   24   25 ar    
   40   24   48 1     
   41   25   49 1     
   42   26   32 1     
   43   26   27 1     
   44   26   50 1     
   45   27   28 1     
   46   28   29 2     
   47   28   30 2     
   48   28   31 1     
   49   31   32 1     
   50   32   51 1     
   51   33   38 ar    
   52   33   34 ar    
   53   34   35 ar    
   54   34   52 1     
   55   35   36 ar    
   56   35   53 1     
   57   36   37 ar    
   58   36   54 1     
   59   37   38 ar    
   60   37   55 1     
   61   38   56 1     
   62    1   57 1     
   63    1   58 1     
   64    3   59 1     
   65    5   60 1     
   66    7   61 1     
   67   10   62 1     
   68   14   63 1     
   69   14   64 1     
   70   19   65 1     
   71   19   66 1     
@<TRIPOS>SUBSTRUCTURE
      1 S1             1
@<TRIPOS>SET
LONE_PAIRS      STATIC     ATOMS    <user>   **** ""
12 57 58 59 60 61 62 63 64 65 66 29 30
ATOM$BLUE        STATIC     ATOMS    COLORGROUP SYSTEM
12 57 58 59 60 61 62 63 64 65 66 29 30
