AV-unprocessed.smi:623|AV-procd|sdf|3094|dock8
  -GOLD-   22720 0 13D 1   1.00000     0.00000
 Structure written by MMmdl.
 45 47  0  0  0  0  0  0  0  0  1 V2000
  153.7165  142.9493  159.2138 C   0  0  0  0  0  0  0  0  0  0  0  0
  152.2543  143.3378  159.5727 C   0  0  0  0  0  0  0  0  0  0  0  0
  152.1692  143.2401  161.1217 C   0  0  0  0  0  0  0  0  0  0  0  0
  151.8075  144.6951  158.9940 C   0  0  1  0  0  0  0  0  0  0  0  0
  151.8542  144.4749  157.4645 C   0  0  0  0  0  0  0  0  0  0  0  0
  151.4332  142.9986  157.3244 C   0  0  0  0  0  0  0  0  0  0  0  0
  151.1394  142.5874  158.7939 C   0  0  1  0  0  0  0  0  0  0  0  0
  151.0979  141.0623  158.9936 C   0  0  0  0  0  0  0  0  0  0  0  0
  149.8387  143.3205  159.2594 C   0  0  2  0  0  0  0  0  0  0  0  0
  148.7250  143.2224  158.3177 N   0  0  0  0  0  0  0  0  0  0  0  0
  147.4768  142.8368  158.6211 C   0  0  0  0  0  0  0  0  0  0  0  0
  147.1023  142.5759  159.7640 O   0  0  0  0  0  0  0  0  0  0  0  0
  146.5064  142.7102  157.4438 C   0  0  0  0  0  0  0  0  0  0  0  0
  146.8960  141.6030  156.5605 N   0  0  0  0  0  0  0  0  0  0  0  0
  147.2128  141.8527  155.2326 C   0  0  0  0  0  0  0  0  0  0  0  0
  147.6030  140.8902  154.3640 C   0  0  0  0  0  0  0  0  0  0  0  0
  147.7111  139.5024  154.8000 C   0  0  0  0  0  0  0  0  0  0  0  0
  148.0531  138.5601  154.0890 O   0  0  0  0  0  0  0  0  0  0  0  0
  147.3873  139.2913  156.1426 N   0  0  0  0  0  0  0  0  0  0  0  0
  146.9866  140.2791  157.0438 C   0  0  0  0  0  0  0  0  0  0  0  0
  146.7295  139.9828  158.2097 O   0  0  0  0  0  0  0  0  0  0  0  0
  150.3180  144.7844  159.3903 C   0  0  0  0  0  0  0  0  0  0  0  0
  147.4503  138.3457  156.4908 H   0  0  0  0  0  0  0  0  0  0  0  0
  154.4213  143.6148  159.7132 H   0  0  0  0  0  0  0  0  0  0  0  0
  153.9597  142.9891  158.1546 H   0  0  0  0  0  0  0  0  0  0  0  0
  153.9428  141.9366  159.5480 H   0  0  0  0  0  0  0  0  0  0  0  0
  151.1974  143.4762  161.5490 H   0  0  0  0  0  0  0  0  0  0  0  0
  152.8832  143.9190  161.5888 H   0  0  0  0  0  0  0  0  0  0  0  0
  152.4173  142.2335  161.4593 H   0  0  0  0  0  0  0  0  0  0  0  0
  152.3936  145.5528  159.3252 H   0  0  0  0  0  0  0  0  0  0  0  0
  151.1810  145.1457  156.9297 H   0  0  0  0  0  0  0  0  0  0  0  0
  152.8545  144.6400  157.0636 H   0  0  0  0  0  0  0  0  0  0  0  0
  150.5880  142.8696  156.6487 H   0  0  0  0  0  0  0  0  0  0  0  0
  152.2414  142.4036  156.8991 H   0  0  0  0  0  0  0  0  0  0  0  0
  150.3279  140.6061  158.3713 H   0  0  0  0  0  0  0  0  0  0  0  0
  150.8809  140.8029  160.0299 H   0  0  0  0  0  0  0  0  0  0  0  0
  152.0474  140.5988  158.7264 H   0  0  0  0  0  0  0  0  0  0  0  0
  149.5120  142.9550  160.2342 H   0  0  0  0  0  0  0  0  0  0  0  0
  148.9347  143.4185  157.3499 H   0  0  0  0  0  0  0  0  0  0  0  0
  145.4908  142.5732  157.8203 H   0  0  0  0  0  0  0  0  0  0  0  0
  146.4793  143.6501  156.8897 H   0  0  0  0  0  0  0  0  0  0  0  0
  147.1523  142.8681  154.8670 H   0  0  0  0  0  0  0  0  0  0  0  0
  147.8377  141.1486  153.3415 H   0  0  0  0  0  0  0  0  0  0  0  0
  150.1995  145.1467  160.4118 H   0  0  0  0  0  0  0  0  0  0  0  0
  149.7676  145.4754  158.7500 H   0  0  0  0  0  0  0  0  0  0  0  0
  1  2  1  0  0  0  0
  1 24  1  0  0  0  0
  1 25  1  0  0  0  0
  1 26  1  0  0  0  0
  2  7  1  0  0  0  0
  2  3  1  0  0  0  0
  2  4  1  0  0  0  0
  3 27  1  0  0  0  0
  3 28  1  0  0  0  0
  3 29  1  0  0  0  0
  4 22  1  0  0  0  0
  4  5  1  0  0  0  0
  4 30  1  0  0  0  0
  5  6  1  0  0  0  0
  5 31  1  0  0  0  0
  5 32  1  0  0  0  0
  6  7  1  0  0  0  0
  6 33  1  0  0  0  0
  6 34  1  0  0  0  0
  7  8  1  0  0  0  0
  7  9  1  0  0  0  0
  8 35  1  0  0  0  0
  8 36  1  0  0  0  0
  8 37  1  0  0  0  0
  9 10  1  0  0  0  0
  9 22  1  0  0  0  0
  9 38  1  0  0  0  0
 10 11  1  0  0  0  0
 10 39  1  0  0  0  0
 11 12  2  0  0  0  0
 11 13  1  0  0  0  0
 13 14  1  0  0  0  0
 13 40  1  0  0  0  0
 13 41  1  0  0  0  0
 14 20  1  0  0  0  0
 14 15  1  0  0  0  0
 15 16  2  0  0  0  0
 15 42  1  0  0  0  0
 16 17  1  0  0  0  0
 16 43  1  0  0  0  0
 17 18  2  0  0  0  0
 17 19  1  0  0  0  0
 19 23  1  0  0  0  0
 19 20  1  0  0  0  0
 20 21  2  0  0  0  0
 22 44  1  0  0  0  0
 22 45  1  0  0  0  0
M  END
> <s_m_source_file>
AV-unprocessed.smi

> <i_m_source_file_index>
623

> <i_lp_mmshare_version>
43012

> <i_f3d_flags>
0

> <s_epik_input>
W0NIM11bQ0BdMTJDKFtDSDNdKShbQ0gzXSlbQ0BIXShbQ0gyXVtDSDJdMSlbQ0gyXVtDQEBIXTJbTkhdQyg9TylbQ0gyXW4zW2NIXVtjSF1jKD1PKVtuSF1jMz1P

> <s_epik_cmdline>
J2VwaWtfcHl0aG9uJywgJy1waCcsICc3LjAnLCAnLXRuJywgJzgnLCAnLW1hJywgJzIwMCcsICctbWV0YWxfYmluZGluZycsICctaW1hZScsICc8aW5maWxlLm1hZT4nLCAnLW9tYWUnLCAnPG91dGZpbGUubWFlPic=

> <r_lp_tautomer_probability>
0.999537

> <r_epik_Ionization_Penalty>
0.00303563

> <r_epik_Ionization_Penalty_Charging>
0.00303561

> <r_epik_Ionization_Penalty_Neutral>
2.03238e-08

> <r_epik_State_Penalty>
0.00213308

> <r_epik_Charging_Adjusted_Penalty>
0.00516869

> <i_epik_Tot_Q>
0

> <i_epik_Tot_abs_Q>
0

> <r_epik_Metal_State_Penalty>
0.361714

> <b_epik_Metal_Only>
0

> <s_lp_Force_Field>
OPLS_2005

> <r_lp_Energy>
57.3757

> <b_lp_Chiralities_Consistent>
1

> <s_lp_Variant>
AV-unprocessed.smi:623-4

> <Gold.Version>
5.8.1

> <Gold.Id.Protein>
6NUR|6NUR_protein|mol2

> <Gold.PLP.Fitness>
46.1571

> <Gold.PLP.PLP>
-37.6845

> <Gold.PLP.part.hbond>
-4.7190

> <Gold.PLP.part.metal>
0.0000

> <Gold.PLP.part.buried>
-4.3353

> <Gold.PLP.part.nonpolar>
-30.0944

> <Gold.PLP.part.repulsive>
0.3286

> <Gold.PLP.ligand.clash>
0.0000

> <Gold.PLP.ligand.torsion>
0.1059

> <Gold.PLP.Chemscore.Hbond>
2.0665

> <Gold.PLP.Chemscore.CHOScore>
0.8228

> <Gold.PLP.Chemscore.Metal>
0.0000

> <Gold.Chemscore.Hbonds>
donor molecule, donor type, donor heavy atom, donor atom, acceptor molecule, acceptor atom, score
      L1  H    10    39       P1  8028  0.77
      P1  H  6933  6944       L1    12  0.43
      P1  H  6934  6946       L1    12  0.82
      L1  C    15    42       P1  8028  0.67

> <Gold.PLP.Chemscore.Internal.Correction>
0.0164

> <Gold.Rescore>
     Score         DG    S(hbond)    S(metal)    S(lipo)     H(rot)  DE(clash)    DE(int)     intcor
     18.68     -19.25       1.41        0.00     113.82       1.66       0.29       0.29       ----

> <Gold.Chemscore.Fitness>
18.6796

> <Gold.Chemscore.DG>
-19.2532

> <Gold.Chemscore.ZeroCoef>
-5.4800

> <Gold.Chemscore.Hbond>
1.4125

> <Gold.Chemscore.Metal>
0.0000

> <Gold.Chemscore.Lipo>
113.8219

> <Gold.Chemscore.Internal_Hbond>
0.0000

> <Gold.Chemscore.DEClash>
0.2864

> <Gold.Chemscore.DEInternal>
0.2872

> <Gold.Chemscore.Rot>
1.6647

> <Gold.Chemscore.Internal.Correction>
   9.000000E+99

> <Gold.Chemscore.Hbonds>
donor molecule, donor type, donor heavy atom, donor atom, acceptor molecule, acceptor atom, score
      L1  H    10    39       P1  8028  0.29
      P1  H  6933  6944       L1    12  0.41
      P1  H  6934  6946       L1    12  0.80

> <Gold.Chemscore.Hbond.Weighted>
-4.7177

> <Gold.Chemscore.Metal.Weighted>
-0.0000

> <Gold.Chemscore.Lipo.Weighted>
-13.3172

> <Gold.Chemscore.Internal_Hbond.Weighted>
0.0000

> <Gold.Chemscore.DEClash.Weighted>
0.2864

> <Gold.Chemscore.DEInternal.Weighted>
0.2872

> <Gold.Chemscore.Rot.Weighted>
4.2617

> <Gold.Chemscore.Internal.Correction.Weighted>
   9.000000E+99

> <Gold.Protein.RotatedTorsions>
[ 6907 6896 6895 6894 ] final -170.93 input  -60.11 | X-H torsion
[ 7974 7965 7964 7962 ] final -107.37 input  175.53 | X-H torsion
[ 8008 7997 7996 7995 ] final -133.43 input   59.86 | X-H torsion
[ 10167 10162 10161 10158 ] final  -56.14 input  -65.29 | X-H torsion
[ 10718 10713 10712 10709 ] final  -16.02 input   66.30 | X-H torsion
[ 10763 10752 10751 10750 ] final -149.93 input  -60.55 | X-H torsion
[ 11005 11000 10999 10996 ] final -177.29 input  -57.11 | X-H torsion

> <Gold.Protein.ActiveResidues>
 VAL166  LYS551  ARG553  GLY616  TRP617  ASP618  TYR619  PRO620  LYS621  CYS622 
 ASP623  PHE694  ASN695  SER759  ASP760  ASP761  ALA762  ILE779  LEU786  VAL792 
 PHE793  MET794  SER795  GLU796  ALA797  LYS798  CYS799  TRP800  GLU811  SER814 

> <Gold.Protein.RotatedAtoms>
  151.5157  133.3476  159.2892 H   0  0  0  0  0  0  0  0  0  0  0  0  # atno 6907 bound_to 6896
  150.8684  134.8055  159.7147 H   0  0  0  0  0  0  0  0  0  0  0  0  # atno 6908 bound_to 6896
  152.4681  134.5037  159.9784 H   0  0  0  0  0  0  0  0  0  0  0  0  # atno 6909 bound_to 6896
  145.2062  140.9077  143.3341 H   0  0  0  0  0  0  0  0  0  0  0  0  # atno 7974 bound_to 7965
  155.3453  140.0474  157.3045 H   0  0  0  0  0  0  0  0  0  0  0  0  # atno 8008 bound_to 7997
  154.5255  140.2239  155.8862 H   0  0  0  0  0  0  0  0  0  0  0  0  # atno 8009 bound_to 7997
  156.1735  140.3090  155.9023 H   0  0  0  0  0  0  0  0  0  0  0  0  # atno 8010 bound_to 7997
  140.6334  143.2470  151.5180 H   0  0  0  0  0  0  0  0  0  0  0  0  # atno 10167 bound_to 10162
  156.5935  130.4805  149.6269 H   0  0  0  0  0  0  0  0  0  0  0  0  # atno 10718 bound_to 10713
  154.8149  135.3297  154.7204 H   0  0  0  0  0  0  0  0  0  0  0  0  # atno 10763 bound_to 10752
  153.7847  135.6916  153.4886 H   0  0  0  0  0  0  0  0  0  0  0  0  # atno 10764 bound_to 10752
  153.1957  135.4534  155.0151 H   0  0  0  0  0  0  0  0  0  0  0  0  # atno 10765 bound_to 10752
  140.4425  134.6418  157.4764 H   0  0  0  0  0  0  0  0  0  0  0  0  # atno 11005 bound_to 11000
  144.9900  139.3699  143.6219 LP  0  0  0  0  0  0  0  0  0  0  0  0  # atno 17320 bound_to 7965
  146.3407  139.9078  142.8785 LP  0  0  0  0  0  0  0  0  0  0  0  0  # atno 17321 bound_to 7965
  139.5547  144.2307  152.1591 LP  0  0  0  0  0  0  0  0  0  0  0  0  # atno 17342 bound_to 10162
  140.1557  144.5073  150.6661 LP  0  0  0  0  0  0  0  0  0  0  0  0  # atno 17343 bound_to 10162
  156.2529  130.6918  151.1661 LP  0  0  0  0  0  0  0  0  0  0  0  0  # atno 17370 bound_to 10713
  157.7297  131.0622  150.5759 LP  0  0  0  0  0  0  0  0  0  0  0  0  # atno 17371 bound_to 10713
  140.0060  134.6763  155.9454 LP  0  0  0  0  0  0  0  0  0  0  0  0  # atno 17394 bound_to 11000
  141.1699  133.6537  156.4614 LP  0  0  0  0  0  0  0  0  0  0  0  0  # atno 17395 bound_to 11000

$$$$
