AV-unprocessed.smi:370|AV-procd|sdf|2437|dock3
  -GOLD-   2262022373D 1   1.00000     0.00000
 Structure written by MMmdl.
 43 44  0  0  0  0  0  0  0  0  2 V2000
  152.9845  138.1290  157.6285 C   0  0  0  0  0  0  0  0  0  0  0  0
  152.1421  138.3741  156.4241 C   0  0  0  0  0  0  0  0  0  0  0  0
  151.1152  137.6795  155.8492 C   0  0  0  0  0  0  0  0  0  0  0  0
  150.7747  138.4822  154.7284 C   0  0  0  0  0  0  0  0  0  0  0  0
  149.7250  138.1029  153.8532 N   0  0  0  0  0  0  0  0  0  0  0  0
  148.4305  138.4559  153.9277 C   0  0  0  0  0  0  0  0  0  0  0  0
  147.9477  139.2088  154.7739 O   0  0  0  0  0  0  0  0  0  0  0  0
  147.7100  137.8768  152.9557 N   0  0  0  0  0  0  0  0  0  0  0  0
  146.2722  138.0499  152.7440 C   0  0  0  0  0  0  0  0  0  0  0  0
  145.6795  137.1691  151.6001 C   0  0  0  0  0  0  0  0  0  0  0  0
  144.1372  137.3391  151.6267 C   0  0  0  0  0  0  0  0  0  0  0  0
  146.1820  137.6468  150.2150 C   0  0  0  0  0  0  0  0  0  0  0  0
  146.0736  135.7332  151.8527 N   0  3  0  0  0  0  0  0  0  0  0  0
  145.7423  135.1824  153.1988 C   0  0  0  0  0  0  0  0  0  0  0  0
  146.3262  133.7688  153.3730 C   0  0  0  0  0  0  0  0  0  0  0  0
  145.8612  132.9143  152.3390 O   0  0  0  0  0  0  0  0  0  0  0  0
  146.2649  133.3781  151.0593 C   0  0  0  0  0  0  0  0  0  0  0  0
  145.6464  134.7612  150.8047 C   0  0  0  0  0  0  0  0  0  0  0  0
  151.5247  139.5688  154.6284 N   0  0  0  0  0  0  0  0  0  0  0  0
  152.4052  139.5050  155.7148 O   0  0  0  0  0  0  0  0  0  0  0  0
  152.7327  137.1752  158.0923 H   0  0  0  0  0  0  0  0  0  0  0  0
  152.8373  138.9151  158.3691 H   0  0  0  0  0  0  0  0  0  0  0  0
  154.0415  138.1075  157.3625 H   0  0  0  0  0  0  0  0  0  0  0  0
  150.6808  136.7477  156.1800 H   0  0  0  0  0  0  0  0  0  0  0  0
  149.9873  137.4887  153.0965 H   0  0  0  0  0  0  0  0  0  0  0  0
  148.1929  137.2725  152.3066 H   0  0  0  0  0  0  0  0  0  0  0  0
  145.7625  137.8813  153.6912 H   0  0  0  0  0  0  0  0  0  0  0  0
  146.1084  139.1027  152.5112 H   0  0  0  0  0  0  0  0  0  0  0  0
  143.8380  138.3844  151.5509 H   0  0  0  0  0  0  0  0  0  0  0  0
  143.7071  136.9465  152.5489 H   0  0  0  0  0  0  0  0  0  0  0  0
  143.6535  136.8397  150.7868 H   0  0  0  0  0  0  0  0  0  0  0  0
  145.7857  138.6309  149.9638 H   0  0  0  0  0  0  0  0  0  0  0  0
  145.8716  136.9717  149.4175 H   0  0  0  0  0  0  0  0  0  0  0  0
  147.2685  137.7286  150.1787 H   0  0  0  0  0  0  0  0  0  0  0  0
  146.1600  135.7929  153.9973 H   0  0  0  0  0  0  0  0  0  0  0  0
  144.6608  135.1596  153.3374 H   0  0  0  0  0  0  0  0  0  0  0  0
  147.4172  133.7976  153.3717 H   0  0  0  0  0  0  0  0  0  0  0  0
  146.0220  133.3545  154.3344 H   0  0  0  0  0  0  0  0  0  0  0  0
  147.3535  133.4152  150.9917 H   0  0  0  0  0  0  0  0  0  0  0  0
  145.9226  132.6691  150.3053 H   0  0  0  0  0  0  0  0  0  0  0  0
  144.5602  134.6631  150.8026 H   0  0  0  0  0  0  0  0  0  0  0  0
  145.9364  135.0871  149.8084 H   0  0  0  0  0  0  0  0  0  0  0  0
  147.0832  135.7385  151.8216 H   0  0  0  0  0  0  0  0  0  0  0  0
  1  2  1  0  0  0  0
  1 21  1  0  0  0  0
  1 22  1  0  0  0  0
  1 23  1  0  0  0  0
  2 20  1  0  0  0  0
  2  3  2  0  0  0  0
  3  4  1  0  0  0  0
  3 24  1  0  0  0  0
  4  5  1  0  0  0  0
  4 19  2  0  0  0  0
  5  6  1  0  0  0  0
  5 25  1  0  0  0  0
  6  7  2  0  0  0  0
  6  8  1  0  0  0  0
  8  9  1  0  0  0  0
  8 26  1  0  0  0  0
  9 10  1  0  0  0  0
  9 27  1  0  0  0  0
  9 28  1  0  0  0  0
 10 11  1  0  0  0  0
 10 12  1  0  0  0  0
 10 13  1  0  0  0  0
 11 29  1  0  0  0  0
 11 30  1  0  0  0  0
 11 31  1  0  0  0  0
 12 32  1  0  0  0  0
 12 33  1  0  0  0  0
 12 34  1  0  0  0  0
 13 18  1  0  0  0  0
 13 14  1  0  0  0  0
 13 43  1  0  0  0  0
 14 15  1  0  0  0  0
 14 35  1  0  0  0  0
 14 36  1  0  0  0  0
 15 16  1  0  0  0  0
 15 37  1  0  0  0  0
 15 38  1  0  0  0  0
 16 17  1  0  0  0  0
 17 18  1  0  0  0  0
 17 39  1  0  0  0  0
 17 40  1  0  0  0  0
 18 41  1  0  0  0  0
 18 42  1  0  0  0  0
 19 20  1  0  0  0  0
M  CHG  1  13   1
M  END
> <s_m_source_file>
AV-unprocessed.smi

> <i_m_source_file_index>
370

> <i_lp_mmshare_version>
43012

> <i_f3d_flags>
0

> <s_epik_input>
W0NIM11jMVtjSF1jKG5vMSlbTkhdQyg9TylbTkhdW0NIMl1DKFtDSDNdKShbQ0gzXSlOMltDSDJdW0NIMl1PW0NIMl1bQ0gyXTI=

> <s_epik_cmdline>
J2VwaWtfcHl0aG9uJywgJy1waCcsICc3LjAnLCAnLXRuJywgJzgnLCAnLW1hJywgJzIwMCcsICctbWV0YWxfYmluZGluZycsICctaW1hZScsICc8aW5maWxlLm1hZT4nLCAnLW9tYWUnLCAnPG91dGZpbGUubWFlPic=

> <r_epik_Ionization_Penalty>
0.707076

> <r_epik_Ionization_Penalty_Charging>
0.707039

> <r_epik_Ionization_Penalty_Neutral>
3.67886e-05

> <r_epik_State_Penalty>
0.730276

> <r_epik_Charging_Adjusted_Penalty>
1.43732

> <i_epik_Tot_Q>
1

> <i_epik_Tot_abs_Q>
1

> <r_epik_Metal_State_Penalty>
0.743216

> <b_epik_Metal_Only>
0

> <s_lp_Force_Field>
OPLS_2005

> <r_lp_Energy>
23.7539

> <b_lp_Chiralities_Consistent>
1

> <s_lp_Variant>
AV-unprocessed.smi:370-2

> <Gold.Version>
5.8.1

> <Gold.Id.Protein>
6NUR|6NUR_protein|mol2

> <Gold.PLP.Fitness>
39.2428

> <Gold.PLP.PLP>
-24.3491

> <Gold.PLP.part.hbond>
-4.7974

> <Gold.PLP.part.metal>
0.0000

> <Gold.PLP.part.buried>
1.6564

> <Gold.PLP.part.nonpolar>
-22.6103

> <Gold.PLP.part.repulsive>
0.3187

> <Gold.PLP.ligand.clash>
0.0000

> <Gold.PLP.ligand.torsion>
0.8444

> <Gold.PLP.Chemscore.Hbond>
5.4970

> <Gold.PLP.Chemscore.CHOScore>
0.0000

> <Gold.PLP.Chemscore.Metal>
0.0000

> <Gold.Chemscore.Hbonds>
donor molecule, donor type, donor heavy atom, donor atom, acceptor molecule, acceptor atom, score
      L1  H     5    25       P1  7948  0.72
      L1  H     8    26       P1  7948  0.54
      L1  H    13    43       P1  7948  2.00
      P1  H  7989  7998       L1    19  1.00
      P1  H  7997  8008       L1    20  0.81

> <Gold.PLP.Chemscore.Internal.Correction>
0.0917

> <Gold.Rescore>
     Score         DG    S(hbond)    S(metal)    S(lipo)     H(rot)  DE(clash)    DE(int)     intcor
     18.45     -20.89       4.00        0.00      52.56       1.60       1.53       0.91       ----

> <Gold.Chemscore.Fitness>
18.4507

> <Gold.Chemscore.DG>
-20.8882

> <Gold.Chemscore.ZeroCoef>
-5.4800

> <Gold.Chemscore.Hbond>
3.9967

> <Gold.Chemscore.Metal>
0.0000

> <Gold.Chemscore.Lipo>
52.5622

> <Gold.Chemscore.Internal_Hbond>
0.0000

> <Gold.Chemscore.DEClash>
1.5281

> <Gold.Chemscore.DEInternal>
0.9094

> <Gold.Chemscore.Rot>
1.5979

> <Gold.Chemscore.Internal.Correction>
   9.000000E+99

> <Gold.Chemscore.Hbonds>
donor molecule, donor type, donor heavy atom, donor atom, acceptor molecule, acceptor atom, score
      L1  H     5    25       P1  7948  0.18
      L1  H     8    26       P1  7948  0.54
      L1  H    13    43       P1  7948  1.00
      P1  H  7989  7998       L1    19  0.97
      P1  H  7997  8008       L1    20  0.62

> <Gold.Chemscore.Hbond.Weighted>
-13.3491

> <Gold.Chemscore.Metal.Weighted>
-0.0000

> <Gold.Chemscore.Lipo.Weighted>
-6.1498

> <Gold.Chemscore.Internal_Hbond.Weighted>
0.0000

> <Gold.Chemscore.DEClash.Weighted>
1.5281

> <Gold.Chemscore.DEInternal.Weighted>
0.9094

> <Gold.Chemscore.Rot.Weighted>
4.0906

> <Gold.Chemscore.Internal.Correction.Weighted>
   9.000000E+99

> <Gold.Protein.RotatedTorsions>
[ 6907 6896 6895 6894 ] final  -11.30 input  -60.11 | X-H torsion
[ 7974 7965 7964 7962 ] final   73.57 input  175.53 | X-H torsion
[ 8008 7997 7996 7995 ] final  -27.20 input   59.86 | X-H torsion
[ 10167 10162 10161 10158 ] final   -8.49 input  -65.29 | X-H torsion
[ 10718 10713 10712 10709 ] final  139.96 input   66.30 | X-H torsion
[ 10763 10752 10751 10750 ] final  -19.40 input  -60.55 | X-H torsion
[ 11005 11000 10999 10996 ] final  105.91 input  -57.11 | X-H torsion

> <Gold.Protein.ActiveResidues>
 VAL166  LYS551  ARG553  GLY616  TRP617  ASP618  TYR619  PRO620  LYS621  CYS622 
 ASP623  PHE694  ASN695  SER759  ASP760  ASP761  ALA762  ILE779  LEU786  VAL792 
 PHE793  MET794  SER795  GLU796  ALA797  LYS798  CYS799  TRP800  GLU811  SER814 

> <Gold.Protein.RotatedAtoms>
  151.3883  135.0952  159.9517 H   0  0  0  0  0  0  0  0  0  0  0  0  # atno 6907 bound_to 6896
  152.5087  133.9004  159.7448 H   0  0  0  0  0  0  0  0  0  0  0  0  # atno 6908 bound_to 6896
  150.9452  133.6555  159.2811 H   0  0  0  0  0  0  0  0  0  0  0  0  # atno 6909 bound_to 6896
  145.7392  139.2714  143.1496 H   0  0  0  0  0  0  0  0  0  0  0  0  # atno 7974 bound_to 7965
  154.4388  140.1879  156.0894 H   0  0  0  0  0  0  0  0  0  0  0  0  # atno 8008 bound_to 7997
  156.0377  140.3323  155.7183 H   0  0  0  0  0  0  0  0  0  0  0  0  # atno 8009 bound_to 7997
  155.5746  140.0616  157.2789 H   0  0  0  0  0  0  0  0  0  0  0  0  # atno 8010 bound_to 7997
  140.7060  143.5963  150.8843 H   0  0  0  0  0  0  0  0  0  0  0  0  # atno 10167 bound_to 10162
  157.4086  131.1025  151.0477 H   0  0  0  0  0  0  0  0  0  0  0  0  # atno 10718 bound_to 10713
  153.6041  135.6998  153.5372 H   0  0  0  0  0  0  0  0  0  0  0  0  # atno 10763 bound_to 10752
  153.3072  135.4112  155.1304 H   0  0  0  0  0  0  0  0  0  0  0  0  # atno 10764 bound_to 10752
  154.8576  135.3663  154.5578 H   0  0  0  0  0  0  0  0  0  0  0  0  # atno 10765 bound_to 10752
  139.8807  134.9351  156.5586 H   0  0  0  0  0  0  0  0  0  0  0  0  # atno 11005 bound_to 11000
  146.0464  140.8114  142.9803 LP  0  0  0  0  0  0  0  0  0  0  0  0  # atno 17320 bound_to 7965
  144.6874  140.2986  143.7267 LP  0  0  0  0  0  0  0  0  0  0  0  0  # atno 17321 bound_to 7965
  139.9688  143.6080  152.2980 LP  0  0  0  0  0  0  0  0  0  0  0  0  # atno 17342 bound_to 10162
  139.6660  144.7662  151.1873 LP  0  0  0  0  0  0  0  0  0  0  0  0  # atno 17343 bound_to 10162
  157.1450  130.6159  149.5566 LP  0  0  0  0  0  0  0  0  0  0  0  0  # atno 17370 bound_to 10713
  155.9844  130.4868  150.6980 LP  0  0  0  0  0  0  0  0  0  0  0  0  # atno 17371 bound_to 10713
  140.8187  133.8371  155.8875 LP  0  0  0  0  0  0  0  0  0  0  0  0  # atno 17394 bound_to 11000
  140.9439  134.1866  157.4778 LP  0  0  0  0  0  0  0  0  0  0  0  0  # atno 17395 bound_to 11000

$$$$
