#       Name:                AV-unprocessed.smi:2903
#       Creating user name   scv26
#       Creation time:       Fri Mar 27 16:04:39 2020


#       File generated by GOLD software.
#

@<TRIPOS>MOLECULE
AV-unprocessed.smi:2903
    47    48     1
SMALL
NO_CHARGES


@<TRIPOS>ATOM
      1 ****        -7.2735  -0.3177  -0.3955 C.3            1 S1                 0.0000
      2 ****        -6.5088   1.0039  -0.3482 C.2            1 S1                 0.0000
      3 ****        -7.1420   2.0529  -0.2361 O.2            1 S1                 0.0000
      4 ****        -5.0244   0.9462  -0.4405 C.ar           1 S1                 0.0000
      5 ****        -4.3194  -0.2704  -0.5735 C.ar           1 S1                 0.0000
      6 ****        -2.9138  -0.2440  -0.6528 C.ar           1 S1                 0.0000
      7 ****        -2.2362   0.9932  -0.5995 C.ar           1 S1                 0.0000
      8 ****        -0.8217   0.9072  -0.6808 N.am           1 S1                 0.0000
      9 ****         0.0779   1.9083  -0.6846 C.2            1 S1                 0.0000
     10 ****        -0.2005   3.1067  -0.6455 O.2            1 S1                 0.0000
     11 ****         1.5395   1.4761  -0.7628 C.3            1 S1                 0.0000
     12 ****         1.8259   0.6442   0.3528 O.3            1 S1                 0.0000
     13 ****         3.1477   0.1229   0.3684 C.3            1 S1                 0.0000
     14 ****         3.2382  -1.1460  -0.5049 C.3            1 S1                 0.0000
     15 ****         4.6242  -1.8029  -0.3961 C.3            1 S1                 0.0000
     16 ****         4.9856  -2.1103   1.0660 C.3            1 S1                 0.0000
     17 ****         4.8924  -0.8484   1.9382 C.3            1 S1                 0.0000
     18 ****         3.5019  -0.2021   1.8300 C.3            1 S1                 0.0000
     19 ****        -2.9145   2.1596  -0.4740 N.ar           1 S1                 0.0000
     20 ****        -4.2619   2.1340  -0.3967 C.ar           1 S1                 0.0000
     21 ****        -6.9684  -0.9654   0.4267 H              1 S1                 0.0000
     22 ****        -7.0866  -0.8335  -1.3376 H              1 S1                 0.0000
     23 ****        -8.3463  -0.1417  -0.3105 H              1 S1                 0.0000
     24 ****        -4.8285  -1.2217  -0.6154 H              1 S1                 0.0000
     25 ****        -2.3648  -1.1693  -0.7533 H              1 S1                 0.0000
     26 ****        -0.4442  -0.0277  -0.7325 H              1 S1                 0.0000
     27 ****         1.7021   0.9498  -1.7037 H              1 S1                 0.0000
     28 ****         2.1871   2.3546  -0.7557 H              1 S1                 0.0000
     29 ****         3.8517   0.8743   0.0055 H              1 S1                 0.0000
     30 ****         2.4736  -1.8588  -0.1935 H              1 S1                 0.0000
     31 ****         3.0328  -0.9103  -1.5488 H              1 S1                 0.0000
     32 ****         4.6476  -2.7205  -0.9846 H              1 S1                 0.0000
     33 ****         5.3761  -1.1403  -0.8268 H              1 S1                 0.0000
     34 ****         4.3118  -2.8741   1.4562 H              1 S1                 0.0000
     35 ****         5.9912  -2.5277   1.1211 H              1 S1                 0.0000
     36 ****         5.1072  -1.0975   2.9777 H              1 S1                 0.0000
     37 ****         5.6538  -0.1317   1.6281 H              1 S1                 0.0000
     38 ****         3.4689   0.7072   2.4309 H              1 S1                 0.0000
     39 ****         2.7541  -0.8768   2.2489 H              1 S1                 0.0000
     40 ****        -4.7376   3.0987  -0.2954 H              1 S1                 0.0000
     41 ****        -8.1400   2.0307  -0.1777 LP             1 S1                 0.0000
     42 ****        -6.6585   2.9277  -0.2035 LP             1 S1                 0.0000
     43 ****        -1.1567   3.3969  -0.6074 LP             1 S1                 0.0000
     44 ****         0.5296   3.7901  -0.6519 LP             1 S1                 0.0000
     45 ****         1.1861  -0.1243   0.3430 LP             1 S1                 0.0000
     46 ****         1.6906   1.1800   1.1862 LP             1 S1                 0.0000
     47 ****        -2.4224   3.0294  -0.4391 LP             1 S1                 0.0000
@<TRIPOS>BOND
    1    1    2 1     
    2    1   21 1     
    3    1   22 1     
    4    1   23 1     
    5    2    3 2     
    6    2    4 1     
    7    4   20 ar    
    8    4    5 ar    
    9    5    6 ar    
   10    5   24 1     
   11    6    7 ar    
   12    6   25 1     
   13    7    8 1     
   14    7   19 ar    
   15    8    9 am    
   16    8   26 1     
   17    9   10 2     
   18    9   11 1     
   19   11   12 1     
   20   11   27 1     
   21   11   28 1     
   22   12   13 1     
   23   13   18 1     
   24   13   14 1     
   25   13   29 1     
   26   14   15 1     
   27   14   30 1     
   28   14   31 1     
   29   15   16 1     
   30   15   32 1     
   31   15   33 1     
   32   16   17 1     
   33   16   34 1     
   34   16   35 1     
   35   17   18 1     
   36   17   36 1     
   37   17   37 1     
   38   18   38 1     
   39   18   39 1     
   40   19   20 ar    
   41   20   40 1     
   42    3   41 1     
   43    3   42 1     
   44   10   43 1     
   45   10   44 1     
   46   12   45 1     
   47   12   46 1     
   48   19   47 1     
@<TRIPOS>SUBSTRUCTURE
      1 S1             1
@<TRIPOS>SET
LONE_PAIRS      STATIC     ATOMS    <user>   **** ""
7 41 42 43 44 45 46 47
DONOR_HYDROGENS      STATIC     ATOMS    <user>   **** ""
1 26
ATOM$BLUE        STATIC     ATOMS    COLORGROUP SYSTEM
7 41 42 43 44 45 46 47
ATOM$RED        STATIC     ATOMS    COLORGROUP SYSTEM
1 26
