#       Name:                AV-unprocessed.smi:2472
#       Creating user name   scv26
#       Creation time:       Fri Mar 27 13:38:22 2020


#       File generated by GOLD software.
#

@<TRIPOS>MOLECULE
AV-unprocessed.smi:2472
    52    54     1
SMALL
NO_CHARGES


@<TRIPOS>ATOM
      1 ****        -4.0465  -0.7932  -0.2103 C.3            1 S1                 0.0000
      2 ****        -3.8786   0.6297  -0.7138 C.ar           1 S1                 0.0000
      3 ****        -4.9790   1.5141  -0.6820 C.ar           1 S1                 0.0000
      4 ****        -4.8441   2.7810  -1.1279 N.pl3          1 S1                 1.0000
      5 ****        -3.6841   3.2615  -1.6217 C.ar           1 S1                 0.0000
      6 ****        -2.5481   2.4301  -1.6808 C.ar           1 S1                 0.0000
      7 ****        -2.6336   1.0958  -1.2085 C.ar           1 S1                 0.0000
      8 ****        -1.5327   0.1956  -1.2550 N.am           1 S1                 0.0000
      9 ****        -0.2250   0.4858  -1.1506 C.2            1 S1                 0.0000
     10 ****         0.2379   1.6171  -1.0063 O.2            1 S1                 0.0000
     11 ****         0.5257  -0.6297  -1.1865 N.am           1 S1                 0.0000
     12 ****         1.9918  -0.7375  -1.0639 C.3            1 S1                 0.0000
     13 ****         2.5092  -0.4001   0.3644 C.2            1 S1                 0.0000
     14 ****         3.7151  -0.2450   0.5616 O.2            1 S1                 0.0000
     15 ****         1.6098  -0.3044   1.3575 N.am           1 S1                 0.0000
     16 ****         1.9210   0.0151   2.7419 C.3            1 S1                 0.0000
     17 ****         0.6966   0.2553   3.5998 C.3            1 S1                 0.0000
     18 ****         0.7962   0.2274   5.1069 C.3            1 S1                 0.0000
     19 ****         0.0585  -0.8708   4.3788 C.3            1 S1                 0.0000
     20 ****         2.3998  -2.1906  -1.4070 C.3            1 S1                 0.0000
     21 ****         3.7315  -2.1004  -2.1491 C.3            1 S1                 0.0000
     22 ****         3.6017  -0.8305  -2.9792 C.3            1 S1                 0.0000
     23 ****         2.7139   0.1125  -2.1568 C.3            1 S1                 0.0000
     24 ****        -5.0540  -0.9621   0.1709 H              1 S1                 0.0000
     25 ****        -3.3432  -0.9978   0.5975 H              1 S1                 0.0000
     26 ****        -3.8666  -1.5057  -1.0158 H              1 S1                 0.0000
     27 ****        -5.9605   1.2486  -0.3166 H              1 S1                 0.0000
     28 ****        -3.7001   4.2877  -1.9582 H              1 S1                 0.0000
     29 ****        -1.6341   2.8253  -2.0978 H              1 S1                 0.0000
     30 ****        -1.7719  -0.7851  -1.2689 H              1 S1                 0.0000
     31 ****         0.0380  -1.5058  -1.3026 H              1 S1                 0.0000
     32 ****         0.6374  -0.4489   1.1296 H              1 S1                 0.0000
     33 ****         2.5146  -0.7929   3.1722 H              1 S1                 0.0000
     34 ****         2.5388   0.9141   2.7729 H              1 S1                 0.0000
     35 ****         0.0176   1.0020   3.1915 H              1 S1                 0.0000
     36 ****         1.7592  -0.0222   5.5482 H              1 S1                 0.0000
     37 ****         0.2014   0.9490   5.6632 H              1 S1                 0.0000
     38 ****        -1.0275  -0.8804   4.4478 H              1 S1                 0.0000
     39 ****         0.5314  -1.8500   4.3361 H              1 S1                 0.0000
     40 ****         2.4715  -2.8399  -0.5325 H              1 S1                 0.0000
     41 ****         1.6631  -2.6463  -2.0708 H              1 S1                 0.0000
     42 ****         4.5498  -1.9963  -1.4356 H              1 S1                 0.0000
     43 ****         3.9330  -2.9809  -2.7597 H              1 S1                 0.0000
     44 ****         4.5700  -0.3894  -3.2176 H              1 S1                 0.0000
     45 ****         3.1066  -1.0646  -3.9226 H              1 S1                 0.0000
     46 ****         2.0183   0.6174  -2.8279 H              1 S1                 0.0000
     47 ****         3.3237   0.9043  -1.7193 H              1 S1                 0.0000
     48 ****        -5.6547   3.3999  -1.0950 H              1 S1                 0.0000
     49 ****        -0.3750   2.4058  -0.9587 LP             1 S1                 0.0000
     50 ****         1.2269   1.7476  -0.9366 LP             1 S1                 0.0000
     51 ****         4.3614  -0.3359  -0.1961 LP             1 S1                 0.0000
     52 ****         4.0479  -0.0282   1.4793 LP             1 S1                 0.0000
@<TRIPOS>BOND
    1    1    2 1     
    2    1   24 1     
    3    1   25 1     
    4    1   26 1     
    5    2    7 ar    
    6    2    3 ar    
    7    3    4 ar    
    8    3   27 1     
    9    4    5 ar    
   10    4   48 1     
   11    5    6 ar    
   12    5   28 1     
   13    6    7 ar    
   14    6   29 1     
   15    7    8 1     
   16    8    9 am    
   17    8   30 1     
   18    9   10 2     
   19    9   11 am    
   20   11   12 1     
   21   11   31 1     
   22   12   23 1     
   23   12   13 1     
   24   12   20 1     
   25   13   14 2     
   26   13   15 am    
   27   15   16 1     
   28   15   32 1     
   29   16   17 1     
   30   16   33 1     
   31   16   34 1     
   32   17   19 1     
   33   17   18 1     
   34   17   35 1     
   35   18   19 1     
   36   18   36 1     
   37   18   37 1     
   38   19   38 1     
   39   19   39 1     
   40   20   21 1     
   41   20   40 1     
   42   20   41 1     
   43   21   22 1     
   44   21   42 1     
   45   21   43 1     
   46   22   23 1     
   47   22   44 1     
   48   22   45 1     
   49   23   46 1     
   50   23   47 1     
   51   10   49 1     
   52   10   50 1     
   53   14   51 1     
   54   14   52 1     
@<TRIPOS>SUBSTRUCTURE
      1 S1             1
@<TRIPOS>SET
LONE_PAIRS      STATIC     ATOMS    <user>   **** ""
4 49 50 51 52
DONOR_HYDROGENS      STATIC     ATOMS    <user>   **** ""
4 48 30 31 32
ATOM$BLUE        STATIC     ATOMS    COLORGROUP SYSTEM
4 49 50 51 52
ATOM$RED        STATIC     ATOMS    COLORGROUP SYSTEM
4 48 30 31 32
