#       Name:                AV-unprocessed.smi:2997
#       Creating user name   scv26
#       Creation time:       Fri Mar 27 16:33:53 2020


#       File generated by GOLD software.
#

@<TRIPOS>MOLECULE
AV-unprocessed.smi:2997
    42    44     1
SMALL
NO_CHARGES


@<TRIPOS>ATOM
      1 ****        -2.3584   3.7813  -2.8014 C.3            1 S1                 0.0000
      2 ****        -2.0578   2.7243  -1.7523 C.ar           1 S1                 0.0000
      3 ****        -2.3302   3.0220  -0.3977 C.ar           1 S1                 0.0000
      4 ****        -2.0418   2.0361   0.5385 C.ar           1 S1                 0.0000
      5 ****        -2.1903   2.0198   1.9272 N.pl3          1 S1                 1.0000
      6 ****        -1.7645   0.8218   2.4158 C.2            1 S1                 0.0000
      7 ****        -1.3477   0.0732   1.3588 N.pl3          1 S1                 0.0000
      8 ****        -0.7917  -1.2856   1.3205 C.3            1 S1                 0.0000
      9 ****         0.7457  -1.2949   1.2233 C.3            1 S1                 0.0000
     10 ****         1.2946  -0.6445   2.3549 O.3            1 S1                 0.0000
     11 ****         1.3088  -2.7246   1.1126 C.3            1 S1                 0.0000
     12 ****         2.7528  -2.7458   0.9615 N.pl3          1 S1                 0.0000
     13 ****         3.7077  -3.1107   1.8871 C.2            1 S1                 0.0000
     14 ****         4.9273  -2.9692   1.2895 C.2            1 S1                 0.0000
     15 ****         4.6109  -2.5087  -0.0193 C.2            1 S1                 0.0000
     16 ****         3.3084  -2.3796  -0.2140 N.2            1 S1                 0.0000
     17 ****        -1.5020   0.7896   0.1676 C.ar           1 S1                 0.0000
     18 ****        -1.2277   0.4793  -1.1619 C.ar           1 S1                 0.0000
     19 ****        -1.5135   1.4690  -2.1293 C.ar           1 S1                 0.0000
     20 ****        -1.2228   1.1605  -3.5884 C.3            1 S1                 0.0000
     21 ****        -2.7992   4.6729  -2.3544 H              1 S1                 0.0000
     22 ****        -3.0612   3.3988  -3.5419 H              1 S1                 0.0000
     23 ****        -1.4437   4.0815  -3.3131 H              1 S1                 0.0000
     24 ****        -2.7431   3.9757  -0.1032 H              1 S1                 0.0000
     25 ****        -1.7543   0.5223   3.4538 H              1 S1                 0.0000
     26 ****        -1.1200  -1.8022   2.2235 H              1 S1                 0.0000
     27 ****        -1.2399  -1.8163   0.4796 H              1 S1                 0.0000
     28 ****         1.0485  -0.7288   0.3416 H              1 S1                 0.0000
     29 ****         1.0770  -1.1461   3.1255 H              1 S1                 0.0000
     30 ****         1.0421  -3.3097   1.9938 H              1 S1                 0.0000
     31 ****         0.8697  -3.2364   0.2549 H              1 S1                 0.0000
     32 ****         3.4436  -3.4348   2.8829 H              1 S1                 0.0000
     33 ****         5.8976  -3.1646   1.7213 H              1 S1                 0.0000
     34 ****         5.2844  -2.2674  -0.8285 H              1 S1                 0.0000
     35 ****        -0.8110  -0.4754  -1.4473 H              1 S1                 0.0000
     36 ****        -0.8084   0.1592  -3.7097 H              1 S1                 0.0000
     37 ****        -0.5011   1.8704  -3.9931 H              1 S1                 0.0000
     38 ****        -2.1357   1.2165  -4.1817 H              1 S1                 0.0000
     39 ****        -2.5520   2.7701   2.5019 H              1 S1                 0.0000
     40 ****         0.9120   0.2762   2.4330 LP             1 S1                 0.0000
     41 ****         2.2884  -0.5856   2.2607 LP             1 S1                 0.0000
     42 ****         2.8404  -2.0785  -1.0449 LP             1 S1                 0.0000
@<TRIPOS>BOND
    1    1    2 1     
    2    1   21 1     
    3    1   22 1     
    4    1   23 1     
    5    2   19 ar    
    6    2    3 ar    
    7    3    4 ar    
    8    3   24 1     
    9    4   17 ar    
   10    4    5 1     
   11    5    6 2     
   12    5   39 1     
   13    6    7 1     
   14    6   25 1     
   15    7    8 1     
   16    7   17 1     
   17    8    9 1     
   18    8   26 1     
   19    8   27 1     
   20    9   10 1     
   21    9   11 1     
   22    9   28 1     
   23   10   29 1     
   24   11   12 1     
   25   11   30 1     
   26   11   31 1     
   27   12   16 1     
   28   12   13 1     
   29   13   14 2     
   30   13   32 1     
   31   14   15 1     
   32   14   33 1     
   33   15   16 2     
   34   15   34 1     
   35   17   18 ar    
   36   18   19 ar    
   37   18   35 1     
   38   19   20 1     
   39   20   36 1     
   40   20   37 1     
   41   20   38 1     
   42   10   40 1     
   43   10   41 1     
   44   16   42 1     
@<TRIPOS>SUBSTRUCTURE
      1 S1             1
@<TRIPOS>SET
LONE_PAIRS      STATIC     ATOMS    <user>   **** ""
3 40 41 42
DONOR_HYDROGENS      STATIC     ATOMS    <user>   **** ""
2 39 29
ATOM$BLUE        STATIC     ATOMS    COLORGROUP SYSTEM
3 40 41 42
ATOM$RED        STATIC     ATOMS    COLORGROUP SYSTEM
2 39 29
