#       Name:                AV-unprocessed.smi:2546
#       Creating user name   scv26
#       Creation time:       Fri Mar 27 14:04:56 2020


#       File generated by GOLD software.
#

@<TRIPOS>MOLECULE
AV-unprocessed.smi:2546
    19    19     1
SMALL
NO_CHARGES


@<TRIPOS>ATOM
      1 ****        -1.5892   2.0233   0.0765 N.4            1 S1                 1.0000
      2 ****        -1.0778   0.6434   0.0784 C.3            1 S1                 0.0000
      3 ****         0.4550   0.6150   0.0817 C.3            1 S1                 0.0000
      4 ****         0.9831  -0.8015   0.0725 C.2            1 S1                 0.0000
      5 ****         1.2224  -1.5318   1.1779 N.2            1 S1                 0.0000
      6 ****         1.6245  -2.7136   0.7515 N.pl3          1 S1                -1.0000
      7 ****         1.6175  -2.6919  -0.5884 C.2            1 S1                 0.0000
      8 ****         1.2136  -1.5141  -1.0403 N.2            1 S1                 0.0000
      9 ****        -2.5990   2.0055   0.0748 H              1 S1                 0.0000
     10 ****        -1.2589   2.5026  -0.7488 H              1 S1                 0.0000
     11 ****        -1.4676   0.1247   0.9550 H              1 S1                 0.0000
     12 ****        -1.4634   0.1257  -0.8005 H              1 S1                 0.0000
     13 ****         0.8480   1.1412  -0.7894 H              1 S1                 0.0000
     14 ****         0.8431   1.1285   0.9623 H              1 S1                 0.0000
     15 ****         1.9093  -3.5614  -1.1644 H              1 S1                 0.0000
     16 ****        -1.2608   2.5047   0.9014 H              1 S1                 0.0000
     17 ****         1.1169  -1.2384   2.1280 LP             1 S1                 0.0000
     18 ****         1.8879  -3.4884   1.3263 LP             1 S1                 0.0000
     19 ****         1.1055  -1.2235  -1.9910 LP             1 S1                 0.0000
@<TRIPOS>BOND
    1    1    2 1     
    2    1    9 1     
    3    1   10 1     
    4    1   16 1     
    5    2    3 1     
    6    2   11 1     
    7    2   12 1     
    8    3   13 1     
    9    3   14 1     
   10    3    4 1     
   11    4    8 1     
   12    4    5 2     
   13    5    6 1     
   14    6    7 1     
   15    7    8 2     
   16    7   15 1     
   17    5   17 1     
   18    6   18 1     
   19    8   19 1     
@<TRIPOS>SUBSTRUCTURE
      1 S1             1
@<TRIPOS>SET
LONE_PAIRS      STATIC     ATOMS    <user>   **** ""
3 17 18 19
DONOR_HYDROGENS      STATIC     ATOMS    <user>   **** ""
3 9 10 16
ATOM$BLUE        STATIC     ATOMS    COLORGROUP SYSTEM
3 17 18 19
ATOM$RED        STATIC     ATOMS    COLORGROUP SYSTEM
3 9 10 16
