AV-unprocessed.smi:680|AV-procd|sdf|3324|dock9
  -GOLD-   22720 0293D 1   1.00000     0.00000
 Structure written by MMmdl.
 32 33  0  0  0  0  0  0  0  0  1 V2000
  152.3684  139.9083  155.2957 C   0  0  0  0  0  0  0  0  0  0  0  0
  151.8551  138.5035  155.1784 C   0  0  0  0  0  0  0  0  0  0  0  0
  150.7778  138.0208  154.3845 C   0  0  0  0  0  0  0  0  0  0  0  0
  150.7645  136.6822  154.6731 C   0  0  0  0  0  0  0  0  0  0  0  0
  149.9286  135.7232  154.1963 N   0  0  0  0  0  0  0  0  0  0  0  0
  149.6069  134.5362  154.7408 C   0  0  0  0  0  0  0  0  0  0  0  0
  150.0370  134.1003  155.8087 O   0  0  0  0  0  0  0  0  0  0  0  0
  148.7368  133.8718  153.9660 N   0  0  0  0  0  0  0  0  0  0  0  0
  148.1577  132.5641  154.2644 C   0  0  0  0  0  0  0  0  0  0  0  0
  147.3259  132.0257  153.0844 C   0  0  1  0  0  0  0  0  0  0  0  0
  146.4344  130.8522  153.5298 C   0  0  0  0  0  0  0  0  0  0  0  0
  145.7184  129.9574  152.1220 S   0  0  0  0  0  0  0  0  0  0  0  0
  144.7299  131.2838  151.3795 C   0  0  0  0  0  0  0  0  0  0  0  0
  145.6015  132.4636  150.9329 C   0  0  0  0  0  0  0  0  0  0  0  0
  146.3166  133.3495  152.3453 S   0  0  0  0  0  0  0  0  0  0  0  0
  151.7356  136.3620  155.5624 O   0  0  0  0  0  0  0  0  0  0  0  0
  152.4298  137.5360  155.8777 N   0  0  0  0  0  0  0  0  0  0  0  0
  151.7981  140.5892  154.6634 H   0  0  0  0  0  0  0  0  0  0  0  0
  153.4140  139.9718  154.9931 H   0  0  0  0  0  0  0  0  0  0  0  0
  152.2943  140.2690  156.3218 H   0  0  0  0  0  0  0  0  0  0  0  0
  150.1343  138.5804  153.7228 H   0  0  0  0  0  0  0  0  0  0  0  0
  149.4814  135.9437  153.3188 H   0  0  0  0  0  0  0  0  0  0  0  0
  148.4396  134.3102  153.1066 H   0  0  0  0  0  0  0  0  0  0  0  0
  148.9871  131.8868  154.4697 H   0  0  0  0  0  0  0  0  0  0  0  0
  147.5526  132.5850  155.1724 H   0  0  0  0  0  0  0  0  0  0  0  0
  148.0150  131.6659  152.3189 H   0  0  0  0  0  0  0  0  0  0  0  0
  147.0204  130.1335  154.1032 H   0  0  0  0  0  0  0  0  0  0  0  0
  145.6347  131.1999  154.1847 H   0  0  0  0  0  0  0  0  0  0  0  0
  144.2015  130.8705  150.5202 H   0  0  0  0  0  0  0  0  0  0  0  0
  143.9714  131.6128  152.0905 H   0  0  0  0  0  0  0  0  0  0  0  0
  146.4011  132.1254  150.2732 H   0  0  0  0  0  0  0  0  0  0  0  0
  144.9980  133.1703  150.3632 H   0  0  0  0  0  0  0  0  0  0  0  0
  1  2  1  0  0  0  0
  1 18  1  0  0  0  0
  1 19  1  0  0  0  0
  1 20  1  0  0  0  0
  2 17  2  0  0  0  0
  2  3  1  0  0  0  0
  3  4  2  0  0  0  0
  3 21  1  0  0  0  0
  4  5  1  0  0  0  0
  4 16  1  0  0  0  0
  5  6  1  0  0  0  0
  5 22  1  0  0  0  0
  6  7  2  0  0  0  0
  6  8  1  0  0  0  0
  8  9  1  0  0  0  0
  8 23  1  0  0  0  0
  9 10  1  0  0  0  0
  9 24  1  0  0  0  0
  9 25  1  0  0  0  0
 10 15  1  0  0  0  0
 10 11  1  0  0  0  0
 10 26  1  0  0  0  0
 11 12  1  0  0  0  0
 11 27  1  0  0  0  0
 11 28  1  0  0  0  0
 12 13  1  0  0  0  0
 13 14  1  0  0  0  0
 13 29  1  0  0  0  0
 13 30  1  0  0  0  0
 14 15  1  0  0  0  0
 14 31  1  0  0  0  0
 14 32  1  0  0  0  0
 16 17  1  0  0  0  0
M  END
> <s_m_source_file>
AV-unprocessed.smi

> <i_m_source_file_index>
680

> <i_lp_mmshare_version>
43012

> <i_f3d_flags>
0

> <s_epik_input>
W0NIM11jMVtjSF1jKG9uMSlbTkhdQyg9TylbTkhdW0NIMl1bQ0BASF0yW0NIMl1TW0NIMl1bQ0gyXVMy

> <s_epik_cmdline>
J2VwaWtfcHl0aG9uJywgJy1waCcsICc3LjAnLCAnLXRuJywgJzgnLCAnLW1hJywgJzIwMCcsICctbWV0YWxfYmluZGluZycsICctaW1hZScsICc8aW5maWxlLm1hZT4nLCAnLW9tYWUnLCAnPG91dGZpbGUubWFlPic=

> <r_epik_Ionization_Penalty>
0.000554698

> <r_epik_Ionization_Penalty_Charging>
0

> <r_epik_Ionization_Penalty_Neutral>
0.000554698

> <r_epik_State_Penalty>
0.000333438

> <r_epik_Charging_Adjusted_Penalty>
0.000333438

> <i_epik_Tot_Q>
0

> <i_epik_Tot_abs_Q>
0

> <r_epik_Metal_State_Penalty>
-0

> <b_epik_Metal_Only>
0

> <s_lp_Force_Field>
OPLS_2005

> <r_lp_Energy>
4.32293

> <b_lp_Chiralities_Consistent>
1

> <s_lp_Variant>
AV-unprocessed.smi:680-2

> <Gold.Version>
5.8.1

> <Gold.Id.Protein>
6NUR|6NUR_protein|mol2

> <Gold.PLP.Fitness>
37.5633

> <Gold.PLP.PLP>
-31.3785

> <Gold.PLP.part.hbond>
-4.2344

> <Gold.PLP.part.metal>
0.0000

> <Gold.PLP.part.buried>
-0.9901

> <Gold.PLP.part.nonpolar>
-26.4435

> <Gold.PLP.part.repulsive>
0.1454

> <Gold.PLP.ligand.clash>
0.0000

> <Gold.PLP.ligand.torsion>
0.2679

> <Gold.PLP.Chemscore.Hbond>
2.2392

> <Gold.PLP.Chemscore.CHOScore>
0.0000

> <Gold.PLP.Chemscore.Metal>
0.0000

> <Gold.Chemscore.Hbonds>
donor molecule, donor type, donor heavy atom, donor atom, acceptor molecule, acceptor atom, score
      L1  H     5    22       P1  7948  1.00
      L1  H     8    23       P1  7948  0.25
      P1  H 10752 10763       L1    16  0.90

> <Gold.PLP.Chemscore.Internal.Correction>
0.0029

> <Gold.Rescore>
     Score         DG    S(hbond)    S(metal)    S(lipo)     H(rot)  DE(clash)    DE(int)     intcor
     15.65     -16.51       1.95        0.00      66.07       1.26       0.21       0.65       ----

> <Gold.Chemscore.Fitness>
15.6485

> <Gold.Chemscore.DG>
-16.5061

> <Gold.Chemscore.ZeroCoef>
-5.4800

> <Gold.Chemscore.Hbond>
1.9520

> <Gold.Chemscore.Metal>
0.0000

> <Gold.Chemscore.Lipo>
66.0656

> <Gold.Chemscore.Internal_Hbond>
0.0000

> <Gold.Chemscore.DEClash>
0.2107

> <Gold.Chemscore.DEInternal>
0.6468

> <Gold.Chemscore.Rot>
1.2590

> <Gold.Chemscore.Internal.Correction>
   9.000000E+99

> <Gold.Chemscore.Hbonds>
donor molecule, donor type, donor heavy atom, donor atom, acceptor molecule, acceptor atom, score
      L1  H     5    22       P1  7948  0.28
      L1  H     8    23       P1  7948  0.06
      P1  H 10752 10763       L1    16  0.14

> <Gold.Chemscore.Hbond.Weighted>
-6.5196

> <Gold.Chemscore.Metal.Weighted>
-0.0000

> <Gold.Chemscore.Lipo.Weighted>
-7.7297

> <Gold.Chemscore.Internal_Hbond.Weighted>
0.0000

> <Gold.Chemscore.DEClash.Weighted>
0.2107

> <Gold.Chemscore.DEInternal.Weighted>
0.6468

> <Gold.Chemscore.Rot.Weighted>
3.2232

> <Gold.Chemscore.Internal.Correction.Weighted>
   9.000000E+99

> <Gold.Protein.RotatedTorsions>
[ 6907 6896 6895 6894 ] final -166.68 input  -60.11 | X-H torsion
[ 7974 7965 7964 7962 ] final   64.55 input  175.53 | X-H torsion
[ 8008 7997 7996 7995 ] final  -48.15 input   59.86 | X-H torsion
[ 10167 10162 10161 10158 ] final   -7.24 input  -65.29 | X-H torsion
[ 10718 10713 10712 10709 ] final  -95.13 input   66.30 | X-H torsion
[ 10763 10752 10751 10750 ] final   72.98 input  -60.55 | X-H torsion
[ 11005 11000 10999 10996 ] final  -51.83 input  -57.11 | X-H torsion

> <Gold.Protein.ActiveResidues>
 VAL166  LYS551  ARG553  GLY616  TRP617  ASP618  TYR619  PRO620  LYS621  CYS622 
 ASP623  PHE694  ASN695  SER759  ASP760  ASP761  ALA762  ILE779  LEU786  VAL792 
 PHE793  MET794  SER795  GLU796  ALA797  LYS798  CYS799  TRP800  GLU811  SER814 

> <Gold.Protein.RotatedAtoms>
  151.4475  133.3626  159.2790 H   0  0  0  0  0  0  0  0  0  0  0  0  # atno 6907 bound_to 6896
  150.9114  134.8533  159.7439 H   0  0  0  0  0  0  0  0  0  0  0  0  # atno 6908 bound_to 6896
  152.4934  134.4405  159.9594 H   0  0  0  0  0  0  0  0  0  0  0  0  # atno 6909 bound_to 6896
  145.8488  139.3241  143.0887 H   0  0  0  0  0  0  0  0  0  0  0  0  # atno 7974 bound_to 7965
  154.4025  140.1328  156.4293 H   0  0  0  0  0  0  0  0  0  0  0  0  # atno 8008 bound_to 7997
  155.7567  140.3487  155.5157 H   0  0  0  0  0  0  0  0  0  0  0  0  # atno 8009 bound_to 7997
  155.8898  140.1001  157.1417 H   0  0  0  0  0  0  0  0  0  0  0  0  # atno 8010 bound_to 7997
  140.7023  143.6103  150.8711 H   0  0  0  0  0  0  0  0  0  0  0  0  # atno 10167 bound_to 10162
  156.0038  130.5096  150.6030 H   0  0  0  0  0  0  0  0  0  0  0  0  # atno 10718 bound_to 10713
  153.0492  135.5080  154.7824 H   0  0  0  0  0  0  0  0  0  0  0  0  # atno 10763 bound_to 10752
  154.6700  135.2951  154.9757 H   0  0  0  0  0  0  0  0  0  0  0  0  # atno 10764 bound_to 10752
  154.0578  135.6695  153.4861 H   0  0  0  0  0  0  0  0  0  0  0  0  # atno 10765 bound_to 10752
  141.0892  133.6636  156.3934 H   0  0  0  0  0  0  0  0  0  0  0  0  # atno 11005 bound_to 11000
  145.9381  140.9000  143.0322 LP  0  0  0  0  0  0  0  0  0  0  0  0  # atno 17320 bound_to 7965
  144.6730  140.1510  143.7430 LP  0  0  0  0  0  0  0  0  0  0  0  0  # atno 17321 bound_to 7965
  139.9826  143.5935  152.2938 LP  0  0  0  0  0  0  0  0  0  0  0  0  # atno 17342 bound_to 10162
  139.6561  144.7662  151.2053 LP  0  0  0  0  0  0  0  0  0  0  0  0  # atno 17343 bound_to 10162
  157.3875  131.0790  151.1423 LP  0  0  0  0  0  0  0  0  0  0  0  0  # atno 17370 bound_to 10713
  157.2125  130.6444  149.5779 LP  0  0  0  0  0  0  0  0  0  0  0  0  # atno 17371 bound_to 10713
  140.5292  134.6229  157.5344 LP  0  0  0  0  0  0  0  0  0  0  0  0  # atno 17394 bound_to 11000
  139.9715  134.7285  156.0033 LP  0  0  0  0  0  0  0  0  0  0  0  0  # atno 17395 bound_to 11000

$$$$
