AV-unprocessed.smi:1572|AV-procd|sdf|6328|dock8
  -GOLD-   22720 6533D 1   1.00000     0.00000
 Structure written by MMmdl.
 43 44  0  0  0  0  0  0  0  0  2 V2000
  150.7367  138.7703  156.8674 C   0  0  0  0  0  0  0  0  0  0  0  0
  151.1329  139.2580  155.5507 N   0  0  0  0  0  0  0  0  0  0  0  0
  150.7087  138.3879  154.4555 C   0  0  0  0  0  0  0  0  0  0  0  0
  149.1837  138.4374  154.2326 C   0  0  0  0  0  0  0  0  0  0  0  0
  148.7286  139.8296  153.9451 N   0  3  0  0  0  0  0  0  0  0  0  0
  147.2898  139.9631  153.5031 C   0  0  0  0  0  0  0  0  0  0  0  0
  146.8403  141.4444  153.4889 C   0  0  0  0  0  0  0  0  0  0  0  0
  147.0974  139.3967  152.0705 C   0  0  0  0  0  0  0  0  0  0  0  0
  146.3910  139.1445  154.4809 C   0  0  0  0  0  0  0  0  0  0  0  0
  144.9841  139.0713  154.0854 N   0  0  0  0  0  0  0  0  0  0  0  0
  144.1366  138.0823  154.4070 C   0  0  0  0  0  0  0  0  0  0  0  0
  144.4654  137.0966  155.0672 O   0  0  0  0  0  0  0  0  0  0  0  0
  142.9076  138.3131  153.9126 N   0  0  0  0  0  0  0  0  0  0  0  0
  141.7530  137.4919  154.0088 C   0  0  0  0  0  0  0  0  0  0  0  0
  141.7527  136.2707  154.5660 N   0  0  0  0  0  0  0  0  0  0  0  0
  140.4955  135.6821  154.5271 N   0  0  0  0  0  0  0  0  0  0  0  0
  139.5987  136.4804  153.9410 C   0  0  0  0  0  0  0  0  0  0  0  0
  140.2031  138.0288  153.3768 S   0  0  0  0  0  0  0  0  0  0  0  0
  149.1651  140.7208  155.0599 C   0  0  0  0  0  0  0  0  0  0  0  0
  150.6893  140.6247  155.2855 C   0  0  0  0  0  0  0  0  0  0  0  0
  151.1357  137.7693  157.0341 H   0  0  0  0  0  0  0  0  0  0  0  0
  149.6555  138.7282  156.9936 H   0  0  0  0  0  0  0  0  0  0  0  0
  151.1401  139.4195  157.6452 H   0  0  0  0  0  0  0  0  0  0  0  0
  151.2215  138.6978  153.5439 H   0  0  0  0  0  0  0  0  0  0  0  0
  151.0302  137.3656  154.6583 H   0  0  0  0  0  0  0  0  0  0  0  0
  148.9575  137.7689  153.4057 H   0  0  0  0  0  0  0  0  0  0  0  0
  148.6654  138.0348  155.1025 H   0  0  0  0  0  0  0  0  0  0  0  0
  145.8377  141.5505  153.0731 H   0  0  0  0  0  0  0  0  0  0  0  0
  147.5010  142.0621  152.8806 H   0  0  0  0  0  0  0  0  0  0  0  0
  146.8089  141.8747  154.4897 H   0  0  0  0  0  0  0  0  0  0  0  0
  146.0534  139.4085  151.7592 H   0  0  0  0  0  0  0  0  0  0  0  0
  147.4453  138.3655  151.9980 H   0  0  0  0  0  0  0  0  0  0  0  0
  147.6177  139.9871  151.3167 H   0  0  0  0  0  0  0  0  0  0  0  0
  146.8058  138.1444  154.6197 H   0  0  0  0  0  0  0  0  0  0  0  0
  146.3751  139.5953  155.4710 H   0  0  0  0  0  0  0  0  0  0  0  0
  144.6270  139.8397  153.5363 H   0  0  0  0  0  0  0  0  0  0  0  0
  142.7823  139.1759  153.4041 H   0  0  0  0  0  0  0  0  0  0  0  0
  138.5740  136.1546  153.8400 H   0  0  0  0  0  0  0  0  0  0  0  0
  148.9661  141.7657  154.8313 H   0  0  0  0  0  0  0  0  0  0  0  0
  148.6178  140.4872  155.9733 H   0  0  0  0  0  0  0  0  0  0  0  0
  150.9930  141.2727  156.1085 H   0  0  0  0  0  0  0  0  0  0  0  0
  151.2105  140.9901  154.3993 H   0  0  0  0  0  0  0  0  0  0  0  0
  149.2702  140.1325  153.1480 H   0  0  0  0  0  0  0  0  0  0  0  0
  1  2  1  0  0  0  0
  1 21  1  0  0  0  0
  1 22  1  0  0  0  0
  1 23  1  0  0  0  0
  2 20  1  0  0  0  0
  2  3  1  0  0  0  0
  3  4  1  0  0  0  0
  3 24  1  0  0  0  0
  3 25  1  0  0  0  0
  4  5  1  0  0  0  0
  4 26  1  0  0  0  0
  4 27  1  0  0  0  0
  5  6  1  0  0  0  0
  5 19  1  0  0  0  0
  5 43  1  0  0  0  0
  6  7  1  0  0  0  0
  6  8  1  0  0  0  0
  6  9  1  0  0  0  0
  7 28  1  0  0  0  0
  7 29  1  0  0  0  0
  7 30  1  0  0  0  0
  8 31  1  0  0  0  0
  8 32  1  0  0  0  0
  8 33  1  0  0  0  0
  9 10  1  0  0  0  0
  9 34  1  0  0  0  0
  9 35  1  0  0  0  0
 10 11  1  0  0  0  0
 10 36  1  0  0  0  0
 11 12  2  0  0  0  0
 11 13  1  0  0  0  0
 13 14  1  0  0  0  0
 13 37  1  0  0  0  0
 14 18  1  0  0  0  0
 14 15  2  0  0  0  0
 15 16  1  0  0  0  0
 16 17  2  0  0  0  0
 17 18  1  0  0  0  0
 17 38  1  0  0  0  0
 19 20  1  0  0  0  0
 19 39  1  0  0  0  0
 19 40  1  0  0  0  0
 20 41  1  0  0  0  0
 20 42  1  0  0  0  0
M  CHG  1   5   1
M  END
> <s_m_source_file>
AV-unprocessed.smi

> <i_m_source_file_index>
1572

> <i_lp_mmshare_version>
43012

> <i_f3d_flags>
0

> <s_epik_input>
W0NIM11OMVtDSDJdW0NIMl1OKFtDSDJdW0NIMl0xKUMoW0NIM10pKFtDSDNdKVtDSDJdW05IXUMoPU8pW05IXWMybm5bY0hdczI=

> <s_epik_cmdline>
J2VwaWtfcHl0aG9uJywgJy1waCcsICc3LjAnLCAnLXRuJywgJzgnLCAnLW1hJywgJzIwMCcsICctbWV0YWxfYmluZGluZycsICctaW1hZScsICc8aW5maWxlLm1hZT4nLCAnLW9tYWUnLCAnPG91dGZpbGUubWFlPic=

> <r_epik_Ionization_Penalty>
0.104337

> <r_epik_Ionization_Penalty_Charging>
0.0985296

> <r_epik_Ionization_Penalty_Neutral>
0.00580738

> <r_epik_State_Penalty>
1.056

> <r_epik_Charging_Adjusted_Penalty>
1.15453

> <i_epik_Tot_Q>
1

> <i_epik_Tot_abs_Q>
1

> <r_epik_Metal_State_Penalty>
1.38982

> <b_epik_Metal_Only>
0

> <s_lp_Force_Field>
OPLS_2005

> <r_lp_Energy>
26.4424

> <b_lp_Chiralities_Consistent>
1

> <s_lp_Variant>
AV-unprocessed.smi:1572-2

> <Gold.Version>
5.8.1

> <Gold.Id.Protein>
6NUR|6NUR_protein|mol2

> <Gold.PLP.Fitness>
39.6809

> <Gold.PLP.PLP>
-29.1781

> <Gold.PLP.part.hbond>
-4.1070

> <Gold.PLP.part.metal>
0.0000

> <Gold.PLP.part.buried>
0.9214

> <Gold.PLP.part.nonpolar>
-24.6771

> <Gold.PLP.part.repulsive>
0.3099

> <Gold.PLP.ligand.clash>
0.0000

> <Gold.PLP.ligand.torsion>
0.5992

> <Gold.PLP.Chemscore.Hbond>
3.8720

> <Gold.PLP.Chemscore.CHOScore>
0.0000

> <Gold.PLP.Chemscore.Metal>
0.0000

> <Gold.Chemscore.Hbonds>
donor molecule, donor type, donor heavy atom, donor atom, acceptor molecule, acceptor atom, score
      L1  H     5    43       P1  7957  0.98
      L1  H    10    36       P1 10175  1.00
      L1  H    13    37       P1 10175  0.91
      P1  H 11000 11005       L1    16  1.00

> <Gold.PLP.Chemscore.Internal.Correction>
0.0851

> <Gold.Rescore>
     Score         DG    S(hbond)    S(metal)    S(lipo)     H(rot)  DE(clash)    DE(int)     intcor
     18.34     -22.05       3.70        0.00      73.25       1.70       1.84       1.87       ----

> <Gold.Chemscore.Fitness>
18.3409

> <Gold.Chemscore.DG>
-22.0519

> <Gold.Chemscore.ZeroCoef>
-5.4800

> <Gold.Chemscore.Hbond>
3.6955

> <Gold.Chemscore.Metal>
0.0000

> <Gold.Chemscore.Lipo>
73.2462

> <Gold.Chemscore.Internal_Hbond>
0.0000

> <Gold.Chemscore.DEClash>
1.8433

> <Gold.Chemscore.DEInternal>
1.8677

> <Gold.Chemscore.Rot>
1.6956

> <Gold.Chemscore.Internal.Correction>
   9.000000E+99

> <Gold.Chemscore.Hbonds>
donor molecule, donor type, donor heavy atom, donor atom, acceptor molecule, acceptor atom, score
      L1  H     5    43       P1  7957  0.88
      L1  H    10    36       P1 10175  0.92
      L1  H    13    37       P1 10175  0.88
      P1  H 11000 11005       L1    16  0.88

> <Gold.Chemscore.Hbond.Weighted>
-12.3428

> <Gold.Chemscore.Metal.Weighted>
-0.0000

> <Gold.Chemscore.Lipo.Weighted>
-8.5698

> <Gold.Chemscore.Internal_Hbond.Weighted>
0.0000

> <Gold.Chemscore.DEClash.Weighted>
1.8433

> <Gold.Chemscore.DEInternal.Weighted>
1.8677

> <Gold.Chemscore.Rot.Weighted>
4.3407

> <Gold.Chemscore.Internal.Correction.Weighted>
   9.000000E+99

> <Gold.Protein.RotatedTorsions>
[ 6907 6896 6895 6894 ] final  158.40 input  -60.11 | X-H torsion
[ 7974 7965 7964 7962 ] final  -77.32 input  175.53 | X-H torsion
[ 8008 7997 7996 7995 ] final  -75.48 input   59.86 | X-H torsion
[ 10167 10162 10161 10158 ] final   18.95 input  -65.29 | X-H torsion
[ 10718 10713 10712 10709 ] final  178.86 input   66.30 | X-H torsion
[ 10763 10752 10751 10750 ] final   27.35 input  -60.55 | X-H torsion
[ 11005 11000 10999 10996 ] final   50.20 input  -57.11 | X-H torsion

> <Gold.Protein.ActiveResidues>
 VAL166  LYS551  ARG553  GLY616  TRP617  ASP618  TYR619  PRO620  LYS621  CYS622 
 ASP623  PHE694  ASN695  SER759  ASP760  ASP761  ALA762  ILE779  LEU786  VAL792 
 PHE793  MET794  SER795  GLU796  ALA797  LYS798  CYS799  TRP800  GLU811  SER814 

> <Gold.Protein.RotatedAtoms>
  152.0009  133.3825  159.4181 H   0  0  0  0  0  0  0  0  0  0  0  0  # atno 6907 bound_to 6896
  150.6910  134.3835  159.5054 H   0  0  0  0  0  0  0  0  0  0  0  0  # atno 6908 bound_to 6896
  152.1582  134.8933  160.0594 H   0  0  0  0  0  0  0  0  0  0  0  0  # atno 6909 bound_to 6896
  145.6012  140.9408  143.1240 H   0  0  0  0  0  0  0  0  0  0  0  0  # atno 7974 bound_to 7965
  154.5420  140.0743  156.8526 H   0  0  0  0  0  0  0  0  0  0  0  0  # atno 8008 bound_to 7997
  155.3161  140.3393  155.4224 H   0  0  0  0  0  0  0  0  0  0  0  0  # atno 8009 bound_to 7997
  156.1883  140.1677  156.8128 H   0  0  0  0  0  0  0  0  0  0  0  0  # atno 8010 bound_to 7997
  140.5616  143.9327  150.6646 H   0  0  0  0  0  0  0  0  0  0  0  0  # atno 10167 bound_to 10162
  156.8843  130.9826  151.3058 H   0  0  0  0  0  0  0  0  0  0  0  0  # atno 10718 bound_to 10713
  153.0561  135.6539  154.0573 H   0  0  0  0  0  0  0  0  0  0  0  0  # atno 10763 bound_to 10752
  154.0251  135.2916  155.3377 H   0  0  0  0  0  0  0  0  0  0  0  0  # atno 10764 bound_to 10752
  154.6877  135.5295  153.8416 H   0  0  0  0  0  0  0  0  0  0  0  0  # atno 10765 bound_to 10752
  140.1038  134.5046  155.8738 H   0  0  0  0  0  0  0  0  0  0  0  0  # atno 11005 bound_to 11000
  144.7309  139.7729  143.7347 LP  0  0  0  0  0  0  0  0  0  0  0  0  # atno 17320 bound_to 7965
  146.1575  139.4678  143.0009 LP  0  0  0  0  0  0  0  0  0  0  0  0  # atno 17321 bound_to 7965
  140.2779  143.3410  152.1178 LP  0  0  0  0  0  0  0  0  0  0  0  0  # atno 17342 bound_to 10162
  139.5073  144.6829  151.5963 LP  0  0  0  0  0  0  0  0  0  0  0  0  # atno 17343 bound_to 10162
  157.6122  130.8591  149.8970 LP  0  0  0  0  0  0  0  0  0  0  0  0  # atno 17370 bound_to 10713
  156.0661  130.3692  150.0875 LP  0  0  0  0  0  0  0  0  0  0  0  0  # atno 17371 bound_to 10713
  141.2113  133.6705  156.6571 LP  0  0  0  0  0  0  0  0  0  0  0  0  # atno 17394 bound_to 11000
  140.3183  134.8028  157.4232 LP  0  0  0  0  0  0  0  0  0  0  0  0  # atno 17395 bound_to 11000

$$$$
