#       Name:                AV-unprocessed.smi:109
#       Creating user name   scv26
#       Creation time:       Thu Mar 26 18:08:02 2020


#       File generated by GOLD software.
#

@<TRIPOS>MOLECULE
AV-unprocessed.smi:109
    71    74     1
SMALL
NO_CHARGES


@<TRIPOS>ATOM
      1 ****        -1.8905   2.9811   4.0271 O.3            1 S1                 0.0000
      2 ****        -1.4691   2.5956   2.7365 C.3            1 S1                 0.0000
      3 ****        -2.6926   2.2854   1.8563 C.3            1 S1                 0.0000
      4 ****        -2.3445   1.9495   0.3853 C.3            1 S1                 0.0000
      5 ****        -1.4880   0.7611   0.3487 N.pl3          1 S1                 0.0000
      6 ****        -0.1453   0.8513   0.2187 C.ar           1 S1                 0.0000
      7 ****         0.4526   2.0020  -0.1852 N.ar           1 S1                 0.0000
      8 ****         1.7826   2.0610  -0.3001 C.ar           1 S1                 0.0000
      9 ****         2.6838   1.1053  -0.0617 N.ar           1 S1                 0.0000
     10 ****         2.0880  -0.0524   0.3472 C.ar           1 S1                 0.0000
     11 ****         0.6899  -0.2593   0.5051 C.ar           1 S1                 0.0000
     12 ****         0.4533  -1.5597   0.9280 N.2            1 S1                 0.0000
     13 ****         1.6454  -2.0865   1.0108 C.2            1 S1                 0.0000
     14 ****         2.6918  -1.2424   0.6937 N.pl3          1 S1                 0.0000
     15 ****         4.1707  -1.5057   0.6530 C.3            1 S1                 0.0000
     16 ****         4.4698  -2.0844  -0.5763 O.3            1 S1                 0.0000
     17 ****         4.3312  -3.4942  -0.4767 C.3            1 S1                 0.0000
     18 ****         5.1304  -4.1635  -1.6054 C.3            1 S1                 0.0000
     19 ****         4.8770  -5.5519  -1.6322 O.3            1 S1                 0.0000
     20 ****         4.8322  -3.8084   0.9436 C.3            1 S1                 0.0000
     21 ****         4.0790  -4.8666   1.5030 O.3            1 S1                 0.0000
     22 ****         4.6063  -2.5123   1.7311 C.3            1 S1                 0.0000
     23 ****         5.8013  -2.0950   2.3596 O.3            1 S1                 0.0000
     24 ****        -3.5898   1.7185  -0.5180 C.3            1 S1                 0.0000
     25 ****        -3.1659   1.4609  -1.9870 C.3            1 S1                 0.0000
     26 ****        -4.3672   1.2354  -2.9185 C.3            1 S1                 0.0000
     27 ****        -5.3403   2.4190  -2.8631 C.3            1 S1                 0.0000
     28 ****        -5.7959   2.6732  -1.4216 C.3            1 S1                 0.0000
     29 ****        -4.5984   2.8944  -0.4825 C.3            1 S1                 0.0000
     30 ****         4.6302  -0.5222   0.7584 H              1 S1                 0.0000
     31 ****         3.2712  -3.7321  -0.5810 H              1 S1                 0.0000
     32 ****         5.8895  -4.0782   0.9293 H              1 S1                 0.0000
     33 ****         3.8395  -2.6032   2.5018 H              1 S1                 0.0000
     34 ****        -2.3708   2.2647   4.4134 H              1 S1                 0.0000
     35 ****        -0.8768   3.4013   2.3017 H              1 S1                 0.0000
     36 ****        -0.8190   1.7262   2.8327 H              1 S1                 0.0000
     37 ****        -3.2654   1.4675   2.2958 H              1 S1                 0.0000
     38 ****        -3.3337   3.1647   1.8917 H              1 S1                 0.0000
     39 ****        -1.8244   2.8142  -0.0256 H              1 S1                 0.0000
     40 ****        -1.9459  -0.1037   0.5986 H              1 S1                 0.0000
     41 ****         2.1816   3.0095  -0.6282 H              1 S1                 0.0000
     42 ****         1.7844  -3.1141   1.3108 H              1 S1                 0.0000
     43 ****         4.8374  -3.7455  -2.5690 H              1 S1                 0.0000
     44 ****         6.1998  -3.9857  -1.4885 H              1 S1                 0.0000
     45 ****         5.3676  -5.9338  -2.3441 H              1 S1                 0.0000
     46 ****         3.1631  -4.6385   1.4685 H              1 S1                 0.0000
     47 ****         6.4696  -1.9966   1.6986 H              1 S1                 0.0000
     48 ****        -4.1093   0.8294  -0.1565 H              1 S1                 0.0000
     49 ****        -2.5816   2.3068  -2.3517 H              1 S1                 0.0000
     50 ****        -2.5124   0.5909  -2.0533 H              1 S1                 0.0000
     51 ****        -4.0203   1.0890  -3.9418 H              1 S1                 0.0000
     52 ****        -4.8857   0.3192  -2.6334 H              1 S1                 0.0000
     53 ****        -4.8570   3.3131  -3.2590 H              1 S1                 0.0000
     54 ****        -6.2042   2.2240  -3.4992 H              1 S1                 0.0000
     55 ****        -6.4564   3.5400  -1.3892 H              1 S1                 0.0000
     56 ****        -6.3839   1.8244  -1.0699 H              1 S1                 0.0000
     57 ****        -4.9961   3.0332   0.5215 H              1 S1                 0.0000
     58 ****        -4.0916   3.8228  -0.7492 H              1 S1                 0.0000
     59 ****        -2.4800   3.7863   3.9626 LP             1 S1                 0.0000
     60 ****        -1.0935   3.1959   4.5917 LP             1 S1                 0.0000
     61 ****        -0.1031   2.8060  -0.3969 LP             1 S1                 0.0000
     62 ****         3.6711   1.2230  -0.1693 LP             1 S1                 0.0000
     63 ****        -0.4263  -1.9930   1.1239 LP             1 S1                 0.0000
     64 ****         5.4097  -1.8582  -0.8323 LP             1 S1                 0.0000
     65 ****         3.8418  -1.7351  -1.2718 LP             1 S1                 0.0000
     66 ****         3.9001  -5.7135  -1.7714 LP             1 S1                 0.0000
     67 ****         5.1631  -5.9634  -0.7669 LP             1 S1                 0.0000
     68 ****         4.3545  -5.0096   2.4536 LP             1 S1                 0.0000
     69 ****         4.2369  -5.7046   0.9806 LP             1 S1                 0.0000
     70 ****         6.0875  -2.7805   3.0290 LP             1 S1                 0.0000
     71 ****         5.6521  -1.2205   2.8210 LP             1 S1                 0.0000
@<TRIPOS>BOND
    1    1    2 1     
    2    1   34 1     
    3    2    3 1     
    4    2   35 1     
    5    2   36 1     
    6    3    4 1     
    7    3   37 1     
    8    3   38 1     
    9    4    5 1     
   10    4   24 1     
   11    4   39 1     
   12    5    6 1     
   13    5   40 1     
   14    6   11 ar    
   15    6    7 ar    
   16    7    8 ar    
   17    8    9 ar    
   18    8   41 1     
   19    9   10 ar    
   20   10   14 1     
   21   10   11 ar    
   22   11   12 1     
   23   12   13 2     
   24   13   14 1     
   25   13   42 1     
   26   14   15 1     
   27   15   30 1     
   28   15   22 1     
   29   15   16 1     
   30   16   17 1     
   31   17   31 1     
   32   17   18 1     
   33   17   20 1     
   34   18   19 1     
   35   18   43 1     
   36   18   44 1     
   37   19   45 1     
   38   20   32 1     
   39   20   21 1     
   40   20   22 1     
   41   21   46 1     
   42   22   33 1     
   43   22   23 1     
   44   23   47 1     
   45   24   29 1     
   46   24   25 1     
   47   24   48 1     
   48   25   26 1     
   49   25   49 1     
   50   25   50 1     
   51   26   27 1     
   52   26   51 1     
   53   26   52 1     
   54   27   28 1     
   55   27   53 1     
   56   27   54 1     
   57   28   29 1     
   58   28   55 1     
   59   28   56 1     
   60   29   57 1     
   61   29   58 1     
   62    1   59 1     
   63    1   60 1     
   64    7   61 1     
   65    9   62 1     
   66   12   63 1     
   67   16   64 1     
   68   16   65 1     
   69   19   66 1     
   70   19   67 1     
   71   21   68 1     
   72   21   69 1     
   73   23   70 1     
   74   23   71 1     
@<TRIPOS>SUBSTRUCTURE
      1 S1             1
@<TRIPOS>SET
LONE_PAIRS      STATIC     ATOMS    <user>   **** ""
13 59 60 61 62 63 64 65 66 67 68 69 70 71
DONOR_HYDROGENS      STATIC     ATOMS    <user>   **** ""
5 34 40 45 46 47
ATOM$BLUE        STATIC     ATOMS    COLORGROUP SYSTEM
13 59 60 61 62 63 64 65 66 67 68 69 70 71
ATOM$RED        STATIC     ATOMS    COLORGROUP SYSTEM
5 34 40 45 46 47
