AV-unprocessed.smi:3141|AV-procd|sdf|11963|dock3
  -GOLD-   2272017363D 1   1.00000     0.00000
 Structure written by MMmdl.
 36 38  0  0  0  0  0  0  0  0  2 V2000
  150.6917  144.0602  160.4529 O   0  0  0  0  0  0  0  0  0  0  0  0
  149.9889  144.4425  159.5169 C   0  0  0  0  0  0  0  0  0  0  0  0
  148.7509  144.9338  159.6550 N   0  0  0  0  0  0  0  0  0  0  0  0
  148.0612  145.0982  160.8935 C   0  0  0  0  0  0  0  0  0  0  0  0
  146.8543  144.2218  161.1484 C   0  0  0  0  0  0  0  0  0  0  0  0
  146.6663  145.6829  160.8469 C   0  0  0  0  0  0  0  0  0  0  0  0
  150.3810  144.4377  158.2346 N   0  0  0  0  0  0  0  0  0  0  0  0
  151.6759  143.9616  157.7419 C   0  0  1  0  0  0  0  0  0  0  0  0
  152.7941  144.4057  158.7080 C   0  0  0  0  0  0  0  0  0  0  0  0
  153.3366  143.1365  159.3848 C   0  0  0  0  0  0  0  0  0  0  0  0
  152.3156  142.0386  159.0881 C   0  0  0  0  0  0  0  0  0  0  0  0
  151.7831  142.4204  157.7046 C   0  0  1  0  0  0  0  0  0  0  0  0
  150.5665  141.7059  157.2754 N   0  0  0  0  0  0  0  0  0  0  0  0
  149.3451  141.6313  157.9012 C   0  0  0  0  0  0  0  0  0  0  0  0
  148.5290  140.8923  157.0843 C   0  0  0  0  0  0  0  0  0  0  0  0
  149.2788  140.5538  155.9911 N   0  3  0  0  0  0  0  0  0  0  0  0
  150.5136  141.0517  156.1071 C   0  0  0  0  0  0  0  0  0  0  0  0
  148.2573  145.2192  158.8217 H   0  0  0  0  0  0  0  0  0  0  0  0
  148.6575  145.3552  161.7678 H   0  0  0  0  0  0  0  0  0  0  0  0
  146.5691  143.5095  160.3765 H   0  0  0  0  0  0  0  0  0  0  0  0
  146.6809  143.8934  162.1712 H   0  0  0  0  0  0  0  0  0  0  0  0
  146.3665  146.3303  161.6684 H   0  0  0  0  0  0  0  0  0  0  0  0
  146.2552  145.9452  159.8740 H   0  0  0  0  0  0  0  0  0  0  0  0
  149.7303  144.7757  157.5404 H   0  0  0  0  0  0  0  0  0  0  0  0
  151.8619  144.3743  156.7485 H   0  0  0  0  0  0  0  0  0  0  0  0
  153.5944  144.9143  158.1689 H   0  0  0  0  0  0  0  0  0  0  0  0
  152.4244  145.1099  159.4557 H   0  0  0  0  0  0  0  0  0  0  0  0
  154.2969  142.8700  158.9412 H   0  0  0  0  0  0  0  0  0  0  0  0
  153.4974  143.2722  160.4547 H   0  0  0  0  0  0  0  0  0  0  0  0
  152.7547  141.0409  159.1117 H   0  0  0  0  0  0  0  0  0  0  0  0
  151.5255  142.0784  159.8381 H   0  0  0  0  0  0  0  0  0  0  0  0
  152.5611  142.1608  156.9837 H   0  0  0  0  0  0  0  0  0  0  0  0
  149.1423  142.0990  158.8531 H   0  0  0  0  0  0  0  0  0  0  0  0
  147.4959  140.5958  157.1929 H   0  0  0  0  0  0  0  0  0  0  0  0
  151.3099  140.9546  155.3908 H   0  0  0  0  0  0  0  0  0  0  0  0
  148.9468  140.0134  155.2022 H   0  0  0  0  0  0  0  0  0  0  0  0
  1  2  2  0  0  0  0
  2  3  1  0  0  0  0
  2  7  1  0  0  0  0
  3  4  1  0  0  0  0
  3 18  1  0  0  0  0
  4  6  1  0  0  0  0
  4  5  1  0  0  0  0
  4 19  1  0  0  0  0
  5  6  1  0  0  0  0
  5 20  1  0  0  0  0
  5 21  1  0  0  0  0
  6 22  1  0  0  0  0
  6 23  1  0  0  0  0
  7  8  1  0  0  0  0
  7 24  1  0  0  0  0
  8 12  1  0  0  0  0
  8  9  1  0  0  0  0
  8 25  1  0  0  0  0
  9 10  1  0  0  0  0
  9 26  1  0  0  0  0
  9 27  1  0  0  0  0
 10 11  1  0  0  0  0
 10 28  1  0  0  0  0
 10 29  1  0  0  0  0
 11 12  1  0  0  0  0
 11 30  1  0  0  0  0
 11 31  1  0  0  0  0
 12 13  1  0  0  0  0
 12 32  1  0  0  0  0
 13 17  1  0  0  0  0
 13 14  1  0  0  0  0
 14 15  2  0  0  0  0
 14 33  1  0  0  0  0
 15 16  1  0  0  0  0
 15 34  1  0  0  0  0
 16 17  2  0  0  0  0
 16 36  1  0  0  0  0
 17 35  1  0  0  0  0
M  CHG  1  16   1
M  END
> <s_m_source_file>
AV-unprocessed.smi

> <i_m_source_file_index>
3141

> <i_lp_mmshare_version>
43012

> <i_f3d_flags>
0

> <s_epik_input>
W0NIMl0xW0NIMl1bQ0hdMVtOSF1DKD1PKVtOSF1bQ0BASF0yW0NIMl1bQ0gyXVtDSDJdW0NASF0ybjNbY0hdW2NIXW5bY0hdMw==

> <s_epik_cmdline>
J2VwaWtfcHl0aG9uJywgJy1waCcsICc3LjAnLCAnLXRuJywgJzgnLCAnLW1hJywgJzIwMCcsICctbWV0YWxfYmluZGluZycsICctaW1hZScsICc8aW5maWxlLm1hZT4nLCAnLW9tYWUnLCAnPG91dGZpbGUubWFlPic=

> <r_lp_tautomer_probability>
1

> <r_epik_Ionization_Penalty>
0.205063

> <r_epik_Ionization_Penalty_Charging>
0

> <r_epik_Ionization_Penalty_Neutral>
0.205063

> <r_epik_State_Penalty>
0.194948

> <r_epik_Charging_Adjusted_Penalty>
0.194948

> <i_epik_Tot_Q>
1

> <i_epik_Tot_abs_Q>
1

> <r_epik_Metal_State_Penalty>
0.500882

> <b_epik_Metal_Only>
0

> <s_lp_Force_Field>
OPLS_2005

> <r_lp_Energy>
36.92

> <b_lp_Chiralities_Consistent>
1

> <s_lp_Variant>
AV-unprocessed.smi:3141-2

> <Gold.Version>
5.8.1

> <Gold.Id.Protein>
6NUR|6NUR_protein|mol2

> <Gold.PLP.Fitness>
42.4071

> <Gold.PLP.PLP>
-38.5420

> <Gold.PLP.part.hbond>
-3.3837

> <Gold.PLP.part.metal>
0.0000

> <Gold.PLP.part.buried>
-7.5180

> <Gold.PLP.part.nonpolar>
-28.7996

> <Gold.PLP.part.repulsive>
0.4746

> <Gold.PLP.ligand.clash>
0.0000

> <Gold.PLP.ligand.torsion>
0.3468

> <Gold.PLP.Chemscore.Hbond>
1.5000

> <Gold.PLP.Chemscore.CHOScore>
0.0000

> <Gold.PLP.Chemscore.Metal>
0.0000

> <Gold.Chemscore.Hbonds>
donor molecule, donor type, donor heavy atom, donor atom, acceptor molecule, acceptor atom, score
      L1  H     3    18       P1  8029  1.00
      L1  H     7    24       P1  8028  0.45

> <Gold.PLP.Chemscore.Internal.Correction>
0.0586

> <Gold.Rescore>
     Score         DG    S(hbond)    S(metal)    S(lipo)     H(rot)  DE(clash)    DE(int)     intcor
      9.86     -14.18       1.04        0.00      79.86       1.61       0.05       4.27       ----

> <Gold.Chemscore.Fitness>
9.8584

> <Gold.Chemscore.DG>
-14.1751

> <Gold.Chemscore.ZeroCoef>
-5.4800

> <Gold.Chemscore.Hbond>
1.0389

> <Gold.Chemscore.Metal>
0.0000

> <Gold.Chemscore.Lipo>
79.8609

> <Gold.Chemscore.Internal_Hbond>
0.0000

> <Gold.Chemscore.DEClash>
0.0456

> <Gold.Chemscore.DEInternal>
4.2711

> <Gold.Chemscore.Rot>
1.6088

> <Gold.Chemscore.Internal.Correction>
   9.000000E+99

> <Gold.Chemscore.Hbonds>
donor molecule, donor type, donor heavy atom, donor atom, acceptor molecule, acceptor atom, score
      L1  H     3    18       P1  8029  1.00
      L1  H     7    24       P1  8028  0.01

> <Gold.Chemscore.Hbond.Weighted>
-3.4700

> <Gold.Chemscore.Metal.Weighted>
-0.0000

> <Gold.Chemscore.Lipo.Weighted>
-9.3437

> <Gold.Chemscore.Internal_Hbond.Weighted>
0.0000

> <Gold.Chemscore.DEClash.Weighted>
0.0456

> <Gold.Chemscore.DEInternal.Weighted>
4.2711

> <Gold.Chemscore.Rot.Weighted>
4.1186

> <Gold.Chemscore.Internal.Correction.Weighted>
   9.000000E+99

> <Gold.Protein.RotatedTorsions>
[ 6907 6896 6895 6894 ] final -141.13 input  -60.11 | X-H torsion
[ 7974 7965 7964 7962 ] final   94.60 input  175.53 | X-H torsion
[ 8008 7997 7996 7995 ] final   60.91 input   59.86 | X-H torsion
[ 10167 10162 10161 10158 ] final  -35.05 input  -65.29 | X-H torsion
[ 10718 10713 10712 10709 ] final  -76.17 input   66.30 | X-H torsion
[ 10763 10752 10751 10750 ] final  -24.15 input  -60.55 | X-H torsion
[ 11005 11000 10999 10996 ] final   40.08 input  -57.11 | X-H torsion

> <Gold.Protein.ActiveResidues>
 VAL166  LYS551  ARG553  GLY616  TRP617  ASP618  TYR619  PRO620  LYS621  CYS622 
 ASP623  PHE694  ASN695  SER759  ASP760  ASP761  ALA762  ILE779  LEU786  VAL792 
 PHE793  MET794  SER795  GLU796  ALA797  LYS798  CYS799  TRP800  GLU811  SER814 

> <Gold.Protein.RotatedAtoms>
  151.0698  133.5475  159.2627 H   0  0  0  0  0  0  0  0  0  0  0  0  # atno 6907 bound_to 6896
  151.2419  135.0591  159.9038 H   0  0  0  0  0  0  0  0  0  0  0  0  # atno 6908 bound_to 6896
  152.5410  134.0472  159.8147 H   0  0  0  0  0  0  0  0  0  0  0  0  # atno 6909 bound_to 6896
  145.4634  139.2285  143.2975 H   0  0  0  0  0  0  0  0  0  0  0  0  # atno 7974 bound_to 7965
  155.5899  140.3492  155.4563 H   0  0  0  0  0  0  0  0  0  0  0  0  # atno 8008 bound_to 7997
  156.0309  140.1274  157.0284 H   0  0  0  0  0  0  0  0  0  0  0  0  # atno 8009 bound_to 7997
  154.4352  140.1043  156.6084 H   0  0  0  0  0  0  0  0  0  0  0  0  # atno 8010 bound_to 7997
  140.7173  143.3504  151.2167 H   0  0  0  0  0  0  0  0  0  0  0  0  # atno 10167 bound_to 10162
  156.0184  130.4459  150.3153 H   0  0  0  0  0  0  0  0  0  0  0  0  # atno 10718 bound_to 10713
  153.6792  135.6967  153.5123 H   0  0  0  0  0  0  0  0  0  0  0  0  # atno 10763 bound_to 10752
  153.2498  135.4279  155.0784 H   0  0  0  0  0  0  0  0  0  0  0  0  # atno 10764 bound_to 10752
  154.8405  135.3528  154.6335 H   0  0  0  0  0  0  0  0  0  0  0  0  # atno 10765 bound_to 10752
  140.1965  134.3922  155.8118 H   0  0  0  0  0  0  0  0  0  0  0  0  # atno 11005 bound_to 11000
  146.2438  140.5405  142.8922 LP  0  0  0  0  0  0  0  0  0  0  0  0  # atno 17320 bound_to 7965
  144.7989  140.6175  143.6491 LP  0  0  0  0  0  0  0  0  0  0  0  0  # atno 17321 bound_to 7965
  139.7034  143.9496  152.2915 LP  0  0  0  0  0  0  0  0  0  0  0  0  # atno 17342 bound_to 10162
  139.9197  144.6807  150.8475 LP  0  0  0  0  0  0  0  0  0  0  0  0  # atno 17343 bound_to 10162
  157.1254  131.0258  151.2992 LP  0  0  0  0  0  0  0  0  0  0  0  0  # atno 17370 bound_to 10713
  157.4594  130.7644  149.7222 LP  0  0  0  0  0  0  0  0  0  0  0  0  # atno 17371 bound_to 10713
  141.2227  133.7072  156.8185 LP  0  0  0  0  0  0  0  0  0  0  0  0  # atno 17394 bound_to 11000
  140.2101  134.8834  157.3265 LP  0  0  0  0  0  0  0  0  0  0  0  0  # atno 17395 bound_to 11000

$$$$
