AV-unprocessed.smi:1951|AV-procd|sdf|7882|dock4
  -GOLD-   2272010 33D 1   1.00000     0.00000
 Structure written by MMmdl.
 46 47  0  0  0  0  0  0  0  0  2 V2000
  151.9009  138.4098  154.0550 C   0  0  0  0  0  0  0  0  0  0  0  0
  150.4912  138.3074  153.8852 O   0  0  0  0  0  0  0  0  0  0  0  0
  149.7079  139.4015  154.2006 C   0  0  0  0  0  0  0  0  0  0  0  0
  150.3067  140.4861  154.7537 N   0  0  0  0  0  0  0  0  0  0  0  0
  149.5428  141.5535  155.0646 C   0  0  0  0  0  0  0  0  0  0  0  0
  148.1532  141.5954  154.8489 C   0  0  0  0  0  0  0  0  0  0  0  0
  147.5300  140.4723  154.2742 C   0  0  0  0  0  0  0  0  0  0  0  0
  148.3207  139.3499  153.9287 C   0  0  0  0  0  0  0  0  0  0  0  0
  147.7866  138.1590  153.3644 N   0  0  0  0  0  0  0  0  0  0  0  0
  146.5132  137.7308  153.3774 C   0  0  0  0  0  0  0  0  0  0  0  0
  145.5673  138.3222  153.8980 O   0  0  0  0  0  0  0  0  0  0  0  0
  146.3837  136.5711  152.7174 N   0  0  0  0  0  0  0  0  0  0  0  0
  145.1249  135.8635  152.5127 C   0  0  0  0  0  0  0  0  0  0  0  0
  144.8365  135.6562  151.0132 C   0  0  0  0  0  0  0  0  0  0  0  0
  145.0405  134.2498  150.5837 N   0  3  2  0  0  0  0  0  0  0  0  0
  144.0015  133.3410  151.1337 C   0  0  0  0  0  0  0  0  0  0  0  0
  144.1489  131.9164  150.5699 C   0  0  0  0  0  0  0  0  0  0  0  0
  145.5537  131.3368  150.8142 C   0  0  2  0  0  0  0  0  0  0  0  0
  145.7832  130.9322  152.2813 C   0  0  0  0  0  0  0  0  0  0  0  0
  146.6109  132.3283  150.2959 C   0  0  0  0  0  0  0  0  0  0  0  0
  146.4110  133.7449  150.8645 C   0  0  0  0  0  0  0  0  0  0  0  0
  152.3682  137.4691  153.7641 H   0  0  0  0  0  0  0  0  0  0  0  0
  152.1641  138.6019  155.0962 H   0  0  0  0  0  0  0  0  0  0  0  0
  152.3225  139.1964  153.4269 H   0  0  0  0  0  0  0  0  0  0  0  0
  150.0543  142.3970  155.5043 H   0  0  0  0  0  0  0  0  0  0  0  0
  147.5778  142.4671  155.1231 H   0  0  0  0  0  0  0  0  0  0  0  0
  146.4617  140.4865  154.1238 H   0  0  0  0  0  0  0  0  0  0  0  0
  148.4364  137.6130  152.8174 H   0  0  0  0  0  0  0  0  0  0  0  0
  147.2132  136.1540  152.3201 H   0  0  0  0  0  0  0  0  0  0  0  0
  145.1937  134.8983  153.0150 H   0  0  0  0  0  0  0  0  0  0  0  0
  144.3213  136.4124  153.0048 H   0  0  0  0  0  0  0  0  0  0  0  0
  143.8234  135.9716  150.7591 H   0  0  0  0  0  0  0  0  0  0  0  0
  145.5093  136.3054  150.4507 H   0  0  0  0  0  0  0  0  0  0  0  0
  144.0616  133.3313  152.2228 H   0  0  0  0  0  0  0  0  0  0  0  0
  143.0108  133.7194  150.8789 H   0  0  0  0  0  0  0  0  0  0  0  0
  143.3899  131.2622  151.0002 H   0  0  0  0  0  0  0  0  0  0  0  0
  143.9535  131.9392  149.4969 H   0  0  0  0  0  0  0  0  0  0  0  0
  145.6413  130.4228  150.2251 H   0  0  0  0  0  0  0  0  0  0  0  0
  145.7160  131.7824  152.9595 H   0  0  0  0  0  0  0  0  0  0  0  0
  146.7683  130.4839  152.4133 H   0  0  0  0  0  0  0  0  0  0  0  0
  145.0456  130.1962  152.6025 H   0  0  0  0  0  0  0  0  0  0  0  0
  147.6134  131.9678  150.5298 H   0  0  0  0  0  0  0  0  0  0  0  0
  146.5534  132.3742  149.2075 H   0  0  0  0  0  0  0  0  0  0  0  0
  147.1547  134.4052  150.4203 H   0  0  0  0  0  0  0  0  0  0  0  0
  146.5927  133.7531  151.9401 H   0  0  0  0  0  0  0  0  0  0  0  0
  144.9207  134.2366  149.5809 H   0  0  0  0  0  0  0  0  0  0  0  0
  1  2  1  0  0  0  0
  1 22  1  0  0  0  0
  1 23  1  0  0  0  0
  1 24  1  0  0  0  0
  2  3  1  0  0  0  0
  3  8  1  0  0  0  0
  3  4  2  0  0  0  0
  4  5  1  0  0  0  0
  5  6  2  0  0  0  0
  5 25  1  0  0  0  0
  6  7  1  0  0  0  0
  6 26  1  0  0  0  0
  7  8  2  0  0  0  0
  7 27  1  0  0  0  0
  8  9  1  0  0  0  0
  9 10  1  0  0  0  0
  9 28  1  0  0  0  0
 10 11  2  0  0  0  0
 10 12  1  0  0  0  0
 12 13  1  0  0  0  0
 12 29  1  0  0  0  0
 13 14  1  0  0  0  0
 13 30  1  0  0  0  0
 13 31  1  0  0  0  0
 14 15  1  0  0  0  0
 14 32  1  0  0  0  0
 14 33  1  0  0  0  0
 15 21  1  0  0  0  0
 15 16  1  0  0  0  0
 15 46  1  0  0  0  0
 16 17  1  0  0  0  0
 16 34  1  0  0  0  0
 16 35  1  0  0  0  0
 17 18  1  0  0  0  0
 17 36  1  0  0  0  0
 17 37  1  0  0  0  0
 18 19  1  0  0  0  0
 18 20  1  0  0  0  0
 18 38  1  0  0  0  0
 19 39  1  0  0  0  0
 19 40  1  0  0  0  0
 19 41  1  0  0  0  0
 20 21  1  0  0  0  0
 20 42  1  0  0  0  0
 20 43  1  0  0  0  0
 21 44  1  0  0  0  0
 21 45  1  0  0  0  0
M  CHG  1  15   1
M  END
> <s_m_source_file>
AV-unprocessed.smi

> <i_m_source_file_index>
1951

> <i_lp_mmshare_version>
43012

> <i_f3d_flags>
0

> <s_epik_input>
W0NIM11PYzFuW2NIXVtjSF1bY0hdYzFbTkhdQyg9TylbTkhdW0NIMl1bQ0gyXU4yW0NIMl1bQ0gyXVtDSF0oW0NIM10pW0NIMl1bQ0gyXTI=

> <s_epik_cmdline>
J2VwaWtfcHl0aG9uJywgJy1waCcsICc3LjAnLCAnLXRuJywgJzgnLCAnLW1hJywgJzIwMCcsICctbWV0YWxfYmluZGluZycsICctaW1hZScsICc8aW5maWxlLm1hZT4nLCAnLW9tYWUnLCAnPG91dGZpbGUubWFlPic=

> <r_lp_tautomer_probability>
1

> <r_epik_Ionization_Penalty>
0.00147101

> <r_epik_Ionization_Penalty_Charging>
0.00139388

> <r_epik_Ionization_Penalty_Neutral>
7.71355e-05

> <r_epik_State_Penalty>
0.000929204

> <r_epik_Charging_Adjusted_Penalty>
0.00232308

> <i_epik_Tot_Q>
1

> <i_epik_Tot_abs_Q>
1

> <r_epik_Metal_State_Penalty>
-0

> <b_epik_Metal_Only>
0

> <s_lp_Force_Field>
OPLS_2005

> <r_lp_Energy>
21.3579

> <b_lp_Chiralities_Consistent>
1

> <s_lp_Variant>
AV-unprocessed.smi:1951-2

> <Gold.Version>
5.8.1

> <Gold.Id.Protein>
6NUR|6NUR_protein|mol2

> <Gold.PLP.Fitness>
51.0149

> <Gold.PLP.PLP>
-37.7744

> <Gold.PLP.part.hbond>
-4.1155

> <Gold.PLP.part.metal>
0.0000

> <Gold.PLP.part.buried>
-0.3433

> <Gold.PLP.part.nonpolar>
-34.2969

> <Gold.PLP.part.repulsive>
2.1047

> <Gold.PLP.ligand.clash>
0.0000

> <Gold.PLP.ligand.torsion>
0.4717

> <Gold.PLP.Chemscore.Hbond>
3.8880

> <Gold.PLP.Chemscore.CHOScore>
0.8297

> <Gold.PLP.Chemscore.Metal>
0.0000

> <Gold.Chemscore.Hbonds>
donor molecule, donor type, donor heavy atom, donor atom, acceptor molecule, acceptor atom, score
      L1  H     9    28       P1  7948  1.00
      L1  H    12    29       P1  7948  1.00
      L1  H    15    46       P1  7921  0.13
      P1  H  7989  7998       L1     4  0.98
      L1  C     5    25       P1  8028  0.67

> <Gold.PLP.Chemscore.Internal.Correction>
0.0310

> <Gold.Rescore>
     Score         DG    S(hbond)    S(metal)    S(lipo)     H(rot)  DE(clash)    DE(int)     intcor
     19.41     -22.93       3.03        0.00     100.00       1.71       1.39       2.12       ----

> <Gold.Chemscore.Fitness>
19.4127

> <Gold.Chemscore.DG>
-22.9293

> <Gold.Chemscore.ZeroCoef>
-5.4800

> <Gold.Chemscore.Hbond>
3.0325

> <Gold.Chemscore.Metal>
0.0000

> <Gold.Chemscore.Lipo>
100.0025

> <Gold.Chemscore.Internal_Hbond>
0.0000

> <Gold.Chemscore.DEClash>
1.3920

> <Gold.Chemscore.DEInternal>
2.1246

> <Gold.Chemscore.Rot>
1.7107

> <Gold.Chemscore.Internal.Correction>
   9.000000E+99

> <Gold.Chemscore.Hbonds>
donor molecule, donor type, donor heavy atom, donor atom, acceptor molecule, acceptor atom, score
      L1  H     9    28       P1  7948  0.99
      L1  H    12    29       P1  7948  0.96
      L1  H    15    46       P1  7921  0.14
      P1  H  7989  7998       L1     4  0.28

> <Gold.Chemscore.Hbond.Weighted>
-10.1284

> <Gold.Chemscore.Metal.Weighted>
-0.0000

> <Gold.Chemscore.Lipo.Weighted>
-11.7003

> <Gold.Chemscore.Internal_Hbond.Weighted>
0.0000

> <Gold.Chemscore.DEClash.Weighted>
1.3920

> <Gold.Chemscore.DEInternal.Weighted>
2.1246

> <Gold.Chemscore.Rot.Weighted>
4.3794

> <Gold.Chemscore.Internal.Correction.Weighted>
   9.000000E+99

> <Gold.Protein.RotatedTorsions>
[ 6907 6896 6895 6894 ] final  136.38 input  -60.11 | X-H torsion
[ 7974 7965 7964 7962 ] final  -17.92 input  175.53 | X-H torsion
[ 8008 7997 7996 7995 ] final   55.61 input   59.86 | X-H torsion
[ 10167 10162 10161 10158 ] final   92.28 input  -65.29 | X-H torsion
[ 10718 10713 10712 10709 ] final    3.47 input   66.30 | X-H torsion
[ 10763 10752 10751 10750 ] final  178.21 input  -60.55 | X-H torsion
[ 11005 11000 10999 10996 ] final  -84.88 input  -57.11 | X-H torsion

> <Gold.Protein.ActiveResidues>
 VAL166  LYS551  ARG553  GLY616  TRP617  ASP618  TYR619  PRO620  LYS621  CYS622 
 ASP623  PHE694  ASN695  SER759  ASP760  ASP761  ALA762  ILE779  LEU786  VAL792 
 PHE793  MET794  SER795  GLU796  ALA797  LYS798  CYS799  TRP800  GLU811  SER814 

> <Gold.Protein.RotatedAtoms>
  152.2900  133.5552  159.5551 H   0  0  0  0  0  0  0  0  0  0  0  0  # atno 6907 bound_to 6896
  150.7231  134.0442  159.3785 H   0  0  0  0  0  0  0  0  0  0  0  0  # atno 6908 bound_to 6896
  151.8349  135.0610  160.0492 H   0  0  0  0  0  0  0  0  0  0  0  0  # atno 6909 bound_to 6896
  146.1918  140.3847  142.8455 H   0  0  0  0  0  0  0  0  0  0  0  0  # atno 7974 bound_to 7965
  155.5039  140.3475  155.4376 H   0  0  0  0  0  0  0  0  0  0  0  0  # atno 8008 bound_to 7997
  156.0895  140.1407  156.9638 H   0  0  0  0  0  0  0  0  0  0  0  0  # atno 8009 bound_to 7997
  154.4626  140.0929  156.6912 H   0  0  0  0  0  0  0  0  0  0  0  0  # atno 8010 bound_to 7997
  139.8292  144.6695  150.9421 H   0  0  0  0  0  0  0  0  0  0  0  0  # atno 10167 bound_to 10162
  156.8782  130.5644  149.5654 H   0  0  0  0  0  0  0  0  0  0  0  0  # atno 10718 bound_to 10713
  154.5046  135.2785  155.1392 H   0  0  0  0  0  0  0  0  0  0  0  0  # atno 10763 bound_to 10752
  154.3012  135.6247  153.5429 H   0  0  0  0  0  0  0  0  0  0  0  0  # atno 10764 bound_to 10752
  152.9908  135.5697  154.5497 H   0  0  0  0  0  0  0  0  0  0  0  0  # atno 10765 bound_to 10752
  141.1646  133.7369  156.8933 H   0  0  0  0  0  0  0  0  0  0  0  0  # atno 11005 bound_to 11000
  144.8501  140.6988  143.6174 LP  0  0  0  0  0  0  0  0  0  0  0  0  # atno 17320 bound_to 7965
  145.3770  139.1645  143.4301 LP  0  0  0  0  0  0  0  0  0  0  0  0  # atno 17321 bound_to 7965
  140.7808  143.4017  151.1138 LP  0  0  0  0  0  0  0  0  0  0  0  0  # atno 17342 bound_to 10162
  139.7672  143.8548  152.3113 LP  0  0  0  0  0  0  0  0  0  0  0  0  # atno 17343 bound_to 10162
  156.0691  130.5727  150.9347 LP  0  0  0  0  0  0  0  0  0  0  0  0  # atno 17370 bound_to 10713
  157.6156  131.0933  150.8717 LP  0  0  0  0  0  0  0  0  0  0  0  0  # atno 17371 bound_to 10713
  140.1633  134.9150  157.2742 LP  0  0  0  0  0  0  0  0  0  0  0  0  # atno 17394 bound_to 11000
  140.2586  134.3598  155.7415 LP  0  0  0  0  0  0  0  0  0  0  0  0  # atno 17395 bound_to 11000

$$$$
