#       Name:                AV-unprocessed.smi:3169
#       Creating user name   scv26
#       Creation time:       Fri Mar 27 17:54:25 2020


#       File generated by GOLD software.
#

@<TRIPOS>MOLECULE
AV-unprocessed.smi:3169
    40    41     1
SMALL
NO_CHARGES


@<TRIPOS>ATOM
      1 ****         1.1274   1.9559  -0.9060 O.2            1 S1                 0.0000
      2 ****         0.8704   0.8642  -1.4135 C.2            1 S1                 0.0000
      3 ****         1.7697  -0.1128  -1.5900 N.am           1 S1                 0.0000
      4 ****         3.1627  -0.0603  -1.1569 C.3            1 S1                 0.0000
      5 ****         3.3103  -0.1850   0.3723 C.3            1 S1                 0.0000
      6 ****         2.7735  -1.4340   0.8792 N.pl3          1 S1                 0.0000
      7 ****         3.4062  -2.6695   0.9051 C.2            1 S1                 0.0000
      8 ****         2.5150  -3.5551   1.4681 C.2            1 S1                 0.0000
      9 ****         1.3349  -2.8904   1.7935 N.2            1 S1                 0.0000
     10 ****         1.5630  -1.6388   1.4174 C.2            1 S1                 0.0000
     11 ****        -0.3485   0.4977  -1.8309 N.am           1 S1                 0.0000
     12 ****        -1.5552   1.3040  -1.6920 C.3            1 S1                 0.0000
     13 ****        -2.1040   1.2492  -0.2562 C.3            1 S1                 0.0000
     14 ****        -3.3720   2.0731  -0.0422 C.3            1 S1                 0.0000
     15 ****        -4.0579   1.3774   1.1248 C.3            1 S1                 0.0000
     16 ****        -3.3205   0.0409   1.2517 C.3            1 S1                 0.0000
     17 ****        -2.5378  -0.0613   0.0712 O.3            1 S1                 0.0000
     18 ****         1.4587  -0.9735  -2.0163 H              1 S1                 0.0000
     19 ****         3.7038  -0.8683  -1.6499 H              1 S1                 0.0000
     20 ****         3.6172   0.8697  -1.5016 H              1 S1                 0.0000
     21 ****         4.3640  -0.1303   0.6480 H              1 S1                 0.0000
     22 ****         2.8148   0.6430   0.8810 H              1 S1                 0.0000
     23 ****         4.4091  -2.8121   0.5307 H              1 S1                 0.0000
     24 ****         2.6313  -4.6112   1.6618 H              1 S1                 0.0000
     25 ****         0.8300  -0.8531   1.5298 H              1 S1                 0.0000
     26 ****        -0.4603  -0.4225  -2.2308 H              1 S1                 0.0000
     27 ****        -1.3447   2.3359  -1.9775 H              1 S1                 0.0000
     28 ****        -2.3009   0.9318  -2.3950 H              1 S1                 0.0000
     29 ****        -1.3423   1.5603   0.4616 H              1 S1                 0.0000
     30 ****        -3.1585   3.1241   0.1549 H              1 S1                 0.0000
     31 ****        -4.0119   2.0199  -0.9241 H              1 S1                 0.0000
     32 ****        -3.9707   1.9548   2.0459 H              1 S1                 0.0000
     33 ****        -5.1189   1.2325   0.9187 H              1 S1                 0.0000
     34 ****        -2.6588   0.0490   2.1190 H              1 S1                 0.0000
     35 ****        -3.9997  -0.8062   1.3496 H              1 S1                 0.0000
     36 ****         2.0566   2.1568  -0.5958 LP             1 S1                 0.0000
     37 ****         0.4070   2.6419  -0.8040 LP             1 S1                 0.0000
     38 ****         0.5092  -3.2681   2.2124 LP             1 S1                 0.0000
     39 ****        -1.7484  -0.6535   0.2331 LP             1 S1                 0.0000
     40 ****        -3.0887  -0.4365  -0.6743 LP             1 S1                 0.0000
@<TRIPOS>BOND
    1    1    2 2     
    2    2    3 am    
    3    2   11 am    
    4    3    4 1     
    5    3   18 1     
    6    4    5 1     
    7    4   19 1     
    8    4   20 1     
    9    5    6 1     
   10    5   21 1     
   11    5   22 1     
   12    6   10 1     
   13    6    7 1     
   14    7    8 2     
   15    7   23 1     
   16    8    9 1     
   17    8   24 1     
   18    9   10 2     
   19   10   25 1     
   20   11   12 1     
   21   11   26 1     
   22   12   13 1     
   23   12   27 1     
   24   12   28 1     
   25   13   17 1     
   26   13   14 1     
   27   13   29 1     
   28   14   15 1     
   29   14   30 1     
   30   14   31 1     
   31   15   16 1     
   32   15   32 1     
   33   15   33 1     
   34   16   17 1     
   35   16   34 1     
   36   16   35 1     
   37    1   36 1     
   38    1   37 1     
   39    9   38 1     
   40   17   39 1     
   41   17   40 1     
@<TRIPOS>SUBSTRUCTURE
      1 S1             1
@<TRIPOS>SET
LONE_PAIRS      STATIC     ATOMS    <user>   **** ""
5 36 37 38 39 40
DONOR_HYDROGENS      STATIC     ATOMS    <user>   **** ""
2 18 26
ATOM$BLUE        STATIC     ATOMS    COLORGROUP SYSTEM
5 36 37 38 39 40
ATOM$RED        STATIC     ATOMS    COLORGROUP SYSTEM
2 18 26
