#       Name:                AV-unprocessed.smi:757
#       Creating user name   scv26
#       Creation time:       Fri Mar 27 01:01:16 2020


#       File generated by GOLD software.
#

@<TRIPOS>MOLECULE
AV-unprocessed.smi:757
    50    51     1
SMALL
NO_CHARGES


@<TRIPOS>ATOM
      1 ****        -2.6776  -7.1572   1.2518 C.1            1 S1                 0.0000
      2 ****        -2.8640  -5.9507   1.2323 C.1            1 S1                 0.0000
      3 ****        -3.0835  -4.4953   1.2229 C.3            1 S1                 0.0000
      4 ****        -2.3727  -3.7844   0.0568 C.3            1 S1                 0.0000
      5 ****        -2.6774  -2.3317   0.0081 N.4            1 S1                 1.0000
      6 ****        -2.4537  -1.7570  -1.3439 C.3            1 S1                 0.0000
      7 ****        -2.9077  -0.2870  -1.4120 C.3            1 S1                 0.0000
      8 ****        -2.2309   0.5786  -0.3357 C.3            1 S1                 0.0000
      9 ****        -0.8193   0.7875  -0.6586 N.am           1 S1                 0.0000
     10 ****        -0.0474   1.7650  -0.1618 C.2            1 S1                 0.0000
     11 ****        -0.4477   2.5928   0.6557 O.2            1 S1                 0.0000
     12 ****         1.1998   1.6983  -0.6583 N.am           1 S1                 0.0000
     13 ****         2.3098   2.5456  -0.3915 C.ar           1 S1                 0.0000
     14 ****         2.2106   3.8505   0.1482 C.ar           1 S1                 0.0000
     15 ****         3.3885   4.5951   0.3497 C.ar           1 S1                 0.0000
     16 ****         4.6270   4.0209   0.0011 C.ar           1 S1                 0.0000
     17 ****         5.7763   4.7572   0.2033 O.3            1 S1                 0.0000
     18 ****         7.0248   4.1718  -0.1500 C.3            1 S1                 0.0000
     19 ****         4.7289   2.7767  -0.5280 N.ar           1 S1                 0.0000
     20 ****         3.5961   2.0688  -0.7192 C.ar           1 S1                 0.0000
     21 ****        -2.4172  -0.0764   1.0473 C.3            1 S1                 0.0000
     22 ****        -1.9693  -1.5485   1.0555 C.3            1 S1                 0.0000
     23 ****        -2.5151  -8.2116   1.2732 H              1 S1                 0.0000
     24 ****        -4.1596  -4.3265   1.1718 H              1 S1                 0.0000
     25 ****        -2.7432  -4.1184   2.1867 H              1 S1                 0.0000
     26 ****        -1.2925  -3.9332   0.1062 H              1 S1                 0.0000
     27 ****        -2.7048  -4.2461  -0.8748 H              1 S1                 0.0000
     28 ****        -1.3980  -1.8424  -1.6066 H              1 S1                 0.0000
     29 ****        -3.0099  -2.3323  -2.0852 H              1 S1                 0.0000
     30 ****        -2.7123   0.1207  -2.4047 H              1 S1                 0.0000
     31 ****        -3.9892  -0.2440  -1.2760 H              1 S1                 0.0000
     32 ****        -2.7197   1.5546  -0.3314 H              1 S1                 0.0000
     33 ****        -0.4053   0.1533  -1.3261 H              1 S1                 0.0000
     34 ****         1.3936   0.9172  -1.2677 H              1 S1                 0.0000
     35 ****         1.2633   4.3014   0.3985 H              1 S1                 0.0000
     36 ****         3.3417   5.5925   0.7613 H              1 S1                 0.0000
     37 ****         7.8282   4.8741   0.0717 H              1 S1                 0.0000
     38 ****         7.0707   3.9426  -1.2156 H              1 S1                 0.0000
     39 ****         7.2146   3.2617   0.4211 H              1 S1                 0.0000
     40 ****         3.7231   1.0843  -1.1455 H              1 S1                 0.0000
     41 ****        -1.8802   0.4818   1.8150 H              1 S1                 0.0000
     42 ****        -3.4709  -0.0262   1.3249 H              1 S1                 0.0000
     43 ****        -2.1679  -1.9662   2.0416 H              1 S1                 0.0000
     44 ****        -0.8917  -1.6164   0.8984 H              1 S1                 0.0000
     45 ****        -3.6670  -2.2424   0.1910 H              1 S1                 0.0000
     46 ****        -1.3922   2.5568   0.9822 LP             1 S1                 0.0000
     47 ****         0.1714   3.3017   0.9936 LP             1 S1                 0.0000
     48 ****         5.8184   4.9784   1.1776 LP             1 S1                 0.0000
     49 ****         5.6844   5.6005  -0.3263 LP             1 S1                 0.0000
     50 ****         5.6203   2.3937  -0.7703 LP             1 S1                 0.0000
@<TRIPOS>BOND
    1    1    2 3     
    2    1   23 1     
    3    2    3 1     
    4    3    4 1     
    5    3   24 1     
    6    3   25 1     
    7    4    5 1     
    8    4   26 1     
    9    4   27 1     
   10    5   22 1     
   11    5    6 1     
   12    5   45 1     
   13    6    7 1     
   14    6   28 1     
   15    6   29 1     
   16    7    8 1     
   17    7   30 1     
   18    7   31 1     
   19    8    9 1     
   20    8   21 1     
   21    8   32 1     
   22    9   10 am    
   23    9   33 1     
   24   10   11 2     
   25   10   12 am    
   26   12   13 1     
   27   12   34 1     
   28   13   20 ar    
   29   13   14 ar    
   30   14   15 ar    
   31   14   35 1     
   32   15   16 ar    
   33   15   36 1     
   34   16   17 1     
   35   16   19 ar    
   36   17   18 1     
   37   18   37 1     
   38   18   38 1     
   39   18   39 1     
   40   19   20 ar    
   41   20   40 1     
   42   21   22 1     
   43   21   41 1     
   44   21   42 1     
   45   22   43 1     
   46   22   44 1     
   47   11   46 1     
   48   11   47 1     
   49   17   48 1     
   50   17   49 1     
   51   19   50 1     
@<TRIPOS>SUBSTRUCTURE
      1 S1             1
@<TRIPOS>SET
LONE_PAIRS      STATIC     ATOMS    <user>   **** ""
5 46 47 48 49 50
DONOR_HYDROGENS      STATIC     ATOMS    <user>   **** ""
3 45 33 34
ATOM$BLUE        STATIC     ATOMS    COLORGROUP SYSTEM
5 46 47 48 49 50
ATOM$RED        STATIC     ATOMS    COLORGROUP SYSTEM
3 45 33 34
