AV-unprocessed.smi:72|AV-procd|sdf|704|dock5
  -GOLD-   2262017 23D 1   1.00000     0.00000
 Structure written by MMmdl.
 30 31  0  0  0  0  0  0  0  0  2 V2000
  146.4218  139.3970  152.7238 N   0  0  0  0  0  0  0  0  0  0  0  0
  147.5417  139.6113  153.4999 C   0  0  0  0  0  0  0  0  0  0  0  0
  148.5608  138.6795  153.4289 N   0  3  0  0  0  0  0  0  0  0  0  0
  149.7176  138.7482  154.1014 C   0  0  0  0  0  0  0  0  0  0  0  0
  149.9477  139.7896  154.8791 N   0  0  0  0  0  0  0  0  0  0  0  0
  151.2305  139.9301  155.6693 C   0  0  1  0  0  0  0  0  0  0  0  0
  150.9384  139.7831  157.0219 O   0  0  0  0  0  0  0  0  0  0  0  0
  151.0272  138.4072  157.3680 C   0  0  2  0  0  0  0  0  0  0  0  0
  151.1400  138.2554  158.8919 C   0  0  0  0  0  0  0  0  0  0  0  0
  151.6945  136.9955  159.2045 O   0  0  0  0  0  0  0  0  0  0  0  0
  152.2806  137.9693  156.6062 C   0  0  1  0  0  0  0  0  0  0  0  0
  152.2036  136.5919  156.2995 O   0  0  0  0  0  0  0  0  0  0  0  0
  152.2353  138.8067  155.3276 C   0  0  2  0  0  0  0  0  0  0  0  0
  153.5150  139.3283  155.0338 O   0  0  0  0  0  0  0  0  0  0  0  0
  148.9292  140.7608  155.0683 C   0  0  0  0  0  0  0  0  0  0  0  0
  149.0941  141.6898  155.8578 O   0  0  0  0  0  0  0  0  0  0  0  0
  147.7547  140.6038  154.3184 N   0  0  0  0  0  0  0  0  0  0  0  0
  151.5809  140.9416  155.4555 H   0  0  0  0  0  0  0  0  0  0  0  0
  150.1582  137.8676  156.9855 H   0  0  0  0  0  0  0  0  0  0  0  0
  153.1770  138.1839  157.1911 H   0  0  0  0  0  0  0  0  0  0  0  0
  151.8805  138.2217  154.4777 H   0  0  0  0  0  0  0  0  0  0  0  0
  145.6260  140.0195  152.7185 H   0  0  0  0  0  0  0  0  0  0  0  0
  146.3060  138.6075  152.1047 H   0  0  0  0  0  0  0  0  0  0  0  0
  150.4250  137.9364  153.9961 H   0  0  0  0  0  0  0  0  0  0  0  0
  151.8066  139.0174  159.2969 H   0  0  0  0  0  0  0  0  0  0  0  0
  150.1718  138.3783  159.3782 H   0  0  0  0  0  0  0  0  0  0  0  0
  152.6004  136.9904  158.9339 H   0  0  0  0  0  0  0  0  0  0  0  0
  151.3087  136.3842  156.0760 H   0  0  0  0  0  0  0  0  0  0  0  0
  153.4306  139.9699  154.3449 H   0  0  0  0  0  0  0  0  0  0  0  0
  148.4168  137.8825  152.8254 H   0  0  0  0  0  0  0  0  0  0  0  0
  1  2  1  0  0  0  0
  1 22  1  0  0  0  0
  1 23  1  0  0  0  0
  2 17  2  0  0  0  0
  2  3  1  0  0  0  0
  3  4  2  0  0  0  0
  3 30  1  0  0  0  0
  4  5  1  0  0  0  0
  4 24  1  0  0  0  0
  5  6  1  0  0  0  0
  5 15  1  0  0  0  0
  6 18  1  0  0  0  0
  6 13  1  0  0  0  0
  6  7  1  0  0  0  0
  7  8  1  0  0  0  0
  8 19  1  0  0  0  0
  8  9  1  0  0  0  0
  8 11  1  0  0  0  0
  9 10  1  0  0  0  0
  9 25  1  0  0  0  0
  9 26  1  0  0  0  0
 10 27  1  0  0  0  0
 11 20  1  0  0  0  0
 11 12  1  0  0  0  0
 11 13  1  0  0  0  0
 12 28  1  0  0  0  0
 13 21  1  0  0  0  0
 13 14  1  0  0  0  0
 14 29  1  0  0  0  0
 15 16  2  0  0  0  0
 15 17  1  0  0  0  0
M  CHG  1   3   1
M  END
> <s_m_source_file>
AV-unprocessed.smi

> <i_m_source_file_index>
72

> <i_lp_mmshare_version>
43012

> <i_f3d_flags>
0

> <s_epik_input>
W05IMl1jMW5bY0hdbihjKD1PKW4xKVtDQEBIXTJPW0NASF0oW0NIMl1bT0hdKVtDQEBIXShbT0hdKVtDQEhdMltPSF0=

> <s_epik_cmdline>
J2VwaWtfcHl0aG9uJywgJy1waCcsICc3LjAnLCAnLXRuJywgJzgnLCAnLW1hJywgJzIwMCcsICctbWV0YWxfYmluZGluZycsICctaW1hZScsICc8aW5maWxlLm1hZT4nLCAnLW9tYWUnLCAnPG91dGZpbGUubWFlPic=

> <r_lp_tautomer_probability>
4.77166e-05

> <r_epik_Ionization_Penalty>
0.104979

> <r_epik_Ionization_Penalty_Charging>
0.0999619

> <r_epik_Ionization_Penalty_Neutral>
0.00501745

> <r_epik_State_Penalty>
2.51541

> <r_epik_Charging_Adjusted_Penalty>
2.61537

> <i_epik_Tot_Q>
1

> <i_epik_Tot_abs_Q>
1

> <r_epik_Metal_State_Penalty>
3.53763

> <b_epik_Metal_Only>
0

> <s_epik_Chemistry_Notes>
This compound contains an acetal/aminal-like group ( X-CH(R)-Y where X, Y are N, S, or O) that may be acid/base labile, releasing an aldehyde.

> <s_lp_Force_Field>
OPLS_2005

> <r_lp_Energy>
25.3677

> <b_lp_Chiralities_Consistent>
1

> <s_lp_Variant>
AV-unprocessed.smi:72-42

> <Gold.Version>
5.8.1

> <Gold.Id.Protein>
6NUR|6NUR_protein|mol2

> <Gold.PLP.Fitness>
43.0958

> <Gold.PLP.PLP>
-25.5148

> <Gold.PLP.part.hbond>
-6.0000

> <Gold.PLP.part.metal>
0.0000

> <Gold.PLP.part.buried>
-4.5169

> <Gold.PLP.part.nonpolar>
-16.1924

> <Gold.PLP.part.repulsive>
0.9530

> <Gold.PLP.ligand.clash>
0.0000

> <Gold.PLP.ligand.torsion>
0.2211

> <Gold.PLP.Chemscore.Hbond>
5.9920

> <Gold.PLP.Chemscore.CHOScore>
0.0000

> <Gold.PLP.Chemscore.Metal>
0.0000

> <Gold.Chemscore.Hbonds>
donor molecule, donor type, donor heavy atom, donor atom, acceptor molecule, acceptor atom, score
      L1  H     1    22       P1 10175  1.00
      L1  H     3    30       P1  7948  2.00
      P1  H  6896  6908       L1    10  0.99
      P1  H  7997  8008       L1    14  0.99
      P1  H 10752 10764       L1    12  0.95

> <Gold.PLP.Chemscore.Internal.Correction>
0.0472

> <Gold.Rescore>
     Score         DG    S(hbond)    S(metal)    S(lipo)     H(rot)  DE(clash)    DE(int)     intcor
      9.04     -10.56       3.92        0.00      20.87       4.08       0.02       1.51       ----

> <Gold.Chemscore.Fitness>
9.0372

> <Gold.Chemscore.DG>
-10.5641

> <Gold.Chemscore.ZeroCoef>
-5.4800

> <Gold.Chemscore.Hbond>
3.9171

> <Gold.Chemscore.Metal>
0.0000

> <Gold.Chemscore.Lipo>
20.8658

> <Gold.Chemscore.Internal_Hbond>
0.0000

> <Gold.Chemscore.DEClash>
0.0199

> <Gold.Chemscore.DEInternal>
1.5069

> <Gold.Chemscore.Rot>
4.0783

> <Gold.Chemscore.Internal.Correction>
   9.000000E+99

> <Gold.Chemscore.Hbonds>
donor molecule, donor type, donor heavy atom, donor atom, acceptor molecule, acceptor atom, score
      L1  H     1    22       P1 10175  0.90
      L1  H     3    30       P1  7948  0.96
      P1  H  6896  6908       L1    10  0.49
      P1  H  7997  8008       L1    14  0.24
      P1  H 10752 10764       L1    12  0.21

> <Gold.Chemscore.Hbond.Weighted>
-13.0832

> <Gold.Chemscore.Metal.Weighted>
-0.0000

> <Gold.Chemscore.Lipo.Weighted>
-2.4413

> <Gold.Chemscore.Internal_Hbond.Weighted>
0.0000

> <Gold.Chemscore.DEClash.Weighted>
0.0199

> <Gold.Chemscore.DEInternal.Weighted>
1.5069

> <Gold.Chemscore.Rot.Weighted>
10.4404

> <Gold.Chemscore.Internal.Correction.Weighted>
   9.000000E+99

> <Gold.Protein.RotatedTorsions>
[ 6907 6896 6895 6894 ] final -137.34 input  -60.11 | X-H torsion
[ 7974 7965 7964 7962 ] final   31.55 input  175.53 | X-H torsion
[ 8008 7997 7996 7995 ] final  -28.82 input   59.86 | X-H torsion
[ 10167 10162 10161 10158 ] final   59.94 input  -65.29 | X-H torsion
[ 10718 10713 10712 10709 ] final -131.97 input   66.30 | X-H torsion
[ 10763 10752 10751 10750 ] final  -35.12 input  -60.55 | X-H torsion
[ 11005 11000 10999 10996 ] final -144.76 input  -57.11 | X-H torsion

> <Gold.Protein.ActiveResidues>
 VAL166  LYS551  ARG553  GLY616  TRP617  ASP618  TYR619  PRO620  LYS621  CYS622 
 ASP623  PHE694  ASN695  SER759  ASP760  ASP761  ALA762  ILE779  LEU786  VAL792 
 PHE793  MET794  SER795  GLU796  ALA797  LYS798  CYS799  TRP800  GLU811  SER814 

> <Gold.Protein.RotatedAtoms>
  151.0213  133.5874  159.2670 H   0  0  0  0  0  0  0  0  0  0  0  0  # atno 6907 bound_to 6896
  151.2990  135.0762  159.9241 H   0  0  0  0  0  0  0  0  0  0  0  0  # atno 6908 bound_to 6896
  152.5323  133.9898  159.7899 H   0  0  0  0  0  0  0  0  0  0  0  0  # atno 6909 bound_to 6896
  146.1543  139.6642  142.9077 H   0  0  0  0  0  0  0  0  0  0  0  0  # atno 7974 bound_to 7965
  154.4316  140.1835  156.1151 H   0  0  0  0  0  0  0  0  0  0  0  0  # atno 8008 bound_to 7997
  156.0187  140.3343  155.6991 H   0  0  0  0  0  0  0  0  0  0  0  0  # atno 8009 bound_to 7997
  155.6007  140.0640  157.2724 H   0  0  0  0  0  0  0  0  0  0  0  0  # atno 8010 bound_to 7997
  140.1710  144.4277  150.6661 H   0  0  0  0  0  0  0  0  0  0  0  0  # atno 10167 bound_to 10162
  156.2298  130.7030  151.0846 H   0  0  0  0  0  0  0  0  0  0  0  0  # atno 10718 bound_to 10713
  153.8579  135.6843  153.4785 H   0  0  0  0  0  0  0  0  0  0  0  0  # atno 10763 bound_to 10752
  153.1359  135.4678  154.9419 H   0  0  0  0  0  0  0  0  0  0  0  0  # atno 10764 bound_to 10752
  154.7772  135.3257  154.8016 H   0  0  0  0  0  0  0  0  0  0  0  0  # atno 10765 bound_to 10752
  140.7991  134.2878  157.4985 H   0  0  0  0  0  0  0  0  0  0  0  0  # atno 11005 bound_to 11000
  145.4747  141.0437  143.2679 LP  0  0  0  0  0  0  0  0  0  0  0  0  # atno 17320 bound_to 7965
  144.7943  139.6265  143.7099 LP  0  0  0  0  0  0  0  0  0  0  0  0  # atno 17321 bound_to 7965
  140.6582  143.2244  151.5919 LP  0  0  0  0  0  0  0  0  0  0  0  0  # atno 17342 bound_to 10162
  139.5338  144.2840  152.1206 LP  0  0  0  0  0  0  0  0  0  0  0  0  # atno 17343 bound_to 10162
  157.7128  131.0725  150.6439 LP  0  0  0  0  0  0  0  0  0  0  0  0  # atno 17370 bound_to 10713
  156.6506  130.4484  149.5720 LP  0  0  0  0  0  0  0  0  0  0  0  0  # atno 17371 bound_to 10713
  139.8723  134.9419  156.3810 LP  0  0  0  0  0  0  0  0  0  0  0  0  # atno 17394 bound_to 11000
  140.9312  133.7578  156.0028 LP  0  0  0  0  0  0  0  0  0  0  0  0  # atno 17395 bound_to 11000

$$$$
