AV-unprocessed.smi:870|AV-procd|sdf|4007|dock8
  -GOLD-   22720 1493D 1   1.00000     0.00000
 Structure written by MMmdl.
 46 48  0  0  0  0  0  0  0  0  1 V2000
  152.9897  138.8526  154.7504 C   0  0  0  0  0  0  0  0  0  0  0  0
  153.0231  139.5014  156.0089 O   0  0  0  0  0  0  0  0  0  0  0  0
  151.7250  139.7167  156.5416 C   0  0  0  0  0  0  0  0  0  0  0  0
  151.7754  140.9102  157.4530 C   0  0  0  0  0  0  0  0  0  0  0  0
  151.2829  142.1053  157.1174 N   0  0  0  0  0  0  0  0  0  0  0  0
  151.5407  142.8697  158.2377 C   0  0  0  0  0  0  0  0  0  0  0  0
  151.2603  144.2284  158.5076 C   0  0  0  0  0  0  0  0  0  0  0  0
  151.6218  144.7993  159.7456 C   0  0  0  0  0  0  0  0  0  0  0  0
  152.2667  144.0216  160.7292 C   0  0  0  0  0  0  0  0  0  0  0  0
  152.5549  142.6659  160.4802 C   0  0  0  0  0  0  0  0  0  0  0  0
  152.1926  142.1014  159.2425 C   0  0  0  0  0  0  0  0  0  0  0  0
  152.3280  140.8318  158.6904 N   0  0  0  0  0  0  0  0  0  0  0  0
  152.9370  139.6788  159.3415 C   0  0  0  0  0  0  0  0  0  0  0  0
  154.3433  139.9842  159.8952 C   0  0  2  0  0  0  0  0  0  0  0  0
  155.3122  139.5986  158.9396 O   0  0  0  0  0  0  0  0  0  0  0  0
  154.6187  139.2298  161.2057 C   0  0  0  0  0  0  0  0  0  0  0  0
  154.8420  137.8582  160.9074 O   0  0  0  0  0  0  0  0  0  0  0  0
  154.5965  136.9209  161.8899 C   0  0  0  0  0  0  0  0  0  0  0  0
  154.1289  137.2458  163.1893 C   0  0  0  0  0  0  0  0  0  0  0  0
  153.9021  136.2346  164.1422 C   0  0  0  0  0  0  0  0  0  0  0  0
  154.1379  134.8882  163.8124 C   0  0  0  0  0  0  0  0  0  0  0  0
  154.6014  134.5536  162.5273 C   0  0  0  0  0  0  0  0  0  0  0  0
  154.8301  135.5630  161.5684 C   0  0  0  0  0  0  0  0  0  0  0  0
  155.3313  135.1842  160.1872 C   0  0  0  0  0  0  0  0  0  0  0  0
  154.0061  138.7140  154.3825 H   0  0  0  0  0  0  0  0  0  0  0  0
  152.4434  139.4454  154.0158 H   0  0  0  0  0  0  0  0  0  0  0  0
  152.5217  137.8704  154.8262 H   0  0  0  0  0  0  0  0  0  0  0  0
  151.0094  139.9049  155.7398 H   0  0  0  0  0  0  0  0  0  0  0  0
  151.3972  138.8407  157.1022 H   0  0  0  0  0  0  0  0  0  0  0  0
  150.7664  144.8317  157.7605 H   0  0  0  0  0  0  0  0  0  0  0  0
  151.4030  145.8388  159.9412 H   0  0  0  0  0  0  0  0  0  0  0  0
  152.5405  144.4665  161.6746 H   0  0  0  0  0  0  0  0  0  0  0  0
  153.0496  142.0676  161.2309 H   0  0  0  0  0  0  0  0  0  0  0  0
  152.2781  139.3724  160.1550 H   0  0  0  0  0  0  0  0  0  0  0  0
  152.9704  138.8369  158.6501 H   0  0  0  0  0  0  0  0  0  0  0  0
  154.4308  141.0576  160.0692 H   0  0  0  0  0  0  0  0  0  0  0  0
  156.0659  139.2576  159.3963 H   0  0  0  0  0  0  0  0  0  0  0  0
  155.5222  139.6307  161.6682 H   0  0  0  0  0  0  0  0  0  0  0  0
  153.7954  139.3625  161.9101 H   0  0  0  0  0  0  0  0  0  0  0  0
  153.9364  138.2663  163.4828 H   0  0  0  0  0  0  0  0  0  0  0  0
  153.5464  136.4934  165.1287 H   0  0  0  0  0  0  0  0  0  0  0  0
  153.9641  134.1130  164.5439 H   0  0  0  0  0  0  0  0  0  0  0  0
  154.7812  133.5172  162.2814 H   0  0  0  0  0  0  0  0  0  0  0  0
  155.4230  134.1033  160.0775 H   0  0  0  0  0  0  0  0  0  0  0  0
  156.3107  135.6279  160.0061 H   0  0  0  0  0  0  0  0  0  0  0  0
  154.6432  135.5443  159.4220 H   0  0  0  0  0  0  0  0  0  0  0  0
  1  2  1  0  0  0  0
  1 25  1  0  0  0  0
  1 26  1  0  0  0  0
  1 27  1  0  0  0  0
  2  3  1  0  0  0  0
  3  4  1  0  0  0  0
  3 28  1  0  0  0  0
  3 29  1  0  0  0  0
  4 12  1  0  0  0  0
  4  5  2  0  0  0  0
  5  6  1  0  0  0  0
  6 11  2  0  0  0  0
  6  7  1  0  0  0  0
  7  8  2  0  0  0  0
  7 30  1  0  0  0  0
  8  9  1  0  0  0  0
  8 31  1  0  0  0  0
  9 10  2  0  0  0  0
  9 32  1  0  0  0  0
 10 11  1  0  0  0  0
 10 33  1  0  0  0  0
 11 12  1  0  0  0  0
 12 13  1  0  0  0  0
 13 14  1  0  0  0  0
 13 34  1  0  0  0  0
 13 35  1  0  0  0  0
 14 15  1  0  0  0  0
 14 16  1  0  0  0  0
 14 36  1  0  0  0  0
 15 37  1  0  0  0  0
 16 17  1  0  0  0  0
 16 38  1  0  0  0  0
 16 39  1  0  0  0  0
 17 18  1  0  0  0  0
 18 23  1  0  0  0  0
 18 19  2  0  0  0  0
 19 20  1  0  0  0  0
 19 40  1  0  0  0  0
 20 21  2  0  0  0  0
 20 41  1  0  0  0  0
 21 22  1  0  0  0  0
 21 42  1  0  0  0  0
 22 23  2  0  0  0  0
 22 43  1  0  0  0  0
 23 24  1  0  0  0  0
 24 44  1  0  0  0  0
 24 45  1  0  0  0  0
 24 46  1  0  0  0  0
M  END
> <s_m_source_file>
AV-unprocessed.smi

> <i_m_source_file_index>
870

> <i_lp_mmshare_version>
43012

> <i_f3d_flags>
0

> <s_epik_input>
W2NIXTFbY0hdW2NIXVtjSF1jKGMxMiluKGMobjIpW0NIMl1PW0NIM10pW0NIMl1bQ0BIXShbT0hdKVtDSDJdT2MzW2NIXVtjSF1bY0hdW2NIXWMzW0NIM10=

> <s_epik_cmdline>
J2VwaWtfcHl0aG9uJywgJy1waCcsICc3LjAnLCAnLXRuJywgJzgnLCAnLW1hJywgJzIwMCcsICctbWV0YWxfYmluZGluZycsICctaW1hZScsICc8aW5maWxlLm1hZT4nLCAnLW9tYWUnLCAnPG91dGZpbGUubWFlPic=

> <r_lp_tautomer_probability>
1

> <r_epik_Ionization_Penalty>
0.0447032

> <r_epik_Ionization_Penalty_Charging>
0

> <r_epik_Ionization_Penalty_Neutral>
0.0447032

> <r_epik_State_Penalty>
0.0379025

> <r_epik_Charging_Adjusted_Penalty>
0.0379025

> <i_epik_Tot_Q>
0

> <i_epik_Tot_abs_Q>
0

> <r_epik_Metal_State_Penalty>
3.91398e-05

> <b_epik_Metal_Only>
0

> <s_lp_Force_Field>
OPLS_2005

> <r_lp_Energy>
17.6925

> <b_lp_Chiralities_Consistent>
1

> <s_lp_Variant>
AV-unprocessed.smi:870-1

> <Gold.Version>
5.8.1

> <Gold.Id.Protein>
6NUR|6NUR_protein|mol2

> <Gold.PLP.Fitness>
57.0288

> <Gold.PLP.PLP>
-53.1350

> <Gold.PLP.part.hbond>
-2.0000

> <Gold.PLP.part.metal>
0.0000

> <Gold.PLP.part.buried>
-5.6390

> <Gold.PLP.part.nonpolar>
-44.2398

> <Gold.PLP.part.repulsive>
0.0599

> <Gold.PLP.ligand.clash>
0.0000

> <Gold.PLP.ligand.torsion>
1.1104

> <Gold.PLP.Chemscore.Hbond>
2.0000

> <Gold.PLP.Chemscore.CHOScore>
0.0000

> <Gold.PLP.Chemscore.Metal>
0.0000

> <Gold.Chemscore.Hbonds>
donor molecule, donor type, donor heavy atom, donor atom, acceptor molecule, acceptor atom, score
      P1  H  7997  8008       L1     2  0.94
      P1  H  7997  8010       L1    15  1.00

> <Gold.PLP.Chemscore.Internal.Correction>
0.1146

> <Gold.Rescore>
     Score         DG    S(hbond)    S(metal)    S(lipo)     H(rot)  DE(clash)    DE(int)     intcor
     22.52     -23.83       1.91        0.00     153.80       2.36       0.11       1.20       ----

> <Gold.Chemscore.Fitness>
22.5239

> <Gold.Chemscore.DG>
-23.8276

> <Gold.Chemscore.ZeroCoef>
-5.4800

> <Gold.Chemscore.Hbond>
1.9135

> <Gold.Chemscore.Metal>
0.0000

> <Gold.Chemscore.Lipo>
153.7976

> <Gold.Chemscore.Internal_Hbond>
0.0000

> <Gold.Chemscore.DEClash>
0.1062

> <Gold.Chemscore.DEInternal>
1.1975

> <Gold.Chemscore.Rot>
2.3585

> <Gold.Chemscore.Internal.Correction>
   9.000000E+99

> <Gold.Chemscore.Hbonds>
donor molecule, donor type, donor heavy atom, donor atom, acceptor molecule, acceptor atom, score
      P1  H  7997  8008       L1     2  0.45
      P1  H  7997  8010       L1    15  0.91

> <Gold.Chemscore.Hbond.Weighted>
-6.3911

> <Gold.Chemscore.Metal.Weighted>
-0.0000

> <Gold.Chemscore.Lipo.Weighted>
-17.9943

> <Gold.Chemscore.Internal_Hbond.Weighted>
0.0000

> <Gold.Chemscore.DEClash.Weighted>
0.1062

> <Gold.Chemscore.DEInternal.Weighted>
1.1975

> <Gold.Chemscore.Rot.Weighted>
6.0378

> <Gold.Chemscore.Internal.Correction.Weighted>
   9.000000E+99

> <Gold.Protein.RotatedTorsions>
[ 6907 6896 6895 6894 ] final   68.39 input  -60.11 | X-H torsion
[ 7974 7965 7964 7962 ] final   23.55 input  175.53 | X-H torsion
[ 8008 7997 7996 7995 ] final  -26.50 input   59.86 | X-H torsion
[ 10167 10162 10161 10158 ] final   12.92 input  -65.29 | X-H torsion
[ 10718 10713 10712 10709 ] final   67.55 input   66.30 | X-H torsion
[ 10763 10752 10751 10750 ] final -167.67 input  -60.55 | X-H torsion
[ 11005 11000 10999 10996 ] final -132.65 input  -57.11 | X-H torsion

> <Gold.Protein.ActiveResidues>
 VAL166  LYS551  ARG553  GLY616  TRP617  ASP618  TYR619  PRO620  LYS621  CYS622 
 ASP623  PHE694  ASN695  SER759  ASP760  ASP761  ALA762  ILE779  LEU786  VAL792 
 PHE793  MET794  SER795  GLU796  ALA797  LYS798  CYS799  TRP800  GLU811  SER814 

> <Gold.Protein.RotatedAtoms>
  152.4617  134.5169  159.9770 H   0  0  0  0  0  0  0  0  0  0  0  0  # atno 6907 bound_to 6896
  151.5217  133.3459  159.2910 H   0  0  0  0  0  0  0  0  0  0  0  0  # atno 6908 bound_to 6896
  150.8582  134.7957  159.7125 H   0  0  0  0  0  0  0  0  0  0  0  0  # atno 6909 bound_to 6896
  146.1979  139.7729  142.8783 H   0  0  0  0  0  0  0  0  0  0  0  0  # atno 7974 bound_to 7965
  154.4422  140.1897  156.0786 H   0  0  0  0  0  0  0  0  0  0  0  0  # atno 8008 bound_to 7997
  156.0456  140.3314  155.7266 H   0  0  0  0  0  0  0  0  0  0  0  0  # atno 8009 bound_to 7997
  155.5634  140.0606  157.2814 H   0  0  0  0  0  0  0  0  0  0  0  0  # atno 8010 bound_to 7997
  140.6037  143.8553  150.6991 H   0  0  0  0  0  0  0  0  0  0  0  0  # atno 10167 bound_to 10162
  157.6237  130.9327  150.0258 H   0  0  0  0  0  0  0  0  0  0  0  0  # atno 10718 bound_to 10713
  154.6708  135.2939  154.9745 H   0  0  0  0  0  0  0  0  0  0  0  0  # atno 10763 bound_to 10752
  154.0772  135.6609  153.4836 H   0  0  0  0  0  0  0  0  0  0  0  0  # atno 10764 bound_to 10752
  153.0485  135.5189  154.7703 H   0  0  0  0  0  0  0  0  0  0  0  0  # atno 10765 bound_to 10752
  140.9151  134.1517  157.4359 H   0  0  0  0  0  0  0  0  0  0  0  0  # atno 11005 bound_to 11000
  145.3582  141.0321  143.3300 LP  0  0  0  0  0  0  0  0  0  0  0  0  # atno 17320 bound_to 7965
  144.8620  139.5164  143.6808 LP  0  0  0  0  0  0  0  0  0  0  0  0  # atno 17321 bound_to 7965
  140.2104  143.3888  152.1722 LP  0  0  0  0  0  0  0  0  0  0  0  0  # atno 17342 bound_to 10162
  139.5309  144.7158  151.5060 LP  0  0  0  0  0  0  0  0  0  0  0  0  # atno 17343 bound_to 10162
  156.1397  130.3642  149.9602 LP  0  0  0  0  0  0  0  0  0  0  0  0  # atno 17370 bound_to 10713
  156.7645  130.9163  151.3642 LP  0  0  0  0  0  0  0  0  0  0  0  0  # atno 17371 bound_to 10713
  139.8764  134.9950  156.5723 LP  0  0  0  0  0  0  0  0  0  0  0  0  # atno 17394 bound_to 11000
  140.8060  133.8467  155.8768 LP  0  0  0  0  0  0  0  0  0  0  0  0  # atno 17395 bound_to 11000

$$$$
