AV-unprocessed.smi:101|AV-procd|sdf|936|dock2
  -GOLD-   2262017453D 1   1.00000     0.00000
 Structure written by MMmdl.
 43 45  0  0  0  0  0  0  0  0  2 V2000
  150.2870  133.7516  155.2045 C   0  0  0  0  0  0  0  0  0  0  0  0
  149.1679  134.7710  155.0811 C   0  0  0  0  0  0  0  0  0  0  0  0
  149.3479  136.0772  155.3771 C   0  0  0  0  0  0  0  0  0  0  0  0
  148.3247  137.0046  155.2659 N   0  0  0  0  0  0  0  0  0  0  0  0
  148.5317  138.4688  155.6149 C   0  0  1  0  0  0  0  0  0  0  0  0
  149.8346  138.6565  156.0863 O   0  0  0  0  0  0  0  0  0  0  0  0
  150.6217  139.2904  155.0847 C   0  0  2  0  0  0  0  0  0  0  0  0
  151.8804  139.9265  155.6884 C   0  0  0  0  0  0  0  0  0  0  0  0
  151.4808  140.7766  156.7509 O   0  0  0  0  0  0  0  0  0  0  0  0
  152.2489  140.9015  157.8486 C   0  0  0  0  0  0  0  0  0  0  0  0
  152.9772  140.0046  158.2783 O   0  0  0  0  0  0  0  0  0  0  0  0
  152.1253  142.2428  158.4898 C   0  0  0  0  0  0  0  0  0  0  0  0
  151.5665  143.3142  157.7546 C   0  0  0  0  0  0  0  0  0  0  0  0
  151.4387  144.5919  158.3335 C   0  0  0  0  0  0  0  0  0  0  0  0
  151.8689  144.8142  159.6546 C   0  0  0  0  0  0  0  0  0  0  0  0
  152.4253  143.7564  160.3971 C   0  0  0  0  0  0  0  0  0  0  0  0
  152.5530  142.4776  159.8204 C   0  0  0  0  0  0  0  0  0  0  0  0
  149.6253  140.2496  154.4312 C   0  0  2  0  0  0  0  0  0  0  0  0
  149.4607  141.4145  155.2189 O   0  0  0  0  0  0  0  0  0  0  0  0
  148.3419  139.4265  154.4086 C   0  0  1  0  0  0  0  0  0  0  0  0
  148.2282  138.7653  153.1598 O   0  0  0  0  0  0  0  0  0  0  0  0
  147.0385  136.5788  154.8414 C   0  0  0  0  0  0  0  0  0  0  0  0
  146.1478  137.4253  154.7618 O   0  0  0  0  0  0  0  0  0  0  0  0
  146.8483  135.2630  154.5385 N   0  5  0  0  0  0  0  0  0  0  0  0
  147.8416  134.3329  154.6307 C   0  0  0  0  0  0  0  0  0  0  0  0
  147.6573  133.1488  154.3511 O   0  0  0  0  0  0  0  0  0  0  0  0
  151.2092  134.2144  155.5574 H   0  0  0  0  0  0  0  0  0  0  0  0
  150.4893  133.2902  154.2375 H   0  0  0  0  0  0  0  0  0  0  0  0
  150.0115  132.9673  155.9103 H   0  0  0  0  0  0  0  0  0  0  0  0
  150.3238  136.3887  155.7144 H   0  0  0  0  0  0  0  0  0  0  0  0
  147.8478  138.6705  156.4409 H   0  0  0  0  0  0  0  0  0  0  0  0
  150.9150  138.5504  154.3380 H   0  0  0  0  0  0  0  0  0  0  0  0
  152.5400  139.1531  156.0842 H   0  0  0  0  0  0  0  0  0  0  0  0
  152.4339  140.4822  154.9299 H   0  0  0  0  0  0  0  0  0  0  0  0
  151.2293  143.1682  156.7384 H   0  0  0  0  0  0  0  0  0  0  0  0
  151.0099  145.4023  157.7625 H   0  0  0  0  0  0  0  0  0  0  0  0
  151.7715  145.7943  160.0980 H   0  0  0  0  0  0  0  0  0  0  0  0
  152.7552  143.9254  161.4116 H   0  0  0  0  0  0  0  0  0  0  0  0
  152.9844  141.6884  160.4191 H   0  0  0  0  0  0  0  0  0  0  0  0
  149.9484  140.5581  153.4358 H   0  0  0  0  0  0  0  0  0  0  0  0
  148.8071  141.9606  154.8091 H   0  0  0  0  0  0  0  0  0  0  0  0
  147.4519  140.0398  154.5566 H   0  0  0  0  0  0  0  0  0  0  0  0
  148.6846  139.2758  152.5087 H   0  0  0  0  0  0  0  0  0  0  0  0
  1  2  1  0  0  0  0
  1 27  1  0  0  0  0
  1 28  1  0  0  0  0
  1 29  1  0  0  0  0
  2 25  1  0  0  0  0
  2  3  2  0  0  0  0
  3  4  1  0  0  0  0
  3 30  1  0  0  0  0
  4  5  1  0  0  0  0
  4 22  1  0  0  0  0
  5 20  1  0  0  0  0
  5  6  1  0  0  0  0
  5 31  1  0  0  0  0
  6  7  1  0  0  0  0
  7  8  1  0  0  0  0
  7 18  1  0  0  0  0
  7 32  1  0  0  0  0
  8  9  1  0  0  0  0
  8 33  1  0  0  0  0
  8 34  1  0  0  0  0
  9 10  1  0  0  0  0
 10 11  2  0  0  0  0
 10 12  1  0  0  0  0
 12 17  1  0  0  0  0
 12 13  2  0  0  0  0
 13 14  1  0  0  0  0
 13 35  1  0  0  0  0
 14 15  2  0  0  0  0
 14 36  1  0  0  0  0
 15 16  1  0  0  0  0
 15 37  1  0  0  0  0
 16 17  2  0  0  0  0
 16 38  1  0  0  0  0
 17 39  1  0  0  0  0
 18 19  1  0  0  0  0
 18 20  1  0  0  0  0
 18 40  1  0  0  0  0
 19 41  1  0  0  0  0
 20 21  1  0  0  0  0
 20 42  1  0  0  0  0
 21 43  1  0  0  0  0
 22 23  2  0  0  0  0
 22 24  1  0  0  0  0
 24 25  1  0  0  0  0
 25 26  2  0  0  0  0
M  CHG  1  24  -1
M  END
> <s_m_source_file>
AV-unprocessed.smi

> <i_m_source_file_index>
101

> <i_lp_mmshare_version>
43012

> <i_f3d_flags>
0

> <s_epik_input>
Tz1jMVtuSF1jKD1PKW4oW2NIXWMxW0NIM10pW0NAQEhdMk9bQ0BIXShbQ0BASF0oW09IXSlbQ0BIXTJbT0hdKVtDSDJdT0MoPU8pYzNbY0hdW2NIXVtjSF1bY0hdW2NIXTM=

> <s_epik_cmdline>
J2VwaWtfcHl0aG9uJywgJy1waCcsICc3LjAnLCAnLXRuJywgJzgnLCAnLW1hJywgJzIwMCcsICctbWV0YWxfYmluZGluZycsICctaW1hZScsICc8aW5maWxlLm1hZT4nLCAnLW9tYWUnLCAnPG91dGZpbGUubWFlPic=

> <r_lp_tautomer_probability>
0.999537

> <r_epik_Ionization_Penalty>
3.21006

> <r_epik_Ionization_Penalty_Charging>
5.75142e-08

> <r_epik_Ionization_Penalty_Neutral>
3.21006

> <r_epik_State_Penalty>
3.20925

> <r_epik_Charging_Adjusted_Penalty>
3.20925

> <i_epik_Tot_Q>
-1

> <i_epik_Tot_abs_Q>
1

> <r_epik_Metal_State_Penalty>
0.119957

> <b_epik_Metal_Only>
1

> <s_epik_Chemistry_Notes>
This compound has an ester and may undergo hydrolysis at high or low pH. This compound contains an acetal/aminal-like group ( X-CH(R)-Y where X, Y are N, S, or O) that may be acid/base labile, releasing an aldehyde.

> <s_lp_Force_Field>
OPLS_2005

> <r_lp_Energy>
44.1701

> <b_lp_Chiralities_Consistent>
1

> <s_lp_Variant>
AV-unprocessed.smi:101-24

> <Gold.Version>
5.8.1

> <Gold.Id.Protein>
6NUR|6NUR_protein|mol2

> <Gold.PLP.Fitness>
46.5864

> <Gold.PLP.PLP>
-41.9359

> <Gold.PLP.part.hbond>
-3.0000

> <Gold.PLP.part.metal>
0.0000

> <Gold.PLP.part.buried>
-4.6630

> <Gold.PLP.part.nonpolar>
-34.0167

> <Gold.PLP.part.repulsive>
0.2048

> <Gold.PLP.ligand.clash>
0.0000

> <Gold.PLP.ligand.torsion>
0.7787

> <Gold.PLP.Chemscore.Hbond>
2.0000

> <Gold.PLP.Chemscore.CHOScore>
0.0000

> <Gold.PLP.Chemscore.Metal>
0.0000

> <Gold.Chemscore.Hbonds>
donor molecule, donor type, donor heavy atom, donor atom, acceptor molecule, acceptor atom, score
      L1  H    21    43       P1  7957  1.00
      P1  H  7997  8008       L1    11  0.94

> <Gold.PLP.Chemscore.Internal.Correction>
0.2080

> <Gold.Rescore>
     Score         DG    S(hbond)    S(metal)    S(lipo)     H(rot)  DE(clash)    DE(int)     intcor
     12.99     -16.02       1.81        0.00     109.99       3.27       0.42       2.61       ----

> <Gold.Chemscore.Fitness>
12.9940

> <Gold.Chemscore.DG>
-16.0233

> <Gold.Chemscore.ZeroCoef>
-5.4800

> <Gold.Chemscore.Hbond>
1.8068

> <Gold.Chemscore.Metal>
0.0000

> <Gold.Chemscore.Lipo>
109.9854

> <Gold.Chemscore.Internal_Hbond>
0.0000

> <Gold.Chemscore.DEClash>
0.4209

> <Gold.Chemscore.DEInternal>
2.6084

> <Gold.Chemscore.Rot>
3.2656

> <Gold.Chemscore.Internal.Correction>
   9.000000E+99

> <Gold.Chemscore.Hbonds>
donor molecule, donor type, donor heavy atom, donor atom, acceptor molecule, acceptor atom, score
      L1  H    21    43       P1  7957  1.00
      P1  H  7997  8008       L1    11  0.22

> <Gold.Chemscore.Hbond.Weighted>
-6.0349

> <Gold.Chemscore.Metal.Weighted>
-0.0000

> <Gold.Chemscore.Lipo.Weighted>
-12.8683

> <Gold.Chemscore.Internal_Hbond.Weighted>
0.0000

> <Gold.Chemscore.DEClash.Weighted>
0.4209

> <Gold.Chemscore.DEInternal.Weighted>
2.6084

> <Gold.Chemscore.Rot.Weighted>
8.3598

> <Gold.Chemscore.Internal.Correction.Weighted>
   9.000000E+99

> <Gold.Protein.RotatedTorsions>
[ 6907 6896 6895 6894 ] final -102.00 input  -60.11 | X-H torsion
[ 7974 7965 7964 7962 ] final   41.51 input  175.53 | X-H torsion
[ 8008 7997 7996 7995 ] final  -74.30 input   59.86 | X-H torsion
[ 10167 10162 10161 10158 ] final   25.58 input  -65.29 | X-H torsion
[ 10718 10713 10712 10709 ] final  -22.16 input   66.30 | X-H torsion
[ 10763 10752 10751 10750 ] final  175.77 input  -60.55 | X-H torsion
[ 11005 11000 10999 10996 ] final -157.15 input  -57.11 | X-H torsion

> <Gold.Protein.ActiveResidues>
 VAL166  LYS551  ARG553  GLY616  TRP617  ASP618  TYR619  PRO620  LYS621  CYS622 
 ASP623  PHE694  ASN695  SER759  ASP760  ASP761  ALA762  ILE779  LEU786  VAL792 
 PHE793  MET794  SER795  GLU796  ALA797  LYS798  CYS799  TRP800  GLU811  SER814 

> <Gold.Protein.RotatedAtoms>
  150.7178  134.0648  159.3843 H   0  0  0  0  0  0  0  0  0  0  0  0  # atno 6907 bound_to 6896
  151.8629  135.0515  160.0480 H   0  0  0  0  0  0  0  0  0  0  0  0  # atno 6908 bound_to 6896
  152.2703  133.5341  159.5472 H   0  0  0  0  0  0  0  0  0  0  0  0  # atno 6909 bound_to 6896
  146.0818  139.5408  142.9532 H   0  0  0  0  0  0  0  0  0  0  0  0  # atno 7974 bound_to 7965
  154.5319  140.0764  156.8361 H   0  0  0  0  0  0  0  0  0  0  0  0  # atno 8008 bound_to 7997
  155.3356  140.3404  155.4221 H   0  0  0  0  0  0  0  0  0  0  0  0  # atno 8009 bound_to 7997
  156.1790  140.1645  156.8296 H   0  0  0  0  0  0  0  0  0  0  0  0  # atno 8010 bound_to 7997
  140.5095  144.0184  150.6366 H   0  0  0  0  0  0  0  0  0  0  0  0  # atno 10167 bound_to 10162
  156.5084  130.4604  149.6662 H   0  0  0  0  0  0  0  0  0  0  0  0  # atno 10718 bound_to 10713
  154.4722  135.2771  155.1634 H   0  0  0  0  0  0  0  0  0  0  0  0  # atno 10763 bound_to 10752
  154.3379  135.6176  153.5586 H   0  0  0  0  0  0  0  0  0  0  0  0  # atno 10764 bound_to 10752
  152.9865  135.5781  154.5105 H   0  0  0  0  0  0  0  0  0  0  0  0  # atno 10765 bound_to 10752
  140.6678  134.4280  157.5232 H   0  0  0  0  0  0  0  0  0  0  0  0  # atno 11005 bound_to 11000
  145.6204  141.0323  143.1918 LP  0  0  0  0  0  0  0  0  0  0  0  0  # atno 17320 bound_to 7965
  144.7298  139.7761  143.7351 LP  0  0  0  0  0  0  0  0  0  0  0  0  # atno 17321 bound_to 7965
  140.3503  143.2967  152.0494 LP  0  0  0  0  0  0  0  0  0  0  0  0  # atno 17342 bound_to 10162
  139.4892  144.6379  151.6938 LP  0  0  0  0  0  0  0  0  0  0  0  0  # atno 17343 bound_to 10162
  156.3265  130.7308  151.2230 LP  0  0  0  0  0  0  0  0  0  0  0  0  # atno 17370 bound_to 10713
  157.7454  131.0441  150.4779 LP  0  0  0  0  0  0  0  0  0  0  0  0  # atno 17371 bound_to 10713
  139.8991  134.8597  156.1972 LP  0  0  0  0  0  0  0  0  0  0  0  0  # atno 17394 bound_to 11000
  141.0416  133.6935  156.1608 LP  0  0  0  0  0  0  0  0  0  0  0  0  # atno 17395 bound_to 11000

$$$$
