#       Name:                AV-unprocessed.smi:224
#       Creating user name   scv26
#       Creation time:       Thu Mar 26 20:19:42 2020


#       File generated by GOLD software.
#

@<TRIPOS>MOLECULE
AV-unprocessed.smi:224
    65    68     1
SMALL
NO_CHARGES


@<TRIPOS>ATOM
      1 ****        -3.5447   5.8264   3.3086 C.3            1 S1                 0.0000
      2 ****        -2.3231   4.8983   3.3160 C.3            1 S1                 0.0000
      3 ****        -2.0520   4.5520   4.6594 O.3            1 S1                 0.0000
      4 ****        -2.5748   3.6172   2.4953 C.3            1 S1                 0.0000
      5 ****        -1.3643   2.7631   2.3701 N.4            1 S1                 1.0000
      6 ****        -0.3715   3.2654   1.3819 C.3            1 S1                 0.0000
      7 ****         0.9131   2.4179   1.4133 C.3            1 S1                 0.0000
      8 ****         0.6138   0.9961   1.2549 N.pl3          1 S1                 0.0000
      9 ****         0.6226   0.4445   0.0113 C.ar           1 S1                 0.0000
     10 ****         0.5132   1.2479  -1.0806 N.ar           1 S1                 0.0000
     11 ****         0.4973   0.7250  -2.3097 C.ar           1 S1                 0.0000
     12 ****         0.5838  -0.5554  -2.6710 N.ar           1 S1                 0.0000
     13 ****         0.7146  -1.3687  -1.5846 C.ar           1 S1                 0.0000
     14 ****         0.7397  -0.9566  -0.2215 C.ar           1 S1                 0.0000
     15 ****         0.8898  -2.0672   0.6014 N.2            1 S1                 0.0000
     16 ****         0.9372  -3.0757  -0.2253 C.2            1 S1                 0.0000
     17 ****         0.8517  -2.7457  -1.5586 N.pl3          1 S1                 0.0000
     18 ****         0.8833  -3.6640  -2.6865 C.3            1 S1                 0.0000
     19 ****         2.2976  -3.8776  -3.2849 C.3            1 S1                 0.0000
     20 ****         2.8038  -2.6478  -3.7677 O.3            1 S1                 0.0000
     21 ****         2.2949  -4.9003  -4.4094 C.3            1 S1                 0.0000
     22 ****         2.4237  -6.2268  -3.6634 C.3            1 S1                 0.0000
     23 ****         3.1096  -5.9315  -2.4501 O.3            1 S1                 0.0000
     24 ****         3.3009  -4.5262  -2.3225 C.3            1 S1                 0.0000
     25 ****        -0.3638   0.4777   2.2105 C.3            1 S1                 0.0000
     26 ****        -1.6664   1.3090   2.2098 C.3            1 S1                 0.0000
     27 ****        -2.5556   0.9997   0.9857 C.3            1 S1                 0.0000
     28 ****        -3.7883   6.1446   2.2946 H              1 S1                 0.0000
     29 ****        -3.3602   6.7250   3.8986 H              1 S1                 0.0000
     30 ****        -4.4245   5.3319   3.7223 H              1 S1                 0.0000
     31 ****        -1.4715   5.4536   2.9247 H              1 S1                 0.0000
     32 ****        -1.2070   4.1324   4.7059 H              1 S1                 0.0000
     33 ****        -3.3762   3.0533   2.9759 H              1 S1                 0.0000
     34 ****        -2.9366   3.8712   1.4976 H              1 S1                 0.0000
     35 ****        -0.8085   3.2586   0.3831 H              1 S1                 0.0000
     36 ****        -0.1112   4.3010   1.5956 H              1 S1                 0.0000
     37 ****         1.6233   2.7608   0.6599 H              1 S1                 0.0000
     38 ****         1.4117   2.5498   2.3743 H              1 S1                 0.0000
     39 ****         0.4013   1.4332  -3.1195 H              1 S1                 0.0000
     40 ****         1.0459  -4.0950   0.1166 H              1 S1                 0.0000
     41 ****         0.4624  -4.6142  -2.3560 H              1 S1                 0.0000
     42 ****         0.2060  -3.2841  -3.4526 H              1 S1                 0.0000
     43 ****         3.6623  -2.7984  -4.1327 H              1 S1                 0.0000
     44 ****         1.4100  -4.8509  -5.0450 H              1 S1                 0.0000
     45 ****         3.1699  -4.7666  -5.0481 H              1 S1                 0.0000
     46 ****         1.4399  -6.6281  -3.4181 H              1 S1                 0.0000
     47 ****         2.9570  -6.9776  -4.2469 H              1 S1                 0.0000
     48 ****         4.3233  -4.3100  -2.6368 H              1 S1                 0.0000
     49 ****         3.2071  -4.1972  -1.2885 H              1 S1                 0.0000
     50 ****        -0.5985  -0.5712   2.0383 H              1 S1                 0.0000
     51 ****         0.0916   0.5213   3.2004 H              1 S1                 0.0000
     52 ****        -2.2305   1.0031   3.0919 H              1 S1                 0.0000
     53 ****        -2.7303  -0.0730   0.8981 H              1 S1                 0.0000
     54 ****        -2.1047   1.3313   0.0513 H              1 S1                 0.0000
     55 ****        -3.5335   1.4744   1.0652 H              1 S1                 0.0000
     56 ****        -0.9049   2.8251   3.2673 H              1 S1                 0.0000
     57 ****        -2.7561   3.9247   4.9922 LP             1 S1                 0.0000
     58 ****        -2.0474   5.3776   5.2237 LP             1 S1                 0.0000
     59 ****         0.4441   2.2385  -0.9623 LP             1 S1                 0.0000
     60 ****         0.5563  -0.8778  -3.6172 LP             1 S1                 0.0000
     61 ****         0.9481  -2.0883   1.5995 LP             1 S1                 0.0000
     62 ****         2.8675  -1.9912  -3.0162 LP             1 S1                 0.0000
     63 ****         2.1955  -2.2872  -4.4747 LP             1 S1                 0.0000
     64 ****         3.9999  -6.3870  -2.4547 LP             1 S1                 0.0000
     65 ****         2.5697  -6.2629  -1.6764 LP             1 S1                 0.0000
@<TRIPOS>BOND
    1    1    2 1     
    2    1   28 1     
    3    1   29 1     
    4    1   30 1     
    5    2    3 1     
    6    2    4 1     
    7    2   31 1     
    8    3   32 1     
    9    4    5 1     
   10    4   33 1     
   11    4   34 1     
   12    5   26 1     
   13    5    6 1     
   14    5   56 1     
   15    6    7 1     
   16    6   35 1     
   17    6   36 1     
   18    7    8 1     
   19    7   37 1     
   20    7   38 1     
   21    8    9 1     
   22    8   25 1     
   23    9   14 ar    
   24    9   10 ar    
   25   10   11 ar    
   26   11   12 ar    
   27   11   39 1     
   28   12   13 ar    
   29   13   17 1     
   30   13   14 ar    
   31   14   15 1     
   32   15   16 2     
   33   16   17 1     
   34   16   40 1     
   35   17   18 1     
   36   18   19 1     
   37   18   41 1     
   38   18   42 1     
   39   19   24 1     
   40   19   20 1     
   41   19   21 1     
   42   20   43 1     
   43   21   22 1     
   44   21   44 1     
   45   21   45 1     
   46   22   23 1     
   47   22   46 1     
   48   22   47 1     
   49   23   24 1     
   50   24   48 1     
   51   24   49 1     
   52   25   26 1     
   53   25   50 1     
   54   25   51 1     
   55   26   27 1     
   56   26   52 1     
   57   27   53 1     
   58   27   54 1     
   59   27   55 1     
   60    3   57 1     
   61    3   58 1     
   62   10   59 1     
   63   12   60 1     
   64   15   61 1     
   65   20   62 1     
   66   20   63 1     
   67   23   64 1     
   68   23   65 1     
@<TRIPOS>SUBSTRUCTURE
      1 S1             1
@<TRIPOS>SET
LONE_PAIRS      STATIC     ATOMS    <user>   **** ""
9 57 58 59 60 61 62 63 64 65
DONOR_HYDROGENS      STATIC     ATOMS    <user>   **** ""
3 32 56 43
ATOM$BLUE        STATIC     ATOMS    COLORGROUP SYSTEM
9 57 58 59 60 61 62 63 64 65
ATOM$RED        STATIC     ATOMS    COLORGROUP SYSTEM
3 32 56 43
