AV-unprocessed.smi:1999|AV-procd|sdf|8098|dock8
  -GOLD-   2272010323D 1   1.00000     0.00000
 Structure written by MMmdl.
 38 39  0  0  0  0  0  0  0  0  3 V2000
  145.5478  134.4007  162.4358 C   0  0  0  0  0  0  0  0  0  0  0  0
  146.5233  135.2588  161.7055 C   0  0  0  0  0  0  0  0  0  0  0  0
  147.0012  136.4015  162.2044 N   0  0  0  0  0  0  0  0  0  0  0  0
  147.8922  137.0179  161.3384 N   0  0  0  0  0  0  0  0  0  0  0  0
  148.0663  136.3408  160.1944 C   0  0  0  0  0  0  0  0  0  0  0  0
  148.8863  136.7723  159.2220 N   0  5  0  0  0  0  0  0  0  0  0  0
  149.0746  136.0170  158.1182 C   0  0  0  0  0  0  0  0  0  0  0  0
  149.1569  134.7874  158.0822 O   0  0  0  0  0  0  0  0  0  0  0  0
  149.1361  136.7289  156.9826 N   0  0  0  0  0  0  0  0  0  0  0  0
  149.2222  136.1983  155.6206 C   0  0  2  0  0  0  0  0  0  0  0  0
  150.3994  136.8606  154.8925 C   0  0  0  0  0  0  0  0  0  0  0  0
  147.8922  136.4172  154.8635 C   0  0  0  0  0  0  0  0  0  0  0  0
  147.6262  135.3582  153.8574 N   0  3  0  0  0  0  0  0  0  0  0  0
  148.0021  134.0003  154.3123 C   0  0  0  0  0  0  0  0  0  0  0  0
  147.7968  132.9897  153.1707 C   0  0  0  0  0  0  0  0  0  0  0  0
  146.4459  133.0366  152.7250 O   0  0  0  0  0  0  0  0  0  0  0  0
  146.0943  134.3197  152.2197 C   0  0  0  0  0  0  0  0  0  0  0  0
  146.2387  135.3660  153.3368 C   0  0  0  0  0  0  0  0  0  0  0  0
  147.1332  134.8475  160.1115 S   0  0  0  0  0  0  0  0  0  0  0  0
  144.5458  134.5536  162.0350 H   0  0  0  0  0  0  0  0  0  0  0  0
  145.5423  134.6455  163.4984 H   0  0  0  0  0  0  0  0  0  0  0  0
  145.8151  133.3500  162.3221 H   0  0  0  0  0  0  0  0  0  0  0  0
  149.0755  137.7331  157.0715 H   0  0  0  0  0  0  0  0  0  0  0  0
  149.4369  135.1296  155.6597 H   0  0  0  0  0  0  0  0  0  0  0  0
  150.5058  136.4673  153.8812 H   0  0  0  0  0  0  0  0  0  0  0  0
  151.3378  136.6769  155.4169 H   0  0  0  0  0  0  0  0  0  0  0  0
  150.2657  137.9404  154.8178 H   0  0  0  0  0  0  0  0  0  0  0  0
  147.0844  136.4183  155.5971 H   0  0  0  0  0  0  0  0  0  0  0  0
  147.8702  137.3983  154.3868 H   0  0  0  0  0  0  0  0  0  0  0  0
  149.0468  133.9889  154.6256 H   0  0  0  0  0  0  0  0  0  0  0  0
  147.4002  133.7222  155.1788 H   0  0  0  0  0  0  0  0  0  0  0  0
  148.4730  133.1991  152.3398 H   0  0  0  0  0  0  0  0  0  0  0  0
  148.0204  131.9804  153.5166 H   0  0  0  0  0  0  0  0  0  0  0  0
  146.7220  134.5739  151.3638 H   0  0  0  0  0  0  0  0  0  0  0  0
  145.0647  134.2901  151.8630 H   0  0  0  0  0  0  0  0  0  0  0  0
  145.5396  135.1501  154.1461 H   0  0  0  0  0  0  0  0  0  0  0  0
  145.9833  136.3519  152.9493 H   0  0  0  0  0  0  0  0  0  0  0  0
  148.2317  135.5659  153.0746 H   0  0  0  0  0  0  0  0  0  0  0  0
  1  2  1  0  0  0  0
  1 20  1  0  0  0  0
  1 21  1  0  0  0  0
  1 22  1  0  0  0  0
  2 19  1  0  0  0  0
  2  3  2  0  0  0  0
  3  4  1  0  0  0  0
  4  5  2  0  0  0  0
  5  6  1  0  0  0  0
  5 19  1  0  0  0  0
  6  7  1  0  0  0  0
  7  8  2  0  0  0  0
  7  9  1  0  0  0  0
  9 10  1  0  0  0  0
  9 23  1  0  0  0  0
 10 11  1  0  0  0  0
 10 12  1  0  0  0  0
 10 24  1  0  0  0  0
 11 25  1  0  0  0  0
 11 26  1  0  0  0  0
 11 27  1  0  0  0  0
 12 13  1  0  0  0  0
 12 28  1  0  0  0  0
 12 29  1  0  0  0  0
 13 18  1  0  0  0  0
 13 14  1  0  0  0  0
 13 38  1  0  0  0  0
 14 15  1  0  0  0  0
 14 30  1  0  0  0  0
 14 31  1  0  0  0  0
 15 16  1  0  0  0  0
 15 32  1  0  0  0  0
 15 33  1  0  0  0  0
 16 17  1  0  0  0  0
 17 18  1  0  0  0  0
 17 34  1  0  0  0  0
 17 35  1  0  0  0  0
 18 36  1  0  0  0  0
 18 37  1  0  0  0  0
M  CHG  1   6  -1
M  CHG  1  13   1
M  END
> <s_m_source_file>
AV-unprocessed.smi

> <i_m_source_file_index>
1999

> <i_lp_mmshare_version>
43012

> <i_f3d_flags>
0

> <s_epik_input>
W0NIM11jMW5uYyhzMSlbTkhdQyg9TylbTkhdW0NASF0oW0NIM10pW0NIMl1OMltDSDJdW0NIMl1PW0NIMl1bQ0gyXTI=

> <s_epik_cmdline>
J2VwaWtfcHl0aG9uJywgJy1waCcsICc3LjAnLCAnLXRuJywgJzgnLCAnLW1hJywgJzIwMCcsICctbWV0YWxfYmluZGluZycsICctaW1hZScsICc8aW5maWxlLm1hZT4nLCAnLW9tYWUnLCAnPG91dGZpbGUubWFlPic=

> <r_lp_tautomer_probability>
1

> <r_epik_Ionization_Penalty>
3.39984

> <r_epik_Ionization_Penalty_Charging>
3.28696

> <r_epik_Ionization_Penalty_Neutral>
0.11288

> <r_epik_State_Penalty>
3.47917

> <r_epik_Charging_Adjusted_Penalty>
6.76613

> <i_epik_Tot_Q>
0

> <i_epik_Tot_abs_Q>
2

> <r_epik_Metal_State_Penalty>
1.13142

> <b_epik_Metal_Only>
1

> <s_lp_Force_Field>
OPLS_2005

> <r_lp_Energy>
12.288

> <b_lp_Chiralities_Consistent>
1

> <s_lp_Variant>
AV-unprocessed.smi:1999-7

> <Gold.Version>
5.8.1

> <Gold.Id.Protein>
6NUR|6NUR_protein|mol2

> <Gold.PLP.Fitness>
40.2816

> <Gold.PLP.PLP>
-27.6127

> <Gold.PLP.part.hbond>
-4.0000

> <Gold.PLP.part.metal>
0.0000

> <Gold.PLP.part.buried>
-2.8793

> <Gold.PLP.part.nonpolar>
-20.8172

> <Gold.PLP.part.repulsive>
0.1357

> <Gold.PLP.ligand.clash>
0.0000

> <Gold.PLP.ligand.torsion>
0.8978

> <Gold.PLP.Chemscore.Hbond>
4.7840

> <Gold.PLP.Chemscore.CHOScore>
0.0000

> <Gold.PLP.Chemscore.Metal>
0.0000

> <Gold.Chemscore.Hbonds>
donor molecule, donor type, donor heavy atom, donor atom, acceptor molecule, acceptor atom, score
      L1  H    13    38       P1  7948  2.00
      P1  H  6896  6907       L1     8  0.89
      P1  H  6931  6943       L1     4  1.00
      P1  H  6934  6947       L1     4  0.52

> <Gold.PLP.Chemscore.Internal.Correction>
0.1125

> <Gold.Rescore>
     Score         DG    S(hbond)    S(metal)    S(lipo)     H(rot)  DE(clash)    DE(int)     intcor
     15.96     -18.45       3.24        0.00      53.35       1.60       0.07       2.42       ----

> <Gold.Chemscore.Fitness>
15.9561

> <Gold.Chemscore.DG>
-18.4473

> <Gold.Chemscore.ZeroCoef>
-5.4800

> <Gold.Chemscore.Hbond>
3.2427

> <Gold.Chemscore.Metal>
0.0000

> <Gold.Chemscore.Lipo>
53.3514

> <Gold.Chemscore.Internal_Hbond>
0.0000

> <Gold.Chemscore.DEClash>
0.0743

> <Gold.Chemscore.DEInternal>
2.4169

> <Gold.Chemscore.Rot>
1.6036

> <Gold.Chemscore.Internal.Correction>
   9.000000E+99

> <Gold.Chemscore.Hbonds>
donor molecule, donor type, donor heavy atom, donor atom, acceptor molecule, acceptor atom, score
      L1  H    13    38       P1  7948  0.94
      P1  H  6896  6907       L1     8  0.26
      P1  H  6931  6943       L1     4  0.96
      P1  H  6934  6947       L1     4  0.28

> <Gold.Chemscore.Hbond.Weighted>
-10.8305

> <Gold.Chemscore.Metal.Weighted>
-0.0000

> <Gold.Chemscore.Lipo.Weighted>
-6.2421

> <Gold.Chemscore.Internal_Hbond.Weighted>
0.0000

> <Gold.Chemscore.DEClash.Weighted>
0.0743

> <Gold.Chemscore.DEInternal.Weighted>
2.4169

> <Gold.Chemscore.Rot.Weighted>
4.1053

> <Gold.Chemscore.Internal.Correction.Weighted>
   9.000000E+99

> <Gold.Protein.RotatedTorsions>
[ 6907 6896 6895 6894 ] final  -78.42 input  -60.11 | X-H torsion
[ 7974 7965 7964 7962 ] final   12.26 input  175.53 | X-H torsion
[ 8008 7997 7996 7995 ] final  -53.70 input   59.86 | X-H torsion
[ 10167 10162 10161 10158 ] final  -24.54 input  -65.29 | X-H torsion
[ 10718 10713 10712 10709 ] final -169.15 input   66.30 | X-H torsion
[ 10763 10752 10751 10750 ] final  -73.12 input  -60.55 | X-H torsion
[ 11005 11000 10999 10996 ] final   53.51 input  -57.11 | X-H torsion

> <Gold.Protein.ActiveResidues>
 VAL166  LYS551  ARG553  GLY616  TRP617  ASP618  TYR619  PRO620  LYS621  CYS622 
 ASP623  PHE694  ASN695  SER759  ASP760  ASP761  ALA762  ILE779  LEU786  VAL792 
 PHE793  MET794  SER795  GLU796  ALA797  LYS798  CYS799  TRP800  GLU811  SER814 

> <Gold.Protein.RotatedAtoms>
  150.6973  134.4275  159.5232 H   0  0  0  0  0  0  0  0  0  0  0  0  # atno 6907 bound_to 6896
  152.2007  134.8587  160.0517 H   0  0  0  0  0  0  0  0  0  0  0  0  # atno 6908 bound_to 6896
  151.9508  133.3630  159.4036 H   0  0  0  0  0  0  0  0  0  0  0  0  # atno 6909 bound_to 6896
  146.2355  139.9363  142.8489 H   0  0  0  0  0  0  0  0  0  0  0  0  # atno 7974 bound_to 7965
  154.4141  140.1193  156.5197 H   0  0  0  0  0  0  0  0  0  0  0  0  # atno 8008 bound_to 7997
  155.6715  140.3496  155.4801 H   0  0  0  0  0  0  0  0  0  0  0  0  # atno 8009 bound_to 7997
  155.9628  140.1126  157.0870 H   0  0  0  0  0  0  0  0  0  0  0  0  # atno 8010 bound_to 7997
  140.7288  143.4344  151.0753 H   0  0  0  0  0  0  0  0  0  0  0  0  # atno 10167 bound_to 10162
  156.7073  130.9220  151.3086 H   0  0  0  0  0  0  0  0  0  0  0  0  # atno 10718 bound_to 10713
  154.4551  135.5907  153.6217 H   0  0  0  0  0  0  0  0  0  0  0  0  # atno 10763 bound_to 10752
  152.9817  135.6030  154.3556 H   0  0  0  0  0  0  0  0  0  0  0  0  # atno 10764 bound_to 10752
  154.3422  135.2841  155.2395 H   0  0  0  0  0  0  0  0  0  0  0  0  # atno 10765 bound_to 10752
  140.0761  134.5403  155.8995 H   0  0  0  0  0  0  0  0  0  0  0  0  # atno 11005 bound_to 11000
  145.1996  140.9848  143.4163 LP  0  0  0  0  0  0  0  0  0  0  0  0  # atno 17320 bound_to 7965
  144.9785  139.3807  143.6273 LP  0  0  0  0  0  0  0  0  0  0  0  0  # atno 17321 bound_to 7965
  139.8004  143.8092  152.3162 LP  0  0  0  0  0  0  0  0  0  0  0  0  # atno 17342 bound_to 10162
  139.8106  144.7337  150.9702 LP  0  0  0  0  0  0  0  0  0  0  0  0  # atno 17343 bound_to 10162
  157.6950  130.9272  150.0618 LP  0  0  0  0  0  0  0  0  0  0  0  0  # atno 17370 bound_to 10713
  156.1686  130.3646  149.9197 LP  0  0  0  0  0  0  0  0  0  0  0  0  # atno 17371 bound_to 10713
  141.2030  133.6629  156.6037 LP  0  0  0  0  0  0  0  0  0  0  0  0  # atno 17394 bound_to 11000
  140.3556  134.7731  157.4498 LP  0  0  0  0  0  0  0  0  0  0  0  0  # atno 17395 bound_to 11000

$$$$
