AV-unprocessed.smi:2001|AV-procd|sdf|8106|dock2
  -GOLD-   2272010333D 1   1.00000     0.00000
 Structure written by MMmdl.
 51 52  0  0  0  0  0  0  0  0  2 V2000
  152.4689  141.7463  159.6770 C   0  0  0  0  0  0  0  0  0  0  0  0
  151.1578  141.8409  159.1499 O   0  0  0  0  0  0  0  0  0  0  0  0
  150.8610  140.8011  158.2326 C   0  0  0  0  0  0  0  0  0  0  0  0
  151.8375  140.8541  157.0458 C   0  0  0  0  0  0  0  0  0  0  0  0
  151.4352  139.9449  155.9661 N   0  0  0  0  0  0  0  0  0  0  0  0
  150.1983  140.2392  155.4147 N   0  0  0  0  0  0  0  0  0  0  0  0
  149.7320  139.5222  154.4438 C   0  0  0  0  0  0  0  0  0  0  0  0
  148.4042  139.8001  153.8285 C   0  0  0  0  0  0  0  0  0  0  0  0
  147.7842  140.8399  154.0580 O   0  0  0  0  0  0  0  0  0  0  0  0
  147.9353  138.8453  153.0064 N   0  0  0  0  0  0  0  0  0  0  0  0
  146.6720  138.9320  152.2875 C   0  0  0  0  0  0  0  0  0  0  0  0
  146.5189  137.7526  151.3138 C   0  0  0  0  0  0  0  0  0  0  0  0
  146.4317  136.4494  152.0189 N   0  3  1  0  0  0  0  0  0  0  0  0
  145.7056  136.5496  153.3070 C   0  0  0  0  0  0  0  0  0  0  0  0
  145.6984  135.1983  154.0487 C   0  0  2  0  0  0  0  0  0  0  0  0
  147.0564  134.8342  154.6749 C   0  0  0  0  0  0  0  0  0  0  0  0
  145.2041  134.1679  153.1930 O   0  0  0  0  0  0  0  0  0  0  0  0
  145.9026  134.0265  151.9588 C   0  0  1  0  0  0  0  0  0  0  0  0
  145.2452  132.8874  151.1715 C   0  0  0  0  0  0  0  0  0  0  0  0
  145.8598  135.3601  151.1912 C   0  0  0  0  0  0  0  0  0  0  0  0
  150.4920  138.4036  153.9126 C   0  0  0  0  0  0  0  0  0  0  0  0
  151.6938  138.1257  154.4631 C   0  0  0  0  0  0  0  0  0  0  0  0
  152.2430  138.9166  155.5657 C   0  0  0  0  0  0  0  0  0  0  0  0
  153.3331  138.6777  156.0841 O   0  0  0  0  0  0  0  0  0  0  0  0
  152.6445  142.5695  160.3694 H   0  0  0  0  0  0  0  0  0  0  0  0
  153.2183  141.8064  158.8868 H   0  0  0  0  0  0  0  0  0  0  0  0
  152.6081  140.8120  160.2219 H   0  0  0  0  0  0  0  0  0  0  0  0
  150.9566  139.8389  158.7375 H   0  0  0  0  0  0  0  0  0  0  0  0
  149.8307  140.8812  157.8821 H   0  0  0  0  0  0  0  0  0  0  0  0
  151.9423  141.8800  156.6887 H   0  0  0  0  0  0  0  0  0  0  0  0
  152.8324  140.5713  157.3939 H   0  0  0  0  0  0  0  0  0  0  0  0
  148.4966  138.0172  152.8669 H   0  0  0  0  0  0  0  0  0  0  0  0
  145.8613  138.9457  153.0163 H   0  0  0  0  0  0  0  0  0  0  0  0
  146.6311  139.8747  151.7392 H   0  0  0  0  0  0  0  0  0  0  0  0
  145.6052  137.9056  150.7371 H   0  0  0  0  0  0  0  0  0  0  0  0
  147.3393  137.7320  150.5945 H   0  0  0  0  0  0  0  0  0  0  0  0
  146.1586  137.3156  153.9380 H   0  0  0  0  0  0  0  0  0  0  0  0
  144.6802  136.8679  153.1122 H   0  0  0  0  0  0  0  0  0  0  0  0
  144.9851  135.2749  154.8699 H   0  0  0  0  0  0  0  0  0  0  0  0
  147.3446  135.5701  155.4259 H   0  0  0  0  0  0  0  0  0  0  0  0
  147.8570  134.7956  153.9368 H   0  0  0  0  0  0  0  0  0  0  0  0
  147.0088  133.8630  155.1679 H   0  0  0  0  0  0  0  0  0  0  0  0
  146.9389  133.7479  152.1507 H   0  0  0  0  0  0  0  0  0  0  0  0
  145.7444  132.7312  150.2147 H   0  0  0  0  0  0  0  0  0  0  0  0
  144.1948  133.0998  150.9704 H   0  0  0  0  0  0  0  0  0  0  0  0
  145.2947  131.9505  151.7269 H   0  0  0  0  0  0  0  0  0  0  0  0
  144.8320  135.6087  150.9207 H   0  0  0  0  0  0  0  0  0  0  0  0
  146.4176  135.2548  150.2614 H   0  0  0  0  0  0  0  0  0  0  0  0
  150.1124  137.8032  153.0987 H   0  0  0  0  0  0  0  0  0  0  0  0
  152.2688  137.2962  154.0784 H   0  0  0  0  0  0  0  0  0  0  0  0
  147.3785  136.1824  152.2486 H   0  0  0  0  0  0  0  0  0  0  0  0
  1  2  1  0  0  0  0
  1 25  1  0  0  0  0
  1 26  1  0  0  0  0
  1 27  1  0  0  0  0
  2  3  1  0  0  0  0
  3  4  1  0  0  0  0
  3 28  1  0  0  0  0
  3 29  1  0  0  0  0
  4  5  1  0  0  0  0
  4 30  1  0  0  0  0
  4 31  1  0  0  0  0
  5 23  1  0  0  0  0
  5  6  1  0  0  0  0
  6  7  2  0  0  0  0
  7  8  1  0  0  0  0
  7 21  1  0  0  0  0
  8  9  2  0  0  0  0
  8 10  1  0  0  0  0
 10 11  1  0  0  0  0
 10 32  1  0  0  0  0
 11 12  1  0  0  0  0
 11 33  1  0  0  0  0
 11 34  1  0  0  0  0
 12 13  1  0  0  0  0
 12 35  1  0  0  0  0
 12 36  1  0  0  0  0
 13 20  1  0  0  0  0
 13 14  1  0  0  0  0
 13 51  1  0  0  0  0
 14 15  1  0  0  0  0
 14 37  1  0  0  0  0
 14 38  1  0  0  0  0
 15 16  1  0  0  0  0
 15 17  1  0  0  0  0
 15 39  1  0  0  0  0
 16 40  1  0  0  0  0
 16 41  1  0  0  0  0
 16 42  1  0  0  0  0
 17 18  1  0  0  0  0
 18 19  1  0  0  0  0
 18 20  1  0  0  0  0
 18 43  1  0  0  0  0
 19 44  1  0  0  0  0
 19 45  1  0  0  0  0
 19 46  1  0  0  0  0
 20 47  1  0  0  0  0
 20 48  1  0  0  0  0
 21 22  2  0  0  0  0
 21 49  1  0  0  0  0
 22 23  1  0  0  0  0
 22 50  1  0  0  0  0
 23 24  2  0  0  0  0
M  CHG  1  13   1
M  END
> <s_m_source_file>
AV-unprocessed.smi

> <i_m_source_file_index>
2001

> <i_lp_mmshare_version>
43012

> <i_f3d_flags>
0

> <s_epik_input>
W0NIM11PW0NIMl1bQ0gyXW4xbmMoW2NIXVtjSF1jMT1PKUMoPU8pW05IXVtDSDJdW0NIMl1OMltDSDJdW0NAQEhdKFtDSDNdKU9bQ0BASF0oW0NIM10pW0NIMl0y

> <s_epik_cmdline>
J2VwaWtfcHl0aG9uJywgJy1waCcsICc3LjAnLCAnLXRuJywgJzgnLCAnLW1hJywgJzIwMCcsICctbWV0YWxfYmluZGluZycsICctaW1hZScsICc8aW5maWxlLm1hZT4nLCAnLW9tYWUnLCAnPG91dGZpbGUubWFlPic=

> <r_lp_tautomer_probability>
1

> <r_epik_Ionization_Penalty>
0.724354

> <r_epik_Ionization_Penalty_Charging>
0.724348

> <r_epik_Ionization_Penalty_Neutral>
6.1656e-06

> <r_epik_State_Penalty>
0.749058

> <r_epik_Charging_Adjusted_Penalty>
1.47341

> <i_epik_Tot_Q>
1

> <i_epik_Tot_abs_Q>
1

> <r_epik_Metal_State_Penalty>
0.750779

> <b_epik_Metal_Only>
0

> <s_lp_Force_Field>
OPLS_2005

> <r_lp_Energy>
40.2507

> <b_lp_Chiralities_Consistent>
1

> <s_lp_Variant>
AV-unprocessed.smi:2001-5

> <Gold.Version>
5.8.1

> <Gold.Id.Protein>
6NUR|6NUR_protein|mol2

> <Gold.PLP.Fitness>
50.9836

> <Gold.PLP.PLP>
-39.8996

> <Gold.PLP.part.hbond>
-3.9695

> <Gold.PLP.part.metal>
0.0000

> <Gold.PLP.part.buried>
-0.6334

> <Gold.PLP.part.nonpolar>
-34.6207

> <Gold.PLP.part.repulsive>
0.3797

> <Gold.PLP.ligand.clash>
0.0623

> <Gold.PLP.ligand.torsion>
0.3338

> <Gold.PLP.Chemscore.Hbond>
3.8545

> <Gold.PLP.Chemscore.CHOScore>
0.0000

> <Gold.PLP.Chemscore.Metal>
0.0000

> <Gold.Chemscore.Hbonds>
donor molecule, donor type, donor heavy atom, donor atom, acceptor molecule, acceptor atom, score
      L1  H    10    32       P1  7948  0.88
      L1  H    13    51       P1  7948  1.89
      P1  H  7997  8010       L1    24  0.94

> <Gold.PLP.Chemscore.Internal.Correction>
0.2505

> <Gold.Rescore>
     Score         DG    S(hbond)    S(metal)    S(lipo)     H(rot)  DE(clash)    DE(int)     intcor
     18.31     -19.71       2.82        0.00      86.37       2.07       1.07       0.33       ----

> <Gold.Chemscore.Fitness>
18.3100

> <Gold.Chemscore.DG>
-19.7145

> <Gold.Chemscore.ZeroCoef>
-5.4800

> <Gold.Chemscore.Hbond>
2.8244

> <Gold.Chemscore.Metal>
0.0000

> <Gold.Chemscore.Lipo>
86.3728

> <Gold.Chemscore.Internal_Hbond>
0.0000

> <Gold.Chemscore.DEClash>
1.0748

> <Gold.Chemscore.DEInternal>
0.3297

> <Gold.Chemscore.Rot>
2.0721

> <Gold.Chemscore.Internal.Correction>
   9.000000E+99

> <Gold.Chemscore.Hbonds>
donor molecule, donor type, donor heavy atom, donor atom, acceptor molecule, acceptor atom, score
      L1  H    10    32       P1  7948  0.82
      L1  H    13    51       P1  7948  0.90
      P1  H  7997  8010       L1    24  0.78

> <Gold.Chemscore.Hbond.Weighted>
-9.4336

> <Gold.Chemscore.Metal.Weighted>
-0.0000

> <Gold.Chemscore.Lipo.Weighted>
-10.1056

> <Gold.Chemscore.Internal_Hbond.Weighted>
0.0000

> <Gold.Chemscore.DEClash.Weighted>
1.0748

> <Gold.Chemscore.DEInternal.Weighted>
0.3297

> <Gold.Chemscore.Rot.Weighted>
5.3047

> <Gold.Chemscore.Internal.Correction.Weighted>
   9.000000E+99

> <Gold.Protein.RotatedTorsions>
[ 6907 6896 6895 6894 ] final   19.18 input  -60.11 | X-H torsion
[ 7974 7965 7964 7962 ] final  124.05 input  175.53 | X-H torsion
[ 8008 7997 7996 7995 ] final   84.83 input   59.86 | X-H torsion
[ 10167 10162 10161 10158 ] final -118.98 input  -65.29 | X-H torsion
[ 10718 10713 10712 10709 ] final  109.38 input   66.30 | X-H torsion
[ 10763 10752 10751 10750 ] final   87.36 input  -60.55 | X-H torsion
[ 11005 11000 10999 10996 ] final   -1.15 input  -57.11 | X-H torsion

> <Gold.Protein.ActiveResidues>
 VAL166  LYS551  ARG553  GLY616  TRP617  ASP618  TYR619  PRO620  LYS621  CYS622 
 ASP623  PHE694  ASN695  SER759  ASP760  ASP761  ALA762  ILE779  LEU786  VAL792 
 PHE793  MET794  SER795  GLU796  ALA797  LYS798  CYS799  TRP800  GLU811  SER814 

> <Gold.Protein.RotatedAtoms>
  151.8769  135.0468  160.0484 H   0  0  0  0  0  0  0  0  0  0  0  0  # atno 6907 bound_to 6896
  152.2544  133.5238  159.5352 H   0  0  0  0  0  0  0  0  0  0  0  0  # atno 6908 bound_to 6896
  150.7094  134.0832  159.3948 H   0  0  0  0  0  0  0  0  0  0  0  0  # atno 6909 bound_to 6896
  145.0889  139.3601  143.4871 H   0  0  0  0  0  0  0  0  0  0  0  0  # atno 7974 bound_to 7965
  155.9422  140.3407  155.6337 H   0  0  0  0  0  0  0  0  0  0  0  0  # atno 8008 bound_to 7997
  155.7025  140.0762  157.2423 H   0  0  0  0  0  0  0  0  0  0  0  0  # atno 8009 bound_to 7997
  154.4105  140.1637  156.2194 H   0  0  0  0  0  0  0  0  0  0  0  0  # atno 8010 bound_to 7997
  140.0516  143.5054  152.2079 H   0  0  0  0  0  0  0  0  0  0  0  0  # atno 10167 bound_to 10162
  157.6544  131.0912  150.6445 H   0  0  0  0  0  0  0  0  0  0  0  0  # atno 10718 bound_to 10713
  153.1661  135.4546  154.9839 H   0  0  0  0  0  0  0  0  0  0  0  0  # atno 10763 bound_to 10752
  154.7933  135.3228  154.7729 H   0  0  0  0  0  0  0  0  0  0  0  0  # atno 10764 bound_to 10752
  153.8212  135.6946  153.4881 H   0  0  0  0  0  0  0  0  0  0  0  0  # atno 10765 bound_to 10752
  140.6441  133.9463  155.8343 H   0  0  0  0  0  0  0  0  0  0  0  0  # atno 11005 bound_to 11000
  146.3531  140.0714  142.8623 LP  0  0  0  0  0  0  0  0  0  0  0  0  # atno 17320 bound_to 7965
  145.1090  140.9393  143.4668 LP  0  0  0  0  0  0  0  0  0  0  0  0  # atno 17321 bound_to 7965
  139.5949  144.7563  151.3309 LP  0  0  0  0  0  0  0  0  0  0  0  0  # atno 17342 bound_to 10162
  140.7214  143.7125  150.7758 LP  0  0  0  0  0  0  0  0  0  0  0  0  # atno 17343 bound_to 10162
  156.6753  130.4551  149.5644 LP  0  0  0  0  0  0  0  0  0  0  0  0  # atno 17370 bound_to 10713
  156.1968  130.6594  151.1123 LP  0  0  0  0  0  0  0  0  0  0  0  0  # atno 17371 bound_to 10713
  141.0585  134.0381  157.3690 LP  0  0  0  0  0  0  0  0  0  0  0  0  # atno 17394 bound_to 11000
  139.9069  135.0181  156.7526 LP  0  0  0  0  0  0  0  0  0  0  0  0  # atno 17395 bound_to 11000

$$$$
