AV-unprocessed.smi:1216|AV-procd|sdf|5099|dock9
  -GOLD-   22720 4153D 1   1.00000     0.00000
 Structure written by MMmdl.
 43 44  0  0  0  0  0  0  0  0  2 V2000
  145.4838  135.3657  152.9658 C   0  0  0  0  0  0  0  0  0  0  0  0
  146.2414  134.0320  153.0174 C   0  0  1  0  0  0  0  0  0  0  0  0
  146.5892  133.5336  151.5978 C   0  0  0  0  0  0  0  0  0  0  0  0
  145.4163  133.0829  150.8410 N   0  0  0  0  0  0  0  0  0  0  0  0
  145.1818  131.8298  150.3351 C   0  0  0  0  0  0  0  0  0  0  0  0
  143.9606  131.8818  149.7139 C   0  0  0  0  0  0  0  0  0  0  0  0
  143.5051  133.1646  149.8609 N   0  3  0  0  0  0  0  0  0  0  0  0
  144.3935  133.8945  150.5428 C   0  0  0  0  0  0  0  0  0  0  0  0
  147.4470  134.2071  153.8259 N   0  0  0  0  0  0  0  0  0  0  0  0
  148.4101  133.2908  154.0124 C   0  0  0  0  0  0  0  0  0  0  0  0
  148.4021  132.1826  153.4742 O   0  0  0  0  0  0  0  0  0  0  0  0
  149.5673  133.7137  154.9271 C   0  0  0  0  0  0  0  0  0  0  0  0
  149.9303  132.6895  155.9184 N   0  0  0  0  0  0  0  0  0  0  0  0
  150.1648  131.3289  155.4090 C   0  0  0  0  0  0  0  0  0  0  0  0
  151.6455  130.8876  155.4703 C   0  0  0  0  0  0  0  0  0  0  0  0
  152.4874  131.4866  156.6142 C   0  0  0  0  0  0  0  0  0  0  0  0
  151.8754  131.3366  158.0229 C   0  0  0  0  0  0  0  0  0  0  0  0
  150.4338  131.8670  158.2107 C   0  0  0  0  0  0  0  0  0  0  0  0
  150.0367  132.9894  157.2377 C   0  0  0  0  0  0  0  0  0  0  0  0
  149.8292  134.1170  157.6870 O   0  0  0  0  0  0  0  0  0  0  0  0
  144.5574  135.2695  152.3987 H   0  0  0  0  0  0  0  0  0  0  0  0
  146.0822  136.1460  152.4942 H   0  0  0  0  0  0  0  0  0  0  0  0
  145.2197  135.7074  153.9674 H   0  0  0  0  0  0  0  0  0  0  0  0
  145.5805  133.3083  153.4981 H   0  0  0  0  0  0  0  0  0  0  0  0
  147.0580  134.3310  151.0194 H   0  0  0  0  0  0  0  0  0  0  0  0
  147.3061  132.7120  151.6390 H   0  0  0  0  0  0  0  0  0  0  0  0
  145.8800  131.0145  150.4573 H   0  0  0  0  0  0  0  0  0  0  0  0
  143.3967  131.1226  149.1918 H   0  0  0  0  0  0  0  0  0  0  0  0
  144.2988  134.9325  150.8081 H   0  0  0  0  0  0  0  0  0  0  0  0
  147.5441  135.0910  154.3050 H   0  0  0  0  0  0  0  0  0  0  0  0
  150.4274  133.9564  154.3021 H   0  0  0  0  0  0  0  0  0  0  0  0
  149.3083  134.6455  155.4335 H   0  0  0  0  0  0  0  0  0  0  0  0
  149.5461  130.6253  155.9664 H   0  0  0  0  0  0  0  0  0  0  0  0
  149.8070  131.2348  154.3829 H   0  0  0  0  0  0  0  0  0  0  0  0
  151.6860  129.7990  155.5183 H   0  0  0  0  0  0  0  0  0  0  0  0
  152.1266  131.1572  154.5296 H   0  0  0  0  0  0  0  0  0  0  0  0
  153.4726  131.0195  156.6069 H   0  0  0  0  0  0  0  0  0  0  0  0
  152.6757  132.5416  156.4103 H   0  0  0  0  0  0  0  0  0  0  0  0
  151.8962  130.2838  158.3069 H   0  0  0  0  0  0  0  0  0  0  0  0
  152.5294  131.8426  158.7341 H   0  0  0  0  0  0  0  0  0  0  0  0
  149.7186  131.0500  158.1176 H   0  0  0  0  0  0  0  0  0  0  0  0
  150.3148  132.2232  159.2349 H   0  0  0  0  0  0  0  0  0  0  0  0
  142.6227  133.5129  149.5077 H   0  0  0  0  0  0  0  0  0  0  0  0
  1  2  1  0  0  0  0
  1 21  1  0  0  0  0
  1 22  1  0  0  0  0
  1 23  1  0  0  0  0
  2  3  1  0  0  0  0
  2  9  1  0  0  0  0
  2 24  1  0  0  0  0
  3  4  1  0  0  0  0
  3 25  1  0  0  0  0
  3 26  1  0  0  0  0
  4  8  1  0  0  0  0
  4  5  1  0  0  0  0
  5  6  2  0  0  0  0
  5 27  1  0  0  0  0
  6  7  1  0  0  0  0
  6 28  1  0  0  0  0
  7  8  2  0  0  0  0
  7 43  1  0  0  0  0
  8 29  1  0  0  0  0
  9 10  1  0  0  0  0
  9 30  1  0  0  0  0
 10 11  2  0  0  0  0
 10 12  1  0  0  0  0
 12 13  1  0  0  0  0
 12 31  1  0  0  0  0
 12 32  1  0  0  0  0
 13 19  1  0  0  0  0
 13 14  1  0  0  0  0
 14 15  1  0  0  0  0
 14 33  1  0  0  0  0
 14 34  1  0  0  0  0
 15 16  1  0  0  0  0
 15 35  1  0  0  0  0
 15 36  1  0  0  0  0
 16 17  1  0  0  0  0
 16 37  1  0  0  0  0
 16 38  1  0  0  0  0
 17 18  1  0  0  0  0
 17 39  1  0  0  0  0
 17 40  1  0  0  0  0
 18 19  1  0  0  0  0
 18 41  1  0  0  0  0
 18 42  1  0  0  0  0
 19 20  2  0  0  0  0
M  CHG  1   7   1
M  END
> <s_m_source_file>
AV-unprocessed.smi

> <i_m_source_file_index>
1216

> <i_lp_mmshare_version>
43012

> <i_f3d_flags>
0

> <s_epik_input>
W2NIXTFuW2NIXVtjSF1uMVtDSDJdW0NAQEhdKFtDSDNdKVtOSF1DKD1PKVtDSDJdTjJbQ0gyXVtDSDJdW0NIMl1bQ0gyXVtDSDJdQzI9Tw==

> <s_epik_cmdline>
J2VwaWtfcHl0aG9uJywgJy1waCcsICc3LjAnLCAnLXRuJywgJzgnLCAnLW1hJywgJzIwMCcsICctbWV0YWxfYmluZGluZycsICctaW1hZScsICc8aW5maWxlLm1hZT4nLCAnLW9tYWUnLCAnPG91dGZpbGUubWFlPic=

> <r_lp_tautomer_probability>
1

> <r_epik_Ionization_Penalty>
0.254232

> <r_epik_Ionization_Penalty_Charging>
0

> <r_epik_Ionization_Penalty_Neutral>
0.254232

> <r_epik_State_Penalty>
0.245698

> <r_epik_Charging_Adjusted_Penalty>
0.245698

> <i_epik_Tot_Q>
1

> <i_epik_Tot_abs_Q>
1

> <r_epik_Metal_State_Penalty>
0.535799

> <b_epik_Metal_Only>
0

> <s_lp_Force_Field>
OPLS_2005

> <r_lp_Energy>
21.2202

> <b_lp_Chiralities_Consistent>
1

> <s_lp_Variant>
AV-unprocessed.smi:1216-2

> <Gold.Version>
5.8.1

> <Gold.Id.Protein>
6NUR|6NUR_protein|mol2

> <Gold.PLP.Fitness>
44.1107

> <Gold.PLP.PLP>
-35.7959

> <Gold.PLP.part.hbond>
-3.0000

> <Gold.PLP.part.metal>
0.0000

> <Gold.PLP.part.buried>
-5.3044

> <Gold.PLP.part.nonpolar>
-27.9259

> <Gold.PLP.part.repulsive>
0.1917

> <Gold.PLP.ligand.clash>
0.0000

> <Gold.PLP.ligand.torsion>
0.3428

> <Gold.PLP.Chemscore.Hbond>
2.9920

> <Gold.PLP.Chemscore.CHOScore>
0.0000

> <Gold.PLP.Chemscore.Metal>
0.0000

> <Gold.Chemscore.Hbonds>
donor molecule, donor type, donor heavy atom, donor atom, acceptor molecule, acceptor atom, score
      L1  H     7    43       P1 10186  2.00
      P1  H  6896  6908       L1    20  0.43

> <Gold.PLP.Chemscore.Internal.Correction>
0.0243

> <Gold.Rescore>
     Score         DG    S(hbond)    S(metal)    S(lipo)     H(rot)  DE(clash)    DE(int)     intcor
     11.51     -13.26       1.97        0.00      58.92       2.22       0.06       1.70       ----

> <Gold.Chemscore.Fitness>
11.5074

> <Gold.Chemscore.DG>
-13.2641

> <Gold.Chemscore.ZeroCoef>
-5.4800

> <Gold.Chemscore.Hbond>
1.9651

> <Gold.Chemscore.Metal>
0.0000

> <Gold.Chemscore.Lipo>
58.9233

> <Gold.Chemscore.Internal_Hbond>
0.0000

> <Gold.Chemscore.DEClash>
0.0576

> <Gold.Chemscore.DEInternal>
1.6990

> <Gold.Chemscore.Rot>
2.2161

> <Gold.Chemscore.Internal.Correction>
   9.000000E+99

> <Gold.Chemscore.Hbonds>
donor molecule, donor type, donor heavy atom, donor atom, acceptor molecule, acceptor atom, score
      L1  H     7    43       P1 10186  0.99
      P1  H  6896  6908       L1    20  0.02

> <Gold.Chemscore.Hbond.Weighted>
-6.5633

> <Gold.Chemscore.Metal.Weighted>
-0.0000

> <Gold.Chemscore.Lipo.Weighted>
-6.8940

> <Gold.Chemscore.Internal_Hbond.Weighted>
0.0000

> <Gold.Chemscore.DEClash.Weighted>
0.0576

> <Gold.Chemscore.DEInternal.Weighted>
1.6990

> <Gold.Chemscore.Rot.Weighted>
5.6733

> <Gold.Chemscore.Internal.Correction.Weighted>
   9.000000E+99

> <Gold.Protein.RotatedTorsions>
[ 6907 6896 6895 6894 ] final  111.70 input  -60.11 | X-H torsion
[ 7974 7965 7964 7962 ] final -113.92 input  175.53 | X-H torsion
[ 8008 7997 7996 7995 ] final   22.50 input   59.86 | X-H torsion
[ 10167 10162 10161 10158 ] final  -50.56 input  -65.29 | X-H torsion
[ 10718 10713 10712 10709 ] final  156.94 input   66.30 | X-H torsion
[ 10763 10752 10751 10750 ] final   64.47 input  -60.55 | X-H torsion
[ 11005 11000 10999 10996 ] final -101.87 input  -57.11 | X-H torsion

> <Gold.Protein.ActiveResidues>
 VAL166  LYS551  ARG553  GLY616  TRP617  ASP618  TYR619  PRO620  LYS621  CYS622 
 ASP623  PHE694  ASN695  SER759  ASP760  ASP761  ALA762  ILE779  LEU786  VAL792 
 PHE793  MET794  SER795  GLU796  ALA797  LYS798  CYS799  TRP800  GLU811  SER814 

> <Gold.Protein.RotatedAtoms>
  152.4956  133.8621  159.7255 H   0  0  0  0  0  0  0  0  0  0  0  0  # atno 6907 bound_to 6896
  150.9130  133.6965  159.2857 H   0  0  0  0  0  0  0  0  0  0  0  0  # atno 6908 bound_to 6896
  151.4368  135.1020  159.9711 H   0  0  0  0  0  0  0  0  0  0  0  0  # atno 6909 bound_to 6896
  145.1263  140.8699  143.3784 H   0  0  0  0  0  0  0  0  0  0  0  0  # atno 7974 bound_to 7965
  154.9666  140.3085  155.5007 H   0  0  0  0  0  0  0  0  0  0  0  0  # atno 8008 bound_to 7997
  156.2971  140.2291  156.4694 H   0  0  0  0  0  0  0  0  0  0  0  0  # atno 8009 bound_to 7997
  154.7915  140.0439  157.1193 H   0  0  0  0  0  0  0  0  0  0  0  0  # atno 8010 bound_to 7997
  140.6632  143.2653  151.4376 H   0  0  0  0  0  0  0  0  0  0  0  0  # atno 10167 bound_to 10162
  157.1982  131.0670  151.2040 H   0  0  0  0  0  0  0  0  0  0  0  0  # atno 10718 bound_to 10713
  153.0057  135.5392  154.6515 H   0  0  0  0  0  0  0  0  0  0  0  0  # atno 10763 bound_to 10752
  154.5746  135.2844  155.0795 H   0  0  0  0  0  0  0  0  0  0  0  0  # atno 10764 bound_to 10752
  154.1948  135.6494  153.5122 H   0  0  0  0  0  0  0  0  0  0  0  0  # atno 10765 bound_to 10752
  141.1213  133.8513  157.1287 H   0  0  0  0  0  0  0  0  0  0  0  0  # atno 11005 bound_to 11000
  145.0684  139.3050  143.5844 LP  0  0  0  0  0  0  0  0  0  0  0  0  # atno 17320 bound_to 7965
  146.3517  140.0150  142.8663 LP  0  0  0  0  0  0  0  0  0  0  0  0  # atno 17321 bound_to 7965
  139.5872  144.1579  152.2043 LP  0  0  0  0  0  0  0  0  0  0  0  0  # atno 17342 bound_to 10162
  140.0922  144.5611  150.7046 LP  0  0  0  0  0  0  0  0  0  0  0  0  # atno 17343 bound_to 10162
  157.3794  130.7223  149.6619 LP  0  0  0  0  0  0  0  0  0  0  0  0  # atno 17370 bound_to 10713
  155.9703  130.4177  150.4290 LP  0  0  0  0  0  0  0  0  0  0  0  0  # atno 17371 bound_to 10713
  140.0172  134.9962  157.0519 LP  0  0  0  0  0  0  0  0  0  0  0  0  # atno 17394 bound_to 11000
  140.4499  134.1593  155.7180 LP  0  0  0  0  0  0  0  0  0  0  0  0  # atno 17395 bound_to 11000

$$$$
