AV-unprocessed.smi:3232|AV-procd|sdf|12339|dock4
  -GOLD-   2272018203D 1   1.00000     0.00000
 Structure written by MMmdl.
 40 41  0  0  0  0  0  0  0  0  2 V2000
  144.3603  134.5449  151.0461 C   0  0  0  0  0  0  0  0  0  0  0  0
  145.6064  135.4388  151.0982 C   0  0  0  0  0  0  0  0  0  0  0  0
  146.6746  134.8622  151.9501 N   0  3  2  0  0  0  0  0  0  0  0  0
  147.2193  133.5739  151.4727 C   0  0  0  0  0  0  0  0  0  0  0  0
  147.8288  132.9246  152.7078 C   0  0  0  0  0  0  0  0  0  0  0  0
  146.8609  133.3261  153.8152 C   0  0  0  0  0  0  0  0  0  0  0  0
  146.2936  134.6913  153.3754 C   0  0  1  0  0  0  0  0  0  0  0  0
  146.8156  135.8751  154.2160 C   0  0  0  0  0  0  0  0  0  0  0  0
  148.2727  135.9053  154.2856 N   0  0  0  0  0  0  0  0  0  0  0  0
  148.9938  135.7019  155.4001 C   0  0  0  0  0  0  0  0  0  0  0  0
  148.4774  135.4519  156.4901 O   0  0  0  0  0  0  0  0  0  0  0  0
  150.5233  135.7806  155.2493 C   0  0  2  0  0  0  0  0  0  0  0  0
  151.2800  135.0277  156.3627 C   0  0  0  0  0  0  0  0  0  0  0  0
  150.9607  137.1676  155.1429 N   0  0  0  0  0  0  0  0  0  0  0  0
  150.5151  138.1510  154.3581 C   0  0  0  0  0  0  0  0  0  0  0  0
  151.1241  139.3122  154.5514 N   0  0  0  0  0  0  0  0  0  0  0  0
  151.9926  138.9522  155.5423 C   0  0  0  0  0  0  0  0  0  0  0  0
  151.9297  137.6818  155.9408 N   0  0  0  0  0  0  0  0  0  0  0  0
  143.6152  134.9626  150.3687 H   0  0  0  0  0  0  0  0  0  0  0  0
  143.8925  134.4485  152.0260 H   0  0  0  0  0  0  0  0  0  0  0  0
  144.6075  133.5444  150.6900 H   0  0  0  0  0  0  0  0  0  0  0  0
  145.9925  135.5564  150.0848 H   0  0  0  0  0  0  0  0  0  0  0  0
  145.3442  136.4373  151.4513 H   0  0  0  0  0  0  0  0  0  0  0  0
  146.4117  132.9470  151.0906 H   0  0  0  0  0  0  0  0  0  0  0  0
  147.9485  133.7117  150.6738 H   0  0  0  0  0  0  0  0  0  0  0  0
  147.9402  131.8443  152.6098 H   0  0  0  0  0  0  0  0  0  0  0  0
  148.8142  133.3501  152.9031 H   0  0  0  0  0  0  0  0  0  0  0  0
  146.0508  132.5975  153.8693 H   0  0  0  0  0  0  0  0  0  0  0  0
  147.3444  133.3448  154.7923 H   0  0  0  0  0  0  0  0  0  0  0  0
  145.2056  134.6459  153.4539 H   0  0  0  0  0  0  0  0  0  0  0  0
  146.4773  136.8179  153.7846 H   0  0  0  0  0  0  0  0  0  0  0  0
  146.4047  135.8371  155.2265 H   0  0  0  0  0  0  0  0  0  0  0  0
  148.7687  136.1078  153.4294 H   0  0  0  0  0  0  0  0  0  0  0  0
  150.7714  135.2937  154.3048 H   0  0  0  0  0  0  0  0  0  0  0  0
  151.0015  133.9735  156.3862 H   0  0  0  0  0  0  0  0  0  0  0  0
  151.0773  135.4458  157.3496 H   0  0  0  0  0  0  0  0  0  0  0  0
  152.3571  135.0756  156.2000 H   0  0  0  0  0  0  0  0  0  0  0  0
  149.7254  138.0166  153.6333 H   0  0  0  0  0  0  0  0  0  0  0  0
  152.6871  139.6491  155.9880 H   0  0  0  0  0  0  0  0  0  0  0  0
  147.4463  135.5138  151.9483 H   0  0  0  0  0  0  0  0  0  0  0  0
  1  2  1  0  0  0  0
  1 19  1  0  0  0  0
  1 20  1  0  0  0  0
  1 21  1  0  0  0  0
  2  3  1  0  0  0  0
  2 22  1  0  0  0  0
  2 23  1  0  0  0  0
  3  7  1  0  0  0  0
  3  4  1  0  0  0  0
  3 40  1  0  0  0  0
  4  5  1  0  0  0  0
  4 24  1  0  0  0  0
  4 25  1  0  0  0  0
  5  6  1  0  0  0  0
  5 26  1  0  0  0  0
  5 27  1  0  0  0  0
  6  7  1  0  0  0  0
  6 28  1  0  0  0  0
  6 29  1  0  0  0  0
  7  8  1  0  0  0  0
  7 30  1  0  0  0  0
  8  9  1  0  0  0  0
  8 31  1  0  0  0  0
  8 32  1  0  0  0  0
  9 10  1  0  0  0  0
  9 33  1  0  0  0  0
 10 11  2  0  0  0  0
 10 12  1  0  0  0  0
 12 13  1  0  0  0  0
 12 14  1  0  0  0  0
 12 34  1  0  0  0  0
 13 35  1  0  0  0  0
 13 36  1  0  0  0  0
 13 37  1  0  0  0  0
 14 18  1  0  0  0  0
 14 15  1  0  0  0  0
 15 16  2  0  0  0  0
 15 38  1  0  0  0  0
 16 17  1  0  0  0  0
 17 18  2  0  0  0  0
 17 39  1  0  0  0  0
M  CHG  1   3   1
M  END
> <s_m_source_file>
AV-unprocessed.smi

> <i_m_source_file_index>
3232

> <i_lp_mmshare_version>
43012

> <i_f3d_flags>
0

> <s_epik_input>
W0NIM11bQ0gyXU4xW0NIMl1bQ0gyXVtDSDJdW0NASF0xW0NIMl1bTkhdQyg9TylbQ0BIXShbQ0gzXSluMltjSF1uW2NIXW4y

> <s_epik_cmdline>
J2VwaWtfcHl0aG9uJywgJy1waCcsICc3LjAnLCAnLXRuJywgJzgnLCAnLW1hJywgJzIwMCcsICctbWV0YWxfYmluZGluZycsICctaW1hZScsICc8aW5maWxlLm1hZT4nLCAnLW9tYWUnLCAnPG91dGZpbGUubWFlPic=

> <r_lp_tautomer_probability>
1

> <r_epik_Ionization_Penalty>
0.00177695

> <r_epik_Ionization_Penalty_Charging>
0.00176881

> <r_epik_Ionization_Penalty_Neutral>
8.13528e-06

> <r_epik_State_Penalty>
0.00119827

> <r_epik_Charging_Adjusted_Penalty>
0.00296709

> <i_epik_Tot_Q>
1

> <i_epik_Tot_abs_Q>
1

> <r_epik_Metal_State_Penalty>
-0

> <b_epik_Metal_Only>
0

> <s_lp_Force_Field>
OPLS_2005

> <r_lp_Energy>
33.6963

> <b_lp_Chiralities_Consistent>
1

> <s_lp_Variant>
AV-unprocessed.smi:3232-1

> <Gold.Version>
5.8.1

> <Gold.Id.Protein>
6NUR|6NUR_protein|mol2

> <Gold.PLP.Fitness>
41.2169

> <Gold.PLP.PLP>
-27.3671

> <Gold.PLP.part.hbond>
-2.9225

> <Gold.PLP.part.metal>
0.0000

> <Gold.PLP.part.buried>
-3.0594

> <Gold.PLP.part.nonpolar>
-20.7774

> <Gold.PLP.part.repulsive>
0.2024

> <Gold.PLP.ligand.clash>
0.0000

> <Gold.PLP.ligand.torsion>
0.6480

> <Gold.PLP.Chemscore.Hbond>
4.0000

> <Gold.PLP.Chemscore.CHOScore>
0.9991

> <Gold.PLP.Chemscore.Metal>
0.0000

> <Gold.Chemscore.Hbonds>
donor molecule, donor type, donor heavy atom, donor atom, acceptor molecule, acceptor atom, score
      L1  H     3    40       P1  7948  2.00
      L1  H     9    33       P1  7948  1.00
      P1  H  7989  7998       L1    16  1.00
      L1  C    15    38       P1  7948  0.84

> <Gold.PLP.Chemscore.Internal.Correction>
0.1485

> <Gold.Rescore>
     Score         DG    S(hbond)    S(metal)    S(lipo)     H(rot)  DE(clash)    DE(int)     intcor
     12.94     -13.61       2.96        0.00      39.27       2.49       0.01       0.65       ----

> <Gold.Chemscore.Fitness>
12.9389

> <Gold.Chemscore.DG>
-13.6063

> <Gold.Chemscore.ZeroCoef>
-5.4800

> <Gold.Chemscore.Hbond>
2.9644

> <Gold.Chemscore.Metal>
0.0000

> <Gold.Chemscore.Lipo>
39.2739

> <Gold.Chemscore.Internal_Hbond>
0.0000

> <Gold.Chemscore.DEClash>
0.0126

> <Gold.Chemscore.DEInternal>
0.6547

> <Gold.Chemscore.Rot>
2.4882

> <Gold.Chemscore.Internal.Correction>
   9.000000E+99

> <Gold.Chemscore.Hbonds>
donor molecule, donor type, donor heavy atom, donor atom, acceptor molecule, acceptor atom, score
      L1  H     3    40       P1  7948  0.99
      L1  H     9    33       P1  7948  0.96
      P1  H  7989  7998       L1    16  0.92

> <Gold.Chemscore.Hbond.Weighted>
-9.9010

> <Gold.Chemscore.Metal.Weighted>
-0.0000

> <Gold.Chemscore.Lipo.Weighted>
-4.5950

> <Gold.Chemscore.Internal_Hbond.Weighted>
0.0000

> <Gold.Chemscore.DEClash.Weighted>
0.0126

> <Gold.Chemscore.DEInternal.Weighted>
0.6547

> <Gold.Chemscore.Rot.Weighted>
6.3697

> <Gold.Chemscore.Internal.Correction.Weighted>
   9.000000E+99

> <Gold.Protein.RotatedTorsions>
[ 6907 6896 6895 6894 ] final  144.88 input  -60.11 | X-H torsion
[ 7974 7965 7964 7962 ] final   -1.04 input  175.53 | X-H torsion
[ 8008 7997 7996 7995 ] final -157.85 input   59.86 | X-H torsion
[ 10167 10162 10161 10158 ] final -153.17 input  -65.29 | X-H torsion
[ 10718 10713 10712 10709 ] final   29.18 input   66.30 | X-H torsion
[ 10763 10752 10751 10750 ] final  166.63 input  -60.55 | X-H torsion
[ 11005 11000 10999 10996 ] final -132.81 input  -57.11 | X-H torsion

> <Gold.Protein.ActiveResidues>
 VAL166  LYS551  ARG553  GLY616  TRP617  ASP618  TYR619  PRO620  LYS621  CYS622 
 ASP623  PHE694  ASN695  SER759  ASP760  ASP761  ALA762  ILE779  LEU786  VAL792 
 PHE793  MET794  SER795  GLU796  ALA797  LYS798  CYS799  TRP800  GLU811  SER814 

> <Gold.Protein.RotatedAtoms>
  152.1881  133.4753  159.4992 H   0  0  0  0  0  0  0  0  0  0  0  0  # atno 6907 bound_to 6896
  150.6946  134.1748  159.4235 H   0  0  0  0  0  0  0  0  0  0  0  0  # atno 6908 bound_to 6896
  151.9662  135.0099  160.0601 H   0  0  0  0  0  0  0  0  0  0  0  0  # atno 6909 bound_to 6896
  146.2421  140.1360  142.8336 H   0  0  0  0  0  0  0  0  0  0  0  0  # atno 7974 bound_to 7965
  155.7387  140.0811  157.2255 H   0  0  0  0  0  0  0  0  0  0  0  0  # atno 8008 bound_to 7997
  154.4024  140.1582  156.2647 H   0  0  0  0  0  0  0  0  0  0  0  0  # atno 8009 bound_to 7997
  155.9041  140.3408  155.6051 H   0  0  0  0  0  0  0  0  0  0  0  0  # atno 8010 bound_to 7997
  139.7119  143.9095  152.2471 H   0  0  0  0  0  0  0  0  0  0  0  0  # atno 10167 bound_to 10162
  157.2432  130.7079  149.6369 H   0  0  0  0  0  0  0  0  0  0  0  0  # atno 10718 bound_to 10713
  154.3419  135.2754  155.2418 H   0  0  0  0  0  0  0  0  0  0  0  0  # atno 10763 bound_to 10752
  154.4685  135.5889  153.6308 H   0  0  0  0  0  0  0  0  0  0  0  0  # atno 10764 bound_to 10752
  152.9857  135.6082  154.3621 H   0  0  0  0  0  0  0  0  0  0  0  0  # atno 10765 bound_to 10752
  140.9137  134.1535  157.4369 H   0  0  0  0  0  0  0  0  0  0  0  0  # atno 11005 bound_to 11000
  145.0286  140.8852  143.5123 LP  0  0  0  0  0  0  0  0  0  0  0  0  # atno 17320 bound_to 7965
  145.1420  139.2566  143.5485 LP  0  0  0  0  0  0  0  0  0  0  0  0  # atno 17321 bound_to 7965
  139.8966  144.6935  150.8711 LP  0  0  0  0  0  0  0  0  0  0  0  0  # atno 17342 bound_to 10162
  140.7735  143.3545  151.1948 LP  0  0  0  0  0  0  0  0  0  0  0  0  # atno 17343 bound_to 10162
  155.9669  130.4451  150.5489 LP  0  0  0  0  0  0  0  0  0  0  0  0  # atno 17370 bound_to 10713
  157.3356  131.0707  151.1827 LP  0  0  0  0  0  0  0  0  0  0  0  0  # atno 17371 bound_to 10713
  139.8762  134.9945  156.5698 LP  0  0  0  0  0  0  0  0  0  0  0  0  # atno 17394 bound_to 11000
  140.8078  133.8454  155.8783 LP  0  0  0  0  0  0  0  0  0  0  0  0  # atno 17395 bound_to 11000

$$$$
