#       Name:                AV-unprocessed.smi:1995
#       Creating user name   scv26
#       Creation time:       Fri Mar 27 10:28:59 2020


#       File generated by GOLD software.
#

@<TRIPOS>MOLECULE
AV-unprocessed.smi:1995
    48    49     1
SMALL
NO_CHARGES


@<TRIPOS>ATOM
      1 ****        -0.4633  -2.7093  -1.1906 C.3            1 S1                 0.0000
      2 ****        -1.0348  -1.2909  -1.0162 C.3            1 S1                 0.0000
      3 ****        -0.6671  -0.5812   0.3275 C.3            1 S1                 0.0000
      4 ****        -1.3416   0.8158   0.2940 C.3            1 S1                 0.0000
      5 ****         0.8847  -0.3711   0.3690 C.3            1 S1                 0.0000
      6 ****         1.4602   0.2059  -0.8475 N.am           1 S1                 0.0000
      7 ****         1.8056   1.4899  -1.0240 C.2            1 S1                 0.0000
      8 ****         1.6776   2.3549  -0.1572 O.2            1 S1                 0.0000
      9 ****         2.2942   1.6954  -2.2599 N.am           1 S1                 0.0000
     10 ****         2.7388   2.9143  -2.8367 C.2            1 S1                 0.0000
     11 ****         2.7498   4.0917  -2.2004 N.2            1 S1                 0.0000
     12 ****         3.2335   5.1217  -3.0113 C.2            1 S1                 0.0000
     13 ****         3.5890   4.7078  -4.2708 C.2            1 S1                 0.0000
     14 ****         3.3306   2.9975  -4.4896 S.3            1 S1                 0.0000
     15 ****        -1.1139  -1.3897   1.5029 N.3            1 S1                 0.0000
     16 ****        -2.5456  -1.7235   1.5280 C.3            1 S1                 0.0000
     17 ****        -2.9077  -2.6591   2.6937 C.3            1 S1                 0.0000
     18 ****        -2.5199  -2.0617   3.9236 O.3            1 S1                 0.0000
     19 ****        -1.1264  -1.7845   3.9703 C.3            1 S1                 0.0000
     20 ****        -0.7424  -0.8433   2.8153 C.3            1 S1                 0.0000
     21 ****        -0.7952  -3.1409  -2.1348 H              1 S1                 0.0000
     22 ****        -0.7911  -3.3771  -0.3938 H              1 S1                 0.0000
     23 ****         0.6261  -2.7088  -1.2012 H              1 S1                 0.0000
     24 ****        -0.7103  -0.6888  -1.8652 H              1 S1                 0.0000
     25 ****        -2.1160  -1.3312  -1.1425 H              1 S1                 0.0000
     26 ****        -1.0583   1.3773  -0.5959 H              1 S1                 0.0000
     27 ****        -1.0612   1.4263   1.1521 H              1 S1                 0.0000
     28 ****        -2.4287   0.7516   0.2741 H              1 S1                 0.0000
     29 ****         1.1715   0.2568   1.2126 H              1 S1                 0.0000
     30 ****         1.3832  -1.3259   0.5378 H              1 S1                 0.0000
     31 ****         1.5993  -0.4293  -1.6196 H              1 S1                 0.0000
     32 ****         2.3430   0.8880  -2.8635 H              1 S1                 0.0000
     33 ****         3.2900   6.1231  -2.6105 H              1 S1                 0.0000
     34 ****         3.9853   5.3036  -5.0797 H              1 S1                 0.0000
     35 ****        -3.1449  -0.8173   1.6131 H              1 S1                 0.0000
     36 ****        -2.8496  -2.2211   0.6099 H              1 S1                 0.0000
     37 ****        -3.9820  -2.8429   2.7113 H              1 S1                 0.0000
     38 ****        -2.4188  -3.6279   2.5789 H              1 S1                 0.0000
     39 ****        -0.8879  -1.3243   4.9290 H              1 S1                 0.0000
     40 ****        -0.5609  -2.7159   3.9134 H              1 S1                 0.0000
     41 ****         0.3307  -0.6789   2.8829 H              1 S1                 0.0000
     42 ****        -1.2236   0.1221   2.9724 H              1 S1                 0.0000
     43 ****         1.2981   2.1150   0.7364 LP             1 S1                 0.0000
     44 ****         1.9530   3.2974  -0.3468 LP             1 S1                 0.0000
     45 ****         2.4474   4.2193  -1.2558 LP             1 S1                 0.0000
     46 ****        -0.5959  -2.2314   1.3506 LP             1 S1                 0.0000
     47 ****        -2.7495  -2.6852   4.6709 LP             1 S1                 0.0000
     48 ****        -3.0227  -1.2049   4.0380 LP             1 S1                 0.0000
@<TRIPOS>BOND
    1    1    2 1     
    2    1   21 1     
    3    1   22 1     
    4    1   23 1     
    5    2    3 1     
    6    2   24 1     
    7    2   25 1     
    8    3    4 1     
    9    3    5 1     
   10    3   15 1     
   11    4   26 1     
   12    4   27 1     
   13    4   28 1     
   14    5    6 1     
   15    5   29 1     
   16    5   30 1     
   17    6    7 am    
   18    6   31 1     
   19    7    8 2     
   20    7    9 am    
   21    9   10 1     
   22    9   32 1     
   23   10   14 1     
   24   10   11 2     
   25   11   12 1     
   26   12   13 2     
   27   12   33 1     
   28   13   14 1     
   29   13   34 1     
   30   15   20 1     
   31   15   16 1     
   32   16   17 1     
   33   16   35 1     
   34   16   36 1     
   35   17   18 1     
   36   17   37 1     
   37   17   38 1     
   38   18   19 1     
   39   19   20 1     
   40   19   39 1     
   41   19   40 1     
   42   20   41 1     
   43   20   42 1     
   44    8   43 1     
   45    8   44 1     
   46   11   45 1     
   47   15   46 1     
   48   18   47 1     
   49   18   48 1     
@<TRIPOS>SUBSTRUCTURE
      1 S1             1
@<TRIPOS>SET
LONE_PAIRS      STATIC     ATOMS    <user>   **** ""
6 43 44 45 46 47 48
DONOR_HYDROGENS      STATIC     ATOMS    <user>   **** ""
2 31 32
ATOM$BLUE        STATIC     ATOMS    COLORGROUP SYSTEM
6 43 44 45 46 47 48
ATOM$RED        STATIC     ATOMS    COLORGROUP SYSTEM
2 31 32
