AV-unprocessed.smi:334|AV-procd|sdf|2365|dock8
  -GOLD-   2262022283D 1   1.00000     0.00000
 Structure written by MMmdl.
 44 46  0  0  0  0  0  0  0  0  3 V2000
  153.3494  140.3384  159.9392 C   0  0  0  0  0  0  0  0  0  0  0  0
  152.7533  141.3323  158.9280 C   0  0  1  0  0  0  0  0  0  0  0  0
  151.9247  140.6257  157.9582 N   0  0  0  0  0  0  0  0  0  0  0  0
  152.3203  139.6218  157.1575 C   0  0  0  0  0  0  0  0  0  0  0  0
  153.4311  139.0993  157.2393 O   0  0  0  0  0  0  0  0  0  0  0  0
  151.3445  139.1459  156.0670 C   0  0  0  0  0  0  0  0  0  0  0  0
  150.7053  137.8484  156.3532 N   0  0  0  0  0  0  0  0  0  0  0  0
  150.0821  137.7189  157.6104 C   0  0  0  0  0  0  0  0  0  0  0  0
  149.5103  136.5674  158.0119 C   0  0  0  0  0  0  0  0  0  0  0  0
  148.9181  136.4409  159.3248 N   0  3  0  0  0  0  0  0  0  0  0  0
  148.7927  135.3204  159.8079 O   0  0  0  0  0  0  0  0  0  0  0  0
  148.5649  137.4557  159.9182 O   0  5  0  0  0  0  0  0  0  0  0  0
  149.5338  135.4472  157.0917 C   0  0  0  0  0  0  0  0  0  0  0  0
  150.1320  135.5630  155.8895 C   0  0  0  0  0  0  0  0  0  0  0  0
  150.7770  136.8100  155.4654 C   0  0  0  0  0  0  0  0  0  0  0  0
  151.3543  136.9097  154.3832 O   0  0  0  0  0  0  0  0  0  0  0  0
  151.9059  142.4264  159.6203 C   0  0  1  0  0  0  0  0  0  0  0  0
  152.7270  143.5475  160.2955 C   0  0  0  0  0  0  0  0  0  0  0  0
  152.0778  144.8313  159.7442 C   0  0  1  0  0  0  0  0  0  0  0  0
  152.4874  145.0124  158.2703 C   0  0  0  0  0  0  0  0  0  0  0  0
  151.6718  143.9199  157.5554 C   0  0  0  0  0  0  0  0  0  0  0  0
  150.9324  143.2313  158.7201 C   0  0  2  0  0  0  0  0  0  0  0  0
  150.6147  144.4236  159.6158 C   0  0  0  0  0  0  0  0  0  0  0  0
  153.9811  140.8470  160.6677 H   0  0  0  0  0  0  0  0  0  0  0  0
  153.9661  139.5898  159.4413 H   0  0  0  0  0  0  0  0  0  0  0  0
  152.5672  139.8126  160.4879 H   0  0  0  0  0  0  0  0  0  0  0  0
  153.5773  141.8125  158.3977 H   0  0  0  0  0  0  0  0  0  0  0  0
  150.9896  140.9831  157.8279 H   0  0  0  0  0  0  0  0  0  0  0  0
  150.5713  139.9064  155.9476 H   0  0  0  0  0  0  0  0  0  0  0  0
  151.8735  139.1315  155.1130 H   0  0  0  0  0  0  0  0  0  0  0  0
  150.1313  138.6068  158.2249 H   0  0  0  0  0  0  0  0  0  0  0  0
  149.0718  134.5084  157.3595 H   0  0  0  0  0  0  0  0  0  0  0  0
  150.1385  134.7156  155.2197 H   0  0  0  0  0  0  0  0  0  0  0  0
  151.3001  141.9401  160.3875 H   0  0  0  0  0  0  0  0  0  0  0  0
  152.6271  143.4927  161.3803 H   0  0  0  0  0  0  0  0  0  0  0  0
  153.7910  143.5009  160.0598 H   0  0  0  0  0  0  0  0  0  0  0  0
  152.2603  145.7125  160.3598 H   0  0  0  0  0  0  0  0  0  0  0  0
  152.2060  146.0009  157.9049 H   0  0  0  0  0  0  0  0  0  0  0  0
  153.5614  144.8934  158.1219 H   0  0  0  0  0  0  0  0  0  0  0  0
  150.9566  144.3713  156.8665 H   0  0  0  0  0  0  0  0  0  0  0  0
  152.2937  143.2396  156.9745 H   0  0  0  0  0  0  0  0  0  0  0  0
  150.0568  142.6636  158.4044 H   0  0  0  0  0  0  0  0  0  0  0  0
  150.1569  144.1446  160.5666 H   0  0  0  0  0  0  0  0  0  0  0  0
  149.9956  145.1795  159.1290 H   0  0  0  0  0  0  0  0  0  0  0  0
  1  2  1  0  0  0  0
  1 24  1  0  0  0  0
  1 25  1  0  0  0  0
  1 26  1  0  0  0  0
  2  3  1  0  0  0  0
  2 17  1  0  0  0  0
  2 27  1  0  0  0  0
  3  4  1  0  0  0  0
  3 28  1  0  0  0  0
  4  5  2  0  0  0  0
  4  6  1  0  0  0  0
  6  7  1  0  0  0  0
  6 29  1  0  0  0  0
  6 30  1  0  0  0  0
  7 15  1  0  0  0  0
  7  8  1  0  0  0  0
  8  9  2  0  0  0  0
  8 31  1  0  0  0  0
  9 10  1  0  0  0  0
  9 13  1  0  0  0  0
 10 11  2  0  0  0  0
 10 12  1  0  0  0  0
 13 14  2  0  0  0  0
 13 32  1  0  0  0  0
 14 15  1  0  0  0  0
 14 33  1  0  0  0  0
 15 16  2  0  0  0  0
 17 22  1  0  0  0  0
 17 18  1  0  0  0  0
 17 34  1  0  0  0  0
 18 19  1  0  0  0  0
 18 35  1  0  0  0  0
 18 36  1  0  0  0  0
 19 23  1  0  0  0  0
 19 20  1  0  0  0  0
 19 37  1  0  0  0  0
 20 21  1  0  0  0  0
 20 38  1  0  0  0  0
 20 39  1  0  0  0  0
 21 22  1  0  0  0  0
 21 40  1  0  0  0  0
 21 41  1  0  0  0  0
 22 23  1  0  0  0  0
 22 42  1  0  0  0  0
 23 43  1  0  0  0  0
 23 44  1  0  0  0  0
M  CHG  1  10   1
M  CHG  1  12  -1
M  END
> <s_m_source_file>
AV-unprocessed.smi

> <i_m_source_file_index>
334

> <i_lp_mmshare_version>
43012

> <i_f3d_flags>
0

> <s_epik_input>
W0NIMl0xW0NIMl1bQ0BIXShbQ0gyXTIpW0NAQEhdKFtDSDJdW0NAQEhdMTIpW0NASF0oW0NIM10pW05IXUMoPU8pW0NIMl1uM1tjSF1jKFtOK10oPU8pW08tXSlbY0hdW2NIXWMzPU8=

> <s_epik_cmdline>
J2VwaWtfcHl0aG9uJywgJy1waCcsICc3LjAnLCAnLXRuJywgJzgnLCAnLW1hJywgJzIwMCcsICctbWV0YWxfYmluZGluZycsICctaW1hZScsICc8aW5maWxlLm1hZT4nLCAnLW9tYWUnLCAnPG91dGZpbGUubWFlPic=

> <r_lp_tautomer_probability>
1

> <r_epik_Ionization_Penalty>
2.17081e-08

> <r_epik_Ionization_Penalty_Charging>
8.1195e-11

> <r_epik_Ionization_Penalty_Neutral>
2.16269e-08

> <r_epik_State_Penalty>
-0

> <r_epik_Charging_Adjusted_Penalty>
8.1195e-11

> <i_epik_Tot_Q>
0

> <i_epik_Tot_abs_Q>
2

> <r_epik_Metal_State_Penalty>
-0

> <b_epik_Metal_Only>
0

> <s_lp_Force_Field>
OPLS_2005

> <r_lp_Energy>
61.6475

> <b_lp_Chiralities_Consistent>
1

> <s_lp_Variant>
AV-unprocessed.smi:334-4

> <Gold.Version>
5.8.1

> <Gold.Id.Protein>
6NUR|6NUR_protein|mol2

> <Gold.PLP.Fitness>
50.2009

> <Gold.PLP.PLP>
-41.5511

> <Gold.PLP.part.hbond>
-4.7809

> <Gold.PLP.part.metal>
0.0000

> <Gold.PLP.part.buried>
-5.7368

> <Gold.PLP.part.nonpolar>
-32.2742

> <Gold.PLP.part.repulsive>
0.7362

> <Gold.PLP.ligand.clash>
0.0000

> <Gold.PLP.ligand.torsion>
0.7642

> <Gold.PLP.Chemscore.Hbond>
3.3848

> <Gold.PLP.Chemscore.CHOScore>
0.0000

> <Gold.PLP.Chemscore.Metal>
0.0000

> <Gold.Chemscore.Hbonds>
donor molecule, donor type, donor heavy atom, donor atom, acceptor molecule, acceptor atom, score
      P1  H  6896  6907       L1    11  1.00
      P1  H  6931  6943       L1    12  0.28
      P1  H  6934  6947       L1    12  0.14
      P1  H  7997  8008       L1     5  0.97
      P1  H 10752 10765       L1    16  1.00

> <Gold.PLP.Chemscore.Internal.Correction>
0.0239

> <Gold.Rescore>
     Score         DG    S(hbond)    S(metal)    S(lipo)     H(rot)  DE(clash)    DE(int)     intcor
     23.37     -24.45       3.00        0.00     114.59       1.75       0.13       0.95       ----

> <Gold.Chemscore.Fitness>
23.3664

> <Gold.Chemscore.DG>
-24.4485

> <Gold.Chemscore.ZeroCoef>
-5.4800

> <Gold.Chemscore.Hbond>
3.0045

> <Gold.Chemscore.Metal>
0.0000

> <Gold.Chemscore.Lipo>
114.5877

> <Gold.Chemscore.Internal_Hbond>
0.0000

> <Gold.Chemscore.DEClash>
0.1298

> <Gold.Chemscore.DEInternal>
0.9523

> <Gold.Chemscore.Rot>
1.7474

> <Gold.Chemscore.Internal.Correction>
   9.000000E+99

> <Gold.Chemscore.Hbonds>
donor molecule, donor type, donor heavy atom, donor atom, acceptor molecule, acceptor atom, score
      P1  H  6896  6907       L1    11  0.26
      P1  H  6931  6943       L1    12  0.27
      P1  H  6934  6947       L1    12  0.14
      P1  H  7997  8008       L1     5  0.81
      P1  H 10752 10765       L1    16  0.70

> <Gold.Chemscore.Hbond.Weighted>
-10.0350

> <Gold.Chemscore.Metal.Weighted>
-0.0000

> <Gold.Chemscore.Lipo.Weighted>
-13.4068

> <Gold.Chemscore.Internal_Hbond.Weighted>
0.0000

> <Gold.Chemscore.DEClash.Weighted>
0.1298

> <Gold.Chemscore.DEInternal.Weighted>
0.9523

> <Gold.Chemscore.Rot.Weighted>
4.4733

> <Gold.Chemscore.Internal.Correction.Weighted>
   9.000000E+99

> <Gold.Protein.RotatedTorsions>
[ 6907 6896 6895 6894 ] final  -69.42 input  -60.11 | X-H torsion
[ 7974 7965 7964 7962 ] final -107.78 input  175.53 | X-H torsion
[ 8008 7997 7996 7995 ] final  -89.37 input   59.86 | X-H torsion
[ 10167 10162 10161 10158 ] final -177.32 input  -65.29 | X-H torsion
[ 10718 10713 10712 10709 ] final   -3.49 input   66.30 | X-H torsion
[ 10763 10752 10751 10750 ] final  164.82 input  -60.55 | X-H torsion
[ 11005 11000 10999 10996 ] final  -38.50 input  -57.11 | X-H torsion

> <Gold.Protein.ActiveResidues>
 VAL166  LYS551  ARG553  GLY616  TRP617  ASP618  TYR619  PRO620  LYS621  CYS622 
 ASP623  PHE694  ASN695  SER759  ASP760  ASP761  ALA762  ILE779  LEU786  VAL792 
 PHE793  MET794  SER795  GLU796  ALA797  LYS798  CYS799  TRP800  GLU811  SER814 

> <Gold.Protein.RotatedAtoms>
  150.7306  134.5599  159.5836 H   0  0  0  0  0  0  0  0  0  0  0  0  # atno 6907 bound_to 6896
  152.3065  134.7546  160.0355 H   0  0  0  0  0  0  0  0  0  0  0  0  # atno 6908 bound_to 6896
  151.8109  133.3346  159.3591 H   0  0  0  0  0  0  0  0  0  0  0  0  # atno 6909 bound_to 6896
  145.2011  140.9056  143.3369 H   0  0  0  0  0  0  0  0  0  0  0  0  # atno 7974 bound_to 7965
  154.6858  140.0542  157.0313 H   0  0  0  0  0  0  0  0  0  0  0  0  # atno 8008 bound_to 7997
  155.0887  140.3217  155.4561 H   0  0  0  0  0  0  0  0  0  0  0  0  # atno 8009 bound_to 7997
  156.2711  140.2052  156.6014 H   0  0  0  0  0  0  0  0  0  0  0  0  # atno 8010 bound_to 7997
  139.5486  144.2169  152.1035 H   0  0  0  0  0  0  0  0  0  0  0  0  # atno 10167 bound_to 10162
  156.7753  130.5313  149.5760 H   0  0  0  0  0  0  0  0  0  0  0  0  # atno 10718 bound_to 10713
  154.3147  135.2757  155.2549 H   0  0  0  0  0  0  0  0  0  0  0  0  # atno 10763 bound_to 10752
  154.4928  135.5829  153.6475 H   0  0  0  0  0  0  0  0  0  0  0  0  # atno 10764 bound_to 10752
  152.9883  135.6139  154.3327 H   0  0  0  0  0  0  0  0  0  0  0  0  # atno 10765 bound_to 10752
  141.0032  133.6945  156.2061 H   0  0  0  0  0  0  0  0  0  0  0  0  # atno 11005 bound_to 11000
  144.9947  139.3655  143.6197 LP  0  0  0  0  0  0  0  0  0  0  0  0  # atno 17320 bound_to 7965
  146.3417  139.9145  142.8775 LP  0  0  0  0  0  0  0  0  0  0  0  0  # atno 17321 bound_to 7965
  140.1660  144.4981  150.6606 LP  0  0  0  0  0  0  0  0  0  0  0  0  # atno 17342 bound_to 10162
  140.6742  143.2298  151.5549 LP  0  0  0  0  0  0  0  0  0  0  0  0  # atno 17343 bound_to 10162
  156.1252  130.6138  151.0253 LP  0  0  0  0  0  0  0  0  0  0  0  0  # atno 17370 bound_to 10713
  157.6672  131.0869  150.7700 LP  0  0  0  0  0  0  0  0  0  0  0  0  # atno 17371 bound_to 10713
  140.6855  134.4721  157.5589 LP  0  0  0  0  0  0  0  0  0  0  0  0  # atno 17394 bound_to 11000
  139.9049  134.8471  156.1744 LP  0  0  0  0  0  0  0  0  0  0  0  0  # atno 17395 bound_to 11000

$$$$
