AV-unprocessed.smi:765|AV-procd|sdf|3646|dock1
  -GOLD-   22720 1 53D 1   1.00000     0.00000
 Structure written by MMmdl.
 39 40  0  0  0  0  0  0  0  0  1 V2000
  153.1738  138.1917  154.4352 C   0  0  0  0  0  0  0  0  0  0  0  0
  152.3754  138.9909  155.4749 C   0  0  1  0  0  0  0  0  0  0  0  0
  151.0783  139.5589  154.8708 C   0  0  0  0  0  0  0  0  0  0  0  0
  150.2582  140.3331  155.9124 C   0  0  0  0  0  0  0  0  0  0  0  0
  149.9578  139.4554  157.1397 C   0  0  0  0  0  0  0  0  0  0  0  0
  151.2443  138.8914  157.7926 C   0  0  2  0  0  0  0  0  0  0  0  0
  150.8883  137.9449  158.8666 C   0  0  0  0  0  0  0  0  0  0  0  0
  150.6075  137.2026  159.7086 N   0  0  0  0  0  0  0  0  0  0  0  0
  152.0766  139.9771  158.3176 N   0  0  0  0  0  0  0  0  0  0  0  0
  151.6644  141.1617  158.7985 C   0  0  0  0  0  0  0  0  0  0  0  0
  150.4786  141.4573  158.9478 O   0  0  0  0  0  0  0  0  0  0  0  0
  152.7780  142.1677  159.1264 C   0  0  2  0  0  0  0  0  0  0  0  0
  153.6342  141.7524  160.3380 C   0  0  0  0  0  0  0  0  0  0  0  0
  152.2020  143.4932  159.3185 N   0  0  0  0  0  0  0  0  0  0  0  0
  152.2437  144.3016  160.4383 C   0  0  0  0  0  0  0  0  0  0  0  0
  151.5341  145.4326  160.1537 C   0  0  0  0  0  0  0  0  0  0  0  0
  151.0888  145.2240  158.8189 C   0  0  0  0  0  0  0  0  0  0  0  0
  151.4862  144.0630  158.3236 N   0  0  0  0  0  0  0  0  0  0  0  0
  152.0615  138.1340  156.7212 C   0  0  0  0  0  0  0  0  0  0  0  0
  152.6100  137.3286  154.0794 H   0  0  0  0  0  0  0  0  0  0  0  0
  154.1109  137.8262  154.8560 H   0  0  0  0  0  0  0  0  0  0  0  0
  153.4199  138.8077  153.5699 H   0  0  0  0  0  0  0  0  0  0  0  0
  152.9984  139.8320  155.7823 H   0  0  0  0  0  0  0  0  0  0  0  0
  151.3133  140.2148  154.0316 H   0  0  0  0  0  0  0  0  0  0  0  0
  150.4737  138.7462  154.4663 H   0  0  0  0  0  0  0  0  0  0  0  0
  150.7999  141.2294  156.2167 H   0  0  0  0  0  0  0  0  0  0  0  0
  149.3248  140.6774  155.4664 H   0  0  0  0  0  0  0  0  0  0  0  0
  149.3718  140.0229  157.8631 H   0  0  0  0  0  0  0  0  0  0  0  0
  149.3197  138.6261  156.8313 H   0  0  0  0  0  0  0  0  0  0  0  0
  153.0743  139.8386  158.2452 H   0  0  0  0  0  0  0  0  0  0  0  0
  153.4386  142.2067  158.2580 H   0  0  0  0  0  0  0  0  0  0  0  0
  154.1013  140.7803  160.1763 H   0  0  0  0  0  0  0  0  0  0  0  0
  153.0424  141.6899  161.2520 H   0  0  0  0  0  0  0  0  0  0  0  0
  154.4338  142.4729  160.5123 H   0  0  0  0  0  0  0  0  0  0  0  0
  152.7641  144.0039  161.3369 H   0  0  0  0  0  0  0  0  0  0  0  0
  151.3582  146.2787  160.8011 H   0  0  0  0  0  0  0  0  0  0  0  0
  150.4898  145.8761  158.2004 H   0  0  0  0  0  0  0  0  0  0  0  0
  151.5070  137.2468  156.4114 H   0  0  0  0  0  0  0  0  0  0  0  0
  152.9910  137.7672  157.1595 H   0  0  0  0  0  0  0  0  0  0  0  0
  1  2  1  0  0  0  0
  1 20  1  0  0  0  0
  1 21  1  0  0  0  0
  1 22  1  0  0  0  0
  2 19  1  0  0  0  0
  2  3  1  0  0  0  0
  2 23  1  0  0  0  0
  3  4  1  0  0  0  0
  3 24  1  0  0  0  0
  3 25  1  0  0  0  0
  4  5  1  0  0  0  0
  4 26  1  0  0  0  0
  4 27  1  0  0  0  0
  5  6  1  0  0  0  0
  5 28  1  0  0  0  0
  5 29  1  0  0  0  0
  6  7  1  0  0  0  0
  6  9  1  0  0  0  0
  6 19  1  0  0  0  0
  7  8  3  0  0  0  0
  9 10  1  0  0  0  0
  9 30  1  0  0  0  0
 10 11  2  0  0  0  0
 10 12  1  0  0  0  0
 12 13  1  0  0  0  0
 12 14  1  0  0  0  0
 12 31  1  0  0  0  0
 13 32  1  0  0  0  0
 13 33  1  0  0  0  0
 13 34  1  0  0  0  0
 14 18  1  0  0  0  0
 14 15  1  0  0  0  0
 15 16  2  0  0  0  0
 15 35  1  0  0  0  0
 16 17  1  0  0  0  0
 16 36  1  0  0  0  0
 17 18  2  0  0  0  0
 17 37  1  0  0  0  0
 19 38  1  0  0  0  0
 19 39  1  0  0  0  0
M  END
> <s_m_source_file>
AV-unprocessed.smi

> <i_m_source_file_index>
765

> <i_lp_mmshare_version>
43012

> <i_f3d_flags>
0

> <s_epik_input>
W0NIM11bQ0BASF0oW0NIMl0xKVtDSDJdW0NIMl1bQ0gyXVtDQEBdMShDI04pW05IXUMoPU8pW0NASF0oW0NIM10pbjJbY0hdW2NIXVtjSF1uMg==

> <s_epik_cmdline>
J2VwaWtfcHl0aG9uJywgJy1waCcsICc3LjAnLCAnLXRuJywgJzgnLCAnLW1hJywgJzIwMCcsICctbWV0YWxfYmluZGluZycsICctaW1hZScsICc8aW5maWxlLm1hZT4nLCAnLW9tYWUnLCAnPG91dGZpbGUubWFlPic=

> <r_lp_tautomer_probability>
1

> <r_epik_Ionization_Penalty>
2.71142e-05

> <r_epik_Ionization_Penalty_Charging>
0

> <r_epik_Ionization_Penalty_Neutral>
2.71142e-05

> <r_epik_State_Penalty>
-0

> <r_epik_Charging_Adjusted_Penalty>
0

> <i_epik_Tot_Q>
0

> <i_epik_Tot_abs_Q>
0

> <r_epik_Metal_State_Penalty>
-0

> <b_epik_Metal_Only>
0

> <s_lp_Force_Field>
OPLS_2005

> <r_lp_Energy>
10.6921

> <b_lp_Chiralities_Consistent>
1

> <s_lp_Variant>
AV-unprocessed.smi:765-4

> <Gold.Version>
5.8.1

> <Gold.Id.Protein>
6NUR|6NUR_protein|mol2

> <Gold.PLP.Fitness>
44.1483

> <Gold.PLP.PLP>
-40.1526

> <Gold.PLP.part.hbond>
-1.5288

> <Gold.PLP.part.metal>
0.0000

> <Gold.PLP.part.buried>
-3.3942

> <Gold.PLP.part.nonpolar>
-35.3301

> <Gold.PLP.part.repulsive>
0.2133

> <Gold.PLP.ligand.clash>
0.0941

> <Gold.PLP.ligand.torsion>
0.8081

> <Gold.PLP.Chemscore.Hbond>
0.8775

> <Gold.PLP.Chemscore.CHOScore>
1.0000

> <Gold.PLP.Chemscore.Metal>
0.0000

> <Gold.Chemscore.Hbonds>
donor molecule, donor type, donor heavy atom, donor atom, acceptor molecule, acceptor atom, score
      P1  H  6896  6908       L1     8  0.59
      L1  C    17    37       P1  8029  0.51

> <Gold.PLP.Chemscore.Internal.Correction>
0.0735

> <Gold.Rescore>
     Score         DG    S(hbond)    S(metal)    S(lipo)     H(rot)  DE(clash)    DE(int)     intcor
     13.02     -16.54       0.98        0.00      97.49       1.42       0.01       3.51       ----

> <Gold.Chemscore.Fitness>
13.0197

> <Gold.Chemscore.DG>
-16.5378

> <Gold.Chemscore.ZeroCoef>
-5.4800

> <Gold.Chemscore.Hbond>
0.9827

> <Gold.Chemscore.Metal>
0.0000

> <Gold.Chemscore.Lipo>
97.4908

> <Gold.Chemscore.Internal_Hbond>
0.0000

> <Gold.Chemscore.DEClash>
0.0075

> <Gold.Chemscore.DEInternal>
3.5107

> <Gold.Chemscore.Rot>
1.4183

> <Gold.Chemscore.Internal.Correction>
   9.000000E+99

> <Gold.Chemscore.Hbonds>
donor molecule, donor type, donor heavy atom, donor atom, acceptor molecule, acceptor atom, score
      P1  H  6896  6908       L1     8  0.58

> <Gold.Chemscore.Hbond.Weighted>
-3.2823

> <Gold.Chemscore.Metal.Weighted>
-0.0000

> <Gold.Chemscore.Lipo.Weighted>
-11.4064

> <Gold.Chemscore.Internal_Hbond.Weighted>
0.0000

> <Gold.Chemscore.DEClash.Weighted>
0.0075

> <Gold.Chemscore.DEInternal.Weighted>
3.5107

> <Gold.Chemscore.Rot.Weighted>
3.6309

> <Gold.Chemscore.Internal.Correction.Weighted>
   9.000000E+99

> <Gold.Protein.RotatedTorsions>
[ 6907 6896 6895 6894 ] final -130.44 input  -60.11 | X-H torsion
[ 7974 7965 7964 7962 ] final  -98.90 input  175.53 | X-H torsion
[ 8008 7997 7996 7995 ] final  166.68 input   59.86 | X-H torsion
[ 10167 10162 10161 10158 ] final -122.55 input  -65.29 | X-H torsion
[ 10718 10713 10712 10709 ] final   40.41 input   66.30 | X-H torsion
[ 10763 10752 10751 10750 ] final  -43.21 input  -60.55 | X-H torsion
[ 11005 11000 10999 10996 ] final -154.26 input  -57.11 | X-H torsion

> <Gold.Protein.ActiveResidues>
 VAL166  LYS551  ARG553  GLY616  TRP617  ASP618  TYR619  PRO620  LYS621  CYS622 
 ASP623  PHE694  ASN695  SER759  ASP760  ASP761  ALA762  ILE779  LEU786  VAL792 
 PHE793  MET794  SER795  GLU796  ALA797  LYS798  CYS799  TRP800  GLU811  SER814 

> <Gold.Protein.RotatedAtoms>
  150.9397  133.6671  159.2793 H   0  0  0  0  0  0  0  0  0  0  0  0  # atno 6907 bound_to 6896
  151.4064  135.0977  159.9581 H   0  0  0  0  0  0  0  0  0  0  0  0  # atno 6908 bound_to 6896
  152.5064  133.8880  159.7434 H   0  0  0  0  0  0  0  0  0  0  0  0  # atno 6909 bound_to 6896
  145.3146  140.9408  143.2750 H   0  0  0  0  0  0  0  0  0  0  0  0  # atno 7974 bound_to 7965
  156.1698  140.1637  156.8467 H   0  0  0  0  0  0  0  0  0  0  0  0  # atno 8008 bound_to 7997
  154.5245  140.0770  156.8267 H   0  0  0  0  0  0  0  0  0  0  0  0  # atno 8009 bound_to 7997
  155.3536  140.3391  155.4242 H   0  0  0  0  0  0  0  0  0  0  0  0  # atno 8010 bound_to 7997
  140.0131  143.5421  152.2254 H   0  0  0  0  0  0  0  0  0  0  0  0  # atno 10167 bound_to 10162
  157.3819  130.7758  149.7199 H   0  0  0  0  0  0  0  0  0  0  0  0  # atno 10718 bound_to 10713
  153.9917  135.6704  153.4754 H   0  0  0  0  0  0  0  0  0  0  0  0  # atno 10763 bound_to 10752
  153.0702  135.4978  154.8284 H   0  0  0  0  0  0  0  0  0  0  0  0  # atno 10764 bound_to 10752
  154.7105  135.3096  154.9167 H   0  0  0  0  0  0  0  0  0  0  0  0  # atno 10765 bound_to 10752
  140.6992  134.3956  157.5211 H   0  0  0  0  0  0  0  0  0  0  0  0  # atno 11005 bound_to 11000
  144.8988  139.4677  143.6642 LP  0  0  0  0  0  0  0  0  0  0  0  0  # atno 17320 bound_to 7965
  146.3105  139.7729  142.9023 LP  0  0  0  0  0  0  0  0  0  0  0  0  # atno 17321 bound_to 7965
  139.6191  144.7625  151.2780 LP  0  0  0  0  0  0  0  0  0  0  0  0  # atno 17342 bound_to 10162
  140.7373  143.6681  150.8105 LP  0  0  0  0  0  0  0  0  0  0  0  0  # atno 17343 bound_to 10162
  155.9777  130.4059  150.3691 LP  0  0  0  0  0  0  0  0  0  0  0  0  # atno 17370 bound_to 10713
  157.1796  131.0389  151.2755 LP  0  0  0  0  0  0  0  0  0  0  0  0  # atno 17371 bound_to 10713
  139.8901  134.8812  156.2385 LP  0  0  0  0  0  0  0  0  0  0  0  0  # atno 17394 bound_to 11000
  141.0177  133.7059  156.1217 LP  0  0  0  0  0  0  0  0  0  0  0  0  # atno 17395 bound_to 11000

$$$$
