#       Name:                AV-unprocessed.smi:2123
#       Creating user name   scv26
#       Creation time:       Fri Mar 27 11:39:34 2020


#       File generated by GOLD software.
#

@<TRIPOS>MOLECULE
AV-unprocessed.smi:2123
    53    54     1
SMALL
NO_CHARGES


@<TRIPOS>ATOM
      1 ****        -5.6858   5.0409  -2.0928 C.3            1 S1                 0.0000
      2 ****        -4.6612   5.4567  -0.6582 S.3            1 S1                 0.0000
      3 ****        -4.4599   3.7995   0.0577 C.3            1 S1                 0.0000
      4 ****        -3.6111   3.8087   1.3433 C.3            1 S1                 0.0000
      5 ****        -2.0985   3.8070   1.0899 C.2            1 S1                 0.0000
      6 ****        -1.6216   4.4004   0.1224 O.2            1 S1                 0.0000
      7 ****        -1.3526   3.1252   1.9734 N.am           1 S1                 0.0000
      8 ****         0.0998   2.9781   1.9290 C.3            1 S1                 0.0000
      9 ****         0.5675   1.6773   1.2927 C.ar           1 S1                 0.0000
     10 ****        -0.0075   1.1759   0.1063 C.ar           1 S1                 0.0000
     11 ****         0.4784  -0.0297  -0.4341 C.ar           1 S1                 0.0000
     12 ****         1.5309  -0.7087   0.2247 C.ar           1 S1                 0.0000
     13 ****         2.0302  -1.9233  -0.2953 N.3            1 S1                 0.0000
     14 ****         3.2572  -2.4649   0.2855 C.3            1 S1                 0.0000
     15 ****         3.8100  -3.6076  -0.5866 C.3            1 S1                 0.0000
     16 ****         5.0263  -4.2833   0.0553 C.3            1 S1                 0.0000
     17 ****         2.7955  -4.5916  -0.7681 O.3            1 S1                 0.0000
     18 ****         1.6493  -4.0742  -1.4382 C.3            1 S1                 0.0000
     19 ****         0.6662  -5.2264  -1.6690 C.3            1 S1                 0.0000
     20 ****         1.0312  -2.9479  -0.5884 C.3            1 S1                 0.0000
     21 ****         2.0907  -0.2152   1.3571 N.ar           1 S1                 0.0000
     22 ****         1.6223   0.9419   1.8696 C.ar           1 S1                 0.0000
     23 ****        -5.9177   5.9402  -2.6631 H              1 S1                 0.0000
     24 ****        -6.6214   4.5826  -1.7725 H              1 S1                 0.0000
     25 ****        -5.1612   4.3428  -2.7454 H              1 S1                 0.0000
     26 ****        -5.4533   3.4118   0.2843 H              1 S1                 0.0000
     27 ****        -4.0296   3.1316  -0.6901 H              1 S1                 0.0000
     28 ****        -3.8721   4.6625   1.9695 H              1 S1                 0.0000
     29 ****        -3.8590   2.9189   1.9240 H              1 S1                 0.0000
     30 ****        -1.8293   2.6695   2.7383 H              1 S1                 0.0000
     31 ****         0.5635   3.8137   1.4025 H              1 S1                 0.0000
     32 ****         0.4654   3.0279   2.9553 H              1 S1                 0.0000
     33 ****        -0.8051   1.7037  -0.3941 H              1 S1                 0.0000
     34 ****         0.0503  -0.4071  -1.3504 H              1 S1                 0.0000
     35 ****         4.0105  -1.6806   0.3710 H              1 S1                 0.0000
     36 ****         3.0473  -2.8272   1.2929 H              1 S1                 0.0000
     37 ****         4.1059  -3.2153  -1.5612 H              1 S1                 0.0000
     38 ****         5.8379  -3.5707   0.2039 H              1 S1                 0.0000
     39 ****         5.4026  -5.0891  -0.5755 H              1 S1                 0.0000
     40 ****         4.7739  -4.7104   1.0263 H              1 S1                 0.0000
     41 ****         1.9509  -3.6778  -2.4095 H              1 S1                 0.0000
     42 ****        -0.2274  -4.8817  -2.1897 H              1 S1                 0.0000
     43 ****         0.3529  -5.6729  -0.7248 H              1 S1                 0.0000
     44 ****         1.1212  -6.0111  -2.2739 H              1 S1                 0.0000
     45 ****         0.6570  -3.3500   0.3542 H              1 S1                 0.0000
     46 ****         0.1735  -2.5359  -1.1179 H              1 S1                 0.0000
     47 ****         2.1051   1.2877   2.7718 H              1 S1                 0.0000
     48 ****        -2.2222   4.8909  -0.5091 LP             1 S1                 0.0000
     49 ****        -0.6336   4.3919  -0.0321 LP             1 S1                 0.0000
     50 ****         2.3419  -1.5894  -1.1849 LP             1 S1                 0.0000
     51 ****         2.5158  -4.9335   0.1290 LP             1 S1                 0.0000
     52 ****         3.1712  -5.3440  -1.3092 LP             1 S1                 0.0000
     53 ****         2.8401  -0.7020   1.8060 LP             1 S1                 0.0000
@<TRIPOS>BOND
    1    1    2 1     
    2    1   23 1     
    3    1   24 1     
    4    1   25 1     
    5    2    3 1     
    6    3    4 1     
    7    3   26 1     
    8    3   27 1     
    9    4    5 1     
   10    4   28 1     
   11    4   29 1     
   12    5    6 2     
   13    5    7 am    
   14    7    8 1     
   15    7   30 1     
   16    8    9 1     
   17    8   31 1     
   18    8   32 1     
   19    9   22 ar    
   20    9   10 ar    
   21   10   11 ar    
   22   10   33 1     
   23   11   12 ar    
   24   11   34 1     
   25   12   13 1     
   26   12   21 ar    
   27   13   20 1     
   28   13   14 1     
   29   14   15 1     
   30   14   35 1     
   31   14   36 1     
   32   15   16 1     
   33   15   17 1     
   34   15   37 1     
   35   16   38 1     
   36   16   39 1     
   37   16   40 1     
   38   17   18 1     
   39   18   19 1     
   40   18   20 1     
   41   18   41 1     
   42   19   42 1     
   43   19   43 1     
   44   19   44 1     
   45   20   45 1     
   46   20   46 1     
   47   21   22 ar    
   48   22   47 1     
   49    6   48 1     
   50    6   49 1     
   51   13   50 1     
   52   17   51 1     
   53   17   52 1     
   54   21   53 1     
@<TRIPOS>SUBSTRUCTURE
      1 S1             1
@<TRIPOS>SET
LONE_PAIRS      STATIC     ATOMS    <user>   **** ""
6 48 49 50 51 52 53
DONOR_HYDROGENS      STATIC     ATOMS    <user>   **** ""
1 30
ATOM$BLUE        STATIC     ATOMS    COLORGROUP SYSTEM
6 48 49 50 51 52 53
ATOM$RED        STATIC     ATOMS    COLORGROUP SYSTEM
1 30
