AV-unprocessed.smi:1573|AV-procd|sdf|6334|dock3
  -GOLD-   22720 6543D 1   1.00000     0.00000
 Structure written by MMmdl.
 41 41  0  0  0  0  0  0  0  0  1 V2000
  147.2299  141.9656  154.4827 C   0  0  0  0  0  0  0  0  0  0  0  0
  148.5077  141.2885  153.9687 C   0  0  0  0  0  0  0  0  0  0  0  0
  148.8383  140.1053  154.7533 N   0  0  0  0  0  0  0  0  0  0  0  0
  150.0608  139.8042  155.2175 C   0  0  0  0  0  0  0  0  0  0  0  0
  151.0540  140.5025  155.0064 O   0  0  0  0  0  0  0  0  0  0  0  0
  150.1755  138.5075  156.0349 C   0  0  1  0  0  0  0  0  0  0  0  0
  151.2242  137.6076  155.3605 C   0  0  0  0  0  0  0  0  0  0  0  0
  150.6377  138.7969  157.3902 N   0  0  0  0  0  0  0  0  0  0  0  0
  151.8028  139.3844  157.7072 C   0  0  0  0  0  0  0  0  0  0  0  0
  152.6261  139.7563  156.8710 O   0  0  0  0  0  0  0  0  0  0  0  0
  152.0800  139.5826  159.1970 C   0  0  0  0  0  0  0  0  0  0  0  0
  152.3619  141.0380  159.4732 C   0  0  0  0  0  0  0  0  0  0  0  0
  153.4164  141.5862  160.2623 C   0  0  0  0  0  0  0  0  0  0  0  0
  154.4945  140.8569  161.0124 C   0  0  0  0  0  0  0  0  0  0  0  0
  153.3782  142.9075  160.3075 N   0  0  0  0  0  0  0  0  0  0  0  0
  152.3121  143.2475  159.5557 N   0  0  0  0  0  0  0  0  0  0  0  0
  151.9765  144.6481  159.3888 C   0  0  0  0  0  0  0  0  0  0  0  0
  151.6720  142.1381  159.0385 C   0  0  0  0  0  0  0  0  0  0  0  0
  150.4556  142.2497  158.1771 C   0  0  0  0  0  0  0  0  0  0  0  0
  146.9735  142.8271  153.8658 H   0  0  0  0  0  0  0  0  0  0  0  0
  147.3507  142.3173  155.5078 H   0  0  0  0  0  0  0  0  0  0  0  0
  146.3838  141.2779  154.4615 H   0  0  0  0  0  0  0  0  0  0  0  0
  148.3688  140.9812  152.9319 H   0  0  0  0  0  0  0  0  0  0  0  0
  149.3408  141.9933  153.9747 H   0  0  0  0  0  0  0  0  0  0  0  0
  148.0797  139.4756  154.9720 H   0  0  0  0  0  0  0  0  0  0  0  0
  149.2143  137.9906  156.0683 H   0  0  0  0  0  0  0  0  0  0  0  0
  150.9320  137.3542  154.3405 H   0  0  0  0  0  0  0  0  0  0  0  0
  151.3396  136.6705  155.9063 H   0  0  0  0  0  0  0  0  0  0  0  0
  152.2045  138.0855  155.3177 H   0  0  0  0  0  0  0  0  0  0  0  0
  150.0280  138.5203  158.1459 H   0  0  0  0  0  0  0  0  0  0  0  0
  151.2230  139.2242  159.7679 H   0  0  0  0  0  0  0  0  0  0  0  0
  152.9191  138.9513  159.4918 H   0  0  0  0  0  0  0  0  0  0  0  0
  154.1075  140.4426  161.9435 H   0  0  0  0  0  0  0  0  0  0  0  0
  155.3274  141.5149  161.2628 H   0  0  0  0  0  0  0  0  0  0  0  0
  154.8941  140.0322  160.4225 H   0  0  0  0  0  0  0  0  0  0  0  0
  151.9001  144.8833  158.3270 H   0  0  0  0  0  0  0  0  0  0  0  0
  152.7422  145.2841  159.8353 H   0  0  0  0  0  0  0  0  0  0  0  0
  151.0204  144.8549  159.8703 H   0  0  0  0  0  0  0  0  0  0  0  0
  150.0194  141.2704  157.9801 H   0  0  0  0  0  0  0  0  0  0  0  0
  150.7013  142.7068  157.2185 H   0  0  0  0  0  0  0  0  0  0  0  0
  149.6922  142.8609  158.6591 H   0  0  0  0  0  0  0  0  0  0  0  0
  1  2  1  0  0  0  0
  1 20  1  0  0  0  0
  1 21  1  0  0  0  0
  1 22  1  0  0  0  0
  2  3  1  0  0  0  0
  2 23  1  0  0  0  0
  2 24  1  0  0  0  0
  3  4  1  0  0  0  0
  3 25  1  0  0  0  0
  4  5  2  0  0  0  0
  4  6  1  0  0  0  0
  6  7  1  0  0  0  0
  6  8  1  0  0  0  0
  6 26  1  0  0  0  0
  7 27  1  0  0  0  0
  7 28  1  0  0  0  0
  7 29  1  0  0  0  0
  8  9  1  0  0  0  0
  8 30  1  0  0  0  0
  9 10  2  0  0  0  0
  9 11  1  0  0  0  0
 11 12  1  0  0  0  0
 11 31  1  0  0  0  0
 11 32  1  0  0  0  0
 12 18  2  0  0  0  0
 12 13  1  0  0  0  0
 13 14  1  0  0  0  0
 13 15  2  0  0  0  0
 14 33  1  0  0  0  0
 14 34  1  0  0  0  0
 14 35  1  0  0  0  0
 15 16  1  0  0  0  0
 16 17  1  0  0  0  0
 16 18  1  0  0  0  0
 17 36  1  0  0  0  0
 17 37  1  0  0  0  0
 17 38  1  0  0  0  0
 18 19  1  0  0  0  0
 19 39  1  0  0  0  0
 19 40  1  0  0  0  0
 19 41  1  0  0  0  0
M  END
> <s_m_source_file>
AV-unprocessed.smi

> <i_m_source_file_index>
1573

> <i_lp_mmshare_version>
43012

> <i_f3d_flags>
0

> <s_epik_input>
W0NIM11bQ0gyXVtOSF1DKD1PKVtDQEhdKFtDSDNdKVtOSF1DKD1PKVtDSDJdYzFjKFtDSDNdKW5uKFtDSDNdKWMxW0NIM10=

> <s_epik_cmdline>
J2VwaWtfcHl0aG9uJywgJy1waCcsICc3LjAnLCAnLXRuJywgJzgnLCAnLW1hJywgJzIwMCcsICctbWV0YWxfYmluZGluZycsICctaW1hZScsICc8aW5maWxlLm1hZT4nLCAnLW9tYWUnLCAnPG91dGZpbGUubWFlPic=

> <r_lp_tautomer_probability>
1

> <r_epik_Ionization_Penalty>
0.00278414

> <r_epik_Ionization_Penalty_Charging>
0

> <r_epik_Ionization_Penalty_Neutral>
0.00278414

> <r_epik_State_Penalty>
0.00194489

> <r_epik_Charging_Adjusted_Penalty>
0.00194489

> <i_epik_Tot_Q>
0

> <i_epik_Tot_abs_Q>
0

> <r_epik_Metal_State_Penalty>
-0

> <b_epik_Metal_Only>
0

> <s_lp_Force_Field>
OPLS_2005

> <r_lp_Energy>
-3.15373

> <b_lp_Chiralities_Consistent>
1

> <s_lp_Variant>
AV-unprocessed.smi:1573-2

> <Gold.Version>
5.8.1

> <Gold.Id.Protein>
6NUR|6NUR_protein|mol2

> <Gold.PLP.Fitness>
42.9599

> <Gold.PLP.PLP>
-37.5035

> <Gold.PLP.part.hbond>
-2.0000

> <Gold.PLP.part.metal>
0.0000

> <Gold.PLP.part.buried>
-4.1180

> <Gold.PLP.part.nonpolar>
-31.7340

> <Gold.PLP.part.repulsive>
0.1588

> <Gold.PLP.ligand.clash>
0.0000

> <Gold.PLP.ligand.torsion>
0.2840

> <Gold.PLP.Chemscore.Hbond>
2.0000

> <Gold.PLP.Chemscore.CHOScore>
0.0000

> <Gold.PLP.Chemscore.Metal>
0.0000

> <Gold.Chemscore.Hbonds>
donor molecule, donor type, donor heavy atom, donor atom, acceptor molecule, acceptor atom, score
      P1  H  7989  7998       L1     5  1.00
      P1  H  7997  8010       L1    10  1.00

> <Gold.PLP.Chemscore.Internal.Correction>
0.0245

> <Gold.Rescore>
     Score         DG    S(hbond)    S(metal)    S(lipo)     H(rot)  DE(clash)    DE(int)     intcor
     14.23     -17.45       1.97        0.00      87.79       1.91       0.03       3.19       ----

> <Gold.Chemscore.Fitness>
14.2276

> <Gold.Chemscore.DG>
-17.4489

> <Gold.Chemscore.ZeroCoef>
-5.4800

> <Gold.Chemscore.Hbond>
1.9722

> <Gold.Chemscore.Metal>
0.0000

> <Gold.Chemscore.Lipo>
87.7891

> <Gold.Chemscore.Internal_Hbond>
0.0000

> <Gold.Chemscore.DEClash>
0.0285

> <Gold.Chemscore.DEInternal>
3.1929

> <Gold.Chemscore.Rot>
1.9100

> <Gold.Chemscore.Internal.Correction>
   9.000000E+99

> <Gold.Chemscore.Hbonds>
donor molecule, donor type, donor heavy atom, donor atom, acceptor molecule, acceptor atom, score
      P1  H  7989  7998       L1     5  0.95
      P1  H  7997  8010       L1    10  1.00

> <Gold.Chemscore.Hbond.Weighted>
-6.5872

> <Gold.Chemscore.Metal.Weighted>
-0.0000

> <Gold.Chemscore.Lipo.Weighted>
-10.2713

> <Gold.Chemscore.Internal_Hbond.Weighted>
0.0000

> <Gold.Chemscore.DEClash.Weighted>
0.0285

> <Gold.Chemscore.DEInternal.Weighted>
3.1929

> <Gold.Chemscore.Rot.Weighted>
4.8896

> <Gold.Chemscore.Internal.Correction.Weighted>
   9.000000E+99

> <Gold.Protein.RotatedTorsions>
[ 6907 6896 6895 6894 ] final -115.93 input  -60.11 | X-H torsion
[ 7974 7965 7964 7962 ] final  -48.77 input  175.53 | X-H torsion
[ 8008 7997 7996 7995 ] final   69.11 input   59.86 | X-H torsion
[ 10167 10162 10161 10158 ] final -104.20 input  -65.29 | X-H torsion
[ 10718 10713 10712 10709 ] final  141.22 input   66.30 | X-H torsion
[ 10763 10752 10751 10750 ] final   97.41 input  -60.55 | X-H torsion
[ 11005 11000 10999 10996 ] final  -14.86 input  -57.11 | X-H torsion

> <Gold.Protein.ActiveResidues>
 VAL166  LYS551  ARG553  GLY616  TRP617  ASP618  TYR619  PRO620  LYS621  CYS622 
 ASP623  PHE694  ASN695  SER759  ASP760  ASP761  ALA762  ILE779  LEU786  VAL792 
 PHE793  MET794  SER795  GLU796  ALA797  LYS798  CYS799  TRP800  GLU811  SER814 

> <Gold.Protein.RotatedAtoms>
  150.8016  133.8588  159.3225 H   0  0  0  0  0  0  0  0  0  0  0  0  # atno 6907 bound_to 6896
  151.6399  135.1012  160.0148 H   0  0  0  0  0  0  0  0  0  0  0  0  # atno 6908 bound_to 6896
  152.4104  133.6914  159.6427 H   0  0  0  0  0  0  0  0  0  0  0  0  # atno 6909 bound_to 6896
  145.9476  140.7603  142.9520 H   0  0  0  0  0  0  0  0  0  0  0  0  # atno 7974 bound_to 7965
  155.7187  140.3493  155.5006 H   0  0  0  0  0  0  0  0  0  0  0  0  # atno 8008 bound_to 7997
  155.9290  140.1080  157.1169 H   0  0  0  0  0  0  0  0  0  0  0  0  # atno 8009 bound_to 7997
  154.4082  140.1235  156.4764 H   0  0  0  0  0  0  0  0  0  0  0  0  # atno 8010 bound_to 7997
  140.2119  143.3740  152.1043 H   0  0  0  0  0  0  0  0  0  0  0  0  # atno 10167 bound_to 10162
  157.3945  131.1009  151.0613 H   0  0  0  0  0  0  0  0  0  0  0  0  # atno 10718 bound_to 10713
  153.2766  135.4184  155.1038 H   0  0  0  0  0  0  0  0  0  0  0  0  # atno 10763 bound_to 10752
  154.8475  135.3485  154.6170 H   0  0  0  0  0  0  0  0  0  0  0  0  # atno 10764 bound_to 10752
  153.6591  135.7049  153.5241 H   0  0  0  0  0  0  0  0  0  0  0  0  # atno 10765 bound_to 10752
  140.7907  133.8290  155.9377 H   0  0  0  0  0  0  0  0  0  0  0  0  # atno 11005 bound_to 11000
  144.6790  140.2382  143.7347 LP  0  0  0  0  0  0  0  0  0  0  0  0  # atno 17320 bound_to 7965
  145.8215  139.2045  143.1935 LP  0  0  0  0  0  0  0  0  0  0  0  0  # atno 17321 bound_to 7965
  139.5177  144.6995  151.5534 LP  0  0  0  0  0  0  0  0  0  0  0  0  # atno 17342 bound_to 10162
  140.6318  143.9062  150.6612 LP  0  0  0  0  0  0  0  0  0  0  0  0  # atno 17343 bound_to 10162
  157.1635  130.6236  149.5618 LP  0  0  0  0  0  0  0  0  0  0  0  0  # atno 17370 bound_to 10713
  155.9807  130.4809  150.6786 LP  0  0  0  0  0  0  0  0  0  0  0  0  # atno 17371 bound_to 10713
  140.9392  134.1923  157.4810 LP  0  0  0  0  0  0  0  0  0  0  0  0  # atno 17394 bound_to 11000
  139.8731  134.9865  156.5326 LP  0  0  0  0  0  0  0  0  0  0  0  0  # atno 17395 bound_to 11000

$$$$
