#       Name:                AV-unprocessed.smi:3350
#       Creating user name   scv26
#       Creation time:       Fri Mar 27 19:37:41 2020


#       File generated by GOLD software.
#

@<TRIPOS>MOLECULE
AV-unprocessed.smi:3350
    46    47     1
SMALL
NO_CHARGES


@<TRIPOS>ATOM
      1 ****        -3.2319  -2.2455  -1.2332 C.3            1 S1                 0.0000
      2 ****        -2.6387  -1.4753  -0.0459 C.3            1 S1                 0.0000
      3 ****        -2.9865  -2.1552   1.2947 C.3            1 S1                 0.0000
      4 ****        -2.5554  -1.3796   2.4448 N.pl3          1 S1                 0.0000
      5 ****        -3.1130  -0.2281   2.9594 C.2            1 S1                 0.0000
      6 ****        -2.3609   0.1406   4.0376 C.2            1 S1                 0.0000
      7 ****        -1.3530  -0.8616   4.1052 C.2            1 S1                 0.0000
      8 ****        -1.4736  -1.7718   3.1526 N.2            1 S1                 0.0000
      9 ****        -1.1902  -1.3771  -0.2205 N.am           1 S1                 0.0000
     10 ****        -0.4530  -0.2738  -0.0266 C.2            1 S1                 0.0000
     11 ****        -0.9133   0.8138   0.3215 O.2            1 S1                 0.0000
     12 ****         0.8480  -0.5044  -0.2520 N.am           1 S1                 0.0000
     13 ****         1.9200   0.4796  -0.1234 C.3            1 S1                 0.0000
     14 ****         3.1304  -0.2048   0.5302 C.3            1 S1                 0.0000
     15 ****         2.2588   1.0721  -1.5072 C.3            1 S1                 0.0000
     16 ****         3.3321   2.1628  -1.4906 C.3            1 S1                 0.0000
     17 ****         3.0225   2.9996  -2.7232 C.3            1 S1                 0.0000
     18 ****         1.6250   2.5395  -3.1448 C.3            1 S1                 0.0000
     19 ****         1.1482   1.7697  -2.0511 O.3            1 S1                 0.0000
     20 ****        -4.3179  -2.3068  -1.1576 H              1 S1                 0.0000
     21 ****        -2.8443  -3.2637  -1.2807 H              1 S1                 0.0000
     22 ****        -2.9957  -1.7542  -2.1778 H              1 S1                 0.0000
     23 ****        -3.0832  -0.4783  -0.0558 H              1 S1                 0.0000
     24 ****        -4.0656  -2.2918   1.3740 H              1 S1                 0.0000
     25 ****        -2.5442  -3.1517   1.3459 H              1 S1                 0.0000
     26 ****        -3.9853   0.2301   2.5171 H              1 S1                 0.0000
     27 ****        -2.5072   0.9967   4.6792 H              1 S1                 0.0000
     28 ****        -0.5439  -0.9553   4.8143 H              1 S1                 0.0000
     29 ****        -0.7111  -2.2205  -0.4997 H              1 S1                 0.0000
     30 ****         1.1206  -1.4343  -0.5344 H              1 S1                 0.0000
     31 ****         1.6004   1.2871   0.5380 H              1 S1                 0.0000
     32 ****         3.9392   0.5037   0.7097 H              1 S1                 0.0000
     33 ****         3.5223  -1.0049  -0.0986 H              1 S1                 0.0000
     34 ****         2.8611  -0.6395   1.4935 H              1 S1                 0.0000
     35 ****         2.5480   0.2794  -2.2004 H              1 S1                 0.0000
     36 ****         3.2275   2.7809  -0.5977 H              1 S1                 0.0000
     37 ****         4.3437   1.7560  -1.5004 H              1 S1                 0.0000
     38 ****         3.0392   4.0629  -2.4820 H              1 S1                 0.0000
     39 ****         3.7444   2.8253  -3.5217 H              1 S1                 0.0000
     40 ****         0.9565   3.3726  -3.3632 H              1 S1                 0.0000
     41 ****         1.6807   1.9057  -4.0311 H              1 S1                 0.0000
     42 ****        -0.8940  -2.5708   2.9925 LP             1 S1                 0.0000
     43 ****        -1.8959   0.9139   0.4779 LP             1 S1                 0.0000
     44 ****        -0.3046   1.5970   0.4479 LP             1 S1                 0.0000
     45 ****         0.7492   2.3705  -1.3583 LP             1 S1                 0.0000
     46 ****         0.4570   1.1194  -2.3663 LP             1 S1                 0.0000
@<TRIPOS>BOND
    1    1    2 1     
    2    1   20 1     
    3    1   21 1     
    4    1   22 1     
    5    2    3 1     
    6    2    9 1     
    7    2   23 1     
    8    3    4 1     
    9    3   24 1     
   10    3   25 1     
   11    4    8 1     
   12    4    5 1     
   13    5    6 2     
   14    5   26 1     
   15    6    7 1     
   16    6   27 1     
   17    7    8 2     
   18    7   28 1     
   19    9   10 am    
   20    9   29 1     
   21   10   11 2     
   22   10   12 am    
   23   12   13 1     
   24   12   30 1     
   25   13   14 1     
   26   13   15 1     
   27   13   31 1     
   28   14   32 1     
   29   14   33 1     
   30   14   34 1     
   31   15   19 1     
   32   15   16 1     
   33   15   35 1     
   34   16   17 1     
   35   16   36 1     
   36   16   37 1     
   37   17   18 1     
   38   17   38 1     
   39   17   39 1     
   40   18   19 1     
   41   18   40 1     
   42   18   41 1     
   43    8   42 1     
   44   11   43 1     
   45   11   44 1     
   46   19   45 1     
   47   19   46 1     
@<TRIPOS>SUBSTRUCTURE
      1 S1             1
@<TRIPOS>SET
LONE_PAIRS      STATIC     ATOMS    <user>   **** ""
5 42 43 44 45 46
DONOR_HYDROGENS      STATIC     ATOMS    <user>   **** ""
2 29 30
ATOM$BLUE        STATIC     ATOMS    COLORGROUP SYSTEM
5 42 43 44 45 46
ATOM$RED        STATIC     ATOMS    COLORGROUP SYSTEM
2 29 30
