#       Name:                AV-unprocessed.smi:1695
#       Creating user name   scv26
#       Creation time:       Fri Mar 27 07:56:31 2020


#       File generated by GOLD software.
#

@<TRIPOS>MOLECULE
AV-unprocessed.smi:1695
    56    58     1
SMALL
NO_CHARGES


@<TRIPOS>ATOM
      1 ****        -3.6705   4.7318  -3.1274 C.3            1 S1                 0.0000
      2 ****        -3.3761   3.7115  -2.0420 C.ar           1 S1                 0.0000
      3 ****        -3.7443   4.0011  -0.7087 C.ar           1 S1                 0.0000
      4 ****        -3.4869   3.0801   0.3303 C.ar           1 S1                 0.0000
      5 ****        -3.7578   3.1553   1.6859 N.2            1 S1                 0.0000
      6 ****        -3.2795   1.9923   2.1194 C.2            1 S1                 0.0000
      7 ****        -2.7308   1.1716   1.2030 N.pl3          1 S1                 0.0000
      8 ****        -2.1502  -0.1390   1.4338 C.3            1 S1                 0.0000
      9 ****        -0.6102  -0.1086   1.4398 C.3            1 S1                 0.0000
     10 ****        -0.1679   0.7304   2.4891 O.3            1 S1                 0.0000
     11 ****        -0.0197  -1.5162   1.6575 C.3            1 S1                 0.0000
     12 ****         1.4298  -1.6316   1.4790 N.3            1 S1                 0.0000
     13 ****         1.8363  -1.4809   0.0777 C.3            1 S1                 0.0000
     14 ****         3.3613  -1.5607  -0.1082 C.3            1 S1                 0.0000
     15 ****         3.9084  -2.8930   0.4413 C.3            1 S1                 0.0000
     16 ****         5.4386  -2.9531   0.3413 C.2            1 S1                 0.0000
     17 ****         5.9621  -3.9318  -0.4014 N.am           1 S1                 0.0000
     18 ****         6.1410  -2.1291   0.9243 O.2            1 S1                 0.0000
     19 ****         3.4346  -3.0653   1.8978 C.3            1 S1                 0.0000
     20 ****         1.9065  -2.9174   1.9897 C.3            1 S1                 0.0000
     21 ****        -2.8457   1.8517  -0.0040 C.ar           1 S1                 0.0000
     22 ****        -2.4741   1.5519  -1.3265 C.ar           1 S1                 0.0000
     23 ****        -2.7386   2.4833  -2.3525 C.ar           1 S1                 0.0000
     24 ****        -2.3342   2.1504  -3.7777 C.3            1 S1                 0.0000
     25 ****        -4.2133   5.5901  -2.7307 H              1 S1                 0.0000
     26 ****        -4.2788   4.2888  -3.9160 H              1 S1                 0.0000
     27 ****        -2.7427   5.0965  -3.5682 H              1 S1                 0.0000
     28 ****        -4.2287   4.9369  -0.4718 H              1 S1                 0.0000
     29 ****        -3.3290   1.7207   3.1638 H              1 S1                 0.0000
     30 ****        -2.5299  -0.5300   2.3790 H              1 S1                 0.0000
     31 ****        -2.5103  -0.8092   0.6522 H              1 S1                 0.0000
     32 ****        -0.2729   0.3146   0.4950 H              1 S1                 0.0000
     33 ****         0.7774   0.7341   2.4870 H              1 S1                 0.0000
     34 ****        -0.2874  -1.8373   2.6654 H              1 S1                 0.0000
     35 ****        -0.5143  -2.2201   0.9861 H              1 S1                 0.0000
     36 ****         1.3551  -2.2475  -0.5317 H              1 S1                 0.0000
     37 ****         1.5027  -0.5222  -0.3152 H              1 S1                 0.0000
     38 ****         3.6082  -1.4597  -1.1659 H              1 S1                 0.0000
     39 ****         3.8288  -0.7165   0.4016 H              1 S1                 0.0000
     40 ****         3.4875  -3.7064  -0.1530 H              1 S1                 0.0000
     41 ****         6.9639  -4.0135  -0.4964 H              1 S1                 0.0000
     42 ****         5.3518  -4.5892  -0.8654 H              1 S1                 0.0000
     43 ****         3.7315  -4.0436   2.2773 H              1 S1                 0.0000
     44 ****         3.9075  -2.3243   2.5445 H              1 S1                 0.0000
     45 ****         1.6087  -3.0302   3.0328 H              1 S1                 0.0000
     46 ****         1.4289  -3.7324   1.4438 H              1 S1                 0.0000
     47 ****        -1.9891   0.6127  -1.5478 H              1 S1                 0.0000
     48 ****        -1.8216   1.1896  -3.8316 H              1 S1                 0.0000
     49 ****        -1.6606   2.9109  -4.1732 H              1 S1                 0.0000
     50 ****        -3.2134   2.0971  -4.4203 H              1 S1                 0.0000
     51 ****        -4.1971   3.8901   2.2027 LP             1 S1                 0.0000
     52 ****        -0.5028   0.3823   3.3646 LP             1 S1                 0.0000
     53 ****        -0.5101   1.6592   2.3467 LP             1 S1                 0.0000
     54 ****         1.8442  -0.8842   1.9983 LP             1 S1                 0.0000
     55 ****         5.7162  -1.4083   1.4720 LP             1 S1                 0.0000
     56 ****         7.1370  -2.1798   0.8506 LP             1 S1                 0.0000
@<TRIPOS>BOND
    1    1    2 1     
    2    1   25 1     
    3    1   26 1     
    4    1   27 1     
    5    2   23 ar    
    6    2    3 ar    
    7    3    4 ar    
    8    3   28 1     
    9    4   21 ar    
   10    4    5 1     
   11    5    6 2     
   12    6    7 1     
   13    6   29 1     
   14    7    8 1     
   15    7   21 1     
   16    8    9 1     
   17    8   30 1     
   18    8   31 1     
   19    9   10 1     
   20    9   11 1     
   21    9   32 1     
   22   10   33 1     
   23   11   12 1     
   24   11   34 1     
   25   11   35 1     
   26   12   20 1     
   27   12   13 1     
   28   13   14 1     
   29   13   36 1     
   30   13   37 1     
   31   14   15 1     
   32   14   38 1     
   33   14   39 1     
   34   15   16 1     
   35   15   19 1     
   36   15   40 1     
   37   16   17 am    
   38   16   18 2     
   39   17   41 1     
   40   17   42 1     
   41   19   20 1     
   42   19   43 1     
   43   19   44 1     
   44   20   45 1     
   45   20   46 1     
   46   21   22 ar    
   47   22   23 ar    
   48   22   47 1     
   49   23   24 1     
   50   24   48 1     
   51   24   49 1     
   52   24   50 1     
   53    5   51 1     
   54   10   52 1     
   55   10   53 1     
   56   12   54 1     
   57   18   55 1     
   58   18   56 1     
@<TRIPOS>SUBSTRUCTURE
      1 S1             1
@<TRIPOS>SET
LONE_PAIRS      STATIC     ATOMS    <user>   **** ""
6 51 52 53 54 55 56
DONOR_HYDROGENS      STATIC     ATOMS    <user>   **** ""
3 33 41 42
ATOM$BLUE        STATIC     ATOMS    COLORGROUP SYSTEM
6 51 52 53 54 55 56
ATOM$RED        STATIC     ATOMS    COLORGROUP SYSTEM
3 33 41 42
