AV-unprocessed.smi:2588|AV-procd|sdf|10150|dock1
  -GOLD-   2272014163D 1   1.00000     0.00000
 Structure written by MMmdl.
 39 40  0  0  0  0  0  0  0  0  1 V2000
  144.1559  133.0084  149.3768 C   0  0  0  0  0  0  0  0  0  0  0  0
  145.0564  132.8018  150.6154 C   0  0  0  0  0  0  0  0  0  0  0  0
  144.5771  131.5306  151.3520 C   0  0  0  0  0  0  0  0  0  0  0  0
  145.0560  133.9844  151.5027 N   0  0  0  0  0  0  0  0  0  0  0  0
  143.6973  134.3058  151.9701 C   0  0  0  0  0  0  0  0  0  0  0  0
  143.7007  135.4848  152.9586 C   0  0  0  0  0  0  0  0  0  0  0  0
  144.3024  136.7420  152.3179 C   0  0  0  0  0  0  0  0  0  0  0  0
  144.4257  137.8204  153.2939 N   0  0  0  0  0  0  0  0  0  0  0  0
  144.9110  137.6856  154.5375 C   0  0  0  0  0  0  0  0  0  0  0  0
  145.2917  136.6091  155.0000 O   0  0  0  0  0  0  0  0  0  0  0  0
  144.9509  138.9623  155.3875 C   0  0  0  0  0  0  0  0  0  0  0  0
  145.8071  140.0030  154.8163 N   0  0  0  0  0  0  0  0  0  0  0  0
  146.5652  139.6896  153.7308 N   0  0  0  0  0  0  0  0  0  0  0  0
  147.2515  140.6955  153.3319 C   0  0  0  0  0  0  0  0  0  0  0  0
  147.0582  142.1893  154.2588 S   0  0  0  0  0  0  0  0  0  0  0  0
  145.9053  141.3059  155.2969 C   0  0  0  0  0  0  0  0  0  0  0  0
  145.3279  141.8141  156.2565 O   0  0  0  0  0  0  0  0  0  0  0  0
  145.6806  136.3822  151.7556 C   0  0  0  0  0  0  0  0  0  0  0  0
  145.5957  135.1683  150.8141 C   0  0  0  0  0  0  0  0  0  0  0  0
  144.0368  132.0790  148.8192 H   0  0  0  0  0  0  0  0  0  0  0  0
  144.5761  133.7231  148.6701 H   0  0  0  0  0  0  0  0  0  0  0  0
  143.1592  133.3495  149.6597 H   0  0  0  0  0  0  0  0  0  0  0  0
  146.0753  132.6271  150.2664 H   0  0  0  0  0  0  0  0  0  0  0  0
  144.4264  130.7066  150.6539 H   0  0  0  0  0  0  0  0  0  0  0  0
  143.6299  131.6999  151.8656 H   0  0  0  0  0  0  0  0  0  0  0  0
  145.3028  131.1699  152.0800 H   0  0  0  0  0  0  0  0  0  0  0  0
  143.0506  134.5264  151.1193 H   0  0  0  0  0  0  0  0  0  0  0  0
  143.2565  133.4616  152.4964 H   0  0  0  0  0  0  0  0  0  0  0  0
  142.6815  135.6831  153.2919 H   0  0  0  0  0  0  0  0  0  0  0  0
  144.2686  135.2091  153.8485 H   0  0  0  0  0  0  0  0  0  0  0  0
  143.6651  137.0690  151.4937 H   0  0  0  0  0  0  0  0  0  0  0  0
  144.1297  138.7390  152.9971 H   0  0  0  0  0  0  0  0  0  0  0  0
  143.9407  139.3592  155.5007 H   0  0  0  0  0  0  0  0  0  0  0  0
  145.2929  138.6999  156.3899 H   0  0  0  0  0  0  0  0  0  0  0  0
  147.9349  140.7121  152.4829 H   0  0  0  0  0  0  0  0  0  0  0  0
  146.0975  137.2347  151.2184 H   0  0  0  0  0  0  0  0  0  0  0  0
  146.3727  136.1601  152.5696 H   0  0  0  0  0  0  0  0  0  0  0  0
  146.6052  134.9824  150.4537 H   0  0  0  0  0  0  0  0  0  0  0  0
  144.9832  135.4054  149.9429 H   0  0  0  0  0  0  0  0  0  0  0  0
  1  2  1  0  0  0  0
  1 20  1  0  0  0  0
  1 21  1  0  0  0  0
  1 22  1  0  0  0  0
  2  3  1  0  0  0  0
  2  4  1  0  0  0  0
  2 23  1  0  0  0  0
  3 24  1  0  0  0  0
  3 25  1  0  0  0  0
  3 26  1  0  0  0  0
  4 19  1  0  0  0  0
  4  5  1  0  0  0  0
  5  6  1  0  0  0  0
  5 27  1  0  0  0  0
  5 28  1  0  0  0  0
  6  7  1  0  0  0  0
  6 29  1  0  0  0  0
  6 30  1  0  0  0  0
  7  8  1  0  0  0  0
  7 18  1  0  0  0  0
  7 31  1  0  0  0  0
  8  9  1  0  0  0  0
  8 32  1  0  0  0  0
  9 10  2  0  0  0  0
  9 11  1  0  0  0  0
 11 12  1  0  0  0  0
 11 33  1  0  0  0  0
 11 34  1  0  0  0  0
 12 16  1  0  0  0  0
 12 13  1  0  0  0  0
 13 14  2  0  0  0  0
 14 15  1  0  0  0  0
 14 35  1  0  0  0  0
 15 16  1  0  0  0  0
 16 17  2  0  0  0  0
 18 19  1  0  0  0  0
 18 36  1  0  0  0  0
 18 37  1  0  0  0  0
 19 38  1  0  0  0  0
 19 39  1  0  0  0  0
M  END
> <s_m_source_file>
AV-unprocessed.smi

> <i_m_source_file_index>
2588

> <i_lp_mmshare_version>
43012

> <i_f3d_flags>
0

> <s_epik_input>
W0NIM11bQ0hdKFtDSDNdKU4xW0NIMl1bQ0gyXVtDSF0oW0NIMl1bQ0gyXTEpW05IXUMoPU8pW0NIMl1uMm5bY0hdc2MyPU8=

> <s_epik_cmdline>
J2VwaWtfcHl0aG9uJywgJy1waCcsICc3LjAnLCAnLXRuJywgJzgnLCAnLW1hJywgJzIwMCcsICctbWV0YWxfYmluZGluZycsICctaW1hZScsICc8aW5maWxlLm1hZT4nLCAnLW9tYWUnLCAnPG91dGZpbGUubWFlPic=

> <r_lp_tautomer_probability>
1

> <r_epik_Ionization_Penalty>
2.47038

> <r_epik_Ionization_Penalty_Charging>
1.38606e-08

> <r_epik_Ionization_Penalty_Neutral>
2.47038

> <r_epik_State_Penalty>
2.63325

> <r_epik_Charging_Adjusted_Penalty>
2.63325

> <i_epik_Tot_Q>
0

> <i_epik_Tot_abs_Q>
0

> <r_epik_Metal_State_Penalty>
2.63325

> <b_epik_Metal_Only>
0

> <s_lp_Force_Field>
OPLS_2005

> <r_lp_Energy>
19.6439

> <b_lp_Chiralities_Consistent>
1

> <s_lp_Variant>
AV-unprocessed.smi:2588-3

> <Gold.Version>
5.8.1

> <Gold.Id.Protein>
6NUR|6NUR_protein|mol2

> <Gold.PLP.Fitness>
34.6883

> <Gold.PLP.PLP>
-29.1574

> <Gold.PLP.part.hbond>
-1.0000

> <Gold.PLP.part.metal>
0.0000

> <Gold.PLP.part.buried>
-3.6351

> <Gold.PLP.part.nonpolar>
-24.3094

> <Gold.PLP.part.repulsive>
0.3612

> <Gold.PLP.ligand.clash>
0.0000

> <Gold.PLP.ligand.torsion>
0.2409

> <Gold.PLP.Chemscore.Hbond>
1.0000

> <Gold.PLP.Chemscore.CHOScore>
1.0000

> <Gold.PLP.Chemscore.Metal>
0.0000

> <Gold.Chemscore.Hbonds>
donor molecule, donor type, donor heavy atom, donor atom, acceptor molecule, acceptor atom, score
      L1  H     8    32       P1 10175  1.00
      L1  C    14    35       P1  7957  1.00

> <Gold.PLP.Chemscore.Internal.Correction>
0.0128

> <Gold.Rescore>
     Score         DG    S(hbond)    S(metal)    S(lipo)     H(rot)  DE(clash)    DE(int)     intcor
      9.50     -12.10       0.99        0.00      68.35       1.83       0.02       2.58       ----

> <Gold.Chemscore.Fitness>
9.4954

> <Gold.Chemscore.DG>
-12.1011

> <Gold.Chemscore.ZeroCoef>
-5.4800

> <Gold.Chemscore.Hbond>
0.9932

> <Gold.Chemscore.Metal>
0.0000

> <Gold.Chemscore.Lipo>
68.3489

> <Gold.Chemscore.Internal_Hbond>
0.0000

> <Gold.Chemscore.DEClash>
0.0237

> <Gold.Chemscore.DEInternal>
2.5820

> <Gold.Chemscore.Rot>
1.8332

> <Gold.Chemscore.Internal.Correction>
   9.000000E+99

> <Gold.Chemscore.Hbonds>
donor molecule, donor type, donor heavy atom, donor atom, acceptor molecule, acceptor atom, score
      L1  H     8    32       P1 10175  1.00

> <Gold.Chemscore.Hbond.Weighted>
-3.3173

> <Gold.Chemscore.Metal.Weighted>
-0.0000

> <Gold.Chemscore.Lipo.Weighted>
-7.9968

> <Gold.Chemscore.Internal_Hbond.Weighted>
0.0000

> <Gold.Chemscore.DEClash.Weighted>
0.0237

> <Gold.Chemscore.DEInternal.Weighted>
2.5820

> <Gold.Chemscore.Rot.Weighted>
4.6930

> <Gold.Chemscore.Internal.Correction.Weighted>
   9.000000E+99

> <Gold.Protein.RotatedTorsions>
[ 6907 6896 6895 6894 ] final  -71.48 input  -60.11 | X-H torsion
[ 7974 7965 7964 7962 ] final  139.71 input  175.53 | X-H torsion
[ 8008 7997 7996 7995 ] final   91.28 input   59.86 | X-H torsion
[ 10167 10162 10161 10158 ] final -126.85 input  -65.29 | X-H torsion
[ 10718 10713 10712 10709 ] final  -63.00 input   66.30 | X-H torsion
[ 10763 10752 10751 10750 ] final  127.12 input  -60.55 | X-H torsion
[ 11005 11000 10999 10996 ] final    4.45 input  -57.11 | X-H torsion

> <Gold.Protein.ActiveResidues>
 VAL166  LYS551  ARG553  GLY616  TRP617  ASP618  TYR619  PRO620  LYS621  CYS622 
 ASP623  PHE694  ASN695  SER759  ASP760  ASP761  ALA762  ILE779  LEU786  VAL792 
 PHE793  MET794  SER795  GLU796  ALA797  LYS798  CYS799  TRP800  GLU811  SER814 

> <Gold.Protein.RotatedAtoms>
  150.7210  134.5301  159.5695 H   0  0  0  0  0  0  0  0  0  0  0  0  # atno 6907 bound_to 6896
  152.2836  134.7797  160.0401 H   0  0  0  0  0  0  0  0  0  0  0  0  # atno 6908 bound_to 6896
  151.8435  133.3392  159.3687 H   0  0  0  0  0  0  0  0  0  0  0  0  # atno 6909 bound_to 6896
  144.9253  139.5115  143.5643 H   0  0  0  0  0  0  0  0  0  0  0  0  # atno 7974 bound_to 7965
  156.0219  140.3339  155.7048 H   0  0  0  0  0  0  0  0  0  0  0  0  # atno 8008 bound_to 7997
  155.6010  140.0655  157.2750 H   0  0  0  0  0  0  0  0  0  0  0  0  # atno 8009 bound_to 7997
  154.4319  140.1810  156.1161 H   0  0  0  0  0  0  0  0  0  0  0  0  # atno 8010 bound_to 7997
  139.9671  143.5886  152.2425 H   0  0  0  0  0  0  0  0  0  0  0  0  # atno 10167 bound_to 10162
  156.0819  130.4215  150.1215 H   0  0  0  0  0  0  0  0  0  0  0  0  # atno 10718 bound_to 10713
  153.7043  135.3278  155.3232 H   0  0  0  0  0  0  0  0  0  0  0  0  # atno 10763 bound_to 10752
  154.8404  135.4461  154.1379 H   0  0  0  0  0  0  0  0  0  0  0  0  # atno 10764 bound_to 10752
  153.2455  135.6975  153.7815 H   0  0  0  0  0  0  0  0  0  0  0  0  # atno 10765 bound_to 10752
  140.5818  134.0006  155.8051 H   0  0  0  0  0  0  0  0  0  0  0  0  # atno 11005 bound_to 11000
  146.3223  139.8164  142.8935 LP  0  0  0  0  0  0  0  0  0  0  0  0  # atno 17320 bound_to 7965
  145.3229  141.0248  143.3490 LP  0  0  0  0  0  0  0  0  0  0  0  0  # atno 17321 bound_to 7965
  139.6509  144.7660  151.2149 LP  0  0  0  0  0  0  0  0  0  0  0  0  # atno 17342 bound_to 10162
  140.7534  143.6162  150.8557 LP  0  0  0  0  0  0  0  0  0  0  0  0  # atno 17343 bound_to 10162
  156.9244  130.9693  151.3543 LP  0  0  0  0  0  0  0  0  0  0  0  0  # atno 17370 bound_to 10713
  157.5939  130.8463  149.8699 LP  0  0  0  0  0  0  0  0  0  0  0  0  # atno 17371 bound_to 10713
  141.0991  133.9796  157.3109 LP  0  0  0  0  0  0  0  0  0  0  0  0  # atno 17394 bound_to 11000
  139.9314  135.0199  156.8412 LP  0  0  0  0  0  0  0  0  0  0  0  0  # atno 17395 bound_to 11000

$$$$
