AV-unprocessed.smi:1816|AV-procd|sdf|7366|dock7
  -GOLD-   22720 9 33D 1   1.00000     0.00000
 Structure written by MMmdl.
 35 36  0  0  0  0  0  0  0  0  3 V2000
  147.3319  137.1680  154.8180 C   0  0  0  0  0  0  0  0  0  0  0  0
  147.5114  135.6340  154.8598 C   0  0  2  0  0  0  0  0  0  0  0  0
  148.8847  135.2719  155.4771 C   0  0  0  0  0  0  0  0  0  0  0  0
  149.0293  135.7651  156.8462 N   0  0  0  0  0  0  0  0  0  0  0  0
  148.8924  135.0546  157.9745 C   0  0  0  0  0  0  0  0  0  0  0  0
  148.5608  133.8689  157.9217 O   0  0  0  0  0  0  0  0  0  0  0  0
  149.1660  135.7595  159.0939 N   0  5  0  0  0  0  0  0  0  0  0  0
  148.3943  135.6142  160.1833 C   0  0  0  0  0  0  0  0  0  0  0  0
  148.2859  136.5542  161.1292 N   0  0  0  0  0  0  0  0  0  0  0  0
  147.4261  136.1975  162.1697 C   0  0  0  0  0  0  0  0  0  0  0  0
  146.8630  134.9592  162.0094 C   0  0  0  0  0  0  0  0  0  0  0  0
  147.3964  134.2008  160.5363 S   0  0  0  0  0  0  0  0  0  0  0  0
  147.3369  135.0039  153.5183 N   0  3  0  0  0  0  0  0  0  0  0  0
  147.6566  133.5625  153.4612 C   0  0  0  0  0  0  0  0  0  0  0  0
  147.0964  133.0911  152.1218 C   0  0  0  0  0  0  0  0  0  0  0  0
  145.8892  133.9978  151.8674 C   0  0  0  0  0  0  0  0  0  0  0  0
  145.9974  135.1267  152.9015 C   0  0  0  0  0  0  0  0  0  0  0  0
  147.5486  137.6108  155.7904 H   0  0  0  0  0  0  0  0  0  0  0  0
  146.3112  137.4545  154.5653 H   0  0  0  0  0  0  0  0  0  0  0  0
  147.9980  137.6322  154.0897 H   0  0  0  0  0  0  0  0  0  0  0  0
  146.7333  135.2396  155.5152 H   0  0  0  0  0  0  0  0  0  0  0  0
  148.9887  134.1872  155.5121 H   0  0  0  0  0  0  0  0  0  0  0  0
  149.7070  135.6201  154.8511 H   0  0  0  0  0  0  0  0  0  0  0  0
  149.2900  136.7354  156.9498 H   0  0  0  0  0  0  0  0  0  0  0  0
  147.2730  136.8877  162.9860 H   0  0  0  0  0  0  0  0  0  0  0  0
  146.1700  134.4505  162.6621 H   0  0  0  0  0  0  0  0  0  0  0  0
  148.7226  133.3584  153.5506 H   0  0  0  0  0  0  0  0  0  0  0  0
  147.1483  133.0421  154.2746 H   0  0  0  0  0  0  0  0  0  0  0  0
  147.8412  133.2450  151.3398 H   0  0  0  0  0  0  0  0  0  0  0  0
  146.8360  132.0321  152.1286 H   0  0  0  0  0  0  0  0  0  0  0  0
  145.9110  134.3890  150.8493 H   0  0  0  0  0  0  0  0  0  0  0  0
  144.9520  133.4537  151.9910 H   0  0  0  0  0  0  0  0  0  0  0  0
  145.2284  134.9877  153.6631 H   0  0  0  0  0  0  0  0  0  0  0  0
  145.8554  136.1096  152.4508 H   0  0  0  0  0  0  0  0  0  0  0  0
  147.9796  135.4659  152.8894 H   0  0  0  0  0  0  0  0  0  0  0  0
  1  2  1  0  0  0  0
  1 18  1  0  0  0  0
  1 19  1  0  0  0  0
  1 20  1  0  0  0  0
  2  3  1  0  0  0  0
  2 13  1  0  0  0  0
  2 21  1  0  0  0  0
  3  4  1  0  0  0  0
  3 22  1  0  0  0  0
  3 23  1  0  0  0  0
  4  5  1  0  0  0  0
  4 24  1  0  0  0  0
  5  6  2  0  0  0  0
  5  7  1  0  0  0  0
  7  8  1  0  0  0  0
  8 12  1  0  0  0  0
  8  9  2  0  0  0  0
  9 10  1  0  0  0  0
 10 11  2  0  0  0  0
 10 25  1  0  0  0  0
 11 12  1  0  0  0  0
 11 26  1  0  0  0  0
 13 17  1  0  0  0  0
 13 14  1  0  0  0  0
 13 35  1  0  0  0  0
 14 15  1  0  0  0  0
 14 27  1  0  0  0  0
 14 28  1  0  0  0  0
 15 16  1  0  0  0  0
 15 29  1  0  0  0  0
 15 30  1  0  0  0  0
 16 17  1  0  0  0  0
 16 31  1  0  0  0  0
 16 32  1  0  0  0  0
 17 33  1  0  0  0  0
 17 34  1  0  0  0  0
M  CHG  1   7  -1
M  CHG  1  13   1
M  END
> <s_m_source_file>
AV-unprocessed.smi

> <i_m_source_file_index>
1816

> <i_lp_mmshare_version>
43012

> <i_f3d_flags>
0

> <s_epik_input>
W0NIMl0xW0NIMl1bQ0gyXVtDSDJdTjFbQ0BIXShbQ0gzXSlbQ0gyXVtOSF1DKD1PKVtOSF1jMm5bY0hdW2NIXXMy

> <s_epik_cmdline>
J2VwaWtfcHl0aG9uJywgJy1waCcsICc3LjAnLCAnLXRuJywgJzgnLCAnLW1hJywgJzIwMCcsICctbWV0YWxfYmluZGluZycsICctaW1hZScsICc8aW5maWxlLm1hZT4nLCAnLW9tYWUnLCAnPG91dGZpbGUubWFlPic=

> <r_lp_tautomer_probability>
0.999

> <r_epik_Ionization_Penalty>
6.21769

> <r_epik_Ionization_Penalty_Charging>
5.38662

> <r_epik_Ionization_Penalty_Neutral>
0.831074

> <r_epik_State_Penalty>
5.38626

> <r_epik_Charging_Adjusted_Penalty>
10.7729

> <i_epik_Tot_Q>
0

> <i_epik_Tot_abs_Q>
2

> <r_epik_Metal_State_Penalty>
1.41347

> <b_epik_Metal_Only>
1

> <s_lp_Force_Field>
OPLS_2005

> <r_lp_Energy>
25.8125

> <b_lp_Chiralities_Consistent>
1

> <s_lp_Variant>
AV-unprocessed.smi:1816-3

> <Gold.Version>
5.8.1

> <Gold.Id.Protein>
6NUR|6NUR_protein|mol2

> <Gold.PLP.Fitness>
37.1663

> <Gold.PLP.PLP>
-23.4091

> <Gold.PLP.part.hbond>
-3.0000

> <Gold.PLP.part.metal>
0.0000

> <Gold.PLP.part.buried>
-3.7660

> <Gold.PLP.part.nonpolar>
-17.7207

> <Gold.PLP.part.repulsive>
0.0366

> <Gold.PLP.ligand.clash>
0.0000

> <Gold.PLP.ligand.torsion>
0.6529

> <Gold.PLP.Chemscore.Hbond>
5.0000

> <Gold.PLP.Chemscore.CHOScore>
0.0000

> <Gold.PLP.Chemscore.Metal>
0.0000

> <Gold.Chemscore.Hbonds>
donor molecule, donor type, donor heavy atom, donor atom, acceptor molecule, acceptor atom, score
      L1  H    13    35       P1  7948  2.00
      P1  H  6896  6907       L1     7  2.00
      P1  H  6931  6943       L1     9  0.95

> <Gold.PLP.Chemscore.Internal.Correction>
0.0631

> <Gold.Rescore>
     Score         DG    S(hbond)    S(metal)    S(lipo)     H(rot)  DE(clash)    DE(int)     intcor
     13.54     -15.38       2.45        0.00      49.03       1.57       0.00       1.83       ----

> <Gold.Chemscore.Fitness>
13.5413

> <Gold.Chemscore.DG>
-15.3784

> <Gold.Chemscore.ZeroCoef>
-5.4800

> <Gold.Chemscore.Hbond>
2.4503

> <Gold.Chemscore.Metal>
0.0000

> <Gold.Chemscore.Lipo>
49.0290

> <Gold.Chemscore.Internal_Hbond>
0.0000

> <Gold.Chemscore.DEClash>
0.0029

> <Gold.Chemscore.DEInternal>
1.8342

> <Gold.Chemscore.Rot>
1.5710

> <Gold.Chemscore.Internal.Correction>
   9.000000E+99

> <Gold.Chemscore.Hbonds>
donor molecule, donor type, donor heavy atom, donor atom, acceptor molecule, acceptor atom, score
      L1  H    13    35       P1  7948  0.98
      P1  H  6896  6907       L1     7  0.06
      P1  H  6931  6943       L1     9  0.21

> <Gold.Chemscore.Hbond.Weighted>
-8.1839

> <Gold.Chemscore.Metal.Weighted>
-0.0000

> <Gold.Chemscore.Lipo.Weighted>
-5.7364

> <Gold.Chemscore.Internal_Hbond.Weighted>
0.0000

> <Gold.Chemscore.DEClash.Weighted>
0.0029

> <Gold.Chemscore.DEInternal.Weighted>
1.8342

> <Gold.Chemscore.Rot.Weighted>
4.0219

> <Gold.Chemscore.Internal.Correction.Weighted>
   9.000000E+99

> <Gold.Protein.RotatedTorsions>
[ 6907 6896 6895 6894 ] final  -51.88 input  -60.11 | X-H torsion
[ 7974 7965 7964 7962 ] final   95.02 input  175.53 | X-H torsion
[ 8008 7997 7996 7995 ] final  -57.52 input   59.86 | X-H torsion
[ 10167 10162 10161 10158 ] final  106.37 input  -65.29 | X-H torsion
[ 10718 10713 10712 10709 ] final  -16.72 input   66.30 | X-H torsion
[ 10763 10752 10751 10750 ] final   45.96 input  -60.55 | X-H torsion
[ 11005 11000 10999 10996 ] final -138.08 input  -57.11 | X-H torsion

> <Gold.Protein.ActiveResidues>
 VAL166  LYS551  ARG553  GLY616  TRP617  ASP618  TYR619  PRO620  LYS621  CYS622 
 ASP623  PHE694  ASN695  SER759  ASP760  ASP761  ALA762  ILE779  LEU786  VAL792 
 PHE793  MET794  SER795  GLU796  ALA797  LYS798  CYS799  TRP800  GLU811  SER814 

> <Gold.Protein.RotatedAtoms>
  150.8570  134.7912  159.7052 H   0  0  0  0  0  0  0  0  0  0  0  0  # atno 6907 bound_to 6896
  152.4619  134.5162  159.9778 H   0  0  0  0  0  0  0  0  0  0  0  0  # atno 6908 bound_to 6896
  151.5273  133.3417  159.2947 H   0  0  0  0  0  0  0  0  0  0  0  0  # atno 6909 bound_to 6896
  145.4578  139.2289  143.3004 H   0  0  0  0  0  0  0  0  0  0  0  0  # atno 7974 bound_to 7965
  154.4271  140.1105  156.5810 H   0  0  0  0  0  0  0  0  0  0  0  0  # atno 8008 bound_to 7997
  155.6112  140.3494  155.4604 H   0  0  0  0  0  0  0  0  0  0  0  0  # atno 8009 bound_to 7997
  156.0098  140.1216  157.0455 H   0  0  0  0  0  0  0  0  0  0  0  0  # atno 8010 bound_to 7997
  139.7015  144.7093  151.1177 H   0  0  0  0  0  0  0  0  0  0  0  0  # atno 10167 bound_to 10162
  156.5837  130.4780  149.6309 H   0  0  0  0  0  0  0  0  0  0  0  0  # atno 10718 bound_to 10713
  152.9817  135.6023  154.3521 H   0  0  0  0  0  0  0  0  0  0  0  0  # atno 10763 bound_to 10752
  154.3210  135.2769  155.2521 H   0  0  0  0  0  0  0  0  0  0  0  0  # atno 10764 bound_to 10752
  154.4688  135.5947  153.6363 H   0  0  0  0  0  0  0  0  0  0  0  0  # atno 10765 bound_to 10752
  140.8650  134.2121  157.4685 H   0  0  0  0  0  0  0  0  0  0  0  0  # atno 11005 bound_to 11000
  146.2468  140.5343  142.8910 LP  0  0  0  0  0  0  0  0  0  0  0  0  # atno 17320 bound_to 7965
  144.8022  140.6233  143.6471 LP  0  0  0  0  0  0  0  0  0  0  0  0  # atno 17321 bound_to 7965
  140.7711  143.5417  150.9305 LP  0  0  0  0  0  0  0  0  0  0  0  0  # atno 17342 bound_to 10162
  139.9099  143.6733  152.3117 LP  0  0  0  0  0  0  0  0  0  0  0  0  # atno 17343 bound_to 10162
  156.2610  130.6962  151.1730 LP  0  0  0  0  0  0  0  0  0  0  0  0  # atno 17370 bound_to 10713
  157.7320  131.0603  150.5648 LP  0  0  0  0  0  0  0  0  0  0  0  0  # atno 17371 bound_to 10713
  139.8709  134.9747  156.4858 LP  0  0  0  0  0  0  0  0  0  0  0  0  # atno 17394 bound_to 11000
  140.8639  133.8039  155.9293 LP  0  0  0  0  0  0  0  0  0  0  0  0  # atno 17395 bound_to 11000

$$$$
