AV-unprocessed.smi:1085|AV-procd|sdf|4721|dock3
  -GOLD-   22720 3253D 1   1.00000     0.00000
 Structure written by MMmdl.
 33 34  0  0  0  0  0  0  0  0  1 V2000
  152.9245  139.6851  156.0445 O   0  0  0  0  0  0  0  0  0  0  0  0
  151.7476  139.3446  156.1582 C   0  0  0  0  0  0  0  0  0  0  0  0
  151.0476  138.6202  155.0073 C   0  0  0  0  0  0  0  0  0  0  0  0
  150.0038  139.4450  154.4272 N   0  0  0  0  0  0  0  0  0  0  0  0
  148.8751  139.1159  153.7958 C   0  0  0  0  0  0  0  0  0  0  0  0
  148.2046  140.1884  153.4030 N   0  0  0  0  0  0  0  0  0  0  0  0
  149.0008  141.2347  153.8380 N   0  0  0  0  0  0  0  0  0  0  0  0
  150.0694  140.7998  154.4472 N   0  0  0  0  0  0  0  0  0  0  0  0
  151.0127  139.5739  157.2583 N   0  0  0  0  0  0  0  0  0  0  0  0
  151.4730  140.2691  158.4560 C   0  0  1  0  0  0  0  0  0  0  0  0
  152.9205  139.8626  158.7991 C   0  0  0  0  0  0  0  0  0  0  0  0
  153.4491  140.6489  160.0076 C   0  0  0  0  0  0  0  0  0  0  0  0
  153.3443  142.1641  159.7758 C   0  0  0  0  0  0  0  0  0  0  0  0
  151.8985  142.5903  159.4452 C   0  0  1  0  0  0  0  0  0  0  0  0
  151.7810  144.1125  159.2242 C   0  0  0  0  0  0  0  0  0  0  0  0
  152.1434  144.7800  160.3201 F   0  0  0  0  0  0  0  0  0  0  0  0
  152.5630  144.4883  158.2124 F   0  0  0  0  0  0  0  0  0  0  0  0
  150.5239  144.4345  158.9195 F   0  0  0  0  0  0  0  0  0  0  0  0
  151.3726  141.7901  158.2339 C   0  0  0  0  0  0  0  0  0  0  0  0
  151.7682  138.3697  154.2275 H   0  0  0  0  0  0  0  0  0  0  0  0
  150.6174  137.6830  155.3639 H   0  0  0  0  0  0  0  0  0  0  0  0
  148.5513  138.1007  153.6199 H   0  0  0  0  0  0  0  0  0  0  0  0
  150.0538  139.2561  157.2589 H   0  0  0  0  0  0  0  0  0  0  0  0
  150.8217  140.0022  159.2907 H   0  0  0  0  0  0  0  0  0  0  0  0
  152.9756  138.7940  159.0093 H   0  0  0  0  0  0  0  0  0  0  0  0
  153.5686  140.0415  157.9399 H   0  0  0  0  0  0  0  0  0  0  0  0
  152.8830  140.3743  160.8985 H   0  0  0  0  0  0  0  0  0  0  0  0
  154.4860  140.3739  160.2036 H   0  0  0  0  0  0  0  0  0  0  0  0
  153.6973  142.6900  160.6633 H   0  0  0  0  0  0  0  0  0  0  0  0
  154.0106  142.4526  158.9619 H   0  0  0  0  0  0  0  0  0  0  0  0
  151.2750  142.3373  160.3043 H   0  0  0  0  0  0  0  0  0  0  0  0
  151.9369  142.0675  157.3422 H   0  0  0  0  0  0  0  0  0  0  0  0
  150.3347  142.0598  158.0355 H   0  0  0  0  0  0  0  0  0  0  0  0
  1  2  2  0  0  0  0
  2  3  1  0  0  0  0
  2  9  1  0  0  0  0
  3  4  1  0  0  0  0
  3 20  1  0  0  0  0
  3 21  1  0  0  0  0
  4  8  1  0  0  0  0
  4  5  1  0  0  0  0
  5  6  2  0  0  0  0
  5 22  1  0  0  0  0
  6  7  1  0  0  0  0
  7  8  2  0  0  0  0
  9 10  1  0  0  0  0
  9 23  1  0  0  0  0
 10 19  1  0  0  0  0
 10 11  1  0  0  0  0
 10 24  1  0  0  0  0
 11 12  1  0  0  0  0
 11 25  1  0  0  0  0
 11 26  1  0  0  0  0
 12 13  1  0  0  0  0
 12 27  1  0  0  0  0
 12 28  1  0  0  0  0
 13 14  1  0  0  0  0
 13 29  1  0  0  0  0
 13 30  1  0  0  0  0
 14 15  1  0  0  0  0
 14 19  1  0  0  0  0
 14 31  1  0  0  0  0
 15 16  1  0  0  0  0
 15 17  1  0  0  0  0
 15 18  1  0  0  0  0
 19 32  1  0  0  0  0
 19 33  1  0  0  0  0
M  END
> <s_m_source_file>
AV-unprocessed.smi

> <i_m_source_file_index>
1085

> <i_lp_mmshare_version>
43012

> <i_f3d_flags>
0

> <s_epik_input>
bjFubltjSF1uMVtDSDJdQyg9TylbTkhdW0NAQEhdMltDSDJdW0NIMl1bQ0gyXVtDQEBIXShDKEYpKEYpRilbQ0gyXTI=

> <s_epik_cmdline>
J2VwaWtfcHl0aG9uJywgJy1waCcsICc3LjAnLCAnLXRuJywgJzgnLCAnLW1hJywgJzIwMCcsICctbWV0YWxfYmluZGluZycsICctaW1hZScsICc8aW5maWxlLm1hZT4nLCAnLW9tYWUnLCAnPG91dGZpbGUubWFlPic=

> <r_lp_tautomer_probability>
1

> <r_epik_Ionization_Penalty>
8.41315e-07

> <r_epik_Ionization_Penalty_Charging>
0

> <r_epik_Ionization_Penalty_Neutral>
8.41315e-07

> <r_epik_State_Penalty>
-0

> <r_epik_Charging_Adjusted_Penalty>
0

> <i_epik_Tot_Q>
0

> <i_epik_Tot_abs_Q>
0

> <r_epik_Metal_State_Penalty>
-0

> <b_epik_Metal_Only>
0

> <s_lp_Force_Field>
OPLS_2005

> <r_lp_Energy>
12.0143

> <b_lp_Chiralities_Consistent>
1

> <s_lp_Variant>
AV-unprocessed.smi:1085-2

> <Gold.Version>
5.8.1

> <Gold.Id.Protein>
6NUR|6NUR_protein|mol2

> <Gold.PLP.Fitness>
49.0168

> <Gold.PLP.PLP>
-39.5745

> <Gold.PLP.part.hbond>
-3.6839

> <Gold.PLP.part.metal>
0.0000

> <Gold.PLP.part.buried>
-4.3710

> <Gold.PLP.part.nonpolar>
-36.0878

> <Gold.PLP.part.repulsive>
5.3878

> <Gold.PLP.ligand.clash>
0.0000

> <Gold.PLP.ligand.torsion>
0.7368

> <Gold.PLP.Chemscore.Hbond>
2.6287

> <Gold.PLP.Chemscore.CHOScore>
0.9986

> <Gold.PLP.Chemscore.Metal>
0.0000

> <Gold.Chemscore.Hbonds>
donor molecule, donor type, donor heavy atom, donor atom, acceptor molecule, acceptor atom, score
      P1  H  7989  7998       L1     8  0.54
      P1  H  7997  8008       L1     1  0.99
      P1  H  8011  8017       L1     7  0.76
      L1  C     5    22       P1  7948  0.87

> <Gold.PLP.Chemscore.Internal.Correction>
0.0337

> <Gold.Rescore>
     Score         DG    S(hbond)    S(metal)    S(lipo)     H(rot)  DE(clash)    DE(int)     intcor
     11.49     -14.12       1.71        0.00      69.82       2.05       0.62       2.02       ----

> <Gold.Chemscore.Fitness>
11.4867

> <Gold.Chemscore.DG>
-14.1249

> <Gold.Chemscore.ZeroCoef>
-5.4800

> <Gold.Chemscore.Hbond>
1.7105

> <Gold.Chemscore.Metal>
0.0000

> <Gold.Chemscore.Lipo>
69.8180

> <Gold.Chemscore.Internal_Hbond>
0.0000

> <Gold.Chemscore.DEClash>
0.6191

> <Gold.Chemscore.DEInternal>
2.0191

> <Gold.Chemscore.Rot>
2.0456

> <Gold.Chemscore.Internal.Correction>
   9.000000E+99

> <Gold.Chemscore.Hbonds>
donor molecule, donor type, donor heavy atom, donor atom, acceptor molecule, acceptor atom, score
      P1  H  7989  7998       L1     8  0.06
      P1  H  7997  8008       L1     1  0.92
      P1  H  8011  8017       L1     7  0.26

> <Gold.Chemscore.Hbond.Weighted>
-5.7130

> <Gold.Chemscore.Metal.Weighted>
-0.0000

> <Gold.Chemscore.Lipo.Weighted>
-8.1687

> <Gold.Chemscore.Internal_Hbond.Weighted>
0.0000

> <Gold.Chemscore.DEClash.Weighted>
0.6191

> <Gold.Chemscore.DEInternal.Weighted>
2.0191

> <Gold.Chemscore.Rot.Weighted>
5.2368

> <Gold.Chemscore.Internal.Correction.Weighted>
   9.000000E+99

> <Gold.Protein.RotatedTorsions>
[ 6907 6896 6895 6894 ] final  -74.00 input  -60.11 | X-H torsion
[ 7974 7965 7964 7962 ] final   12.46 input  175.53 | X-H torsion
[ 8008 7997 7996 7995 ] final  -27.41 input   59.86 | X-H torsion
[ 10167 10162 10161 10158 ] final  133.87 input  -65.29 | X-H torsion
[ 10718 10713 10712 10709 ] final   30.70 input   66.30 | X-H torsion
[ 10763 10752 10751 10750 ] final   94.31 input  -60.55 | X-H torsion
[ 11005 11000 10999 10996 ] final   85.44 input  -57.11 | X-H torsion

> <Gold.Protein.ActiveResidues>
 VAL166  LYS551  ARG553  GLY616  TRP617  ASP618  TYR619  PRO620  LYS621  CYS622 
 ASP623  PHE694  ASN695  SER759  ASP760  ASP761  ALA762  ILE779  LEU786  VAL792 
 PHE793  MET794  SER795  GLU796  ALA797  LYS798  CYS799  TRP800  GLU811  SER814 

> <Gold.Protein.RotatedAtoms>
  150.7109  134.4933  159.5525 H   0  0  0  0  0  0  0  0  0  0  0  0  # atno 6907 bound_to 6896
  152.2546  134.8094  160.0449 H   0  0  0  0  0  0  0  0  0  0  0  0  # atno 6908 bound_to 6896
  151.8830  133.3464  159.3809 H   0  0  0  0  0  0  0  0  0  0  0  0  # atno 6909 bound_to 6896
  146.2350  139.9333  142.8493 H   0  0  0  0  0  0  0  0  0  0  0  0  # atno 7974 bound_to 7965
  154.4378  140.1873  156.0928 H   0  0  0  0  0  0  0  0  0  0  0  0  # atno 8008 bound_to 7997
  156.0353  140.3326  155.7157 H   0  0  0  0  0  0  0  0  0  0  0  0  # atno 8009 bound_to 7997
  155.5780  140.0619  157.2781 H   0  0  0  0  0  0  0  0  0  0  0  0  # atno 8010 bound_to 7997
  139.5279  144.6595  151.5058 H   0  0  0  0  0  0  0  0  0  0  0  0  # atno 10167 bound_to 10162
  157.2630  130.7170  149.6464 H   0  0  0  0  0  0  0  0  0  0  0  0  # atno 10718 bound_to 10713
  153.2402  135.4294  155.0690 H   0  0  0  0  0  0  0  0  0  0  0  0  # atno 10763 bound_to 10752
  154.8337  135.3401  154.6660 H   0  0  0  0  0  0  0  0  0  0  0  0  # atno 10764 bound_to 10752
  153.7084  135.7024  153.5100 H   0  0  0  0  0  0  0  0  0  0  0  0  # atno 10765 bound_to 10752
  139.8971  134.8286  156.2582 H   0  0  0  0  0  0  0  0  0  0  0  0  # atno 11005 bound_to 11000
  145.2023  140.9860  143.4148 LP  0  0  0  0  0  0  0  0  0  0  0  0  # atno 17320 bound_to 7965
  144.9763  139.3829  143.6284 LP  0  0  0  0  0  0  0  0  0  0  0  0  # atno 17321 bound_to 7965
  140.6436  143.8840  150.6715 LP  0  0  0  0  0  0  0  0  0  0  0  0  # atno 17342 bound_to 10162
  140.2182  143.3830  152.1664 LP  0  0  0  0  0  0  0  0  0  0  0  0  # atno 17343 bound_to 10162
  155.9664  130.4391  150.5246 LP  0  0  0  0  0  0  0  0  0  0  0  0  # atno 17370 bound_to 10713
  157.3154  131.0672  151.1970 LP  0  0  0  0  0  0  0  0  0  0  0  0  # atno 17371 bound_to 10713
  141.0179  133.7058  156.1220 LP  0  0  0  0  0  0  0  0  0  0  0  0  # atno 17394 bound_to 11000
  140.7275  134.4291  157.5569 LP  0  0  0  0  0  0  0  0  0  0  0  0  # atno 17395 bound_to 11000

$$$$
