AV-unprocessed.smi:1328|AV-procd|sdf|5482|dock8
  -GOLD-   22720 5 53D 1   1.00000     0.00000
 Structure written by MMmdl.
 38 39  0  0  0  0  0  0  0  0  1 V2000
  150.8525  136.9261  154.6875 C   0  0  0  0  0  0  0  0  0  0  0  0
  150.3739  138.3460  154.7908 C   0  0  0  0  0  0  0  0  0  0  0  0
  149.2660  138.7088  154.1662 N   0  0  0  0  0  0  0  0  0  0  0  0
  149.0899  140.0656  154.4553 O   0  0  0  0  0  0  0  0  0  0  0  0
  150.1123  140.4713  155.2506 C   0  0  0  0  0  0  0  0  0  0  0  0
  150.1032  141.8993  155.6807 C   0  0  0  0  0  0  0  0  0  0  0  0
  150.9643  139.4310  155.5003 C   0  0  0  0  0  0  0  0  0  0  0  0
  152.2218  139.4257  156.3299 C   0  0  0  0  0  0  0  0  0  0  0  0
  151.8936  139.8600  157.7582 C   0  0  0  0  0  0  0  0  0  0  0  0
  151.0561  139.2389  158.4122 O   0  0  0  0  0  0  0  0  0  0  0  0
  152.5679  140.9215  158.2282 N   0  0  0  0  0  0  0  0  0  0  0  0
  152.4626  141.4809  159.5741 C   0  0  1  0  0  0  0  0  0  0  0  0
  153.8580  141.4754  160.2148 C   0  0  0  0  0  0  0  0  0  0  0  0
  151.8594  142.9002  159.5286 C   0  0  1  0  0  0  0  0  0  0  0  0
  151.9529  143.6897  160.8355 C   0  0  0  0  0  0  0  0  0  0  0  0
  151.8889  145.1392  160.3821 C   0  0  0  0  0  0  0  0  0  0  0  0
  152.2032  145.0749  158.8848 C   0  0  0  0  0  0  0  0  0  0  0  0
  152.5905  143.7297  158.6392 O   0  0  0  0  0  0  0  0  0  0  0  0
  151.7186  136.8554  154.0296 H   0  0  0  0  0  0  0  0  0  0  0  0
  150.0793  136.2670  154.2915 H   0  0  0  0  0  0  0  0  0  0  0  0
  151.1441  136.5385  155.6635 H   0  0  0  0  0  0  0  0  0  0  0  0
  149.8285  141.9814  156.7324 H   0  0  0  0  0  0  0  0  0  0  0  0
  149.3893  142.4815  155.0977 H   0  0  0  0  0  0  0  0  0  0  0  0
  151.0882  142.3482  155.5522 H   0  0  0  0  0  0  0  0  0  0  0  0
  152.6878  138.4392  156.3379 H   0  0  0  0  0  0  0  0  0  0  0  0
  152.9692  140.1080  155.9237 H   0  0  0  0  0  0  0  0  0  0  0  0
  153.2291  141.3663  157.6083 H   0  0  0  0  0  0  0  0  0  0  0  0
  151.8182  140.8475  160.1864 H   0  0  0  0  0  0  0  0  0  0  0  0
  153.8228  141.8469  161.2392 H   0  0  0  0  0  0  0  0  0  0  0  0
  154.5543  142.1031  159.6577 H   0  0  0  0  0  0  0  0  0  0  0  0
  154.2711  140.4668  160.2473 H   0  0  0  0  0  0  0  0  0  0  0  0
  150.8200  142.8601  159.1961 H   0  0  0  0  0  0  0  0  0  0  0  0
  151.1650  143.4313  161.5435 H   0  0  0  0  0  0  0  0  0  0  0  0
  152.9134  143.5037  161.3182 H   0  0  0  0  0  0  0  0  0  0  0  0
  150.8976  145.5631  160.5459 H   0  0  0  0  0  0  0  0  0  0  0  0
  152.6099  145.7521  160.9239 H   0  0  0  0  0  0  0  0  0  0  0  0
  151.3138  145.3066  158.2970 H   0  0  0  0  0  0  0  0  0  0  0  0
  152.9936  145.7665  158.5929 H   0  0  0  0  0  0  0  0  0  0  0  0
  1  2  1  0  0  0  0
  1 19  1  0  0  0  0
  1 20  1  0  0  0  0
  1 21  1  0  0  0  0
  2  7  1  0  0  0  0
  2  3  2  0  0  0  0
  3  4  1  0  0  0  0
  4  5  1  0  0  0  0
  5  6  1  0  0  0  0
  5  7  2  0  0  0  0
  6 22  1  0  0  0  0
  6 23  1  0  0  0  0
  6 24  1  0  0  0  0
  7  8  1  0  0  0  0
  8  9  1  0  0  0  0
  8 25  1  0  0  0  0
  8 26  1  0  0  0  0
  9 10  2  0  0  0  0
  9 11  1  0  0  0  0
 11 12  1  0  0  0  0
 11 27  1  0  0  0  0
 12 13  1  0  0  0  0
 12 14  1  0  0  0  0
 12 28  1  0  0  0  0
 13 29  1  0  0  0  0
 13 30  1  0  0  0  0
 13 31  1  0  0  0  0
 14 18  1  0  0  0  0
 14 15  1  0  0  0  0
 14 32  1  0  0  0  0
 15 16  1  0  0  0  0
 15 33  1  0  0  0  0
 15 34  1  0  0  0  0
 16 17  1  0  0  0  0
 16 35  1  0  0  0  0
 16 36  1  0  0  0  0
 17 18  1  0  0  0  0
 17 37  1  0  0  0  0
 17 38  1  0  0  0  0
M  END
> <s_m_source_file>
AV-unprocessed.smi

> <i_m_source_file_index>
1328

> <i_lp_mmshare_version>
43012

> <i_f3d_flags>
0

> <s_epik_input>
W0NIM11jMW5vYyhbQ0gzXSljMVtDSDJdQyg9TylbTkhdW0NASF0oW0NIM10pW0NAQEhdMltDSDJdW0NIMl1bQ0gyXU8y

> <s_epik_cmdline>
J2VwaWtfcHl0aG9uJywgJy1waCcsICc3LjAnLCAnLXRuJywgJzgnLCAnLW1hJywgJzIwMCcsICctbWV0YWxfYmluZGluZycsICctaW1hZScsICc8aW5maWxlLm1hZT4nLCAnLW9tYWUnLCAnPG91dGZpbGUubWFlPic=

> <r_lp_tautomer_probability>
1

> <r_epik_Ionization_Penalty>
2.66156e-08

> <r_epik_Ionization_Penalty_Charging>
0

> <r_epik_Ionization_Penalty_Neutral>
2.66156e-08

> <r_epik_State_Penalty>
-0

> <r_epik_Charging_Adjusted_Penalty>
0

> <i_epik_Tot_Q>
0

> <i_epik_Tot_abs_Q>
0

> <r_epik_Metal_State_Penalty>
-0

> <b_epik_Metal_Only>
0

> <s_lp_Force_Field>
OPLS_2005

> <r_lp_Energy>
12.2386

> <b_lp_Chiralities_Consistent>
1

> <s_lp_Variant>
AV-unprocessed.smi:1328-4

> <Gold.Version>
5.8.1

> <Gold.Id.Protein>
6NUR|6NUR_protein|mol2

> <Gold.PLP.Fitness>
37.5534

> <Gold.PLP.PLP>
-37.7661

> <Gold.PLP.part.hbond>
0.0000

> <Gold.PLP.part.metal>
0.0000

> <Gold.PLP.part.buried>
-3.9145

> <Gold.PLP.part.nonpolar>
-34.3156

> <Gold.PLP.part.repulsive>
0.4261

> <Gold.PLP.ligand.clash>
0.0000

> <Gold.PLP.ligand.torsion>
0.1224

> <Gold.PLP.Chemscore.Hbond>
0.0000

> <Gold.PLP.Chemscore.CHOScore>
0.0000

> <Gold.PLP.Chemscore.Metal>
0.0000

> <Gold.PLP.Chemscore.Internal.Correction>
0.0320

> <Gold.Rescore>
     Score         DG    S(hbond)    S(metal)    S(lipo)     H(rot)  DE(clash)    DE(int)     intcor
     14.21     -14.42       0.00        0.00     109.61       1.52       0.13       0.09       ----

> <Gold.Chemscore.Fitness>
14.2068

> <Gold.Chemscore.DG>
-14.4240

> <Gold.Chemscore.ZeroCoef>
-5.4800

> <Gold.Chemscore.Hbond>
0.0000

> <Gold.Chemscore.Metal>
0.0000

> <Gold.Chemscore.Lipo>
109.6132

> <Gold.Chemscore.Internal_Hbond>
0.0000

> <Gold.Chemscore.DEClash>
0.1321

> <Gold.Chemscore.DEInternal>
0.0851

> <Gold.Chemscore.Rot>
1.5159

> <Gold.Chemscore.Internal.Correction>
   9.000000E+99

> <Gold.Chemscore.Hbond.Weighted>
-0.0000

> <Gold.Chemscore.Metal.Weighted>
-0.0000

> <Gold.Chemscore.Lipo.Weighted>
-12.8247

> <Gold.Chemscore.Internal_Hbond.Weighted>
0.0000

> <Gold.Chemscore.DEClash.Weighted>
0.1321

> <Gold.Chemscore.DEInternal.Weighted>
0.0851

> <Gold.Chemscore.Rot.Weighted>
3.8807

> <Gold.Chemscore.Internal.Correction.Weighted>
   9.000000E+99

> <Gold.Protein.RotatedTorsions>
[ 6907 6896 6895 6894 ] final -178.52 input  -60.11 | X-H torsion
[ 7974 7965 7964 7962 ] final -144.76 input  175.53 | X-H torsion
[ 8008 7997 7996 7995 ] final -145.98 input   59.86 | X-H torsion
[ 10167 10162 10161 10158 ] final  -25.27 input  -65.29 | X-H torsion
[ 10718 10713 10712 10709 ] final -106.00 input   66.30 | X-H torsion
[ 10763 10752 10751 10750 ] final -158.61 input  -60.55 | X-H torsion
[ 11005 11000 10999 10996 ] final  -36.46 input  -57.11 | X-H torsion

> <Gold.Protein.ActiveResidues>
 VAL166  LYS551  ARG553  GLY616  TRP617  ASP618  TYR619  PRO620  LYS621  CYS622 
 ASP623  PHE694  ASN695  SER759  ASP760  ASP761  ALA762  ILE779  LEU786  VAL792 
 PHE793  MET794  SER795  GLU796  ALA797  LYS798  CYS799  TRP800  GLU811  SER814 

> <Gold.Protein.RotatedAtoms>
  151.6385  133.3327  159.3124 H   0  0  0  0  0  0  0  0  0  0  0  0  # atno 6907 bound_to 6896
  150.8020  134.7123  159.6620 H   0  0  0  0  0  0  0  0  0  0  0  0  # atno 6908 bound_to 6896
  152.4113  134.6124  160.0080 H   0  0  0  0  0  0  0  0  0  0  0  0  # atno 6909 bound_to 6896
  144.8274  140.5669  143.5537 H   0  0  0  0  0  0  0  0  0  0  0  0  # atno 7974 bound_to 7965
  155.5519  140.0617  157.2848 H   0  0  0  0  0  0  0  0  0  0  0  0  # atno 8008 bound_to 7997
  154.4418  140.1901  156.0740 H   0  0  0  0  0  0  0  0  0  0  0  0  # atno 8009 bound_to 7997
  156.0510  140.3284  155.7354 H   0  0  0  0  0  0  0  0  0  0  0  0  # atno 8010 bound_to 7997
  140.7287  143.4280  151.0846 H   0  0  0  0  0  0  0  0  0  0  0  0  # atno 10167 bound_to 10162
  156.0371  130.5591  150.7619 H   0  0  0  0  0  0  0  0  0  0  0  0  # atno 10718 bound_to 10713
  154.7543  135.3100  154.8500 H   0  0  0  0  0  0  0  0  0  0  0  0  # atno 10763 bound_to 10752
  153.9278  135.6788  153.4750 H   0  0  0  0  0  0  0  0  0  0  0  0  # atno 10764 bound_to 10752
  153.1139  135.4853  154.9012 H   0  0  0  0  0  0  0  0  0  0  0  0  # atno 10765 bound_to 10752
  140.9876  133.7022  156.1794 H   0  0  0  0  0  0  0  0  0  0  0  0  # atno 11005 bound_to 11000
  145.4969  139.1485  143.3679 LP  0  0  0  0  0  0  0  0  0  0  0  0  # atno 17320 bound_to 7965
  146.2579  140.5108  142.8866 LP  0  0  0  0  0  0  0  0  0  0  0  0  # atno 17321 bound_to 7965
  139.7933  143.8187  152.3154 LP  0  0  0  0  0  0  0  0  0  0  0  0  # atno 17342 bound_to 10162
  139.8178  144.7308  150.9612 LP  0  0  0  0  0  0  0  0  0  0  0  0  # atno 17343 bound_to 10162
  157.5136  131.0927  151.0167 LP  0  0  0  0  0  0  0  0  0  0  0  0  # atno 17370 bound_to 10713
  157.0516  130.5789  149.5371 LP  0  0  0  0  0  0  0  0  0  0  0  0  # atno 17371 bound_to 10713
  140.7089  134.4483  157.5582 LP  0  0  0  0  0  0  0  0  0  0  0  0  # atno 17394 bound_to 11000
  139.8978  134.8629  156.2030 LP  0  0  0  0  0  0  0  0  0  0  0  0  # atno 17395 bound_to 11000

$$$$
