AV-unprocessed.smi:1786|AV-procd|sdf|7203|dock8
  -GOLD-   22720 8443D 1   1.00000     0.00000
 Structure written by MMmdl.
 44 45  0  0  0  0  0  0  0  0  2 V2000
  148.5637  132.2823  154.9085 C   0  0  0  0  0  0  0  0  0  0  0  0
  148.7598  133.2506  153.7219 C   0  0  1  0  0  0  0  0  0  0  0  0
  148.3891  132.6053  152.3699 C   0  0  0  0  0  0  0  0  0  0  0  0
  146.8707  132.4497  152.2010 C   0  0  0  0  0  0  0  0  0  0  0  0
  146.1772  133.8009  152.4128 C   0  0  0  0  0  0  0  0  0  0  0  0
  146.5648  134.4195  153.7658 C   0  0  0  0  0  0  0  0  0  0  0  0
  148.0424  134.5501  153.8914 N   0  3  1  0  0  0  0  0  0  0  0  0
  148.4735  135.3190  155.0871 C   0  0  0  0  0  0  0  0  0  0  0  0
  150.0072  135.3876  155.2125 C   0  0  0  0  0  0  0  0  0  0  0  0
  150.5175  136.7022  154.8418 N   0  0  0  0  0  0  0  0  0  0  0  0
  151.6865  137.2162  155.2533 C   0  0  0  0  0  0  0  0  0  0  0  0
  152.4466  136.6248  156.0211 O   0  0  0  0  0  0  0  0  0  0  0  0
  152.0285  138.6191  154.7314 C   0  0  0  0  0  0  0  0  0  0  0  0
  151.1705  139.6749  155.2946 N   0  0  0  0  0  0  0  0  0  0  0  0
  150.0231  140.0317  154.5584 C   0  0  0  0  0  0  0  0  0  0  0  0
  149.1747  140.9816  154.9823 C   0  0  0  0  0  0  0  0  0  0  0  0
  149.4629  141.6464  156.2310 C   0  0  0  0  0  0  0  0  0  0  0  0
  150.5554  141.3102  156.9452 C   0  0  0  0  0  0  0  0  0  0  0  0
  151.4839  140.2703  156.4870 C   0  0  0  0  0  0  0  0  0  0  0  0
  152.4820  139.9530  157.1346 O   0  0  0  0  0  0  0  0  0  0  0  0
  149.1244  131.3612  154.7480 H   0  0  0  0  0  0  0  0  0  0  0  0
  147.5203  132.0039  155.0506 H   0  0  0  0  0  0  0  0  0  0  0  0
  148.9219  132.7109  155.8442 H   0  0  0  0  0  0  0  0  0  0  0  0
  149.8253  133.4805  153.6739 H   0  0  0  0  0  0  0  0  0  0  0  0
  148.7735  133.2267  151.5598 H   0  0  0  0  0  0  0  0  0  0  0  0
  148.8790  131.6366  152.2644 H   0  0  0  0  0  0  0  0  0  0  0  0
  146.6415  132.0625  151.2077 H   0  0  0  0  0  0  0  0  0  0  0  0
  146.4858  131.7189  152.9126 H   0  0  0  0  0  0  0  0  0  0  0  0
  146.4528  134.4831  151.6074 H   0  0  0  0  0  0  0  0  0  0  0  0
  145.0953  133.6772  152.3556 H   0  0  0  0  0  0  0  0  0  0  0  0
  146.0922  135.3979  153.8473 H   0  0  0  0  0  0  0  0  0  0  0  0
  146.1690  133.8190  154.5854 H   0  0  0  0  0  0  0  0  0  0  0  0
  148.0428  136.3210  155.0619 H   0  0  0  0  0  0  0  0  0  0  0  0
  148.0776  134.8348  155.9808 H   0  0  0  0  0  0  0  0  0  0  0  0
  150.3189  135.1416  156.2293 H   0  0  0  0  0  0  0  0  0  0  0  0
  150.4836  134.6590  154.5577 H   0  0  0  0  0  0  0  0  0  0  0  0
  149.9504  137.2548  154.2146 H   0  0  0  0  0  0  0  0  0  0  0  0
  153.0769  138.8406  154.9408 H   0  0  0  0  0  0  0  0  0  0  0  0
  151.9528  138.6034  153.6434 H   0  0  0  0  0  0  0  0  0  0  0  0
  149.8759  139.4835  153.6392 H   0  0  0  0  0  0  0  0  0  0  0  0
  148.2979  141.2392  154.4064 H   0  0  0  0  0  0  0  0  0  0  0  0
  148.7987  142.4164  156.5948 H   0  0  0  0  0  0  0  0  0  0  0  0
  150.7542  141.8176  157.8778 H   0  0  0  0  0  0  0  0  0  0  0  0
  148.3350  135.1071  153.1011 H   0  0  0  0  0  0  0  0  0  0  0  0
  1  2  1  0  0  0  0
  1 21  1  0  0  0  0
  1 22  1  0  0  0  0
  1 23  1  0  0  0  0
  2  7  1  0  0  0  0
  2  3  1  0  0  0  0
  2 24  1  0  0  0  0
  3  4  1  0  0  0  0
  3 25  1  0  0  0  0
  3 26  1  0  0  0  0
  4  5  1  0  0  0  0
  4 27  1  0  0  0  0
  4 28  1  0  0  0  0
  5  6  1  0  0  0  0
  5 29  1  0  0  0  0
  5 30  1  0  0  0  0
  6  7  1  0  0  0  0
  6 31  1  0  0  0  0
  6 32  1  0  0  0  0
  7  8  1  0  0  0  0
  7 44  1  0  0  0  0
  8  9  1  0  0  0  0
  8 33  1  0  0  0  0
  8 34  1  0  0  0  0
  9 10  1  0  0  0  0
  9 35  1  0  0  0  0
  9 36  1  0  0  0  0
 10 11  1  0  0  0  0
 10 37  1  0  0  0  0
 11 12  2  0  0  0  0
 11 13  1  0  0  0  0
 13 14  1  0  0  0  0
 13 38  1  0  0  0  0
 13 39  1  0  0  0  0
 14 19  1  0  0  0  0
 14 15  1  0  0  0  0
 15 16  2  0  0  0  0
 15 40  1  0  0  0  0
 16 17  1  0  0  0  0
 16 41  1  0  0  0  0
 17 18  2  0  0  0  0
 17 42  1  0  0  0  0
 18 19  1  0  0  0  0
 18 43  1  0  0  0  0
 19 20  2  0  0  0  0
M  CHG  1   7   1
M  END
> <s_m_source_file>
AV-unprocessed.smi

> <i_m_source_file_index>
1786

> <i_lp_mmshare_version>
43012

> <i_f3d_flags>
0

> <s_epik_input>
W0NIM11bQ0BASF0xW0NIMl1bQ0gyXVtDSDJdW0NIMl1OMVtDSDJdW0NIMl1bTkhdQyg9TylbQ0gyXW4yW2NIXVtjSF1bY0hdW2NIXWMyPU8=

> <s_epik_cmdline>
J2VwaWtfcHl0aG9uJywgJy1waCcsICc3LjAnLCAnLXRuJywgJzgnLCAnLW1hJywgJzIwMCcsICctbWV0YWxfYmluZGluZycsICctaW1hZScsICc8aW5maWxlLm1hZT4nLCAnLW9tYWUnLCAnPG91dGZpbGUubWFlPic=

> <r_lp_tautomer_probability>
1

> <r_epik_Ionization_Penalty>
0.00237247

> <r_epik_Ionization_Penalty_Charging>
0.00237238

> <r_epik_Ionization_Penalty_Neutral>
8.2065e-08

> <r_epik_State_Penalty>
0.00163922

> <r_epik_Charging_Adjusted_Penalty>
0.0040116

> <i_epik_Tot_Q>
1

> <i_epik_Tot_abs_Q>
1

> <r_epik_Metal_State_Penalty>
-0

> <b_epik_Metal_Only>
0

> <s_lp_Force_Field>
OPLS_2005

> <r_lp_Energy>
28.482

> <b_lp_Chiralities_Consistent>
1

> <s_lp_Variant>
AV-unprocessed.smi:1786-2

> <Gold.Version>
5.8.1

> <Gold.Id.Protein>
6NUR|6NUR_protein|mol2

> <Gold.PLP.Fitness>
45.6183

> <Gold.PLP.PLP>
-32.5369

> <Gold.PLP.part.hbond>
-3.1849

> <Gold.PLP.part.metal>
0.0000

> <Gold.PLP.part.buried>
3.1442

> <Gold.PLP.part.nonpolar>
-32.2685

> <Gold.PLP.part.repulsive>
0.0806

> <Gold.PLP.ligand.clash>
0.0000

> <Gold.PLP.ligand.torsion>
0.9883

> <Gold.PLP.Chemscore.Hbond>
4.0000

> <Gold.PLP.Chemscore.CHOScore>
1.0000

> <Gold.PLP.Chemscore.Metal>
0.0000

> <Gold.Chemscore.Hbonds>
donor molecule, donor type, donor heavy atom, donor atom, acceptor molecule, acceptor atom, score
      L1  H     7    44       P1  7948  2.00
      P1  H  7997  8009       L1    20  1.00
      P1  H 10752 10765       L1    12  1.00
      L1  C    15    40       P1  7957  0.95

> <Gold.PLP.Chemscore.Internal.Correction>
0.0580

> <Gold.Rescore>
     Score         DG    S(hbond)    S(metal)    S(lipo)     H(rot)  DE(clash)    DE(int)     intcor
     17.32     -18.50       2.92        0.00      68.52       1.86       0.19       0.99       ----

> <Gold.Chemscore.Fitness>
17.3179

> <Gold.Chemscore.DG>
-18.4994

> <Gold.Chemscore.ZeroCoef>
-5.4800

> <Gold.Chemscore.Hbond>
2.9224

> <Gold.Chemscore.Metal>
0.0000

> <Gold.Chemscore.Lipo>
68.5200

> <Gold.Chemscore.Internal_Hbond>
0.0000

> <Gold.Chemscore.DEClash>
0.1878

> <Gold.Chemscore.DEInternal>
0.9936

> <Gold.Chemscore.Rot>
1.8586

> <Gold.Chemscore.Internal.Correction>
   9.000000E+99

> <Gold.Chemscore.Hbonds>
donor molecule, donor type, donor heavy atom, donor atom, acceptor molecule, acceptor atom, score
      L1  H     7    44       P1  7948  0.91
      P1  H  7997  8009       L1    20  0.97
      P1  H 10752 10765       L1    12  0.29

> <Gold.Chemscore.Hbond.Weighted>
-9.7607

> <Gold.Chemscore.Metal.Weighted>
-0.0000

> <Gold.Chemscore.Lipo.Weighted>
-8.0168

> <Gold.Chemscore.Internal_Hbond.Weighted>
0.0000

> <Gold.Chemscore.DEClash.Weighted>
0.1878

> <Gold.Chemscore.DEInternal.Weighted>
0.9936

> <Gold.Chemscore.Rot.Weighted>
4.7581

> <Gold.Chemscore.Internal.Correction.Weighted>
   9.000000E+99

> <Gold.Protein.RotatedTorsions>
[ 6907 6896 6895 6894 ] final  -53.52 input  -60.11 | X-H torsion
[ 7974 7965 7964 7962 ] final  115.76 input  175.53 | X-H torsion
[ 8008 7997 7996 7995 ] final -173.01 input   59.86 | X-H torsion
[ 10167 10162 10161 10158 ] final -126.85 input  -65.29 | X-H torsion
[ 10718 10713 10712 10709 ] final  -16.43 input   66.30 | X-H torsion
[ 10763 10752 10751 10750 ] final -153.71 input  -60.55 | X-H torsion
[ 11005 11000 10999 10996 ] final  110.68 input  -57.11 | X-H torsion

> <Gold.Protein.ActiveResidues>
 VAL166  LYS551  ARG553  GLY616  TRP617  ASP618  TYR619  PRO620  LYS621  CYS622 
 ASP623  PHE694  ASN695  SER759  ASP760  ASP761  ALA762  ILE779  LEU786  VAL792 
 PHE793  MET794  SER795  GLU796  ALA797  LYS798  CYS799  TRP800  GLU811  SER814 

> <Gold.Protein.RotatedAtoms>
  150.8420  134.7715  159.6939 H   0  0  0  0  0  0  0  0  0  0  0  0  # atno 6907 bound_to 6896
  152.4505  134.5400  159.9846 H   0  0  0  0  0  0  0  0  0  0  0  0  # atno 6908 bound_to 6896
  151.5538  133.3375  159.2994 H   0  0  0  0  0  0  0  0  0  0  0  0  # atno 6909 bound_to 6896
  145.1880  139.3015  143.4383 H   0  0  0  0  0  0  0  0  0  0  0  0  # atno 7974 bound_to 7965
  155.9519  140.1128  157.0969 H   0  0  0  0  0  0  0  0  0  0  0  0  # atno 8008 bound_to 7997
  154.4111  140.1199  156.5130 H   0  0  0  0  0  0  0  0  0  0  0  0  # atno 8009 bound_to 7997
  155.6831  140.3473  155.4865 H   0  0  0  0  0  0  0  0  0  0  0  0  # atno 8010 bound_to 7997
  139.9671  143.5886  152.2425 H   0  0  0  0  0  0  0  0  0  0  0  0  # atno 10167 bound_to 10162
  156.5877  130.4791  149.6293 H   0  0  0  0  0  0  0  0  0  0  0  0  # atno 10718 bound_to 10713
  154.7909  135.3206  154.7780 H   0  0  0  0  0  0  0  0  0  0  0  0  # atno 10763 bound_to 10752
  153.8469  135.6866  153.4801 H   0  0  0  0  0  0  0  0  0  0  0  0  # atno 10764 bound_to 10752
  153.1579  135.4673  154.9670 H   0  0  0  0  0  0  0  0  0  0  0  0  # atno 10765 bound_to 10752
  139.8887  134.9490  156.6315 H   0  0  0  0  0  0  0  0  0  0  0  0  # atno 11005 bound_to 11000
  146.3441  140.2083  142.8590 LP  0  0  0  0  0  0  0  0  0  0  0  0  # atno 17320 bound_to 7965
  145.0069  140.8681  143.5248 LP  0  0  0  0  0  0  0  0  0  0  0  0  # atno 17321 bound_to 7965
  139.6509  144.7660  151.2150 LP  0  0  0  0  0  0  0  0  0  0  0  0  # atno 17342 bound_to 10162
  140.7534  143.6162  150.8557 LP  0  0  0  0  0  0  0  0  0  0  0  0  # atno 17343 bound_to 10162
  156.2576  130.6944  151.1702 LP  0  0  0  0  0  0  0  0  0  0  0  0  # atno 17370 bound_to 10713
  157.7311  131.0611  150.5693 LP  0  0  0  0  0  0  0  0  0  0  0  0  # atno 17371 bound_to 10713
  140.7663  133.8776  155.8456 LP  0  0  0  0  0  0  0  0  0  0  0  0  # atno 17394 bound_to 11000
  140.9880  134.1317  157.4434 LP  0  0  0  0  0  0  0  0  0  0  0  0  # atno 17395 bound_to 11000

$$$$
