AV-unprocessed.smi:1434|AV-procd|sdf|5851|dock2
  -GOLD-   22720 5523D 1   1.00000     0.00000
 Structure written by MMmdl.
 45 46  0  0  0  0  0  0  0  0  2 V2000
  144.4134  136.8547  152.6094 C   0  0  0  0  0  0  0  0  0  0  0  0
  145.6886  136.7472  153.9281 S   0  0  0  0  0  0  0  0  0  0  0  0
  145.1383  137.3369  155.1579 O   0  0  0  0  0  0  0  0  0  0  0  0
  146.2479  135.3873  153.9464 O   0  0  0  0  0  0  0  0  0  0  0  0
  146.9199  137.8028  153.3417 N   0  0  0  0  0  0  0  0  0  0  0  0
  147.2774  138.9729  154.1449 C   0  0  2  0  0  0  0  0  0  0  0  0
  146.0312  139.8464  154.4033 C   0  0  0  0  0  0  0  0  0  0  0  0
  146.4021  141.1840  155.0716 C   0  0  0  0  0  0  0  0  0  0  0  0
  147.5441  141.8838  154.3120 C   0  0  0  0  0  0  0  0  0  0  0  0
  148.6939  140.9657  154.2365 N   0  0  0  0  0  0  0  0  0  0  0  0
  149.8255  141.0365  154.9819 C   0  0  0  0  0  0  0  0  0  0  0  0
  150.7301  140.2028  154.9175 O   0  0  0  0  0  0  0  0  0  0  0  0
  149.9065  142.1126  155.7832 N   0  0  0  0  0  0  0  0  0  0  0  0
  151.0242  142.4156  156.6694 C   0  0  0  0  0  0  0  0  0  0  0  0
  150.5621  142.5703  158.1280 C   0  0  0  0  0  0  0  0  0  0  0  0
  151.6769  142.2882  159.1164 C   0  0  0  0  0  0  0  0  0  0  0  0
  152.0649  143.2278  160.0963 C   0  0  0  0  0  0  0  0  0  0  0  0
  153.1059  142.9014  160.9901 C   0  0  0  0  0  0  0  0  0  0  0  0
  153.7353  141.6436  160.8868 C   0  0  0  0  0  0  0  0  0  0  0  0
  153.3068  140.7425  159.8909 C   0  0  0  0  0  0  0  0  0  0  0  0
  152.3061  141.0923  159.0527 N   0  3  0  0  0  0  0  0  0  0  0  0
  148.3746  139.7828  153.4272 C   0  0  0  0  0  0  0  0  0  0  0  0
  143.5722  136.2115  152.8669 H   0  0  0  0  0  0  0  0  0  0  0  0
  144.8397  136.5303  151.6605 H   0  0  0  0  0  0  0  0  0  0  0  0
  144.0675  137.8844  152.5207 H   0  0  0  0  0  0  0  0  0  0  0  0
  147.7512  137.2789  153.0696 H   0  0  0  0  0  0  0  0  0  0  0  0
  147.6772  138.6290  155.1006 H   0  0  0  0  0  0  0  0  0  0  0  0
  145.5332  140.0546  153.4552 H   0  0  0  0  0  0  0  0  0  0  0  0
  145.3083  139.3105  155.0188 H   0  0  0  0  0  0  0  0  0  0  0  0
  145.5269  141.8327  155.1166 H   0  0  0  0  0  0  0  0  0  0  0  0
  146.7078  141.0037  156.1029 H   0  0  0  0  0  0  0  0  0  0  0  0
  147.2188  142.1333  153.3010 H   0  0  0  0  0  0  0  0  0  0  0  0
  147.7703  142.8397  154.7841 H   0  0  0  0  0  0  0  0  0  0  0  0
  149.1360  142.7651  155.7762 H   0  0  0  0  0  0  0  0  0  0  0  0
  151.7837  141.6357  156.5898 H   0  0  0  0  0  0  0  0  0  0  0  0
  151.4906  143.3385  156.3241 H   0  0  0  0  0  0  0  0  0  0  0  0
  150.1848  143.5801  158.2964 H   0  0  0  0  0  0  0  0  0  0  0  0
  149.7310  141.8947  158.3352 H   0  0  0  0  0  0  0  0  0  0  0  0
  151.5711  144.1864  160.1647 H   0  0  0  0  0  0  0  0  0  0  0  0
  153.4169  143.6075  161.7463 H   0  0  0  0  0  0  0  0  0  0  0  0
  154.5345  141.3741  161.5621 H   0  0  0  0  0  0  0  0  0  0  0  0
  153.7305  139.7602  159.7404 H   0  0  0  0  0  0  0  0  0  0  0  0
  149.2484  139.1556  153.2423 H   0  0  0  0  0  0  0  0  0  0  0  0
  148.0294  140.1029  152.4428 H   0  0  0  0  0  0  0  0  0  0  0  0
  152.0120  140.4240  158.3400 H   0  0  0  0  0  0  0  0  0  0  0  0
  1  2  1  0  0  0  0
  1 23  1  0  0  0  0
  1 24  1  0  0  0  0
  1 25  1  0  0  0  0
  2  3  2  0  0  0  0
  2  4  2  0  0  0  0
  2  5  1  0  0  0  0
  5  6  1  0  0  0  0
  5 26  1  0  0  0  0
  6 22  1  0  0  0  0
  6  7  1  0  0  0  0
  6 27  1  0  0  0  0
  7  8  1  0  0  0  0
  7 28  1  0  0  0  0
  7 29  1  0  0  0  0
  8  9  1  0  0  0  0
  8 30  1  0  0  0  0
  8 31  1  0  0  0  0
  9 10  1  0  0  0  0
  9 32  1  0  0  0  0
  9 33  1  0  0  0  0
 10 11  1  0  0  0  0
 10 22  1  0  0  0  0
 11 12  2  0  0  0  0
 11 13  1  0  0  0  0
 13 14  1  0  0  0  0
 13 34  1  0  0  0  0
 14 15  1  0  0  0  0
 14 35  1  0  0  0  0
 14 36  1  0  0  0  0
 15 16  1  0  0  0  0
 15 37  1  0  0  0  0
 15 38  1  0  0  0  0
 16 21  1  0  0  0  0
 16 17  2  0  0  0  0
 17 18  1  0  0  0  0
 17 39  1  0  0  0  0
 18 19  2  0  0  0  0
 18 40  1  0  0  0  0
 19 20  1  0  0  0  0
 19 41  1  0  0  0  0
 20 21  2  0  0  0  0
 20 42  1  0  0  0  0
 21 45  1  0  0  0  0
 22 43  1  0  0  0  0
 22 44  1  0  0  0  0
M  CHG  1  21   1
M  END
> <s_m_source_file>
AV-unprocessed.smi

> <i_m_source_file_index>
1434

> <i_lp_mmshare_version>
43012

> <i_f3d_flags>
0

> <s_epik_input>
W0NIM11TKD1PKSg9TylbTkhdW0NAQEhdMVtDSDJdW0NIMl1bQ0gyXU4oW0NIMl0xKUMoPU8pW05IXVtDSDJdW0NIMl1jMltjSF1bY0hdW2NIXVtjSF1uMg==

> <s_epik_cmdline>
J2VwaWtfcHl0aG9uJywgJy1waCcsICc3LjAnLCAnLXRuJywgJzgnLCAnLW1hJywgJzIwMCcsICctbWV0YWxfYmluZGluZycsICctaW1hZScsICc8aW5maWxlLm1hZT4nLCAnLW9tYWUnLCAnPG91dGZpbGUubWFlPic=

> <r_epik_Ionization_Penalty>
1.55113

> <r_epik_Ionization_Penalty_Charging>
1.55107

> <r_epik_Ionization_Penalty_Neutral>
6.01346e-05

> <r_epik_State_Penalty>
1.64529

> <r_epik_Charging_Adjusted_Penalty>
3.19637

> <i_epik_Tot_Q>
1

> <i_epik_Tot_abs_Q>
1

> <r_epik_Metal_State_Penalty>
1.69621

> <b_epik_Metal_Only>
0

> <s_lp_Force_Field>
OPLS_2005

> <r_lp_Energy>
27.1225

> <b_lp_Chiralities_Consistent>
1

> <s_lp_Variant>
AV-unprocessed.smi:1434-3

> <Gold.Version>
5.8.1

> <Gold.Id.Protein>
6NUR|6NUR_protein|mol2

> <Gold.PLP.Fitness>
44.7564

> <Gold.PLP.PLP>
-36.8071

> <Gold.PLP.part.hbond>
-3.0000

> <Gold.PLP.part.metal>
0.0000

> <Gold.PLP.part.buried>
-0.4957

> <Gold.PLP.part.nonpolar>
-33.6613

> <Gold.PLP.part.repulsive>
0.4324

> <Gold.PLP.ligand.clash>
0.0000

> <Gold.PLP.ligand.torsion>
0.2111

> <Gold.PLP.Chemscore.Hbond>
2.7360

> <Gold.PLP.Chemscore.CHOScore>
0.0000

> <Gold.PLP.Chemscore.Metal>
0.0000

> <Gold.Chemscore.Hbonds>
donor molecule, donor type, donor heavy atom, donor atom, acceptor molecule, acceptor atom, score
      L1  H     5    26       P1  7948  1.00
      L1  H    13    34       P1  8028  0.75
      P1  H  7989  7998       L1    12  0.95

> <Gold.PLP.Chemscore.Internal.Correction>
0.1635

> <Gold.Rescore>
     Score         DG    S(hbond)    S(metal)    S(lipo)     H(rot)  DE(clash)    DE(int)     intcor
     16.10     -19.15       2.36        0.00      96.03       2.13       1.62       1.43       ----

> <Gold.Chemscore.Fitness>
16.0991

> <Gold.Chemscore.DG>
-19.1548

> <Gold.Chemscore.ZeroCoef>
-5.4800

> <Gold.Chemscore.Hbond>
2.3650

> <Gold.Chemscore.Metal>
0.0000

> <Gold.Chemscore.Lipo>
96.0287

> <Gold.Chemscore.Internal_Hbond>
0.0000

> <Gold.Chemscore.DEClash>
1.6250

> <Gold.Chemscore.DEInternal>
1.4308

> <Gold.Chemscore.Rot>
2.1326

> <Gold.Chemscore.Internal.Correction>
   9.000000E+99

> <Gold.Chemscore.Hbonds>
donor molecule, donor type, donor heavy atom, donor atom, acceptor molecule, acceptor atom, score
      L1  H     5    26       P1  7948  0.96
      L1  H    13    34       P1  8028  0.74
      P1  H  7989  7998       L1    12  0.21

> <Gold.Chemscore.Hbond.Weighted>
-7.8990

> <Gold.Chemscore.Metal.Weighted>
-0.0000

> <Gold.Chemscore.Lipo.Weighted>
-11.2354

> <Gold.Chemscore.Internal_Hbond.Weighted>
0.0000

> <Gold.Chemscore.DEClash.Weighted>
1.6250

> <Gold.Chemscore.DEInternal.Weighted>
1.4308

> <Gold.Chemscore.Rot.Weighted>
5.4595

> <Gold.Chemscore.Internal.Correction.Weighted>
   9.000000E+99

> <Gold.Protein.RotatedTorsions>
[ 6907 6896 6895 6894 ] final   55.90 input  -60.11 | X-H torsion
[ 7974 7965 7964 7962 ] final  100.54 input  175.53 | X-H torsion
[ 8008 7997 7996 7995 ] final  155.72 input   59.86 | X-H torsion
[ 10167 10162 10161 10158 ] final -101.34 input  -65.29 | X-H torsion
[ 10718 10713 10712 10709 ] final   27.57 input   66.30 | X-H torsion
[ 10763 10752 10751 10750 ] final  178.74 input  -60.55 | X-H torsion
[ 11005 11000 10999 10996 ] final    2.21 input  -57.11 | X-H torsion

> <Gold.Protein.ActiveResidues>
 VAL166  LYS551  ARG553  GLY616  TRP617  ASP618  TYR619  PRO620  LYS621  CYS622 
 ASP623  PHE694  ASN695  SER759  ASP760  ASP761  ALA762  ILE779  LEU786  VAL792 
 PHE793  MET794  SER795  GLU796  ALA797  LYS798  CYS799  TRP800  GLU811  SER814 

> <Gold.Protein.RotatedAtoms>
  152.3584  134.6907  160.0214 H   0  0  0  0  0  0  0  0  0  0  0  0  # atno 6907 bound_to 6896
  151.7238  133.3310  159.3330 H   0  0  0  0  0  0  0  0  0  0  0  0  # atno 6908 bound_to 6896
  150.7587  134.6358  159.6255 H   0  0  0  0  0  0  0  0  0  0  0  0  # atno 6909 bound_to 6896
  145.3842  139.2374  143.3387 H   0  0  0  0  0  0  0  0  0  0  0  0  # atno 7974 bound_to 7965
  156.2463  140.1932  156.6844 H   0  0  0  0  0  0  0  0  0  0  0  0  # atno 8008 bound_to 7997
  154.6298  140.0597  156.9744 H   0  0  0  0  0  0  0  0  0  0  0  0  # atno 8009 bound_to 7997
  155.1729  140.3270  155.4392 H   0  0  0  0  0  0  0  0  0  0  0  0  # atno 8010 bound_to 7997
  140.2424  143.3530  152.0790 H   0  0  0  0  0  0  0  0  0  0  0  0  # atno 10167 bound_to 10162
  157.2219  130.6983  149.6274 H   0  0  0  0  0  0  0  0  0  0  0  0  # atno 10718 bound_to 10713
  154.5116  135.2789  155.1338 H   0  0  0  0  0  0  0  0  0  0  0  0  # atno 10763 bound_to 10752
  154.2931  135.6263  153.5397 H   0  0  0  0  0  0  0  0  0  0  0  0  # atno 10764 bound_to 10752
  152.9920  135.5679  154.5582 H   0  0  0  0  0  0  0  0  0  0  0  0  # atno 10765 bound_to 10752
  140.6069  133.9784  155.8158 H   0  0  0  0  0  0  0  0  0  0  0  0  # atno 11005 bound_to 11000
  146.2828  140.4514  142.8769 LP  0  0  0  0  0  0  0  0  0  0  0  0  # atno 17320 bound_to 7965
  144.8486  140.6967  143.6183 LP  0  0  0  0  0  0  0  0  0  0  0  0  # atno 17321 bound_to 7965
  139.5073  144.6829  151.5961 LP  0  0  0  0  0  0  0  0  0  0  0  0  # atno 17342 bound_to 10162
  140.6104  143.9447  150.6449 LP  0  0  0  0  0  0  0  0  0  0  0  0  # atno 17343 bound_to 10162
  155.9681  130.4517  150.5745 LP  0  0  0  0  0  0  0  0  0  0  0  0  # atno 17370 bound_to 10713
  157.3567  131.0743  151.1670 LP  0  0  0  0  0  0  0  0  0  0  0  0  # atno 17371 bound_to 10713
  141.0835  134.0027  157.3350 LP  0  0  0  0  0  0  0  0  0  0  0  0  # atno 17394 bound_to 11000
  139.9209  135.0200  156.8059 LP  0  0  0  0  0  0  0  0  0  0  0  0  # atno 17395 bound_to 11000

$$$$
