AV-unprocessed.smi:770|AV-procd|sdf|3680|dock1
  -GOLD-   22720 1 93D 1   1.00000     0.00000
 Structure written by MMmdl.
 38 39  0  0  0  0  0  0  0  0  2 V2000
  143.4562  136.0517  152.5670 C   0  0  0  0  0  0  0  0  0  0  0  0
  144.4940  136.6446  152.3166 C   0  0  0  0  0  0  0  0  0  0  0  0
  145.7432  137.3491  151.9911 C   0  0  0  0  0  0  0  0  0  0  0  0
  145.7413  138.7105  152.5082 N   0  0  0  0  0  0  0  0  0  0  0  0
  146.7251  139.2570  153.2349 C   0  0  0  0  0  0  0  0  0  0  0  0
  147.7745  138.6823  153.5235 O   0  0  0  0  0  0  0  0  0  0  0  0
  146.4068  140.4919  153.6470 N   0  0  0  0  0  0  0  0  0  0  0  0
  147.2069  141.3173  154.5499 C   0  0  0  0  0  0  0  0  0  0  0  0
  148.6865  141.4504  154.1236 C   0  0  0  0  0  0  0  0  0  0  0  0
  149.6552  141.3697  155.2684 C   0  0  0  0  0  0  0  0  0  0  0  0
  150.4734  140.2947  155.5129 C   0  0  0  0  0  0  0  0  0  0  0  0
  151.5084  140.5503  156.8883 S   0  0  0  0  0  0  0  0  0  0  0  0
  150.8241  142.1332  157.1172 C   0  0  0  0  0  0  0  0  0  0  0  0
  151.1553  143.0327  158.0602 N   0  0  0  0  0  0  0  0  0  0  0  0
  151.5982  144.3668  157.6816 C   0  0  0  0  0  0  0  0  0  0  0  0
  152.1951  144.9586  158.9568 C   0  0  0  0  0  0  0  0  0  0  0  0
  152.7704  143.7334  159.6658 C   0  0  0  0  0  0  0  0  0  0  0  0
  151.8095  142.6001  159.2877 C   0  0  0  0  0  0  0  0  0  0  0  0
  149.8677  142.3730  156.2088 N   0  3  0  0  0  0  0  0  0  0  0  0
  142.5469  135.5370  152.7836 H   0  0  0  0  0  0  0  0  0  0  0  0
  146.5679  136.7657  152.4040 H   0  0  0  0  0  0  0  0  0  0  0  0
  145.8583  137.3683  150.9071 H   0  0  0  0  0  0  0  0  0  0  0  0
  144.9187  139.2656  152.3231 H   0  0  0  0  0  0  0  0  0  0  0  0
  145.5224  140.8764  153.3483 H   0  0  0  0  0  0  0  0  0  0  0  0
  146.7512  142.3014  154.6671 H   0  0  0  0  0  0  0  0  0  0  0  0
  147.1625  140.8398  155.5290 H   0  0  0  0  0  0  0  0  0  0  0  0
  148.9176  140.6638  153.4044 H   0  0  0  0  0  0  0  0  0  0  0  0
  148.8198  142.3857  153.5788 H   0  0  0  0  0  0  0  0  0  0  0  0
  150.5366  139.3698  154.9584 H   0  0  0  0  0  0  0  0  0  0  0  0
  152.3581  144.2931  156.9026 H   0  0  0  0  0  0  0  0  0  0  0  0
  150.7742  144.9728  157.3032 H   0  0  0  0  0  0  0  0  0  0  0  0
  152.9410  145.7288  158.7584 H   0  0  0  0  0  0  0  0  0  0  0  0
  151.4056  145.4009  159.5659 H   0  0  0  0  0  0  0  0  0  0  0  0
  153.7636  143.5188  159.2686 H   0  0  0  0  0  0  0  0  0  0  0  0
  152.8629  143.8687  160.7437 H   0  0  0  0  0  0  0  0  0  0  0  0
  151.0501  142.4656  160.0584 H   0  0  0  0  0  0  0  0  0  0  0  0
  152.3486  141.6592  159.1734 H   0  0  0  0  0  0  0  0  0  0  0  0
  149.3502  143.2429  156.1904 H   0  0  0  0  0  0  0  0  0  0  0  0
  1  2  3  0  0  0  0
  1 20  1  0  0  0  0
  2  3  1  0  0  0  0
  3  4  1  0  0  0  0
  3 21  1  0  0  0  0
  3 22  1  0  0  0  0
  4  5  1  0  0  0  0
  4 23  1  0  0  0  0
  5  6  2  0  0  0  0
  5  7  1  0  0  0  0
  7  8  1  0  0  0  0
  7 24  1  0  0  0  0
  8  9  1  0  0  0  0
  8 25  1  0  0  0  0
  8 26  1  0  0  0  0
  9 10  1  0  0  0  0
  9 27  1  0  0  0  0
  9 28  1  0  0  0  0
 10 19  1  0  0  0  0
 10 11  2  0  0  0  0
 11 12  1  0  0  0  0
 11 29  1  0  0  0  0
 12 13  1  0  0  0  0
 13 14  1  0  0  0  0
 13 19  2  0  0  0  0
 14 18  1  0  0  0  0
 14 15  1  0  0  0  0
 15 16  1  0  0  0  0
 15 30  1  0  0  0  0
 15 31  1  0  0  0  0
 16 17  1  0  0  0  0
 16 32  1  0  0  0  0
 16 33  1  0  0  0  0
 17 18  1  0  0  0  0
 17 34  1  0  0  0  0
 17 35  1  0  0  0  0
 18 36  1  0  0  0  0
 18 37  1  0  0  0  0
 19 38  1  0  0  0  0
M  CHG  1  19   1
M  END
> <s_m_source_file>
AV-unprocessed.smi

> <i_m_source_file_index>
770

> <i_lp_mmshare_version>
43012

> <i_f3d_flags>
0

> <s_epik_input>
W0NIXSNDW0NIMl1bTkhdQyg9TylbTkhdW0NIMl1bQ0gyXWMxW2NIXXNjKG4xKU4yW0NIMl1bQ0gyXVtDSDJdW0NIMl0y

> <s_epik_cmdline>
J2VwaWtfcHl0aG9uJywgJy1waCcsICc3LjAnLCAnLXRuJywgJzgnLCAnLW1hJywgJzIwMCcsICctbWV0YWxfYmluZGluZycsICctaW1hZScsICc8aW5maWxlLm1hZT4nLCAnLW9tYWUnLCAnPG91dGZpbGUubWFlPic=

> <r_lp_tautomer_probability>
1

> <r_epik_Ionization_Penalty>
0.810114

> <r_epik_Ionization_Penalty_Charging>
0.810081

> <r_epik_Ionization_Penalty_Neutral>
3.29877e-05

> <r_epik_State_Penalty>
0.842152

> <r_epik_Charging_Adjusted_Penalty>
1.65223

> <i_epik_Tot_Q>
1

> <i_epik_Tot_abs_Q>
1

> <r_epik_Metal_State_Penalty>
0.978703

> <b_epik_Metal_Only>
0

> <s_lp_Force_Field>
OPLS_2005

> <r_lp_Energy>
26.9022

> <b_lp_Chiralities_Consistent>
1

> <s_lp_Variant>
AV-unprocessed.smi:770-2

> <Gold.Version>
5.8.1

> <Gold.Id.Protein>
6NUR|6NUR_protein|mol2

> <Gold.PLP.Fitness>
54.4687

> <Gold.PLP.PLP>
-44.9537

> <Gold.PLP.part.hbond>
-3.0996

> <Gold.PLP.part.metal>
0.0000

> <Gold.PLP.part.buried>
-3.6103

> <Gold.PLP.part.nonpolar>
-39.4039

> <Gold.PLP.part.repulsive>
0.4610

> <Gold.PLP.ligand.clash>
0.0000

> <Gold.PLP.ligand.torsion>
1.1624

> <Gold.PLP.Chemscore.Hbond>
3.8382

> <Gold.PLP.Chemscore.CHOScore>
0.0000

> <Gold.PLP.Chemscore.Metal>
0.0000

> <Gold.Chemscore.Hbonds>
donor molecule, donor type, donor heavy atom, donor atom, acceptor molecule, acceptor atom, score
      L1  H     4    23       P1 10175  1.00
      L1  H     7    24       P1 10175  0.84
      L1  H    19    38       P1  8028  2.00

> <Gold.PLP.Chemscore.Internal.Correction>
0.3251

> <Gold.Rescore>
     Score         DG    S(hbond)    S(metal)    S(lipo)     H(rot)  DE(clash)    DE(int)     intcor
     20.89     -22.08       2.89        0.00      98.32       1.78       0.12       1.07       ----

> <Gold.Chemscore.Fitness>
20.8919

> <Gold.Chemscore.DG>
-22.0800

> <Gold.Chemscore.ZeroCoef>
-5.4800

> <Gold.Chemscore.Hbond>
2.8883

> <Gold.Chemscore.Metal>
0.0000

> <Gold.Chemscore.Lipo>
98.3232

> <Gold.Chemscore.Internal_Hbond>
0.0000

> <Gold.Chemscore.DEClash>
0.1183

> <Gold.Chemscore.DEInternal>
1.0697

> <Gold.Chemscore.Rot>
1.7776

> <Gold.Chemscore.Internal.Correction>
   9.000000E+99

> <Gold.Chemscore.Hbonds>
donor molecule, donor type, donor heavy atom, donor atom, acceptor molecule, acceptor atom, score
      L1  H     4    23       P1 10175  1.00
      L1  H     7    24       P1 10175  0.55
      L1  H    19    38       P1  8028  0.99

> <Gold.Chemscore.Hbond.Weighted>
-9.6468

> <Gold.Chemscore.Metal.Weighted>
-0.0000

> <Gold.Chemscore.Lipo.Weighted>
-11.5038

> <Gold.Chemscore.Internal_Hbond.Weighted>
0.0000

> <Gold.Chemscore.DEClash.Weighted>
0.1183

> <Gold.Chemscore.DEInternal.Weighted>
1.0697

> <Gold.Chemscore.Rot.Weighted>
4.5506

> <Gold.Chemscore.Internal.Correction.Weighted>
   9.000000E+99

> <Gold.Protein.RotatedTorsions>
[ 6907 6896 6895 6894 ] final -104.62 input  -60.11 | X-H torsion
[ 7974 7965 7964 7962 ] final  -65.65 input  175.53 | X-H torsion
[ 8008 7997 7996 7995 ] final   44.14 input   59.86 | X-H torsion
[ 10167 10162 10161 10158 ] final   75.99 input  -65.29 | X-H torsion
[ 10718 10713 10712 10709 ] final -171.84 input   66.30 | X-H torsion
[ 10763 10752 10751 10750 ] final  -72.46 input  -60.55 | X-H torsion
[ 11005 11000 10999 10996 ] final -142.00 input  -57.11 | X-H torsion

> <Gold.Protein.ActiveResidues>
 VAL166  LYS551  ARG553  GLY616  TRP617  ASP618  TYR619  PRO620  LYS621  CYS622 
 ASP623  PHE694  ASN695  SER759  ASP760  ASP761  ALA762  ILE779  LEU786  VAL792 
 PHE793  MET794  SER795  GLU796  ALA797  LYS798  CYS799  TRP800  GLU811  SER814 

> <Gold.Protein.RotatedAtoms>
  150.7296  134.0251  159.3714 H   0  0  0  0  0  0  0  0  0  0  0  0  # atno 6907 bound_to 6896
  151.8217  135.0647  160.0435 H   0  0  0  0  0  0  0  0  0  0  0  0  # atno 6908 bound_to 6896
  152.2998  133.5608  159.5648 H   0  0  0  0  0  0  0  0  0  0  0  0  # atno 6909 bound_to 6896
  145.7516  140.8906  143.0477 H   0  0  0  0  0  0  0  0  0  0  0  0  # atno 7974 bound_to 7965
  155.3144  140.3393  155.4243 H   0  0  0  0  0  0  0  0  0  0  0  0  # atno 8008 bound_to 7997
  156.1940  140.1708  156.8073 H   0  0  0  0  0  0  0  0  0  0  0  0  # atno 8009 bound_to 7997
  154.5476  140.0712  156.8598 H   0  0  0  0  0  0  0  0  0  0  0  0  # atno 8010 bound_to 7997
  139.9970  144.5714  150.7769 H   0  0  0  0  0  0  0  0  0  0  0  0  # atno 10167 bound_to 10162
  156.7467  130.9363  151.3113 H   0  0  0  0  0  0  0  0  0  0  0  0  # atno 10718 bound_to 10713
  154.4460  135.5929  153.6160 H   0  0  0  0  0  0  0  0  0  0  0  0  # atno 10763 bound_to 10752
  152.9809  135.6009  154.3664 H   0  0  0  0  0  0  0  0  0  0  0  0  # atno 10764 bound_to 10752
  154.3519  135.2841  155.2346 H   0  0  0  0  0  0  0  0  0  0  0  0  # atno 10765 bound_to 10752
  140.8268  134.2564  157.4875 H   0  0  0  0  0  0  0  0  0  0  0  0  # atno 11005 bound_to 11000
  144.6848  139.9599  143.7480 LP  0  0  0  0  0  0  0  0  0  0  0  0  # atno 17320 bound_to 7965
  146.0351  139.3370  143.0731 LP  0  0  0  0  0  0  0  0  0  0  0  0  # atno 17321 bound_to 7965
  140.7433  143.2844  151.3505 LP  0  0  0  0  0  0  0  0  0  0  0  0  # atno 17342 bound_to 10162
  139.6299  144.0742  152.2467 LP  0  0  0  0  0  0  0  0  0  0  0  0  # atno 17343 bound_to 10162
  157.6795  130.9126  150.0232 LP  0  0  0  0  0  0  0  0  0  0  0  0  # atno 17370 bound_to 10713
  156.1428  130.3642  149.9556 LP  0  0  0  0  0  0  0  0  0  0  0  0  # atno 17371 bound_to 10713
  139.8706  134.9565  156.4239 LP  0  0  0  0  0  0  0  0  0  0  0  0  # atno 17394 bound_to 11000
  140.9040  133.7759  155.9713 LP  0  0  0  0  0  0  0  0  0  0  0  0  # atno 17395 bound_to 11000

$$$$
