AV-unprocessed.smi:937|AV-procd|sdf|4216|dock4
  -GOLD-   22720 2123D 1   1.00000     0.00000
 Structure written by MMmdl.
 46 47  0  0  0  0  0  0  0  0  2 V2000
  143.4298  132.5385  148.3706 C   0  0  0  0  0  0  0  0  0  0  0  0
  144.1882  132.8536  149.6425 C   0  0  0  0  0  0  0  0  0  0  0  0
  145.4790  132.3430  149.8985 C   0  0  0  0  0  0  0  0  0  0  0  0
  146.1235  132.6749  151.1085 C   0  0  0  0  0  0  0  0  0  0  0  0
  145.4655  133.5112  152.0370 C   0  0  0  0  0  0  0  0  0  0  0  0
  146.1240  133.8779  153.3527 C   0  0  0  0  0  0  0  0  0  0  0  0
  146.4289  132.6402  154.2069 C   0  0  0  0  0  0  0  0  0  0  0  0
  145.5159  132.5574  155.3382 N   0  0  0  0  0  0  0  0  0  0  0  0
  145.8996  132.5189  156.6245 C   0  0  0  0  0  0  0  0  0  0  0  0
  147.0757  132.5598  156.9799 O   0  0  0  0  0  0  0  0  0  0  0  0
  144.8936  132.4181  157.5116 N   0  0  0  0  0  0  0  0  0  0  0  0
  144.9657  132.3530  158.9750 C   0  0  1  0  0  0  0  0  0  0  0  0
  144.1550  133.4858  159.6417 C   0  0  0  0  0  0  0  0  0  0  0  0
  142.6404  133.2949  159.4624 C   0  0  0  0  0  0  0  0  0  0  0  0
  142.1872  131.9197  159.9762 C   0  0  0  0  0  0  0  0  0  0  0  0
  142.9579  130.7722  159.2902 C   0  0  2  0  0  0  0  0  0  0  0  0
  142.4990  129.3870  159.7909 C   0  0  0  0  0  0  0  0  0  0  0  0
  141.1694  129.2885  159.7642 F   0  0  0  0  0  0  0  0  0  0  0  0
  143.0174  128.4284  159.0231 F   0  0  0  0  0  0  0  0  0  0  0  0
  142.9206  129.1916  161.0405 F   0  0  0  0  0  0  0  0  0  0  0  0
  144.4813  130.9734  159.4655 C   0  0  0  0  0  0  0  0  0  0  0  0
  144.1762  133.9935  151.7258 C   0  0  0  0  0  0  0  0  0  0  0  0
  143.5923  133.6517  150.5566 N   0  3  0  0  0  0  0  0  0  0  0  0
  144.0147  131.8951  147.7127 H   0  0  0  0  0  0  0  0  0  0  0  0
  143.1956  133.4558  147.8298 H   0  0  0  0  0  0  0  0  0  0  0  0
  142.4953  132.0272  148.6035 H   0  0  0  0  0  0  0  0  0  0  0  0
  145.9704  131.7026  149.1802 H   0  0  0  0  0  0  0  0  0  0  0  0
  147.1099  132.2880  151.3199 H   0  0  0  0  0  0  0  0  0  0  0  0
  147.0422  134.4327  153.1538 H   0  0  0  0  0  0  0  0  0  0  0  0
  145.4660  134.5562  153.8979 H   0  0  0  0  0  0  0  0  0  0  0  0
  146.3430  131.7406  153.5948 H   0  0  0  0  0  0  0  0  0  0  0  0
  147.4531  132.6798  154.5804 H   0  0  0  0  0  0  0  0  0  0  0  0
  144.5278  132.5178  155.1341 H   0  0  0  0  0  0  0  0  0  0  0  0
  143.9644  132.3535  157.1214 H   0  0  0  0  0  0  0  0  0  0  0  0
  146.0118  132.4511  159.2699 H   0  0  0  0  0  0  0  0  0  0  0  0
  144.3848  133.5053  160.7078 H   0  0  0  0  0  0  0  0  0  0  0  0
  144.4549  134.4598  159.2545 H   0  0  0  0  0  0  0  0  0  0  0  0
  142.1039  134.0822  159.9926 H   0  0  0  0  0  0  0  0  0  0  0  0
  142.3760  133.4000  158.4094 H   0  0  0  0  0  0  0  0  0  0  0  0
  142.3335  131.8699  161.0559 H   0  0  0  0  0  0  0  0  0  0  0  0
  141.1163  131.8070  159.8058 H   0  0  0  0  0  0  0  0  0  0  0  0
  142.7337  130.8171  158.2233 H   0  0  0  0  0  0  0  0  0  0  0  0
  145.0272  130.1864  158.9437 H   0  0  0  0  0  0  0  0  0  0  0  0
  144.7369  130.8654  160.5203 H   0  0  0  0  0  0  0  0  0  0  0  0
  143.5957  134.6335  152.3742 H   0  0  0  0  0  0  0  0  0  0  0  0
  142.6584  134.0101  150.3558 H   0  0  0  0  0  0  0  0  0  0  0  0
  1  2  1  0  0  0  0
  1 24  1  0  0  0  0
  1 25  1  0  0  0  0
  1 26  1  0  0  0  0
  2 23  1  0  0  0  0
  2  3  2  0  0  0  0
  3  4  1  0  0  0  0
  3 27  1  0  0  0  0
  4  5  2  0  0  0  0
  4 28  1  0  0  0  0
  5  6  1  0  0  0  0
  5 22  1  0  0  0  0
  6  7  1  0  0  0  0
  6 29  1  0  0  0  0
  6 30  1  0  0  0  0
  7  8  1  0  0  0  0
  7 31  1  0  0  0  0
  7 32  1  0  0  0  0
  8  9  1  0  0  0  0
  8 33  1  0  0  0  0
  9 10  2  0  0  0  0
  9 11  1  0  0  0  0
 11 12  1  0  0  0  0
 11 34  1  0  0  0  0
 12 21  1  0  0  0  0
 12 13  1  0  0  0  0
 12 35  1  0  0  0  0
 13 14  1  0  0  0  0
 13 36  1  0  0  0  0
 13 37  1  0  0  0  0
 14 15  1  0  0  0  0
 14 38  1  0  0  0  0
 14 39  1  0  0  0  0
 15 16  1  0  0  0  0
 15 40  1  0  0  0  0
 15 41  1  0  0  0  0
 16 17  1  0  0  0  0
 16 21  1  0  0  0  0
 16 42  1  0  0  0  0
 17 18  1  0  0  0  0
 17 19  1  0  0  0  0
 17 20  1  0  0  0  0
 21 43  1  0  0  0  0
 21 44  1  0  0  0  0
 22 23  2  0  0  0  0
 22 45  1  0  0  0  0
 23 46  1  0  0  0  0
M  CHG  1  23   1
M  END
> <s_m_source_file>
AV-unprocessed.smi

> <i_m_source_file_index>
937

> <i_lp_mmshare_version>
43012

> <i_f3d_flags>
0

> <s_epik_input>
W0NIM11jMVtjSF1bY0hdYyhbY0hdbjEpW0NIMl1bQ0gyXVtOSF1DKD1PKVtOSF1bQ0BASF0yW0NIMl1bQ0gyXVtDSDJdW0NAQEhdKEMoRikoRilGKVtDSDJdMg==

> <s_epik_cmdline>
J2VwaWtfcHl0aG9uJywgJy1waCcsICc3LjAnLCAnLXRuJywgJzgnLCAnLW1hJywgJzIwMCcsICctbWV0YWxfYmluZGluZycsICctaW1hZScsICc8aW5maWxlLm1hZT4nLCAnLW9tYWUnLCAnPG91dGZpbGUubWFlPic=

> <r_epik_Ionization_Penalty>
1.4226

> <r_epik_Ionization_Penalty_Charging>
1.42255

> <r_epik_Ionization_Penalty_Neutral>
5.16456e-05

> <r_epik_State_Penalty>
1.50646

> <r_epik_Charging_Adjusted_Penalty>
2.92901

> <i_epik_Tot_Q>
1

> <i_epik_Tot_abs_Q>
1

> <r_epik_Metal_State_Penalty>
1.55846

> <b_epik_Metal_Only>
0

> <s_lp_Force_Field>
OPLS_2005

> <r_lp_Energy>
25.1059

> <b_lp_Chiralities_Consistent>
1

> <s_lp_Variant>
AV-unprocessed.smi:937-8

> <Gold.Version>
5.8.1

> <Gold.Id.Protein>
6NUR|6NUR_protein|mol2

> <Gold.PLP.Fitness>
45.2278

> <Gold.PLP.PLP>
-37.1440

> <Gold.PLP.part.hbond>
-2.0000

> <Gold.PLP.part.metal>
0.0000

> <Gold.PLP.part.buried>
-5.2006

> <Gold.PLP.part.nonpolar>
-30.1536

> <Gold.PLP.part.repulsive>
0.0124

> <Gold.PLP.ligand.clash>
0.0000

> <Gold.PLP.ligand.torsion>
0.4822

> <Gold.PLP.Chemscore.Hbond>
3.0000

> <Gold.PLP.Chemscore.CHOScore>
0.0000

> <Gold.PLP.Chemscore.Metal>
0.0000

> <Gold.Chemscore.Hbonds>
donor molecule, donor type, donor heavy atom, donor atom, acceptor molecule, acceptor atom, score
      L1  H     8    33       P1 10957  1.00
      L1  H    23    46       P1 10186  2.00

> <Gold.PLP.Chemscore.Internal.Correction>
0.0482

> <Gold.Rescore>
     Score         DG    S(hbond)    S(metal)    S(lipo)     H(rot)  DE(clash)    DE(int)     intcor
     19.00     -19.64       2.39        0.00      89.18       1.66       0.20       0.44       ----

> <Gold.Chemscore.Fitness>
19.0005

> <Gold.Chemscore.DG>
-19.6441

> <Gold.Chemscore.ZeroCoef>
-5.4800

> <Gold.Chemscore.Hbond>
2.3880

> <Gold.Chemscore.Metal>
0.0000

> <Gold.Chemscore.Lipo>
89.1776

> <Gold.Chemscore.Internal_Hbond>
0.0000

> <Gold.Chemscore.DEClash>
0.2044

> <Gold.Chemscore.DEInternal>
0.4392

> <Gold.Chemscore.Rot>
1.6585

> <Gold.Chemscore.Internal.Correction>
   9.000000E+99

> <Gold.Chemscore.Hbonds>
donor molecule, donor type, donor heavy atom, donor atom, acceptor molecule, acceptor atom, score
      L1  H     8    33       P1 10957  0.91
      L1  H    23    46       P1 10186  0.94

> <Gold.Chemscore.Hbond.Weighted>
-7.9760

> <Gold.Chemscore.Metal.Weighted>
-0.0000

> <Gold.Chemscore.Lipo.Weighted>
-10.4338

> <Gold.Chemscore.Internal_Hbond.Weighted>
0.0000

> <Gold.Chemscore.DEClash.Weighted>
0.2044

> <Gold.Chemscore.DEInternal.Weighted>
0.4392

> <Gold.Chemscore.Rot.Weighted>
4.2457

> <Gold.Chemscore.Internal.Correction.Weighted>
   9.000000E+99

> <Gold.Protein.RotatedTorsions>
[ 6907 6896 6895 6894 ] final   71.56 input  -60.11 | X-H torsion
[ 7974 7965 7964 7962 ] final  -36.55 input  175.53 | X-H torsion
[ 8008 7997 7996 7995 ] final -161.72 input   59.86 | X-H torsion
[ 10167 10162 10161 10158 ] final  169.77 input  -65.29 | X-H torsion
[ 10718 10713 10712 10709 ] final  -95.85 input   66.30 | X-H torsion
[ 10763 10752 10751 10750 ] final -141.34 input  -60.55 | X-H torsion
[ 11005 11000 10999 10996 ] final  -39.71 input  -57.11 | X-H torsion

> <Gold.Protein.ActiveResidues>
 VAL166  LYS551  ARG553  GLY616  TRP617  ASP618  TYR619  PRO620  LYS621  CYS622 
 ASP623  PHE694  ASN695  SER759  ASP760  ASP761  ALA762  ILE779  LEU786  VAL792 
 PHE793  MET794  SER795  GLU796  ALA797  LYS798  CYS799  TRP800  GLU811  SER814 

> <Gold.Protein.RotatedAtoms>
  152.4817  134.4702  159.9632 H   0  0  0  0  0  0  0  0  0  0  0  0  # atno 6907 bound_to 6896
  151.4706  133.3564  159.2831 H   0  0  0  0  0  0  0  0  0  0  0  0  # atno 6908 bound_to 6896
  150.8895  134.8322  159.7344 H   0  0  0  0  0  0  0  0  0  0  0  0  # atno 6909 bound_to 6896
  146.0652  140.6291  142.8978 H   0  0  0  0  0  0  0  0  0  0  0  0  # atno 7974 bound_to 7965
  155.7963  140.0885  157.1982 H   0  0  0  0  0  0  0  0  0  0  0  0  # atno 8008 bound_to 7997
  154.3983  140.1481  156.3280 H   0  0  0  0  0  0  0  0  0  0  0  0  # atno 8009 bound_to 7997
  155.8508  140.3434  155.5695 H   0  0  0  0  0  0  0  0  0  0  0  0  # atno 8010 bound_to 7997
  139.5001  144.3670  151.9765 H   0  0  0  0  0  0  0  0  0  0  0  0  # atno 10167 bound_to 10162
  156.0051  130.5126  150.6138 H   0  0  0  0  0  0  0  0  0  0  0  0  # atno 10718 bound_to 10713
  154.8548  135.3527  154.5853 H   0  0  0  0  0  0  0  0  0  0  0  0  # atno 10763 bound_to 10752
  153.6463  135.6996  153.5229 H   0  0  0  0  0  0  0  0  0  0  0  0  # atno 10764 bound_to 10752
  153.2930  135.4229  155.1143 H   0  0  0  0  0  0  0  0  0  0  0  0  # atno 10765 bound_to 10752
  141.0122  133.6903  156.2223 H   0  0  0  0  0  0  0  0  0  0  0  0  # atno 11005 bound_to 11000
  144.7198  140.4335  143.7016 LP  0  0  0  0  0  0  0  0  0  0  0  0  # atno 17320 bound_to 7965
  145.6489  139.1562  143.2873 LP  0  0  0  0  0  0  0  0  0  0  0  0  # atno 17321 bound_to 7965
  140.3106  144.3542  150.6035 LP  0  0  0  0  0  0  0  0  0  0  0  0  # atno 17342 bound_to 10162
  140.5802  143.2173  151.7442 LP  0  0  0  0  0  0  0  0  0  0  0  0  # atno 17343 bound_to 10162
  157.3965  131.0803  151.1347 LP  0  0  0  0  0  0  0  0  0  0  0  0  # atno 17370 bound_to 10713
  157.2022  130.6399  149.5742 LP  0  0  0  0  0  0  0  0  0  0  0  0  # atno 17371 bound_to 10713
  140.6715  134.4863  157.5587 LP  0  0  0  0  0  0  0  0  0  0  0  0  # atno 17394 bound_to 11000
  139.9096  134.8373  156.1577 LP  0  0  0  0  0  0  0  0  0  0  0  0  # atno 17395 bound_to 11000

$$$$
