AV-unprocessed.smi:90|AV-procd|sdf|830|dock9
  -GOLD-   2262017253D 1   1.00000     0.00000
 Structure written by MMmdl.
 64 67  0  0  0  0  0  0  0  0  2 V2000
  148.9516  134.7752  159.5930 C   0  0  0  0  0  0  0  0  0  0  0  0
  149.0773  135.6507  158.4309 N   0  0  0  0  0  0  0  0  0  0  0  0
  147.9000  135.8006  157.5776 C   0  0  0  0  0  0  0  0  0  0  0  0
  147.7778  134.6736  156.5335 C   0  0  0  0  0  0  0  0  0  0  0  0
  148.5559  134.9525  155.2206 C   0  0  1  0  0  0  0  0  0  0  0  0
  150.0829  134.7482  155.3525 C   0  0  0  0  0  0  0  0  0  0  0  0
  150.4562  133.2629  155.4796 C   0  0  0  0  0  0  0  0  0  0  0  0
  149.8720  132.4696  154.3029 C   0  0  0  0  0  0  0  0  0  0  0  0
  148.3588  132.7059  154.1620 C   0  0  0  0  0  0  0  0  0  0  0  0
  148.0574  134.1569  154.0588 N   0  3  1  0  0  0  0  0  0  0  0  0
  146.6528  134.4307  153.6775 C   0  0  0  0  0  0  0  0  0  0  0  0
  149.9113  136.7217  158.5283 C   0  0  0  0  0  0  0  0  0  0  0  0
  150.8081  136.7737  159.5500 N   0  0  0  0  0  0  0  0  0  0  0  0
  151.6216  137.8239  159.6874 C   0  0  0  0  0  0  0  0  0  0  0  0
  151.7102  138.9136  158.9248 N   0  0  0  0  0  0  0  0  0  0  0  0
  150.8285  138.8656  157.8866 C   0  0  0  0  0  0  0  0  0  0  0  0
  149.8977  137.8204  157.6190 C   0  0  0  0  0  0  0  0  0  0  0  0
  149.1689  138.1273  156.4754 N   0  0  0  0  0  0  0  0  0  0  0  0
  149.6328  139.2861  156.0974 C   0  0  0  0  0  0  0  0  0  0  0  0
  150.6450  139.7968  156.8779 N   0  0  0  0  0  0  0  0  0  0  0  0
  151.3396  141.0629  156.6837 C   0  0  0  0  0  0  0  0  0  0  0  0
  151.0742  142.1354  157.7832 C   0  0  0  0  0  0  0  0  0  0  0  0
  149.6167  142.0272  158.3153 C   0  0  0  0  0  0  0  0  0  0  0  0
  148.6605  142.1116  157.2777 O   0  0  0  0  0  0  0  0  0  0  0  0
  152.0681  141.9476  158.9583 C   0  0  0  0  0  0  0  0  0  0  0  0
  152.0990  143.1469  159.9247 C   0  0  0  0  0  0  0  0  0  0  0  0
  152.3812  144.3448  159.2136 O   0  0  0  0  0  0  0  0  0  0  0  0
  151.3952  144.6495  158.2362 C   0  0  0  0  0  0  0  0  0  0  0  0
  151.3516  143.5346  157.1770 C   0  0  0  0  0  0  0  0  0  0  0  0
  149.9338  134.4853  159.9687 H   0  0  0  0  0  0  0  0  0  0  0  0
  148.4160  133.8632  159.3283 H   0  0  0  0  0  0  0  0  0  0  0  0
  148.4037  135.2684  160.3968 H   0  0  0  0  0  0  0  0  0  0  0  0
  146.9909  135.8595  158.1724 H   0  0  0  0  0  0  0  0  0  0  0  0
  147.9804  136.7640  157.0750 H   0  0  0  0  0  0  0  0  0  0  0  0
  148.0977  133.7326  156.9795 H   0  0  0  0  0  0  0  0  0  0  0  0
  146.7200  134.5502  156.3053 H   0  0  0  0  0  0  0  0  0  0  0  0
  148.3952  136.0019  154.9692 H   0  0  0  0  0  0  0  0  0  0  0  0
  150.5712  135.1571  154.4668 H   0  0  0  0  0  0  0  0  0  0  0  0
  150.4873  135.3112  156.1927 H   0  0  0  0  0  0  0  0  0  0  0  0
  151.5405  133.1508  155.5031 H   0  0  0  0  0  0  0  0  0  0  0  0
  150.0855  132.8599  156.4224 H   0  0  0  0  0  0  0  0  0  0  0  0
  150.3720  132.7690  153.3810 H   0  0  0  0  0  0  0  0  0  0  0  0
  150.0746  131.4059  154.4317 H   0  0  0  0  0  0  0  0  0  0  0  0
  148.0004  132.1974  153.2663 H   0  0  0  0  0  0  0  0  0  0  0  0
  147.8213  132.2665  155.0030 H   0  0  0  0  0  0  0  0  0  0  0  0
  145.9482  134.0008  154.3898 H   0  0  0  0  0  0  0  0  0  0  0  0
  146.4388  133.9992  152.6994 H   0  0  0  0  0  0  0  0  0  0  0  0
  146.4694  135.5035  153.6115 H   0  0  0  0  0  0  0  0  0  0  0  0
  152.2975  137.7863  160.5290 H   0  0  0  0  0  0  0  0  0  0  0  0
  149.2517  139.8002  155.2270 H   0  0  0  0  0  0  0  0  0  0  0  0
  152.4065  140.8430  156.6272 H   0  0  0  0  0  0  0  0  0  0  0  0
  151.0713  141.4515  155.7006 H   0  0  0  0  0  0  0  0  0  0  0  0
  149.4668  141.0888  158.8493 H   0  0  0  0  0  0  0  0  0  0  0  0
  149.3883  142.8157  159.0302 H   0  0  0  0  0  0  0  0  0  0  0  0
  148.5466  143.0206  157.0467 H   0  0  0  0  0  0  0  0  0  0  0  0
  151.8344  141.0425  159.5197 H   0  0  0  0  0  0  0  0  0  0  0  0
  153.0746  141.8085  158.5613 H   0  0  0  0  0  0  0  0  0  0  0  0
  151.1619  143.2472  160.4730 H   0  0  0  0  0  0  0  0  0  0  0  0
  152.8784  142.9974  160.6718 H   0  0  0  0  0  0  0  0  0  0  0  0
  150.4231  144.7949  158.7084 H   0  0  0  0  0  0  0  0  0  0  0  0
  151.6567  145.5969  157.7648 H   0  0  0  0  0  0  0  0  0  0  0  0
  152.3151  143.5229  156.6656 H   0  0  0  0  0  0  0  0  0  0  0  0
  150.6157  143.7795  156.4108 H   0  0  0  0  0  0  0  0  0  0  0  0
  148.6039  134.4823  153.2742 H   0  0  0  0  0  0  0  0  0  0  0  0
  1  2  1  0  0  0  0
  1 30  1  0  0  0  0
  1 31  1  0  0  0  0
  1 32  1  0  0  0  0
  2  3  1  0  0  0  0
  2 12  1  0  0  0  0
  3  4  1  0  0  0  0
  3 33  1  0  0  0  0
  3 34  1  0  0  0  0
  4  5  1  0  0  0  0
  4 35  1  0  0  0  0
  4 36  1  0  0  0  0
  5 10  1  0  0  0  0
  5  6  1  0  0  0  0
  5 37  1  0  0  0  0
  6  7  1  0  0  0  0
  6 38  1  0  0  0  0
  6 39  1  0  0  0  0
  7  8  1  0  0  0  0
  7 40  1  0  0  0  0
  7 41  1  0  0  0  0
  8  9  1  0  0  0  0
  8 42  1  0  0  0  0
  8 43  1  0  0  0  0
  9 10  1  0  0  0  0
  9 44  1  0  0  0  0
  9 45  1  0  0  0  0
 10 11  1  0  0  0  0
 10 64  1  0  0  0  0
 11 46  1  0  0  0  0
 11 47  1  0  0  0  0
 11 48  1  0  0  0  0
 12 17  1  0  0  0  0
 12 13  2  0  0  0  0
 13 14  1  0  0  0  0
 14 15  2  0  0  0  0
 14 49  1  0  0  0  0
 15 16  1  0  0  0  0
 16 20  1  0  0  0  0
 16 17  2  0  0  0  0
 17 18  1  0  0  0  0
 18 19  2  0  0  0  0
 19 20  1  0  0  0  0
 19 50  1  0  0  0  0
 20 21  1  0  0  0  0
 21 22  1  0  0  0  0
 21 51  1  0  0  0  0
 21 52  1  0  0  0  0
 22 29  1  0  0  0  0
 22 23  1  0  0  0  0
 22 25  1  0  0  0  0
 23 24  1  0  0  0  0
 23 53  1  0  0  0  0
 23 54  1  0  0  0  0
 24 55  1  0  0  0  0
 25 26  1  0  0  0  0
 25 56  1  0  0  0  0
 25 57  1  0  0  0  0
 26 27  1  0  0  0  0
 26 58  1  0  0  0  0
 26 59  1  0  0  0  0
 27 28  1  0  0  0  0
 28 29  1  0  0  0  0
 28 60  1  0  0  0  0
 28 61  1  0  0  0  0
 29 62  1  0  0  0  0
 29 63  1  0  0  0  0
M  CHG  1  10   1
M  END
> <s_m_source_file>
AV-unprocessed.smi

> <i_m_source_file_index>
90

> <i_lp_mmshare_version>
43012

> <i_f3d_flags>
0

> <s_epik_input>
W0NIM11OMVtDSDJdW0NIMl1bQ0gyXVtDSDJdW0NASF0xW0NIMl1bQ0gyXU4oW0NIM10pYyhuW2NIXW4yKWMoYzIzKW5bY0hdbjNbQ0gyXUM0KFtDSDJdW09IXSlbQ0gyXVtDSDJdT1tDSDJdW0NIMl00

> <s_epik_cmdline>
J2VwaWtfcHl0aG9uJywgJy1waCcsICc3LjAnLCAnLXRuJywgJzgnLCAnLW1hJywgJzIwMCcsICctbWV0YWxfYmluZGluZycsICctaW1hZScsICc8aW5maWxlLm1hZT4nLCAnLW9tYWUnLCAnPG91dGZpbGUubWFlPic=

> <r_lp_tautomer_probability>
1

> <r_epik_Ionization_Penalty>
0.00234895

> <r_epik_Ionization_Penalty_Charging>
0.00106647

> <r_epik_Ionization_Penalty_Neutral>
0.00128248

> <r_epik_State_Penalty>
-0

> <r_epik_Charging_Adjusted_Penalty>
0.00106647

> <i_epik_Tot_Q>
1

> <i_epik_Tot_abs_Q>
1

> <r_epik_Metal_State_Penalty>
-0

> <b_epik_Metal_Only>
0

> <s_lp_Force_Field>
OPLS_2005

> <r_lp_Energy>
42.9862

> <b_lp_Chiralities_Consistent>
1

> <s_lp_Variant>
AV-unprocessed.smi:90-2

> <Gold.Version>
5.8.1

> <Gold.Id.Protein>
6NUR|6NUR_protein|mol2

> <Gold.PLP.Fitness>
50.7887

> <Gold.PLP.PLP>
-40.3543

> <Gold.PLP.part.hbond>
-3.0000

> <Gold.PLP.part.metal>
0.0000

> <Gold.PLP.part.buried>
-6.2118

> <Gold.PLP.part.nonpolar>
-31.9474

> <Gold.PLP.part.repulsive>
0.0045

> <Gold.PLP.ligand.clash>
0.0000

> <Gold.PLP.ligand.torsion>
1.1252

> <Gold.PLP.Chemscore.Hbond>
3.9760

> <Gold.PLP.Chemscore.CHOScore>
0.0000

> <Gold.PLP.Chemscore.Metal>
0.0000

> <Gold.Chemscore.Hbonds>
donor molecule, donor type, donor heavy atom, donor atom, acceptor molecule, acceptor atom, score
      L1  H    10    64       P1  7948  0.89
      L1  H    24    55       P1  8028  0.55
      P1  H  6896  6908       L1    13  0.42

> <Gold.PLP.Chemscore.Internal.Correction>
0.7567

> <Gold.Rescore>
     Score         DG    S(hbond)    S(metal)    S(lipo)     H(rot)  DE(clash)    DE(int)     intcor
     14.01     -18.91       2.75        0.00      96.22       2.73       1.33       3.56       ----

> <Gold.Chemscore.Fitness>
14.0109

> <Gold.Chemscore.DG>
-18.9094

> <Gold.Chemscore.ZeroCoef>
-5.4800

> <Gold.Chemscore.Hbond>
2.7462

> <Gold.Chemscore.Metal>
0.0000

> <Gold.Chemscore.Lipo>
96.2231

> <Gold.Chemscore.Internal_Hbond>
0.0000

> <Gold.Chemscore.DEClash>
1.3336

> <Gold.Chemscore.DEInternal>
3.5649

> <Gold.Chemscore.Rot>
2.7347

> <Gold.Chemscore.Internal.Correction>
   9.000000E+99

> <Gold.Chemscore.Hbonds>
donor molecule, donor type, donor heavy atom, donor atom, acceptor molecule, acceptor atom, score
      L1  H    10    64       P1  7948  0.13
      L1  H    24    55       P1  8028  0.27
      P1  H  6896  6908       L1    13  0.03

> <Gold.Chemscore.Hbond.Weighted>
-9.1722

> <Gold.Chemscore.Metal.Weighted>
-0.0000

> <Gold.Chemscore.Lipo.Weighted>
-11.2581

> <Gold.Chemscore.Internal_Hbond.Weighted>
0.0000

> <Gold.Chemscore.DEClash.Weighted>
1.3336

> <Gold.Chemscore.DEInternal.Weighted>
3.5649

> <Gold.Chemscore.Rot.Weighted>
7.0009

> <Gold.Chemscore.Internal.Correction.Weighted>
   9.000000E+99

> <Gold.Protein.RotatedTorsions>
[ 6907 6896 6895 6894 ] final -172.73 input  -60.11 | X-H torsion
[ 7974 7965 7964 7962 ] final  159.32 input  175.53 | X-H torsion
[ 8008 7997 7996 7995 ] final  135.68 input   59.86 | X-H torsion
[ 10167 10162 10161 10158 ] final  -48.17 input  -65.29 | X-H torsion
[ 10718 10713 10712 10709 ] final  -60.87 input   66.30 | X-H torsion
[ 10763 10752 10751 10750 ] final   26.96 input  -60.55 | X-H torsion
[ 11005 11000 10999 10996 ] final  112.55 input  -57.11 | X-H torsion

> <Gold.Protein.ActiveResidues>
 VAL166  LYS551  ARG553  GLY616  TRP617  ASP618  TYR619  PRO620  LYS621  CYS622 
 ASP623  PHE694  ASN695  SER759  ASP760  ASP761  ALA762  ILE779  LEU786  VAL792 
 PHE793  MET794  SER795  GLU796  ALA797  LYS798  CYS799  TRP800  GLU811  SER814 

> <Gold.Protein.RotatedAtoms>
  151.5446  133.3427  159.2941 H   0  0  0  0  0  0  0  0  0  0  0  0  # atno 6907 bound_to 6896
  150.8515  134.7843  159.7023 H   0  0  0  0  0  0  0  0  0  0  0  0  # atno 6908 bound_to 6896
  152.4560  134.5299  159.9859 H   0  0  0  0  0  0  0  0  0  0  0  0  # atno 6909 bound_to 6896
  144.7797  139.7600  143.6265 H   0  0  0  0  0  0  0  0  0  0  0  0  # atno 7974 bound_to 7965
  156.3003  140.2464  156.3622 H   0  0  0  0  0  0  0  0  0  0  0  0  # atno 8008 bound_to 7997
  154.8867  140.0410  157.1833 H   0  0  0  0  0  0  0  0  0  0  0  0  # atno 8009 bound_to 7997
  154.8640  140.2925  155.5525 H   0  0  0  0  0  0  0  0  0  0  0  0  # atno 8010 bound_to 7997
  140.6743  143.2751  151.4033 H   0  0  0  0  0  0  0  0  0  0  0  0  # atno 10167 bound_to 10162
  156.0960  130.4193  150.0915 H   0  0  0  0  0  0  0  0  0  0  0  0  # atno 10718 bound_to 10713
  153.0587  135.6548  154.0515 H   0  0  0  0  0  0  0  0  0  0  0  0  # atno 10763 bound_to 10752
  154.0187  135.2922  155.3385 H   0  0  0  0  0  0  0  0  0  0  0  0  # atno 10764 bound_to 10752
  154.6915  135.5281  153.8467 H   0  0  0  0  0  0  0  0  0  0  0  0  # atno 10765 bound_to 10752
  139.8930  134.9532  156.6603 H   0  0  0  0  0  0  0  0  0  0  0  0  # atno 11005 bound_to 11000
  146.1998  139.5285  142.9751 LP  0  0  0  0  0  0  0  0  0  0  0  0  # atno 17320 bound_to 7965
  145.6085  141.0343  143.1979 LP  0  0  0  0  0  0  0  0  0  0  0  0  # atno 17321 bound_to 7965
  139.6026  144.1263  152.2215 LP  0  0  0  0  0  0  0  0  0  0  0  0  # atno 17342 bound_to 10162
  140.0652  144.5824  150.7233 LP  0  0  0  0  0  0  0  0  0  0  0  0  # atno 17343 bound_to 10162
  156.8914  130.9589  151.3588 LP  0  0  0  0  0  0  0  0  0  0  0  0  # atno 17370 bound_to 10713
  157.6121  130.8591  149.8969 LP  0  0  0  0  0  0  0  0  0  0  0  0  # atno 17371 bound_to 10713
  140.7452  133.8944  155.8307 LP  0  0  0  0  0  0  0  0  0  0  0  0  # atno 17394 bound_to 11000
  141.0045  134.1105  157.4284 LP  0  0  0  0  0  0  0  0  0  0  0  0  # atno 17395 bound_to 11000

$$$$
