#       Name:                AV-unprocessed.smi:529
#       Creating user name   scv26
#       Creation time:       Thu Mar 26 23:33:04 2020


#       File generated by GOLD software.
#

@<TRIPOS>MOLECULE
AV-unprocessed.smi:529
    33    34     1
SMALL
NO_CHARGES


@<TRIPOS>ATOM
      1 ****        -2.7051   0.8266  -1.6186 N.pl3          1 S1                 0.0000
      2 ****        -3.1694  -0.4046  -1.3918 C.2            1 S1                 0.0000
      3 ****        -4.8528  -0.8137  -1.2493 S.3            1 S1                 0.0000
      4 ****        -4.4350  -2.4786  -0.9781 C.2            1 S1                 0.0000
      5 ****        -3.0781  -2.6654  -1.0030 C.2            1 S1                 0.0000
      6 ****        -2.3755  -1.4854  -1.2395 N.pl3          1 S1                 1.0000
      7 ****        -0.9031  -1.4297  -1.3039 C.3            1 S1                 0.0000
      8 ****        -0.2955  -0.9701   0.0243 C.2            1 S1                 0.0000
      9 ****        -0.5775  -1.5581   1.0683 O.2            1 S1                 0.0000
     10 ****         0.5262   0.0891  -0.0297 N.am           1 S1                 0.0000
     11 ****         1.1795   0.7035   1.1228 C.3            1 S1                 0.0000
     12 ****         1.5999   2.1512   0.8059 C.3            1 S1                 0.0000
     13 ****         3.0433   2.2870   1.2925 C.3            1 S1                 0.0000
     14 ****         3.6262   0.8863   1.1339 C.3            1 S1                 0.0000
     15 ****         2.4717  -0.0446   1.5077 C.3            1 S1                 0.0000
     16 ****        -1.7183   1.0274  -1.6911 H              1 S1                 0.0000
     17 ****        -5.2091  -3.2140  -0.8148 H              1 S1                 0.0000
     18 ****        -2.5199  -3.5800  -0.8617 H              1 S1                 0.0000
     19 ****        -0.5306  -2.4273  -1.5402 H              1 S1                 0.0000
     20 ****        -0.6062  -0.7800  -2.1290 H              1 S1                 0.0000
     21 ****         0.7127   0.5033  -0.9316 H              1 S1                 0.0000
     22 ****         0.4961   0.7059   1.9741 H              1 S1                 0.0000
     23 ****         1.5721   2.3339  -0.2696 H              1 S1                 0.0000
     24 ****         0.9411   2.8840   1.2730 H              1 S1                 0.0000
     25 ****         3.6039   3.0416   0.7401 H              1 S1                 0.0000
     26 ****         3.0518   2.5700   2.3462 H              1 S1                 0.0000
     27 ****         3.9099   0.7223   0.0934 H              1 S1                 0.0000
     28 ****         4.5113   0.7267   1.7503 H              1 S1                 0.0000
     29 ****         2.4795  -0.2123   2.5855 H              1 S1                 0.0000
     30 ****         2.5674  -1.0224   1.0333 H              1 S1                 0.0000
     31 ****        -3.3153   1.6276  -1.6992 H              1 S1                 0.0000
     32 ****        -1.2042  -2.3371   1.0498 LP             1 S1                 0.0000
     33 ****        -0.1799  -1.2568   1.9349 LP             1 S1                 0.0000
@<TRIPOS>BOND
    1    1    2 1     
    2    1   16 1     
    3    1   31 1     
    4    2    6 2     
    5    2    3 1     
    6    3    4 1     
    7    4    5 2     
    8    4   17 1     
    9    5    6 1     
   10    5   18 1     
   11    6    7 1     
   12    7    8 1     
   13    7   19 1     
   14    7   20 1     
   15    8    9 2     
   16    8   10 am    
   17   10   11 1     
   18   10   21 1     
   19   11   15 1     
   20   11   12 1     
   21   11   22 1     
   22   12   13 1     
   23   12   23 1     
   24   12   24 1     
   25   13   14 1     
   26   13   25 1     
   27   13   26 1     
   28   14   15 1     
   29   14   27 1     
   30   14   28 1     
   31   15   29 1     
   32   15   30 1     
   33    9   32 1     
   34    9   33 1     
@<TRIPOS>SUBSTRUCTURE
      1 S1             1
@<TRIPOS>SET
LONE_PAIRS      STATIC     ATOMS    <user>   **** ""
2 32 33
DONOR_HYDROGENS      STATIC     ATOMS    <user>   **** ""
3 16 31 21
ATOM$BLUE        STATIC     ATOMS    COLORGROUP SYSTEM
2 32 33
ATOM$RED        STATIC     ATOMS    COLORGROUP SYSTEM
3 16 31 21
