AV-unprocessed.smi:103|AV-procd|sdf|992|dock3
  -GOLD-   2262017573D 1   1.00000     0.00000
 Structure written by MMmdl.
 53 55  0  0  0  0  0  0  0  0  1 V2000
  145.8283  136.6637  161.5204 C   0  0  0  0  0  0  0  0  0  0  0  0
  147.2852  136.6905  161.0763 C   0  0  0  0  0  0  0  0  0  0  0  0
  148.1244  137.3689  161.6686 O   0  0  0  0  0  0  0  0  0  0  0  0
  147.5107  135.9137  160.0071 O   0  0  0  0  0  0  0  0  0  0  0  0
  148.8395  135.7045  159.5581 C   0  0  0  0  0  0  0  0  0  0  0  0
  149.2532  136.8578  158.6382 C   0  0  1  0  0  0  0  0  0  0  0  0
  150.1412  137.7341  159.3273 O   0  0  0  0  0  0  0  0  0  0  0  0
  151.0825  138.2660  158.4421 C   0  0  2  0  0  0  0  0  0  0  0  0
  151.0221  139.7653  158.4907 N   0  0  0  0  0  0  0  0  0  0  0  0
  152.0303  140.6643  158.7741 C   0  0  0  0  0  0  0  0  0  0  0  0
  153.7085  140.2610  159.2427 S   0  0  0  0  0  0  0  0  0  0  0  0
  153.4396  139.0126  160.5648 C   0  0  0  0  0  0  0  0  0  0  0  0
  154.3408  139.6096  158.0856 O   0  0  0  0  0  0  0  0  0  0  0  0
  154.2940  141.4767  159.8295 O   0  0  0  0  0  0  0  0  0  0  0  0
  151.7030  141.9273  158.7962 N   0  0  0  0  0  0  0  0  0  0  0  0
  150.3682  141.9107  158.4181 C   0  0  0  0  0  0  0  0  0  0  0  0
  149.3958  142.9183  158.1979 C   0  0  0  0  0  0  0  0  0  0  0  0
  149.6520  144.2254  158.3445 N   0  0  0  0  0  0  0  0  0  0  0  0
  148.1516  142.5456  157.8181 N   0  0  0  0  0  0  0  0  0  0  0  0
  147.8717  141.2481  157.6632 C   0  0  0  0  0  0  0  0  0  0  0  0
  148.6739  140.1949  157.8370 N   0  0  0  0  0  0  0  0  0  0  0  0
  149.9303  140.5695  158.2199 C   0  0  0  0  0  0  0  0  0  0  0  0
  150.7859  137.6953  157.0417 C   0  0  2  0  0  0  0  0  0  0  0  0
  149.9542  138.5705  156.2781 O   0  0  0  0  0  0  0  0  0  0  0  0
  150.4673  139.3136  155.2818 C   0  0  0  0  0  0  0  0  0  0  0  0
  149.3976  140.1122  154.5506 C   0  0  0  0  0  0  0  0  0  0  0  0
  151.6550  139.3916  154.9697 O   0  0  0  0  0  0  0  0  0  0  0  0
  150.0421  136.4206  157.4054 C   0  0  2  0  0  0  0  0  0  0  0  0
  149.1939  135.9598  156.3598 O   0  0  0  0  0  0  0  0  0  0  0  0
  149.7150  135.3187  155.3011 C   0  0  0  0  0  0  0  0  0  0  0  0
  148.6972  134.4268  154.6034 C   0  0  0  0  0  0  0  0  0  0  0  0
  150.8736  135.4125  154.8963 O   0  0  0  0  0  0  0  0  0  0  0  0
  145.3058  137.5435  161.1457 H   0  0  0  0  0  0  0  0  0  0  0  0
  145.7639  136.6602  162.6085 H   0  0  0  0  0  0  0  0  0  0  0  0
  145.3242  135.7735  161.1431 H   0  0  0  0  0  0  0  0  0  0  0  0
  149.5040  135.6604  160.4220 H   0  0  0  0  0  0  0  0  0  0  0  0
  148.9227  134.7529  159.0307 H   0  0  0  0  0  0  0  0  0  0  0  0
  148.3779  137.4361  158.3386 H   0  0  0  0  0  0  0  0  0  0  0  0
  152.0724  138.0027  158.8118 H   0  0  0  0  0  0  0  0  0  0  0  0
  154.4027  138.6806  160.9514 H   0  0  0  0  0  0  0  0  0  0  0  0
  152.8973  138.1597  160.1578 H   0  0  0  0  0  0  0  0  0  0  0  0
  152.8591  139.4593  161.3719 H   0  0  0  0  0  0  0  0  0  0  0  0
  150.5737  144.5289  158.6240 H   0  0  0  0  0  0  0  0  0  0  0  0
  148.9250  144.9043  158.1711 H   0  0  0  0  0  0  0  0  0  0  0  0
  146.8610  141.0207  157.3577 H   0  0  0  0  0  0  0  0  0  0  0  0
  151.7189  137.4679  156.5249 H   0  0  0  0  0  0  0  0  0  0  0  0
  148.9342  140.8292  155.2288 H   0  0  0  0  0  0  0  0  0  0  0  0
  148.6242  139.4468  154.1664 H   0  0  0  0  0  0  0  0  0  0  0  0
  149.8319  140.6586  153.7133 H   0  0  0  0  0  0  0  0  0  0  0  0
  150.7571  135.6499  157.6989 H   0  0  0  0  0  0  0  0  0  0  0  0
  148.0273  135.0281  153.9888 H   0  0  0  0  0  0  0  0  0  0  0  0
  148.1016  133.8814  155.3359 H   0  0  0  0  0  0  0  0  0  0  0  0
  149.2005  133.7036  153.9615 H   0  0  0  0  0  0  0  0  0  0  0  0
  1  2  1  0  0  0  0
  1 33  1  0  0  0  0
  1 34  1  0  0  0  0
  1 35  1  0  0  0  0
  2  3  2  0  0  0  0
  2  4  1  0  0  0  0
  4  5  1  0  0  0  0
  5  6  1  0  0  0  0
  5 36  1  0  0  0  0
  5 37  1  0  0  0  0
  6 28  1  0  0  0  0
  6  7  1  0  0  0  0
  6 38  1  0  0  0  0
  7  8  1  0  0  0  0
  8  9  1  0  0  0  0
  8 23  1  0  0  0  0
  8 39  1  0  0  0  0
  9 22  1  0  0  0  0
  9 10  1  0  0  0  0
 10 11  1  0  0  0  0
 10 15  2  0  0  0  0
 11 12  1  0  0  0  0
 11 13  2  0  0  0  0
 11 14  2  0  0  0  0
 12 40  1  0  0  0  0
 12 41  1  0  0  0  0
 12 42  1  0  0  0  0
 15 16  1  0  0  0  0
 16 22  2  0  0  0  0
 16 17  1  0  0  0  0
 17 18  1  0  0  0  0
 17 19  2  0  0  0  0
 18 43  1  0  0  0  0
 18 44  1  0  0  0  0
 19 20  1  0  0  0  0
 20 21  2  0  0  0  0
 20 45  1  0  0  0  0
 21 22  1  0  0  0  0
 23 24  1  0  0  0  0
 23 28  1  0  0  0  0
 23 46  1  0  0  0  0
 24 25  1  0  0  0  0
 25 26  1  0  0  0  0
 25 27  2  0  0  0  0
 26 47  1  0  0  0  0
 26 48  1  0  0  0  0
 26 49  1  0  0  0  0
 28 29  1  0  0  0  0
 28 50  1  0  0  0  0
 29 30  1  0  0  0  0
 30 31  1  0  0  0  0
 30 32  2  0  0  0  0
 31 51  1  0  0  0  0
 31 52  1  0  0  0  0
 31 53  1  0  0  0  0
M  END
> <s_m_source_file>
AV-unprocessed.smi

> <i_m_source_file_index>
103

> <i_lp_mmshare_version>
43012

> <i_f3d_flags>
0

> <s_epik_input>
W0NIM11DKD1PKU9bQ0gyXVtDQEBIXTFPW0NASF0oW0NAQEhdKE9DKD1PKVtDSDNdKVtDQEhdMU9DKD1PKVtDSDNdKW4oYyhuMilTKD1PKSg9TylbQ0gzXSljKGMyMyluW2NIXW5jM1tOSDJd

> <s_epik_cmdline>
J2VwaWtfcHl0aG9uJywgJy1waCcsICc3LjAnLCAnLXRuJywgJzgnLCAnLW1hJywgJzIwMCcsICctbWV0YWxfYmluZGluZycsICctaW1hZScsICc8aW5maWxlLm1hZT4nLCAnLW9tYWUnLCAnPG91dGZpbGUubWFlPic=

> <r_lp_tautomer_probability>
1

> <r_epik_Ionization_Penalty>
1.51338e-05

> <r_epik_Ionization_Penalty_Charging>
0

> <r_epik_Ionization_Penalty_Neutral>
1.51338e-05

> <r_epik_State_Penalty>
-0

> <r_epik_Charging_Adjusted_Penalty>
0

> <i_epik_Tot_Q>
0

> <i_epik_Tot_abs_Q>
0

> <r_epik_Metal_State_Penalty>
-0

> <b_epik_Metal_Only>
0

> <s_epik_Chemistry_Notes>
This compound has an ester and may undergo hydrolysis at high or low pH. This compound contains an acetal/aminal-like group ( X-CH(R)-Y where X, Y are N, S, or O) that may be acid/base labile, releasing an aldehyde.

> <s_lp_Force_Field>
OPLS_2005

> <r_lp_Energy>
14.4013

> <b_lp_Chiralities_Consistent>
1

> <s_lp_Variant>
AV-unprocessed.smi:103-16

> <Gold.Version>
5.8.1

> <Gold.Id.Protein>
6NUR|6NUR_protein|mol2

> <Gold.PLP.Fitness>
43.0276

> <Gold.PLP.PLP>
-29.6514

> <Gold.PLP.part.hbond>
-7.2259

> <Gold.PLP.part.metal>
0.0000

> <Gold.PLP.part.buried>
-3.8876

> <Gold.PLP.part.nonpolar>
-18.9609

> <Gold.PLP.part.repulsive>
0.4833

> <Gold.PLP.ligand.clash>
0.0000

> <Gold.PLP.ligand.torsion>
2.9364

> <Gold.PLP.Chemscore.Hbond>
5.4018

> <Gold.PLP.Chemscore.CHOScore>
0.0000

> <Gold.PLP.Chemscore.Metal>
0.0000

> <Gold.Chemscore.Hbonds>
donor molecule, donor type, donor heavy atom, donor atom, acceptor molecule, acceptor atom, score
      L1  H    18    44       P1  8029  1.00
      P1  H  6931  6943       L1     3  0.39
      P1  H  6934  6947       L1     3  0.23
      P1  H  7989  7998       L1    27  0.88
      P1  H  7997  8010       L1    13  0.08
      P1  H 10752 10765       L1    32  0.88

> <Gold.PLP.Chemscore.Internal.Correction>
3.0438

> <Gold.Rescore>
     Score         DG    S(hbond)    S(metal)    S(lipo)     H(rot)  DE(clash)    DE(int)     intcor
      4.52     -13.23       4.15        0.00      40.73       4.25       2.88       5.82       ----

> <Gold.Chemscore.Fitness>
4.5246

> <Gold.Chemscore.DG>
-13.2262

> <Gold.Chemscore.ZeroCoef>
-5.4800

> <Gold.Chemscore.Hbond>
4.1466

> <Gold.Chemscore.Metal>
0.0000

> <Gold.Chemscore.Lipo>
40.7289

> <Gold.Chemscore.Internal_Hbond>
0.0000

> <Gold.Chemscore.DEClash>
2.8821

> <Gold.Chemscore.DEInternal>
5.8195

> <Gold.Chemscore.Rot>
4.2456

> <Gold.Chemscore.Internal.Correction>
   9.000000E+99

> <Gold.Chemscore.Hbonds>
donor molecule, donor type, donor heavy atom, donor atom, acceptor molecule, acceptor atom, score
      L1  H    18    44       P1  8029  0.50
      P1  H  6931  6943       L1     3  0.39
      P1  H  6934  6947       L1     3  0.01
      P1  H  7989  7998       L1    27  0.33
      P1  H  7997  8010       L1    13  0.10
      P1  H 10752 10765       L1    32  0.81

> <Gold.Chemscore.Hbond.Weighted>
-13.8496

> <Gold.Chemscore.Metal.Weighted>
-0.0000

> <Gold.Chemscore.Lipo.Weighted>
-4.7653

> <Gold.Chemscore.Internal_Hbond.Weighted>
0.0000

> <Gold.Chemscore.DEClash.Weighted>
2.8821

> <Gold.Chemscore.DEInternal.Weighted>
5.8195

> <Gold.Chemscore.Rot.Weighted>
10.8687

> <Gold.Chemscore.Internal.Correction.Weighted>
   9.000000E+99

> <Gold.Protein.RotatedTorsions>
[ 6907 6896 6895 6894 ] final   75.78 input  -60.11 | X-H torsion
[ 7974 7965 7964 7962 ] final -129.55 input  175.53 | X-H torsion
[ 8008 7997 7996 7995 ] final   -2.71 input   59.86 | X-H torsion
[ 10167 10162 10161 10158 ] final  176.68 input  -65.29 | X-H torsion
[ 10718 10713 10712 10709 ] final  -49.36 input   66.30 | X-H torsion
[ 10763 10752 10751 10750 ] final -177.04 input  -60.55 | X-H torsion
[ 11005 11000 10999 10996 ] final  -22.71 input  -57.11 | X-H torsion

> <Gold.Protein.ActiveResidues>
 VAL166  LYS551  ARG553  GLY616  TRP617  ASP618  TYR619  PRO620  LYS621  CYS622 
 ASP623  PHE694  ASN695  SER759  ASP760  ASP761  ALA762  ILE779  LEU786  VAL792 
 PHE793  MET794  SER795  GLU796  ALA797  LYS798  CYS799  TRP800  GLU811  SER814 

> <Gold.Protein.RotatedAtoms>
  152.5042  134.4069  159.9435 H   0  0  0  0  0  0  0  0  0  0  0  0  # atno 6907 bound_to 6896
  151.4035  133.3744  159.2743 H   0  0  0  0  0  0  0  0  0  0  0  0  # atno 6908 bound_to 6896
  150.9344  134.8778  159.7631 H   0  0  0  0  0  0  0  0  0  0  0  0  # atno 6909 bound_to 6896
  144.9561  140.7397  143.4758 H   0  0  0  0  0  0  0  0  0  0  0  0  # atno 7974 bound_to 7965
  154.6328  140.2527  155.7414 H   0  0  0  0  0  0  0  0  0  0  0  0  # atno 8008 bound_to 7997
  156.2488  140.2903  156.0607 H   0  0  0  0  0  0  0  0  0  0  0  0  # atno 8009 bound_to 7997
  155.1719  140.0387  157.2855 H   0  0  0  0  0  0  0  0  0  0  0  0  # atno 8010 bound_to 7997
  139.5224  144.2887  152.0483 H   0  0  0  0  0  0  0  0  0  0  0  0  # atno 10167 bound_to 10162
  156.1900  130.4152  149.9384 H   0  0  0  0  0  0  0  0  0  0  0  0  # atno 10718 bound_to 10713
  154.5650  135.2823  155.0882 H   0  0  0  0  0  0  0  0  0  0  0  0  # atno 10763 bound_to 10752
  154.2277  135.6380  153.5169 H   0  0  0  0  0  0  0  0  0  0  0  0  # atno 10764 bound_to 10752
  153.0040  135.5529  154.6256 H   0  0  0  0  0  0  0  0  0  0  0  0  # atno 10765 bound_to 10752
  140.8682  133.7739  156.0155 H   0  0  0  0  0  0  0  0  0  0  0  0  # atno 11005 bound_to 11000
  145.2770  139.1932  143.4811 LP  0  0  0  0  0  0  0  0  0  0  0  0  # atno 17320 bound_to 7965
  146.3337  140.2726  142.8606 LP  0  0  0  0  0  0  0  0  0  0  0  0  # atno 17321 bound_to 7965
  140.2339  144.4340  150.6288 LP  0  0  0  0  0  0  0  0  0  0  0  0  # atno 17342 bound_to 10162
  140.6337  143.2191  151.6442 LP  0  0  0  0  0  0  0  0  0  0  0  0  # atno 17343 bound_to 10162
  156.7127  130.8976  151.3611 LP  0  0  0  0  0  0  0  0  0  0  0  0  # atno 17370 bound_to 10713
  157.6923  130.9246  150.0548 LP  0  0  0  0  0  0  0  0  0  0  0  0  # atno 17371 bound_to 10713
  140.8603  134.2848  157.5237 LP  0  0  0  0  0  0  0  0  0  0  0  0  # atno 17394 bound_to 11000
  139.8710  134.9515  156.4086 LP  0  0  0  0  0  0  0  0  0  0  0  0  # atno 17395 bound_to 11000

$$$$
