AV-unprocessed.smi:1868|AV-procd|sdf|7584|dock4
  -GOLD-   22720 9293D 1   1.00000     0.00000
 Structure written by MMmdl.
 47 49  0  0  0  0  0  0  0  0  2 V2000
  151.7462  138.3021  158.3063 C   0  0  0  0  0  0  0  0  0  0  0  0
  151.7923  139.7931  158.4175 C   0  0  0  0  0  0  0  0  0  0  0  0
  152.2932  140.4093  159.4878 N   0  0  0  0  0  0  0  0  0  0  0  0
  152.1476  141.7446  159.1657 C   0  0  0  0  0  0  0  0  0  0  0  0
  152.4886  142.9076  159.8923 C   0  0  0  0  0  0  0  0  0  0  0  0
  152.2375  144.1859  159.3524 C   0  0  0  0  0  0  0  0  0  0  0  0
  151.6435  144.3197  158.0809 C   0  0  0  0  0  0  0  0  0  0  0  0
  151.2962  143.1741  157.3395 C   0  0  0  0  0  0  0  0  0  0  0  0
  151.5483  141.9000  157.8833 C   0  0  0  0  0  0  0  0  0  0  0  0
  151.3258  140.6012  157.4338 N   0  0  0  0  0  0  0  0  0  0  0  0
  150.7209  140.2138  156.1668 C   0  0  0  0  0  0  0  0  0  0  0  0
  151.5711  139.1959  155.3789 C   0  0  2  0  0  0  0  0  0  0  0  0
  152.7604  139.8478  154.9825 O   0  0  0  0  0  0  0  0  0  0  0  0
  150.8687  138.6442  154.1184 C   0  0  0  0  0  0  0  0  0  0  0  0
  150.0182  137.4623  154.4094 N   0  3  2  0  0  0  0  0  0  0  0  0
  148.8004  137.8223  155.1799 C   0  0  0  0  0  0  0  0  0  0  0  0
  147.8680  136.6104  155.3442 C   0  0  0  0  0  0  0  0  0  0  0  0
  148.5949  135.4326  156.0145 C   0  0  1  0  0  0  0  0  0  0  0  0
  147.6817  134.2065  156.1529 C   0  0  0  0  0  0  0  0  0  0  0  0
  149.8703  135.1065  155.2194 C   0  0  0  0  0  0  0  0  0  0  0  0
  150.7619  136.3489  155.0569 C   0  0  0  0  0  0  0  0  0  0  0  0
  152.2078  137.8404  159.1800 H   0  0  0  0  0  0  0  0  0  0  0  0
  152.2877  137.9703  157.4203 H   0  0  0  0  0  0  0  0  0  0  0  0
  150.7147  137.9570  158.2435 H   0  0  0  0  0  0  0  0  0  0  0  0
  152.9442  142.8159  160.8672 H   0  0  0  0  0  0  0  0  0  0  0  0
  152.5027  145.0681  159.9167 H   0  0  0  0  0  0  0  0  0  0  0  0
  151.4555  145.3029  157.6747 H   0  0  0  0  0  0  0  0  0  0  0  0
  150.8408  143.2757  156.3659 H   0  0  0  0  0  0  0  0  0  0  0  0
  149.7331  139.7988  156.3718 H   0  0  0  0  0  0  0  0  0  0  0  0
  150.5502  141.1109  155.5708 H   0  0  0  0  0  0  0  0  0  0  0  0
  151.8460  138.3813  156.0467 H   0  0  0  0  0  0  0  0  0  0  0  0
  152.5530  140.4640  154.2957 H   0  0  0  0  0  0  0  0  0  0  0  0
  150.2490  139.4060  153.6444 H   0  0  0  0  0  0  0  0  0  0  0  0
  151.6355  138.3800  153.3883 H   0  0  0  0  0  0  0  0  0  0  0  0
  149.0886  138.2134  156.1572 H   0  0  0  0  0  0  0  0  0  0  0  0
  148.2605  138.6182  154.6655 H   0  0  0  0  0  0  0  0  0  0  0  0
  146.9963  136.8964  155.9340 H   0  0  0  0  0  0  0  0  0  0  0  0
  147.4920  136.3060  154.3664 H   0  0  0  0  0  0  0  0  0  0  0  0
  148.8894  135.7420  157.0187 H   0  0  0  0  0  0  0  0  0  0  0  0
  147.3481  133.8473  155.1786 H   0  0  0  0  0  0  0  0  0  0  0  0
  146.7948  134.4420  156.7420 H   0  0  0  0  0  0  0  0  0  0  0  0
  148.1991  133.3858  156.6505 H   0  0  0  0  0  0  0  0  0  0  0  0
  150.4310  134.3172  155.7215 H   0  0  0  0  0  0  0  0  0  0  0  0
  149.6053  134.7180  154.2347 H   0  0  0  0  0  0  0  0  0  0  0  0
  151.6362  136.0796  154.4656 H   0  0  0  0  0  0  0  0  0  0  0  0
  151.1307  136.6741  156.0312 H   0  0  0  0  0  0  0  0  0  0  0  0
  149.6939  137.1232  153.5146 H   0  0  0  0  0  0  0  0  0  0  0  0
  1  2  1  0  0  0  0
  1 22  1  0  0  0  0
  1 23  1  0  0  0  0
  1 24  1  0  0  0  0
  2 10  1  0  0  0  0
  2  3  2  0  0  0  0
  3  4  1  0  0  0  0
  4  9  2  0  0  0  0
  4  5  1  0  0  0  0
  5  6  2  0  0  0  0
  5 25  1  0  0  0  0
  6  7  1  0  0  0  0
  6 26  1  0  0  0  0
  7  8  2  0  0  0  0
  7 27  1  0  0  0  0
  8  9  1  0  0  0  0
  8 28  1  0  0  0  0
  9 10  1  0  0  0  0
 10 11  1  0  0  0  0
 11 12  1  0  0  0  0
 11 29  1  0  0  0  0
 11 30  1  0  0  0  0
 12 13  1  0  0  0  0
 12 14  1  0  0  0  0
 12 31  1  0  0  0  0
 13 32  1  0  0  0  0
 14 15  1  0  0  0  0
 14 33  1  0  0  0  0
 14 34  1  0  0  0  0
 15 21  1  0  0  0  0
 15 16  1  0  0  0  0
 15 47  1  0  0  0  0
 16 17  1  0  0  0  0
 16 35  1  0  0  0  0
 16 36  1  0  0  0  0
 17 18  1  0  0  0  0
 17 37  1  0  0  0  0
 17 38  1  0  0  0  0
 18 19  1  0  0  0  0
 18 20  1  0  0  0  0
 18 39  1  0  0  0  0
 19 40  1  0  0  0  0
 19 41  1  0  0  0  0
 19 42  1  0  0  0  0
 20 21  1  0  0  0  0
 20 43  1  0  0  0  0
 20 44  1  0  0  0  0
 21 45  1  0  0  0  0
 21 46  1  0  0  0  0
M  CHG  1  15   1
M  END
> <s_m_source_file>
AV-unprocessed.smi

> <i_m_source_file_index>
1868

> <i_lp_mmshare_version>
43012

> <i_f3d_flags>
0

> <s_epik_input>
W2NIXTFbY0hdW2NIXVtjSF1jKGMxMiluKGMobjIpW0NIM10pW0NIMl1bQ0BIXShbT0hdKVtDSDJdTjNbQ0gyXVtDSDJdW0NIXShbQ0gzXSlbQ0gyXVtDSDJdMw==

> <s_epik_cmdline>
J2VwaWtfcHl0aG9uJywgJy1waCcsICc3LjAnLCAnLXRuJywgJzgnLCAnLW1hJywgJzIwMCcsICctbWV0YWxfYmluZGluZycsICctaW1hZScsICc8aW5maWxlLm1hZT4nLCAnLW9tYWUnLCAnPG91dGZpbGUubWFlPic=

> <r_epik_Ionization_Penalty>
0.101157

> <r_epik_Ionization_Penalty_Charging>
0.00181365

> <r_epik_Ionization_Penalty_Neutral>
0.0993436

> <r_epik_State_Penalty>
0.0871902

> <r_epik_Charging_Adjusted_Penalty>
0.0890039

> <i_epik_Tot_Q>
1

> <i_epik_Tot_abs_Q>
1

> <r_epik_Metal_State_Penalty>
9.24346e-05

> <b_epik_Metal_Only>
0

> <s_lp_Force_Field>
OPLS_2005

> <r_lp_Energy>
22.6133

> <b_lp_Chiralities_Consistent>
1

> <s_lp_Variant>
AV-unprocessed.smi:1868-1

> <Gold.Version>
5.8.1

> <Gold.Id.Protein>
6NUR|6NUR_protein|mol2

> <Gold.PLP.Fitness>
48.4595

> <Gold.PLP.PLP>
-40.3120

> <Gold.PLP.part.hbond>
-3.0000

> <Gold.PLP.part.metal>
0.0000

> <Gold.PLP.part.buried>
-5.2131

> <Gold.PLP.part.nonpolar>
-31.9028

> <Gold.PLP.part.repulsive>
0.0344

> <Gold.PLP.ligand.clash>
0.0000

> <Gold.PLP.ligand.torsion>
0.4386

> <Gold.PLP.Chemscore.Hbond>
3.0000

> <Gold.PLP.Chemscore.CHOScore>
0.0000

> <Gold.PLP.Chemscore.Metal>
0.0000

> <Gold.Chemscore.Hbonds>
donor molecule, donor type, donor heavy atom, donor atom, acceptor molecule, acceptor atom, score
      L1  H    15    47       P1  7948  2.00
      P1  H  7997  8010       L1    13  1.00

> <Gold.PLP.Chemscore.Internal.Correction>
0.0247

> <Gold.Rescore>
     Score         DG    S(hbond)    S(metal)    S(lipo)     H(rot)  DE(clash)    DE(int)     intcor
     19.00     -19.41       1.76        0.00     110.85       1.92       0.09       0.32       ----

> <Gold.Chemscore.Fitness>
18.9953

> <Gold.Chemscore.DG>
-19.4054

> <Gold.Chemscore.ZeroCoef>
-5.4800

> <Gold.Chemscore.Hbond>
1.7576

> <Gold.Chemscore.Metal>
0.0000

> <Gold.Chemscore.Lipo>
110.8533

> <Gold.Chemscore.Internal_Hbond>
0.0000

> <Gold.Chemscore.DEClash>
0.0937

> <Gold.Chemscore.DEInternal>
0.3164

> <Gold.Chemscore.Rot>
1.9198

> <Gold.Chemscore.Internal.Correction>
   9.000000E+99

> <Gold.Chemscore.Hbonds>
donor molecule, donor type, donor heavy atom, donor atom, acceptor molecule, acceptor atom, score
      L1  H    15    47       P1  7948  0.68
      P1  H  7997  8010       L1    13  0.87

> <Gold.Chemscore.Hbond.Weighted>
-5.8703

> <Gold.Chemscore.Metal.Weighted>
-0.0000

> <Gold.Chemscore.Lipo.Weighted>
-12.9698

> <Gold.Chemscore.Internal_Hbond.Weighted>
0.0000

> <Gold.Chemscore.DEClash.Weighted>
0.0937

> <Gold.Chemscore.DEInternal.Weighted>
0.3164

> <Gold.Chemscore.Rot.Weighted>
4.9147

> <Gold.Chemscore.Internal.Correction.Weighted>
   9.000000E+99

> <Gold.Protein.RotatedTorsions>
[ 6907 6896 6895 6894 ] final  149.49 input  -60.11 | X-H torsion
[ 7974 7965 7964 7962 ] final   91.15 input  175.53 | X-H torsion
[ 8008 7997 7996 7995 ] final  104.60 input   59.86 | X-H torsion
[ 10167 10162 10161 10158 ] final  114.46 input  -65.29 | X-H torsion
[ 10718 10713 10712 10709 ] final  152.94 input   66.30 | X-H torsion
[ 10763 10752 10751 10750 ] final  116.99 input  -60.55 | X-H torsion
[ 11005 11000 10999 10996 ] final  -48.62 input  -57.11 | X-H torsion

> <Gold.Protein.ActiveResidues>
 VAL166  LYS551  ARG553  GLY616  TRP617  ASP618  TYR619  PRO620  LYS621  CYS622 
 ASP623  PHE694  ASN695  SER759  ASP760  ASP761  ALA762  ILE779  LEU786  VAL792 
 PHE793  MET794  SER795  GLU796  ALA797  LYS798  CYS799  TRP800  GLU811  SER814 

> <Gold.Protein.RotatedAtoms>
  152.1273  133.4387  159.4703 H   0  0  0  0  0  0  0  0  0  0  0  0  # atno 6907 bound_to 6896
  150.6876  134.2463  159.4502 H   0  0  0  0  0  0  0  0  0  0  0  0  # atno 6908 bound_to 6896
  152.0344  134.9748  160.0623 H   0  0  0  0  0  0  0  0  0  0  0  0  # atno 6909 bound_to 6896
  145.5094  139.2277  143.2733 H   0  0  0  0  0  0  0  0  0  0  0  0  # atno 7974 bound_to 7965
  156.1587  140.3145  155.8770 H   0  0  0  0  0  0  0  0  0  0  0  0  # atno 8008 bound_to 7997
  155.3826  140.0488  157.3060 H   0  0  0  0  0  0  0  0  0  0  0  0  # atno 8009 bound_to 7997
  154.5126  140.2170  155.9139 H   0  0  0  0  0  0  0  0  0  0  0  0  # atno 8010 bound_to 7997
  139.6387  144.7122  151.2282 H   0  0  0  0  0  0  0  0  0  0  0  0  # atno 10167 bound_to 10162
  157.2513  131.0779  151.1728 H   0  0  0  0  0  0  0  0  0  0  0  0  # atno 10718 bound_to 10713
  153.5455  135.3550  155.2737 H   0  0  0  0  0  0  0  0  0  0  0  0  # atno 10763 bound_to 10752
  154.8713  135.4101  154.2996 H   0  0  0  0  0  0  0  0  0  0  0  0  # atno 10764 bound_to 10752
  153.3711  135.7064  153.6705 H   0  0  0  0  0  0  0  0  0  0  0  0  # atno 10765 bound_to 10752
  141.0712  133.6679  156.3468 H   0  0  0  0  0  0  0  0  0  0  0  0  # atno 11005 bound_to 11000
  146.2176  140.5900  142.9031 LP  0  0  0  0  0  0  0  0  0  0  0  0  # atno 17320 bound_to 7965
  144.7735  140.5690  143.6654 LP  0  0  0  0  0  0  0  0  0  0  0  0  # atno 17321 bound_to 7965
  140.7479  143.6351  150.8387 LP  0  0  0  0  0  0  0  0  0  0  0  0  # atno 17342 bound_to 10162
  139.9985  143.5770  152.2884 LP  0  0  0  0  0  0  0  0  0  0  0  0  # atno 17343 bound_to 10162
  157.3275  130.6968  149.6305 LP  0  0  0  0  0  0  0  0  0  0  0  0  # atno 17370 bound_to 10713
  155.9666  130.4317  150.4932 LP  0  0  0  0  0  0  0  0  0  0  0  0  # atno 17371 bound_to 10713
  140.5670  134.5878  157.5448 LP  0  0  0  0  0  0  0  0  0  0  0  0  # atno 17394 bound_to 11000
  139.9525  134.7592  156.0416 LP  0  0  0  0  0  0  0  0  0  0  0  0  # atno 17395 bound_to 11000

$$$$
