AV-unprocessed.smi:1401|AV-procd|sdf|5695|dock9
  -GOLD-   22720 5323D 1   1.00000     0.00000
 Structure written by MMmdl.
 48 50  0  0  0  0  0  0  0  0  1 V2000
  149.0189  136.5786  159.8141 C   0  0  0  0  0  0  0  0  0  0  0  0
  149.6974  136.5038  158.4729 C   0  0  0  0  0  0  0  0  0  0  0  0
  150.6072  137.3899  158.2329 N   0  0  0  0  0  0  0  0  0  0  0  0
  151.2842  137.4174  157.0291 N   0  0  0  0  0  0  0  0  0  0  0  0
  152.2534  138.5161  156.9075 C   0  0  0  0  0  0  0  0  0  0  0  0
  152.4233  139.2859  158.2236 C   0  0  0  0  0  0  0  0  0  0  0  0
  152.6121  138.6770  159.2773 O   0  0  0  0  0  0  0  0  0  0  0  0
  152.3514  140.6236  158.1410 N   0  0  0  0  0  0  0  0  0  0  0  0
  152.3980  141.5590  159.2635 C   0  0  1  0  0  0  0  0  0  0  0  0
  153.6216  141.2274  160.1310 C   0  0  0  0  0  0  0  0  0  0  0  0
  152.4295  143.0121  158.7267 C   0  0  1  0  0  0  0  0  0  0  0  0
  151.1449  143.4772  158.0001 C   0  0  0  0  0  0  0  0  0  0  0  0
  150.8465  144.8373  158.6566 C   0  0  1  0  0  0  0  0  0  0  0  0
  150.2922  144.5978  160.0726 C   0  0  0  0  0  0  0  0  0  0  0  0
  151.5398  144.1399  160.8495 C   0  0  0  0  0  0  0  0  0  0  0  0
  152.6387  144.1412  159.7666 C   0  0  2  0  0  0  0  0  0  0  0  0
  152.2446  145.3683  158.9505 C   0  0  0  0  0  0  0  0  0  0  0  0
  151.0883  136.5339  156.0074 C   0  0  0  0  0  0  0  0  0  0  0  0
  151.7240  136.5883  154.9530 O   0  0  0  0  0  0  0  0  0  0  0  0
  150.0562  135.5336  156.2863 C   0  0  0  0  0  0  0  0  0  0  0  0
  149.8083  134.5995  155.2362 C   0  0  0  0  0  0  0  0  0  0  0  0
  149.6277  133.8414  154.3801 N   0  0  0  0  0  0  0  0  0  0  0  0
  149.3791  135.5010  157.4612 C   0  0  0  0  0  0  0  0  0  0  0  0
  148.2962  134.4848  157.7967 C   0  0  0  0  0  0  0  0  0  0  0  0
  149.2485  135.6970  160.4126 H   0  0  0  0  0  0  0  0  0  0  0  0
  147.9365  136.6382  159.6992 H   0  0  0  0  0  0  0  0  0  0  0  0
  149.3356  137.4550  160.3813 H   0  0  0  0  0  0  0  0  0  0  0  0
  153.2318  138.1336  156.6113 H   0  0  0  0  0  0  0  0  0  0  0  0
  151.9477  139.1938  156.1080 H   0  0  0  0  0  0  0  0  0  0  0  0
  152.2032  141.0269  157.2272 H   0  0  0  0  0  0  0  0  0  0  0  0
  151.5107  141.4214  159.8816 H   0  0  0  0  0  0  0  0  0  0  0  0
  153.6609  141.8578  161.0193 H   0  0  0  0  0  0  0  0  0  0  0  0
  154.5515  141.3700  159.5795 H   0  0  0  0  0  0  0  0  0  0  0  0
  153.5910  140.1918  160.4715 H   0  0  0  0  0  0  0  0  0  0  0  0
  153.2537  143.0771  158.0134 H   0  0  0  0  0  0  0  0  0  0  0  0
  151.3286  143.5871  156.9307 H   0  0  0  0  0  0  0  0  0  0  0  0
  150.3076  142.7892  158.1200 H   0  0  0  0  0  0  0  0  0  0  0  0
  150.2212  145.4900  158.0469 H   0  0  0  0  0  0  0  0  0  0  0  0
  149.8931  145.5199  160.4967 H   0  0  0  0  0  0  0  0  0  0  0  0
  149.4968  143.8519  160.0858 H   0  0  0  0  0  0  0  0  0  0  0  0
  151.7799  144.8605  161.6322 H   0  0  0  0  0  0  0  0  0  0  0  0
  151.4066  143.1735  161.3334 H   0  0  0  0  0  0  0  0  0  0  0  0
  153.6499  144.1799  160.1724 H   0  0  0  0  0  0  0  0  0  0  0  0
  152.8512  145.5090  158.0539 H   0  0  0  0  0  0  0  0  0  0  0  0
  152.2433  146.2935  159.5297 H   0  0  0  0  0  0  0  0  0  0  0  0
  148.2101  133.7085  157.0371 H   0  0  0  0  0  0  0  0  0  0  0  0
  147.3269  134.9781  157.8772 H   0  0  0  0  0  0  0  0  0  0  0  0
  148.5103  133.9880  158.7436 H   0  0  0  0  0  0  0  0  0  0  0  0
  1  2  1  0  0  0  0
  1 25  1  0  0  0  0
  1 26  1  0  0  0  0
  1 27  1  0  0  0  0
  2 23  1  0  0  0  0
  2  3  2  0  0  0  0
  3  4  1  0  0  0  0
  4  5  1  0  0  0  0
  4 18  1  0  0  0  0
  5  6  1  0  0  0  0
  5 28  1  0  0  0  0
  5 29  1  0  0  0  0
  6  7  2  0  0  0  0
  6  8  1  0  0  0  0
  8  9  1  0  0  0  0
  8 30  1  0  0  0  0
  9 10  1  0  0  0  0
  9 11  1  0  0  0  0
  9 31  1  0  0  0  0
 10 32  1  0  0  0  0
 10 33  1  0  0  0  0
 10 34  1  0  0  0  0
 11 16  1  0  0  0  0
 11 12  1  0  0  0  0
 11 35  1  0  0  0  0
 12 13  1  0  0  0  0
 12 36  1  0  0  0  0
 12 37  1  0  0  0  0
 13 17  1  0  0  0  0
 13 14  1  0  0  0  0
 13 38  1  0  0  0  0
 14 15  1  0  0  0  0
 14 39  1  0  0  0  0
 14 40  1  0  0  0  0
 15 16  1  0  0  0  0
 15 41  1  0  0  0  0
 15 42  1  0  0  0  0
 16 17  1  0  0  0  0
 16 43  1  0  0  0  0
 17 44  1  0  0  0  0
 17 45  1  0  0  0  0
 18 19  2  0  0  0  0
 18 20  1  0  0  0  0
 20 21  1  0  0  0  0
 20 23  2  0  0  0  0
 21 22  3  0  0  0  0
 23 24  1  0  0  0  0
 24 46  1  0  0  0  0
 24 47  1  0  0  0  0
 24 48  1  0  0  0  0
M  END
> <s_m_source_file>
AV-unprocessed.smi

> <i_m_source_file_index>
1401

> <i_lp_mmshare_version>
43012

> <i_f3d_flags>
0

> <s_epik_input>
TiNDYyhjMVtDSDNdKWMoPU8pbihuYzFbQ0gzXSlbQ0gyXUMoPU8pW05IXVtDQEhdKFtDSDNdKVtDQEhdKFtDSDJdW0NASF0yMylbQ0BIXShbQ0gyXTMpW0NIMl1bQ0gyXTI=

> <s_epik_cmdline>
J2VwaWtfcHl0aG9uJywgJy1waCcsICc3LjAnLCAnLXRuJywgJzgnLCAnLW1hJywgJzIwMCcsICctbWV0YWxfYmluZGluZycsICctaW1hZScsICc8aW5maWxlLm1hZT4nLCAnLW9tYWUnLCAnPG91dGZpbGUubWFlPic=

> <r_lp_tautomer_probability>
1

> <r_epik_Ionization_Penalty>
2.16501e-08

> <r_epik_Ionization_Penalty_Charging>
2.29436e-11

> <r_epik_Ionization_Penalty_Neutral>
2.16271e-08

> <r_epik_State_Penalty>
-0

> <r_epik_Charging_Adjusted_Penalty>
2.29436e-11

> <i_epik_Tot_Q>
0

> <i_epik_Tot_abs_Q>
0

> <r_epik_Metal_State_Penalty>
-0

> <b_epik_Metal_Only>
0

> <s_lp_Force_Field>
OPLS_2005

> <r_lp_Energy>
66.0828

> <b_lp_Chiralities_Consistent>
1

> <s_lp_Variant>
AV-unprocessed.smi:1401-8

> <Gold.Version>
5.8.1

> <Gold.Id.Protein>
6NUR|6NUR_protein|mol2

> <Gold.PLP.Fitness>
43.3961

> <Gold.PLP.PLP>
-40.9276

> <Gold.PLP.part.hbond>
-1.0000

> <Gold.PLP.part.metal>
0.0000

> <Gold.PLP.part.buried>
-8.1026

> <Gold.PLP.part.nonpolar>
-33.6856

> <Gold.PLP.part.repulsive>
0.3790

> <Gold.PLP.ligand.clash>
0.0000

> <Gold.PLP.ligand.torsion>
0.2696

> <Gold.PLP.Chemscore.Hbond>
1.0000

> <Gold.PLP.Chemscore.CHOScore>
0.0000

> <Gold.PLP.Chemscore.Metal>
0.0000

> <Gold.Chemscore.Hbonds>
donor molecule, donor type, donor heavy atom, donor atom, acceptor molecule, acceptor atom, score
      P1  H 10752 10764       L1    19  1.00

> <Gold.PLP.Chemscore.Internal.Correction>
0.0077

> <Gold.Rescore>
     Score         DG    S(hbond)    S(metal)    S(lipo)     H(rot)  DE(clash)    DE(int)     intcor
     15.68     -18.96       0.98        0.00     122.74       1.63       0.09       3.19       ----

> <Gold.Chemscore.Fitness>
15.6777

> <Gold.Chemscore.DG>
-18.9572

> <Gold.Chemscore.ZeroCoef>
-5.4800

> <Gold.Chemscore.Hbond>
0.9833

> <Gold.Chemscore.Metal>
0.0000

> <Gold.Chemscore.Lipo>
122.7410

> <Gold.Chemscore.Internal_Hbond>
0.0000

> <Gold.Chemscore.DEClash>
0.0884

> <Gold.Chemscore.DEInternal>
3.1911

> <Gold.Chemscore.Rot>
1.6281

> <Gold.Chemscore.Internal.Correction>
   9.000000E+99

> <Gold.Chemscore.Hbonds>
donor molecule, donor type, donor heavy atom, donor atom, acceptor molecule, acceptor atom, score
      P1  H 10752 10764       L1    19  0.98

> <Gold.Chemscore.Hbond.Weighted>
-3.2844

> <Gold.Chemscore.Metal.Weighted>
-0.0000

> <Gold.Chemscore.Lipo.Weighted>
-14.3607

> <Gold.Chemscore.Internal_Hbond.Weighted>
0.0000

> <Gold.Chemscore.DEClash.Weighted>
0.0884

> <Gold.Chemscore.DEInternal.Weighted>
3.1911

> <Gold.Chemscore.Rot.Weighted>
4.1678

> <Gold.Chemscore.Internal.Correction.Weighted>
   9.000000E+99

> <Gold.Protein.RotatedTorsions>
[ 6907 6896 6895 6894 ] final -136.24 input  -60.11 | X-H torsion
[ 7974 7965 7964 7962 ] final  -66.07 input  175.53 | X-H torsion
[ 8008 7997 7996 7995 ] final   68.32 input   59.86 | X-H torsion
[ 10167 10162 10161 10158 ] final  -60.74 input  -65.29 | X-H torsion
[ 10718 10713 10712 10709 ] final  -55.57 input   66.30 | X-H torsion
[ 10763 10752 10751 10750 ] final  -56.17 input  -60.55 | X-H torsion
[ 11005 11000 10999 10996 ] final  -27.09 input  -57.11 | X-H torsion

> <Gold.Protein.ActiveResidues>
 VAL166  LYS551  ARG553  GLY616  TRP617  ASP618  TYR619  PRO620  LYS621  CYS622 
 ASP623  PHE694  ASN695  SER759  ASP760  ASP761  ALA762  ILE779  LEU786  VAL792 
 PHE793  MET794  SER795  GLU796  ALA797  LYS798  CYS799  TRP800  GLU811  SER814 

> <Gold.Protein.RotatedAtoms>
  151.0077  133.5995  159.2686 H   0  0  0  0  0  0  0  0  0  0  0  0  # atno 6907 bound_to 6896
  151.3158  135.0805  159.9298 H   0  0  0  0  0  0  0  0  0  0  0  0  # atno 6908 bound_to 6896
  152.5291  133.9733  159.7826 H   0  0  0  0  0  0  0  0  0  0  0  0  # atno 6909 bound_to 6896
  145.7464  140.8929  143.0503 H   0  0  0  0  0  0  0  0  0  0  0  0  # atno 7974 bound_to 7965
  155.7065  140.3495  155.4955 H   0  0  0  0  0  0  0  0  0  0  0  0  # atno 8008 bound_to 7997
  155.9394  140.1099  157.1090 H   0  0  0  0  0  0  0  0  0  0  0  0  # atno 8009 bound_to 7997
  154.4100  140.1215  156.4893 H   0  0  0  0  0  0  0  0  0  0  0  0  # atno 8010 bound_to 7997
  140.6051  143.2371  151.5839 H   0  0  0  0  0  0  0  0  0  0  0  0  # atno 10167 bound_to 10162
  156.1358  130.4157  150.0189 H   0  0  0  0  0  0  0  0  0  0  0  0  # atno 10718 bound_to 10713
  154.2024  135.6409  153.5091 H   0  0  0  0  0  0  0  0  0  0  0  0  # atno 10763 bound_to 10752
  153.0009  135.5454  154.6302 H   0  0  0  0  0  0  0  0  0  0  0  0  # atno 10764 bound_to 10752
  154.5718  135.2917  155.0793 H   0  0  0  0  0  0  0  0  0  0  0  0  # atno 10765 bound_to 10752
  140.9088  133.7475  156.0642 H   0  0  0  0  0  0  0  0  0  0  0  0  # atno 11005 bound_to 11000
  144.6859  139.9530  143.7478 LP  0  0  0  0  0  0  0  0  0  0  0  0  # atno 17320 bound_to 7965
  146.0399  139.3412  143.0704 LP  0  0  0  0  0  0  0  0  0  0  0  0  # atno 17321 bound_to 7965
  139.5319  144.2891  152.1167 LP  0  0  0  0  0  0  0  0  0  0  0  0  # atno 17342 bound_to 10162
  140.2079  144.4592  150.6400 LP  0  0  0  0  0  0  0  0  0  0  0  0  # atno 17343 bound_to 10162
  156.8088  130.9317  151.3644 LP  0  0  0  0  0  0  0  0  0  0  0  0  # atno 17370 bound_to 10713
  157.6531  130.8901  149.9672 LP  0  0  0  0  0  0  0  0  0  0  0  0  # atno 17371 bound_to 10713
  140.8137  134.3369  157.5404 LP  0  0  0  0  0  0  0  0  0  0  0  0  # atno 17394 bound_to 11000
  139.8754  134.9269  156.3412 LP  0  0  0  0  0  0  0  0  0  0  0  0  # atno 17395 bound_to 11000

$$$$
