#       Name:                AV-unprocessed.smi:3144
#       Creating user name   scv26
#       Creation time:       Fri Mar 27 17:37:55 2020


#       File generated by GOLD software.
#

@<TRIPOS>MOLECULE
AV-unprocessed.smi:3144
    41    42     1
SMALL
NO_CHARGES


@<TRIPOS>ATOM
      1 ****        -3.6352   6.0034  -0.8798 C.3            1 S1                 0.0000
      2 ****        -3.3815   4.5928  -0.4315 C.2            1 S1                 0.0000
      3 ****        -3.7975   3.9745   0.7817 C.2            1 S1                 0.0000
      4 ****        -3.4090   2.7130   0.8754 N.2            1 S1                 0.0000
      5 ****        -2.7343   2.4822  -0.2702 N.pl3          1 S1                 0.0000
      6 ****        -2.1567   1.1745  -0.5116 C.3            1 S1                 0.0000
      7 ****        -0.8797   0.9581   0.3129 C.3            1 S1                 0.0000
      8 ****        -0.3164  -0.3843   0.0737 N.4            1 S1                 1.0000
      9 ****         0.9288  -0.6556   0.8197 C.3            1 S1                 0.0000
     10 ****         1.4586  -2.0751   0.5452 C.3            1 S1                 0.0000
     11 ****         2.6112  -2.4280   1.5081 C.3            1 S1                 0.0000
     12 ****         3.1515  -3.8449   1.2549 C.3            1 S1                 0.0000
     13 ****         3.5993  -4.0167  -0.2043 C.3            1 S1                 0.0000
     14 ****         2.4617  -3.6674  -1.1753 C.3            1 S1                 0.0000
     15 ****         1.9234  -2.2505  -0.9176 C.3            1 S1                 0.0000
     16 ****        -2.7024   3.5989  -1.0782 C.2            1 S1                 0.0000
     17 ****        -4.5779   6.3875  -0.4895 H              1 S1                 0.0000
     18 ****        -3.6836   6.0811  -1.9662 H              1 S1                 0.0000
     19 ****        -2.8488   6.6789  -0.5426 H              1 S1                 0.0000
     20 ****        -4.3674   4.4035   1.5928 H              1 S1                 0.0000
     21 ****        -2.9031   0.4163  -0.2694 H              1 S1                 0.0000
     22 ****        -1.9433   1.0802  -1.5772 H              1 S1                 0.0000
     23 ****        -0.1364   1.7132   0.0536 H              1 S1                 0.0000
     24 ****        -1.0951   1.0687   1.3766 H              1 S1                 0.0000
     25 ****        -1.0061  -1.0730   0.3390 H              1 S1                 0.0000
     26 ****         1.6831   0.0882   0.5588 H              1 S1                 0.0000
     27 ****         0.7221  -0.5392   1.8846 H              1 S1                 0.0000
     28 ****         0.6464  -2.7798   0.7328 H              1 S1                 0.0000
     29 ****         3.4212  -1.7060   1.3948 H              1 S1                 0.0000
     30 ****         2.2727  -2.3500   2.5420 H              1 S1                 0.0000
     31 ****         3.9864  -4.0501   1.9257 H              1 S1                 0.0000
     32 ****         2.3791  -4.5786   1.4899 H              1 S1                 0.0000
     33 ****         4.4586  -3.3746  -0.4014 H              1 S1                 0.0000
     34 ****         3.9330  -5.0408  -0.3743 H              1 S1                 0.0000
     35 ****         2.8136  -3.7505  -2.2039 H              1 S1                 0.0000
     36 ****         1.6530  -4.3914  -1.0663 H              1 S1                 0.0000
     37 ****         1.1009  -2.0511  -1.6050 H              1 S1                 0.0000
     38 ****         2.7004  -1.5206  -1.1486 H              1 S1                 0.0000
     39 ****        -2.2039   3.5955  -2.0364 H              1 S1                 0.0000
     40 ****        -0.1250  -0.4818  -0.9131 H              1 S1                 0.0000
     41 ****        -3.5775   2.0744   1.6263 LP             1 S1                 0.0000
@<TRIPOS>BOND
    1    1    2 1     
    2    1   17 1     
    3    1   18 1     
    4    1   19 1     
    5    2   16 2     
    6    2    3 1     
    7    3    4 2     
    8    3   20 1     
    9    4    5 1     
   10    5    6 1     
   11    5   16 1     
   12    6    7 1     
   13    6   21 1     
   14    6   22 1     
   15    7    8 1     
   16    7   23 1     
   17    7   24 1     
   18    8    9 1     
   19    8   25 1     
   20    8   40 1     
   21    9   10 1     
   22    9   26 1     
   23    9   27 1     
   24   10   15 1     
   25   10   11 1     
   26   10   28 1     
   27   11   12 1     
   28   11   29 1     
   29   11   30 1     
   30   12   13 1     
   31   12   31 1     
   32   12   32 1     
   33   13   14 1     
   34   13   33 1     
   35   13   34 1     
   36   14   15 1     
   37   14   35 1     
   38   14   36 1     
   39   15   37 1     
   40   15   38 1     
   41   16   39 1     
   42    4   41 1     
@<TRIPOS>SUBSTRUCTURE
      1 S1             1
@<TRIPOS>SET
LONE_PAIRS      STATIC     ATOMS    <user>   **** ""
1 41
DONOR_HYDROGENS      STATIC     ATOMS    <user>   **** ""
2 25 40
ATOM$BLUE        STATIC     ATOMS    COLORGROUP SYSTEM
1 41
ATOM$RED        STATIC     ATOMS    COLORGROUP SYSTEM
2 25 40
