#       Name:                AV-unprocessed.smi:1697
#       Creating user name   scv26
#       Creation time:       Fri Mar 27 07:58:23 2020


#       File generated by GOLD software.
#

@<TRIPOS>MOLECULE
AV-unprocessed.smi:1697
    59    61     1
SMALL
NO_CHARGES


@<TRIPOS>ATOM
      1 ****        -5.3524   3.9074  -1.5690 C.3            1 S1                 0.0000
      2 ****        -4.2412   4.2495  -0.5674 C.3            1 S1                 0.0000
      3 ****        -4.2052   3.3076   0.4976 O.3            1 S1                 0.0000
      4 ****        -3.4965   2.1058   0.2222 C.3            1 S1                 0.0000
      5 ****        -4.0329   1.0162   1.1604 C.3            1 S1                 0.0000
      6 ****        -3.2398  -0.2909   0.9999 C.3            1 S1                 0.0000
      7 ****        -1.7898  -0.0737   1.2433 N.4            1 S1                 1.0000
      8 ****        -1.0233  -1.3464   1.2182 C.3            1 S1                 0.0000
      9 ****         0.3016  -1.2725   2.0105 C.3            1 S1                 0.0000
     10 ****         0.0128  -1.0932   3.3820 O.3            1 S1                 0.0000
     11 ****         1.1551  -2.5519   1.8879 C.3            1 S1                 0.0000
     12 ****         1.5383  -2.8641   0.5048 N.pl3          1 S1                 0.0000
     13 ****         1.0385  -3.7927  -0.3560 C.2            1 S1                 0.0000
     14 ****         1.7337  -3.6867  -1.5224 N.pl3          1 S1                 1.0000
     15 ****         2.6999  -2.6857  -1.4000 C.ar           1 S1                 0.0000
     16 ****         3.6438  -2.2149  -2.3048 C.ar           1 S1                 0.0000
     17 ****         4.4979  -1.1784  -1.8649 C.ar           1 S1                 0.0000
     18 ****         5.5441  -0.6433  -2.8278 C.3            1 S1                 0.0000
     19 ****         4.3884  -0.6493  -0.5526 C.ar           1 S1                 0.0000
     20 ****         5.3166   0.4604  -0.0885 C.3            1 S1                 0.0000
     21 ****         3.4192  -1.1394   0.3516 C.ar           1 S1                 0.0000
     22 ****         2.5845  -2.1587  -0.0992 C.ar           1 S1                 0.0000
     23 ****        -1.2343   0.9649   0.3337 C.3            1 S1                 0.0000
     24 ****        -1.9913   2.2957   0.4782 C.3            1 S1                 0.0000
     25 ****        -5.4183   4.6679  -2.3473 H              1 S1                 0.0000
     26 ****        -6.3218   3.8562  -1.0726 H              1 S1                 0.0000
     27 ****        -5.1776   2.9507  -2.0602 H              1 S1                 0.0000
     28 ****        -3.2756   4.3320  -1.0669 H              1 S1                 0.0000
     29 ****        -4.4489   5.2281  -0.1342 H              1 S1                 0.0000
     30 ****        -3.6599   1.7859  -0.8078 H              1 S1                 0.0000
     31 ****        -3.9717   1.3552   2.1957 H              1 S1                 0.0000
     32 ****        -5.0892   0.8368   0.9559 H              1 S1                 0.0000
     33 ****        -3.6260  -1.0288   1.7041 H              1 S1                 0.0000
     34 ****        -3.3856  -0.7004  -0.0011 H              1 S1                 0.0000
     35 ****        -1.6276  -2.1520   1.6390 H              1 S1                 0.0000
     36 ****        -0.8434  -1.6180   0.1774 H              1 S1                 0.0000
     37 ****         0.9001  -0.4242   1.6824 H              1 S1                 0.0000
     38 ****        -0.3545  -0.2322   3.5116 H              1 S1                 0.0000
     39 ****         2.0656  -2.4739   2.4842 H              1 S1                 0.0000
     40 ****         0.6056  -3.4118   2.2741 H              1 S1                 0.0000
     41 ****         0.2341  -4.4853  -0.1534 H              1 S1                 0.0000
     42 ****         3.7245  -2.6252  -3.3010 H              1 S1                 0.0000
     43 ****         5.4287   0.4321  -2.9652 H              1 S1                 0.0000
     44 ****         5.4623  -1.1138  -3.8082 H              1 S1                 0.0000
     45 ****         6.5469  -0.8384  -2.4466 H              1 S1                 0.0000
     46 ****         5.1237   0.7343   0.9491 H              1 S1                 0.0000
     47 ****         5.1814   1.3531  -0.6996 H              1 S1                 0.0000
     48 ****         6.3577   0.1445  -0.1608 H              1 S1                 0.0000
     49 ****         3.3377  -0.7391   1.3515 H              1 S1                 0.0000
     50 ****        -0.1805   1.1372   0.5488 H              1 S1                 0.0000
     51 ****        -1.2906   0.6151  -0.6983 H              1 S1                 0.0000
     52 ****        -1.5741   3.0277  -0.2131 H              1 S1                 0.0000
     53 ****        -1.8367   2.6961   1.4811 H              1 S1                 0.0000
     54 ****        -1.7177   0.2857   2.1845 H              1 S1                 0.0000
     55 ****         1.5647  -4.2618  -2.3381 H              1 S1                 0.0000
     56 ****        -5.1477   3.0648   0.7272 LP             1 S1                 0.0000
     57 ****        -3.7731   3.7477   1.2847 LP             1 S1                 0.0000
     58 ****         0.8539  -1.1819   3.9154 LP             1 S1                 0.0000
     59 ****        -0.6448  -1.7857   3.6788 LP             1 S1                 0.0000
@<TRIPOS>BOND
    1    1    2 1     
    2    1   25 1     
    3    1   26 1     
    4    1   27 1     
    5    2    3 1     
    6    2   28 1     
    7    2   29 1     
    8    3    4 1     
    9    4   24 1     
   10    4    5 1     
   11    4   30 1     
   12    5    6 1     
   13    5   31 1     
   14    5   32 1     
   15    6    7 1     
   16    6   33 1     
   17    6   34 1     
   18    7    8 1     
   19    7   23 1     
   20    7   54 1     
   21    8    9 1     
   22    8   35 1     
   23    8   36 1     
   24    9   10 1     
   25    9   11 1     
   26    9   37 1     
   27   10   38 1     
   28   11   12 1     
   29   11   39 1     
   30   11   40 1     
   31   12   22 1     
   32   12   13 1     
   33   13   14 2     
   34   13   41 1     
   35   14   15 1     
   36   14   55 1     
   37   15   22 ar    
   38   15   16 ar    
   39   16   17 ar    
   40   16   42 1     
   41   17   18 1     
   42   17   19 ar    
   43   18   43 1     
   44   18   44 1     
   45   18   45 1     
   46   19   20 1     
   47   19   21 ar    
   48   20   46 1     
   49   20   47 1     
   50   20   48 1     
   51   21   22 ar    
   52   21   49 1     
   53   23   24 1     
   54   23   50 1     
   55   23   51 1     
   56   24   52 1     
   57   24   53 1     
   58    3   56 1     
   59    3   57 1     
   60   10   58 1     
   61   10   59 1     
@<TRIPOS>SUBSTRUCTURE
      1 S1             1
@<TRIPOS>SET
LONE_PAIRS      STATIC     ATOMS    <user>   **** ""
4 56 57 58 59
DONOR_HYDROGENS      STATIC     ATOMS    <user>   **** ""
3 54 38 55
ATOM$BLUE        STATIC     ATOMS    COLORGROUP SYSTEM
4 56 57 58 59
ATOM$RED        STATIC     ATOMS    COLORGROUP SYSTEM
3 54 38 55
