AV-unprocessed.smi:3228|AV-procd|sdf|12326|dock4
  -GOLD-   2272018173D 1   1.00000     0.00000
 Structure written by MMmdl.
 30 31  0  0  0  0  0  0  0  0  2 V2000
  151.2487  140.3629  155.2241 O   0  0  0  0  0  0  0  0  0  0  0  0
  150.4340  141.2134  155.5902 C   0  0  0  0  0  0  0  0  0  0  0  0
  150.5183  141.7296  156.8232 N   0  0  0  0  0  0  0  0  0  0  0  0
  151.5190  141.3681  157.8197 C   0  0  0  0  0  0  0  0  0  0  0  0
  151.5538  142.3954  158.9650 C   0  0  1  0  0  0  0  0  0  0  0  0
  152.7573  142.2419  159.9069 C   0  0  0  0  0  0  0  0  0  0  0  0
  153.0108  143.6317  160.5110 C   0  0  0  0  0  0  0  0  0  0  0  0
  152.1162  144.6109  159.7388 C   0  0  0  0  0  0  0  0  0  0  0  0
  151.6613  143.8483  158.4923 C   0  0  2  0  0  0  0  0  0  0  0  0
  150.4334  144.3464  158.0025 O   0  0  0  0  0  0  0  0  0  0  0  0
  149.4128  141.7147  154.8583 N   0  5  0  0  0  0  0  0  0  0  0  0
  148.5741  140.8840  154.2184 C   0  0  0  0  0  0  0  0  0  0  0  0
  148.7407  139.5566  154.1928 N   0  0  0  0  0  0  0  0  0  0  0  0
  147.7478  138.8860  153.4763 C   0  0  0  0  0  0  0  0  0  0  0  0
  146.7978  139.7217  152.9516 C   0  0  0  0  0  0  0  0  0  0  0  0
  147.1245  141.3858  153.3435 S   0  0  0  0  0  0  0  0  0  0  0  0
  149.8334  142.4222  157.0880 H   0  0  0  0  0  0  0  0  0  0  0  0
  151.2983  140.3730  158.2094 H   0  0  0  0  0  0  0  0  0  0  0  0
  152.4976  141.3138  157.3403 H   0  0  0  0  0  0  0  0  0  0  0  0
  150.6453  142.2934  159.5620 H   0  0  0  0  0  0  0  0  0  0  0  0
  152.5823  141.4856  160.6730 H   0  0  0  0  0  0  0  0  0  0  0  0
  153.6373  141.9313  159.3415 H   0  0  0  0  0  0  0  0  0  0  0  0
  152.7717  143.6508  161.5748 H   0  0  0  0  0  0  0  0  0  0  0  0
  154.0627  143.9008  160.4090 H   0  0  0  0  0  0  0  0  0  0  0  0
  151.2542  144.8663  160.3572 H   0  0  0  0  0  0  0  0  0  0  0  0
  152.6289  145.5410  159.4917 H   0  0  0  0  0  0  0  0  0  0  0  0
  152.4214  143.9338  157.7142 H   0  0  0  0  0  0  0  0  0  0  0  0
  150.3821  144.1594  157.0776 H   0  0  0  0  0  0  0  0  0  0  0  0
  147.7950  137.8105  153.3918 H   0  0  0  0  0  0  0  0  0  0  0  0
  145.9308  139.4628  152.3630 H   0  0  0  0  0  0  0  0  0  0  0  0
  1  2  2  0  0  0  0
  2  3  1  0  0  0  0
  2 11  1  0  0  0  0
  3  4  1  0  0  0  0
  3 17  1  0  0  0  0
  4  5  1  0  0  0  0
  4 18  1  0  0  0  0
  4 19  1  0  0  0  0
  5  9  1  0  0  0  0
  5  6  1  0  0  0  0
  5 20  1  0  0  0  0
  6  7  1  0  0  0  0
  6 21  1  0  0  0  0
  6 22  1  0  0  0  0
  7  8  1  0  0  0  0
  7 23  1  0  0  0  0
  7 24  1  0  0  0  0
  8  9  1  0  0  0  0
  8 25  1  0  0  0  0
  8 26  1  0  0  0  0
  9 10  1  0  0  0  0
  9 27  1  0  0  0  0
 10 28  1  0  0  0  0
 11 12  1  0  0  0  0
 12 16  1  0  0  0  0
 12 13  2  0  0  0  0
 13 14  1  0  0  0  0
 14 15  2  0  0  0  0
 14 29  1  0  0  0  0
 15 16  1  0  0  0  0
 15 30  1  0  0  0  0
M  CHG  1  11  -1
M  END
> <s_m_source_file>
AV-unprocessed.smi

> <i_m_source_file_index>
3228

> <i_lp_mmshare_version>
43012

> <i_f3d_flags>
0

> <s_epik_input>
czFbY0hdW2NIXW5jMVtOSF1DKD1PKVtOSF1bQ0gyXVtDQEBIXTJbQ0gyXVtDSDJdW0NIMl1bQ0BIXTJbT0hd

> <s_epik_cmdline>
J2VwaWtfcHl0aG9uJywgJy1waCcsICc3LjAnLCAnLXRuJywgJzgnLCAnLW1hJywgJzIwMCcsICctbWV0YWxfYmluZGluZycsICctaW1hZScsICc8aW5maWxlLm1hZT4nLCAnLW9tYWUnLCAnPG91dGZpbGUubWFlPic=

> <r_lp_tautomer_probability>
0.999

> <r_epik_Ionization_Penalty>
8.49756

> <r_epik_Ionization_Penalty_Charging>
6.79645

> <r_epik_Ionization_Penalty_Neutral>
1.70111

> <r_epik_State_Penalty>
6.79662

> <r_epik_Charging_Adjusted_Penalty>
13.5931

> <i_epik_Tot_Q>
-1

> <i_epik_Tot_abs_Q>
1

> <r_epik_Metal_State_Penalty>
2.71629

> <b_epik_Metal_Only>
1

> <s_lp_Force_Field>
OPLS_2005

> <r_lp_Energy>
17.8369

> <b_lp_Chiralities_Consistent>
1

> <s_lp_Variant>
AV-unprocessed.smi:3228-8

> <Gold.Version>
5.8.1

> <Gold.Id.Protein>
6NUR|6NUR_protein|mol2

> <Gold.PLP.Fitness>
42.4950

> <Gold.PLP.PLP>
-33.2308

> <Gold.PLP.part.hbond>
-3.0582

> <Gold.PLP.part.metal>
0.0000

> <Gold.PLP.part.buried>
-4.9110

> <Gold.PLP.part.nonpolar>
-25.0502

> <Gold.PLP.part.repulsive>
0.3701

> <Gold.PLP.ligand.clash>
0.0000

> <Gold.PLP.ligand.torsion>
0.5844

> <Gold.PLP.Chemscore.Hbond>
1.5099

> <Gold.PLP.Chemscore.CHOScore>
1.9585

> <Gold.PLP.Chemscore.Metal>
0.0000

> <Gold.Chemscore.Hbonds>
donor molecule, donor type, donor heavy atom, donor atom, acceptor molecule, acceptor atom, score
      L1  H    10    28       P1  8028  0.46
      P1  H  7989  7998       L1     1  1.00
      L1  C    14    29       P1  7948  1.00
      L1  C    15    30       P1 10175  0.96

> <Gold.PLP.Chemscore.Internal.Correction>
0.0279

> <Gold.Rescore>
     Score         DG    S(hbond)    S(metal)    S(lipo)     H(rot)  DE(clash)    DE(int)     intcor
     11.29     -14.68       1.27        0.00      82.98       1.85       0.25       3.15       ----

> <Gold.Chemscore.Fitness>
11.2883

> <Gold.Chemscore.DG>
-14.6848

> <Gold.Chemscore.ZeroCoef>
-5.4800

> <Gold.Chemscore.Hbond>
1.2657

> <Gold.Chemscore.Metal>
0.0000

> <Gold.Chemscore.Lipo>
82.9796

> <Gold.Chemscore.Internal_Hbond>
0.0000

> <Gold.Chemscore.DEClash>
0.2474

> <Gold.Chemscore.DEInternal>
3.1491

> <Gold.Chemscore.Rot>
1.8481

> <Gold.Chemscore.Internal.Correction>
   9.000000E+99

> <Gold.Chemscore.Hbonds>
donor molecule, donor type, donor heavy atom, donor atom, acceptor molecule, acceptor atom, score
      L1  H    10    28       P1  8028  0.42
      P1  H  7989  7998       L1     1  0.37

> <Gold.Chemscore.Hbond.Weighted>
-4.2275

> <Gold.Chemscore.Metal.Weighted>
-0.0000

> <Gold.Chemscore.Lipo.Weighted>
-9.7086

> <Gold.Chemscore.Internal_Hbond.Weighted>
0.0000

> <Gold.Chemscore.DEClash.Weighted>
0.2474

> <Gold.Chemscore.DEInternal.Weighted>
3.1491

> <Gold.Chemscore.Rot.Weighted>
4.7313

> <Gold.Chemscore.Internal.Correction.Weighted>
   9.000000E+99

> <Gold.Protein.RotatedTorsions>
[ 6907 6896 6895 6894 ] final   49.36 input  -60.11 | X-H torsion
[ 7974 7965 7964 7962 ] final   95.36 input  175.53 | X-H torsion
[ 8008 7997 7996 7995 ] final  173.37 input   59.86 | X-H torsion
[ 10167 10162 10161 10158 ] final   73.95 input  -65.29 | X-H torsion
[ 10718 10713 10712 10709 ] final  -45.05 input   66.30 | X-H torsion
[ 10763 10752 10751 10750 ] final  -54.44 input  -60.55 | X-H torsion
[ 11005 11000 10999 10996 ] final  168.30 input  -57.11 | X-H torsion

> <Gold.Protein.ActiveResidues>
 VAL166  LYS551  ARG553  GLY616  TRP617  ASP618  TYR619  PRO620  LYS621  CYS622 
 ASP623  PHE694  ASN695  SER759  ASP760  ASP761  ALA762  ILE779  LEU786  VAL792 
 PHE793  MET794  SER795  GLU796  ALA797  LYS798  CYS799  TRP800  GLU811  SER814 

> <Gold.Protein.RotatedAtoms>
  152.2898  134.7734  160.0379 H   0  0  0  0  0  0  0  0  0  0  0  0  # atno 6907 bound_to 6896
  151.8284  133.3399  159.3614 H   0  0  0  0  0  0  0  0  0  0  0  0  # atno 6908 bound_to 6896
  150.7225  134.5436  159.5803 H   0  0  0  0  0  0  0  0  0  0  0  0  # atno 6909 bound_to 6896
  145.4533  139.2292  143.3028 H   0  0  0  0  0  0  0  0  0  0  0  0  # atno 7974 bound_to 7965
  156.1082  140.1462  156.9374 H   0  0  0  0  0  0  0  0  0  0  0  0  # atno 8008 bound_to 7997
  154.4749  140.0898  156.7280 H   0  0  0  0  0  0  0  0  0  0  0  0  # atno 8009 bound_to 7997
  155.4642  140.3439  155.4319 H   0  0  0  0  0  0  0  0  0  0  0  0  # atno 8010 bound_to 7997
  140.0190  144.5555  150.7597 H   0  0  0  0  0  0  0  0  0  0  0  0  # atno 10167 bound_to 10162
  156.2323  130.4173  149.8860 H   0  0  0  0  0  0  0  0  0  0  0  0  # atno 10718 bound_to 10713
  154.1749  135.6453  153.5019 H   0  0  0  0  0  0  0  0  0  0  0  0  # atno 10763 bound_to 10752
  153.0074  135.5392  154.6575 H   0  0  0  0  0  0  0  0  0  0  0  0  # atno 10764 bound_to 10752
  154.5924  135.2935  155.0594 H   0  0  0  0  0  0  0  0  0  0  0  0  # atno 10765 bound_to 10752
  140.2858  134.7713  157.3797 H   0  0  0  0  0  0  0  0  0  0  0  0  # atno 11005 bound_to 11000
  146.2492  140.5294  142.8900 LP  0  0  0  0  0  0  0  0  0  0  0  0  # atno 17320 bound_to 7965
  144.8048  140.6279  143.6454 LP  0  0  0  0  0  0  0  0  0  0  0  0  # atno 17321 bound_to 7965
  140.7350  143.2736  151.3812 LP  0  0  0  0  0  0  0  0  0  0  0  0  # atno 17342 bound_to 10162
  139.6153  144.1016  152.2339 LP  0  0  0  0  0  0  0  0  0  0  0  0  # atno 17343 bound_to 10162
  156.6470  130.8728  151.3524 LP  0  0  0  0  0  0  0  0  0  0  0  0  # atno 17370 bound_to 10713
  157.7138  130.9472  150.1183 LP  0  0  0  0  0  0  0  0  0  0  0  0  # atno 17371 bound_to 10713
  140.1241  134.5181  155.8159 LP  0  0  0  0  0  0  0  0  0  0  0  0  # atno 17394 bound_to 11000
  141.2155  133.6766  156.6919 LP  0  0  0  0  0  0  0  0  0  0  0  0  # atno 17395 bound_to 11000

$$$$
