AV-unprocessed.smi:1313|AV-procd|sdf|5451|dock5
  -GOLD-   22720 5 23D 1   1.00000     0.00000
 Structure written by MMmdl.
 37 38  0  0  0  0  0  0  0  0  1 V2000
  151.2632  142.9923  157.9240 C   0  0  0  0  0  0  0  0  0  0  0  0
  150.9824  141.7361  157.1285 C   0  0  0  0  0  0  0  0  0  0  0  0
  150.0648  141.9185  156.1074 N   0  0  0  0  0  0  0  0  0  0  0  0
  149.7396  140.8241  155.3256 C   0  0  0  0  0  0  0  0  0  0  0  0
  148.7249  141.1109  154.2323 C   0  0  0  0  0  0  0  0  0  0  0  0
  150.3041  139.6095  155.5476 C   0  0  0  0  0  0  0  0  0  0  0  0
  149.9724  138.3782  154.7069 C   0  0  0  0  0  0  0  0  0  0  0  0
  149.4725  137.1672  155.4966 C   0  0  0  0  0  0  0  0  0  0  0  0
  149.2896  137.2572  156.7103 O   0  0  0  0  0  0  0  0  0  0  0  0
  149.2651  136.0397  154.7994 N   0  0  0  0  0  0  0  0  0  0  0  0
  148.8240  134.7685  155.3670 C   0  0  0  0  0  0  0  0  0  0  0  0
  149.9444  134.1284  156.2095 C   0  0  0  0  0  0  0  0  0  0  0  0
  150.0422  132.6726  155.7499 C   0  0  0  0  0  0  0  0  0  0  0  0
  149.5984  132.7065  154.2911 C   0  0  0  0  0  0  0  0  0  0  0  0
  148.4779  133.7460  154.2661 C   0  0  0  0  0  0  0  0  0  0  0  0
  151.2861  139.4784  156.6502 C   0  0  0  0  0  0  0  0  0  0  0  0
  151.8435  138.4089  156.8934 O   0  0  0  0  0  0  0  0  0  0  0  0
  151.5749  140.6180  157.4185 N   0  0  0  0  0  0  0  0  0  0  0  0
  149.6229  142.8041  155.9071 H   0  0  0  0  0  0  0  0  0  0  0  0
  151.9782  142.7960  158.7239 H   0  0  0  0  0  0  0  0  0  0  0  0
  150.3449  143.3714  158.3735 H   0  0  0  0  0  0  0  0  0  0  0  0
  151.6788  143.7660  157.2778 H   0  0  0  0  0  0  0  0  0  0  0  0
  147.8369  140.4925  154.3630 H   0  0  0  0  0  0  0  0  0  0  0  0
  149.1514  140.9019  153.2512 H   0  0  0  0  0  0  0  0  0  0  0  0
  148.4088  142.1546  154.2417 H   0  0  0  0  0  0  0  0  0  0  0  0
  150.8617  138.0971  154.1416 H   0  0  0  0  0  0  0  0  0  0  0  0
  149.2300  138.6181  153.9452 H   0  0  0  0  0  0  0  0  0  0  0  0
  149.4389  136.0587  153.8049 H   0  0  0  0  0  0  0  0  0  0  0  0
  147.9481  134.9348  155.9970 H   0  0  0  0  0  0  0  0  0  0  0  0
  150.8987  134.6235  156.0229 H   0  0  0  0  0  0  0  0  0  0  0  0
  149.7483  134.2041  157.2795 H   0  0  0  0  0  0  0  0  0  0  0  0
  151.0431  132.2585  155.8759 H   0  0  0  0  0  0  0  0  0  0  0  0
  149.3520  132.0570  156.3282 H   0  0  0  0  0  0  0  0  0  0  0  0
  150.4251  133.0414  153.6634 H   0  0  0  0  0  0  0  0  0  0  0  0
  149.2750  131.7313  153.9259 H   0  0  0  0  0  0  0  0  0  0  0  0
  147.5329  133.2607  154.5140 H   0  0  0  0  0  0  0  0  0  0  0  0
  148.3567  134.1920  153.2781 H   0  0  0  0  0  0  0  0  0  0  0  0
  1 20  1  0  0  0  0
  1 21  1  0  0  0  0
  1 22  1  0  0  0  0
  1  2  1  0  0  0  0
  2  3  1  0  0  0  0
  2 18  2  0  0  0  0
  3  4  1  0  0  0  0
  3 19  1  0  0  0  0
  4  6  2  0  0  0  0
  4  5  1  0  0  0  0
  5 23  1  0  0  0  0
  5 24  1  0  0  0  0
  5 25  1  0  0  0  0
  6 16  1  0  0  0  0
  6  7  1  0  0  0  0
  7  8  1  0  0  0  0
  7 26  1  0  0  0  0
  7 27  1  0  0  0  0
  8  9  2  0  0  0  0
  8 10  1  0  0  0  0
 10 11  1  0  0  0  0
 10 28  1  0  0  0  0
 11 15  1  0  0  0  0
 11 12  1  0  0  0  0
 11 29  1  0  0  0  0
 12 13  1  0  0  0  0
 12 30  1  0  0  0  0
 12 31  1  0  0  0  0
 13 14  1  0  0  0  0
 13 32  1  0  0  0  0
 13 33  1  0  0  0  0
 14 15  1  0  0  0  0
 14 34  1  0  0  0  0
 14 35  1  0  0  0  0
 15 36  1  0  0  0  0
 15 37  1  0  0  0  0
 16 17  2  0  0  0  0
 16 18  1  0  0  0  0
M  END
> <s_m_source_file>
AV-unprocessed.smi

> <i_m_source_file_index>
1313

> <i_lp_mmshare_version>
43012

> <i_f3d_flags>
0

> <s_epik_input>
W0NIM11jMW5jKFtDSDNdKWMoYyg9TylbbkhdMSlbQ0gyXUMoPU8pW05IXVtDSF0yW0NIMl1bQ0gyXVtDSDJdW0NIMl0y

> <s_epik_cmdline>
J2VwaWtfcHl0aG9uJywgJy1waCcsICc3LjAnLCAnLXRuJywgJzgnLCAnLW1hJywgJzIwMCcsICctbWV0YWxfYmluZGluZycsICctaW1hZScsICc8aW5maWxlLm1hZT4nLCAnLW9tYWUnLCAnPG91dGZpbGUubWFlPic=

> <r_lp_tautomer_probability>
0.156392

> <r_epik_Ionization_Penalty>
0.0140409

> <r_epik_Ionization_Penalty_Charging>
0.0139177

> <r_epik_Ionization_Penalty_Neutral>
0.000123229

> <r_epik_State_Penalty>
1.53066

> <r_epik_Charging_Adjusted_Penalty>
1.54458

> <i_epik_Tot_Q>
0

> <i_epik_Tot_abs_Q>
0

> <r_epik_Metal_State_Penalty>
1.70649

> <b_epik_Metal_Only>
0

> <s_lp_Force_Field>
OPLS_2005

> <r_lp_Energy>
23.2441

> <b_lp_Chiralities_Consistent>
1

> <s_lp_Variant>
AV-unprocessed.smi:1313-2

> <Gold.Version>
5.8.1

> <Gold.Id.Protein>
6NUR|6NUR_protein|mol2

> <Gold.PLP.Fitness>
37.3974

> <Gold.PLP.PLP>
-31.6474

> <Gold.PLP.part.hbond>
-2.0000

> <Gold.PLP.part.metal>
0.0000

> <Gold.PLP.part.buried>
-2.5013

> <Gold.PLP.part.nonpolar>
-26.9463

> <Gold.PLP.part.repulsive>
0.1882

> <Gold.PLP.ligand.clash>
0.0000

> <Gold.PLP.ligand.torsion>
0.1264

> <Gold.PLP.Chemscore.Hbond>
2.0000

> <Gold.PLP.Chemscore.CHOScore>
0.0000

> <Gold.PLP.Chemscore.Metal>
0.0000

> <Gold.Chemscore.Hbonds>
donor molecule, donor type, donor heavy atom, donor atom, acceptor molecule, acceptor atom, score
      L1  H     3    19       P1  8028  0.91
      L1  H    10    28       P1  7948  1.00

> <Gold.PLP.Chemscore.Internal.Correction>
0.0028

> <Gold.Rescore>
     Score         DG    S(hbond)    S(metal)    S(lipo)     H(rot)  DE(clash)    DE(int)     intcor
     15.33     -15.43       1.97        0.00      61.98       1.51       0.02       0.08       ----

> <Gold.Chemscore.Fitness>
15.3328

> <Gold.Chemscore.DG>
-15.4347

> <Gold.Chemscore.ZeroCoef>
-5.4800

> <Gold.Chemscore.Hbond>
1.9689

> <Gold.Chemscore.Metal>
0.0000

> <Gold.Chemscore.Lipo>
61.9769

> <Gold.Chemscore.Internal_Hbond>
0.0000

> <Gold.Chemscore.DEClash>
0.0174

> <Gold.Chemscore.DEInternal>
0.0844

> <Gold.Chemscore.Rot>
1.5128

> <Gold.Chemscore.Internal.Correction>
   9.000000E+99

> <Gold.Chemscore.Hbonds>
donor molecule, donor type, donor heavy atom, donor atom, acceptor molecule, acceptor atom, score
      L1  H     3    19       P1  8028  0.87
      L1  H    10    28       P1  7948  0.63

> <Gold.Chemscore.Hbond.Weighted>
-6.5760

> <Gold.Chemscore.Metal.Weighted>
-0.0000

> <Gold.Chemscore.Lipo.Weighted>
-7.2513

> <Gold.Chemscore.Internal_Hbond.Weighted>
0.0000

> <Gold.Chemscore.DEClash.Weighted>
0.0174

> <Gold.Chemscore.DEInternal.Weighted>
0.0844

> <Gold.Chemscore.Rot.Weighted>
3.8727

> <Gold.Chemscore.Internal.Correction.Weighted>
   9.000000E+99

> <Gold.Protein.RotatedTorsions>
[ 6907 6896 6895 6894 ] final   88.91 input  -60.11 | X-H torsion
[ 7974 7965 7964 7962 ] final  148.95 input  175.53 | X-H torsion
[ 8008 7997 7996 7995 ] final  -96.94 input   59.86 | X-H torsion
[ 10167 10162 10161 10158 ] final -146.86 input  -65.29 | X-H torsion
[ 10718 10713 10712 10709 ] final    0.93 input   66.30 | X-H torsion
[ 10763 10752 10751 10750 ] final   57.84 input  -60.55 | X-H torsion
[ 11005 11000 10999 10996 ] final   91.88 input  -57.11 | X-H torsion

> <Gold.Protein.ActiveResidues>
 VAL166  LYS551  ARG553  GLY616  TRP617  ASP618  TYR619  PRO620  LYS621  CYS622 
 ASP623  PHE694  ASN695  SER759  ASP760  ASP761  ALA762  ILE779  LEU786  VAL792 
 PHE793  MET794  SER795  GLU796  ALA797  LYS798  CYS799  TRP800  GLU811  SER814 

> <Gold.Protein.RotatedAtoms>
  152.5430  134.2049  159.8726 H   0  0  0  0  0  0  0  0  0  0  0  0  # atno 6907 bound_to 6896
  151.2035  133.4590  159.2604 H   0  0  0  0  0  0  0  0  0  0  0  0  # atno 6908 bound_to 6896
  151.0966  134.9960  159.8484 H   0  0  0  0  0  0  0  0  0  0  0  0  # atno 6909 bound_to 6896
  144.8474  139.6219  143.5989 H   0  0  0  0  0  0  0  0  0  0  0  0  # atno 7974 bound_to 7965
  154.7812  140.0467  157.1128 H   0  0  0  0  0  0  0  0  0  0  0  0  # atno 8008 bound_to 7997
  154.9703  140.3088  155.4971 H   0  0  0  0  0  0  0  0  0  0  0  0  # atno 8009 bound_to 7997
  156.2936  140.2254  156.4795 H   0  0  0  0  0  0  0  0  0  0  0  0  # atno 8010 bound_to 7997
  139.7674  143.8287  152.2618 H   0  0  0  0  0  0  0  0  0  0  0  0  # atno 10167 bound_to 10162
  156.8406  130.5520  149.5678 H   0  0  0  0  0  0  0  0  0  0  0  0  # atno 10718 bound_to 10713
  152.9858  135.5627  154.5455 H   0  0  0  0  0  0  0  0  0  0  0  0  # atno 10763 bound_to 10752
  154.4902  135.2792  155.1505 H   0  0  0  0  0  0  0  0  0  0  0  0  # atno 10764 bound_to 10752
  154.2977  135.6313  153.5465 H   0  0  0  0  0  0  0  0  0  0  0  0  # atno 10765 bound_to 10752
  139.8832  134.8700  156.3492 H   0  0  0  0  0  0  0  0  0  0  0  0  # atno 11005 bound_to 11000
  146.2756  139.6744  142.9265 LP  0  0  0  0  0  0  0  0  0  0  0  0  # atno 17320 bound_to 7965
  145.4568  141.0431  143.2773 LP  0  0  0  0  0  0  0  0  0  0  0  0  # atno 17321 bound_to 7965
  139.8311  144.7253  150.9449 LP  0  0  0  0  0  0  0  0  0  0  0  0  # atno 17342 bound_to 10162
  140.7812  143.4069  151.1057 LP  0  0  0  0  0  0  0  0  0  0  0  0  # atno 17343 bound_to 10162
  156.0882  130.5875  150.9687 LP  0  0  0  0  0  0  0  0  0  0  0  0  # atno 17370 bound_to 10713
  157.6357  131.0916  150.8352 LP  0  0  0  0  0  0  0  0  0  0  0  0  # atno 17371 bound_to 10713
  140.9605  133.7391  156.0395 LP  0  0  0  0  0  0  0  0  0  0  0  0  # atno 17394 bound_to 11000
  140.7995  134.3525  157.5443 LP  0  0  0  0  0  0  0  0  0  0  0  0  # atno 17395 bound_to 11000

$$$$
