AV-unprocessed.smi:1948|AV-procd|sdf|7874|dock6
  -GOLD-   2272010 23D 1   1.00000     0.00000
 Structure written by MMmdl.
 30 31  0  0  0  0  0  0  0  0  1 V2000
  150.8885  140.7468  156.4620 O   0  0  0  0  0  0  0  0  0  0  0  0
  150.2326  141.7838  156.3594 C   0  0  0  0  0  0  0  0  0  0  0  0
  149.1695  141.9552  155.5539 N   0  0  0  0  0  0  0  0  0  0  0  0
  148.5736  141.0161  154.6709 C   0  0  0  0  0  0  0  0  0  0  0  0
  147.4763  141.2720  153.9410 N   0  0  0  0  0  0  0  0  0  0  0  0
  147.1047  140.1839  153.1617 N   0  0  0  0  0  0  0  0  0  0  0  0
  147.9354  139.1517  153.3339 C   0  0  0  0  0  0  0  0  0  0  0  0
  149.2537  139.4083  154.4640 S   0  0  0  0  0  0  0  0  0  0  0  0
  150.5038  142.9015  157.0494 N   0  0  0  0  0  0  0  0  0  0  0  0
  151.5960  143.0572  158.0057 C   0  0  2  0  0  0  0  0  0  0  0  0
  151.7091  141.7909  158.8735 C   0  0  0  0  0  0  0  0  0  0  0  0
  152.8226  141.9271  159.9269 C   0  0  0  0  0  0  0  0  0  0  0  0
  152.6483  143.1833  160.8014 C   0  0  2  0  0  0  0  0  0  0  0  0
  151.5343  143.0262  161.6577 O   0  0  0  0  0  0  0  0  0  0  0  0
  152.4818  144.4522  159.9442 C   0  0  0  0  0  0  0  0  0  0  0  0
  151.3733  144.3030  158.8872 C   0  0  0  0  0  0  0  0  0  0  0  0
  148.7375  142.8671  155.5709 H   0  0  0  0  0  0  0  0  0  0  0  0
  147.7710  138.2330  152.7906 H   0  0  0  0  0  0  0  0  0  0  0  0
  149.9134  143.7070  156.9019 H   0  0  0  0  0  0  0  0  0  0  0  0
  152.5333  143.1752  157.4581 H   0  0  0  0  0  0  0  0  0  0  0  0
  150.7584  141.5962  159.3721 H   0  0  0  0  0  0  0  0  0  0  0  0
  151.9083  140.9231  158.2436 H   0  0  0  0  0  0  0  0  0  0  0  0
  152.8598  141.0338  160.5514 H   0  0  0  0  0  0  0  0  0  0  0  0
  153.7855  141.9808  159.4172 H   0  0  0  0  0  0  0  0  0  0  0  0
  153.5253  143.2967  161.4398 H   0  0  0  0  0  0  0  0  0  0  0  0
  151.7301  143.4399  162.4844 H   0  0  0  0  0  0  0  0  0  0  0  0
  152.2800  145.3154  160.5796 H   0  0  0  0  0  0  0  0  0  0  0  0
  153.4240  144.6632  159.4370 H   0  0  0  0  0  0  0  0  0  0  0  0
  151.3401  145.2007  158.2688 H   0  0  0  0  0  0  0  0  0  0  0  0
  150.4037  144.2368  159.3828 H   0  0  0  0  0  0  0  0  0  0  0  0
  1  2  2  0  0  0  0
  2  3  1  0  0  0  0
  2  9  1  0  0  0  0
  3  4  1  0  0  0  0
  3 17  1  0  0  0  0
  4  8  1  0  0  0  0
  4  5  2  0  0  0  0
  5  6  1  0  0  0  0
  6  7  2  0  0  0  0
  7  8  1  0  0  0  0
  7 18  1  0  0  0  0
  9 10  1  0  0  0  0
  9 19  1  0  0  0  0
 10 16  1  0  0  0  0
 10 11  1  0  0  0  0
 10 20  1  0  0  0  0
 11 12  1  0  0  0  0
 11 21  1  0  0  0  0
 11 22  1  0  0  0  0
 12 13  1  0  0  0  0
 12 23  1  0  0  0  0
 12 24  1  0  0  0  0
 13 14  1  0  0  0  0
 13 15  1  0  0  0  0
 13 25  1  0  0  0  0
 14 26  1  0  0  0  0
 15 16  1  0  0  0  0
 15 27  1  0  0  0  0
 15 28  1  0  0  0  0
 16 29  1  0  0  0  0
 16 30  1  0  0  0  0
M  END
> <s_m_source_file>
AV-unprocessed.smi

> <i_m_source_file_index>
1948

> <i_lp_mmshare_version>
43012

> <i_f3d_flags>
0

> <s_epik_input>
czFbY0hdbm5jMVtOSF1DKD1PKVtOSF1bQ0BASF0yW0NIMl1bQ0gyXVtDQEBIXShbT0hdKVtDSDJdW0NIMl0y

> <s_epik_cmdline>
J2VwaWtfcHl0aG9uJywgJy1waCcsICc3LjAnLCAnLXRuJywgJzgnLCAnLW1hJywgJzIwMCcsICctbWV0YWxfYmluZGluZycsICctaW1hZScsICc8aW5maWxlLm1hZT4nLCAnLW9tYWUnLCAnPG91dGZpbGUubWFlPic=

> <r_lp_tautomer_probability>
1

> <r_epik_Ionization_Penalty>
0.000336938

> <r_epik_Ionization_Penalty_Charging>
0

> <r_epik_Ionization_Penalty_Neutral>
0.000336938

> <r_epik_State_Penalty>
-0

> <r_epik_Charging_Adjusted_Penalty>
0

> <i_epik_Tot_Q>
0

> <i_epik_Tot_abs_Q>
0

> <r_epik_Metal_State_Penalty>
0.175756

> <b_epik_Metal_Only>
0

> <s_lp_Force_Field>
OPLS_2005

> <r_lp_Energy>
9.37087

> <b_lp_Chiralities_Consistent>
1

> <s_lp_Variant>
AV-unprocessed.smi:1948-2

> <Gold.Version>
5.8.1

> <Gold.Id.Protein>
6NUR|6NUR_protein|mol2

> <Gold.PLP.Fitness>
43.2808

> <Gold.PLP.PLP>
-33.0872

> <Gold.PLP.part.hbond>
-3.8012

> <Gold.PLP.part.metal>
0.0000

> <Gold.PLP.part.buried>
-5.0318

> <Gold.PLP.part.nonpolar>
-25.4621

> <Gold.PLP.part.repulsive>
0.5406

> <Gold.PLP.ligand.clash>
0.0000

> <Gold.PLP.ligand.torsion>
0.2327

> <Gold.PLP.Chemscore.Hbond>
2.5520

> <Gold.PLP.Chemscore.CHOScore>
1.0000

> <Gold.PLP.Chemscore.Metal>
0.0000

> <Gold.Chemscore.Hbonds>
donor molecule, donor type, donor heavy atom, donor atom, acceptor molecule, acceptor atom, score
      L1  H     3    17       P1  8028  1.00
      L1  H     9    19       P1  8028  0.96
      P1  H  6933  6945       L1    14  0.59
      L1  C     7    18       P1  7948  1.00

> <Gold.PLP.Chemscore.Internal.Correction>
0.0030

> <Gold.Rescore>
     Score         DG    S(hbond)    S(metal)    S(lipo)     H(rot)  DE(clash)    DE(int)     intcor
     14.45     -17.49       1.93        0.00      81.29       1.55       0.06       2.98       ----

> <Gold.Chemscore.Fitness>
14.4525

> <Gold.Chemscore.DG>
-17.4882

> <Gold.Chemscore.ZeroCoef>
-5.4800

> <Gold.Chemscore.Hbond>
1.9324

> <Gold.Chemscore.Metal>
0.0000

> <Gold.Chemscore.Lipo>
81.2879

> <Gold.Chemscore.Internal_Hbond>
0.0000

> <Gold.Chemscore.DEClash>
0.0564

> <Gold.Chemscore.DEInternal>
2.9792

> <Gold.Chemscore.Rot>
1.5456

> <Gold.Chemscore.Internal.Correction>
   9.000000E+99

> <Gold.Chemscore.Hbonds>
donor molecule, donor type, donor heavy atom, donor atom, acceptor molecule, acceptor atom, score
      L1  H     3    17       P1  8028  0.95
      L1  H     9    19       P1  8028  0.91
      P1  H  6933  6945       L1    14  0.14

> <Gold.Chemscore.Hbond.Weighted>
-6.4543

> <Gold.Chemscore.Metal.Weighted>
-0.0000

> <Gold.Chemscore.Lipo.Weighted>
-9.5107

> <Gold.Chemscore.Internal_Hbond.Weighted>
0.0000

> <Gold.Chemscore.DEClash.Weighted>
0.0564

> <Gold.Chemscore.DEInternal.Weighted>
2.9792

> <Gold.Chemscore.Rot.Weighted>
3.9568

> <Gold.Chemscore.Internal.Correction.Weighted>
   9.000000E+99

> <Gold.Protein.RotatedTorsions>
[ 6907 6896 6895 6894 ] final   30.83 input  -60.11 | X-H torsion
[ 7974 7965 7964 7962 ] final   -3.72 input  175.53 | X-H torsion
[ 8008 7997 7996 7995 ] final  -54.29 input   59.86 | X-H torsion
[ 10167 10162 10161 10158 ] final  113.55 input  -65.29 | X-H torsion
[ 10718 10713 10712 10709 ] final   98.33 input   66.30 | X-H torsion
[ 10763 10752 10751 10750 ] final   85.60 input  -60.55 | X-H torsion
[ 11005 11000 10999 10996 ] final  172.89 input  -57.11 | X-H torsion

> <Gold.Protein.ActiveResidues>
 VAL166  LYS551  ARG553  GLY616  TRP617  ASP618  TYR619  PRO620  LYS621  CYS622 
 ASP623  PHE694  ASN695  SER759  ASP760  ASP761  ALA762  ILE779  LEU786  VAL792 
 PHE793  MET794  SER795  GLU796  ALA797  LYS798  CYS799  TRP800  GLU811  SER814 

> <Gold.Protein.RotatedAtoms>
  152.0516  134.9650  160.0574 H   0  0  0  0  0  0  0  0  0  0  0  0  # atno 6907 bound_to 6896
  152.1049  133.4265  159.4612 H   0  0  0  0  0  0  0  0  0  0  0  0  # atno 6908 bound_to 6896
  150.6841  134.2636  159.4602 H   0  0  0  0  0  0  0  0  0  0  0  0  # atno 6909 bound_to 6896
  146.2385  140.1764  142.8332 H   0  0  0  0  0  0  0  0  0  0  0  0  # atno 7974 bound_to 7965
  154.4158  140.1180  156.5292 H   0  0  0  0  0  0  0  0  0  0  0  0  # atno 8008 bound_to 7997
  155.6623  140.3496  155.4768 H   0  0  0  0  0  0  0  0  0  0  0  0  # atno 8009 bound_to 7997
  155.9703  140.1140  157.0808 H   0  0  0  0  0  0  0  0  0  0  0  0  # atno 8010 bound_to 7997
  139.6453  144.7126  151.2155 H   0  0  0  0  0  0  0  0  0  0  0  0  # atno 10167 bound_to 10162
  157.6897  131.0636  150.4779 H   0  0  0  0  0  0  0  0  0  0  0  0  # atno 10718 bound_to 10713
  153.1491  135.4611  154.9609 H   0  0  0  0  0  0  0  0  0  0  0  0  # atno 10763 bound_to 10752
  154.7810  135.3188  154.7992 H   0  0  0  0  0  0  0  0  0  0  0  0  # atno 10764 bound_to 10752
  153.8501  135.6922  153.4847 H   0  0  0  0  0  0  0  0  0  0  0  0  # atno 10765 bound_to 10752
  140.3346  134.7328  157.4158 H   0  0  0  0  0  0  0  0  0  0  0  0  # atno 11005 bound_to 11000
  144.9970  140.8598  143.5305 LP  0  0  0  0  0  0  0  0  0  0  0  0  # atno 17320 bound_to 7965
  145.1778  139.2368  143.5308 LP  0  0  0  0  0  0  0  0  0  0  0  0  # atno 17321 bound_to 7965
  140.7511  143.6242  150.8484 LP  0  0  0  0  0  0  0  0  0  0  0  0  # atno 17342 bound_to 10162
  139.9884  143.5874  152.2919 LP  0  0  0  0  0  0  0  0  0  0  0  0  # atno 17343 bound_to 10162
  156.5113  130.4140  149.6300 LP  0  0  0  0  0  0  0  0  0  0  0  0  # atno 17370 bound_to 10713
  156.3238  130.7295  151.2212 LP  0  0  0  0  0  0  0  0  0  0  0  0  # atno 17371 bound_to 10713
  140.0832  134.5702  155.8519 LP  0  0  0  0  0  0  0  0  0  0  0  0  # atno 17394 bound_to 11000
  141.2054  133.6647  156.6182 LP  0  0  0  0  0  0  0  0  0  0  0  0  # atno 17395 bound_to 11000

$$$$
