AV-unprocessed.smi:867|AV-procd|sdf|4001|dock2
  -GOLD-   22720 1483D 1   1.00000     0.00000
 Structure written by MMmdl.
 54 57  0  0  0  0  0  0  0  0  3 V2000
  149.9783  141.0818  155.7192 O   0  0  0  0  0  0  0  0  0  0  0  0
  150.6314  140.0455  155.5898 C   0  0  0  0  0  0  0  0  0  0  0  0
  151.7398  139.8010  156.3104 N   0  0  0  0  0  0  0  0  0  0  0  0
  152.2938  140.6629  157.3519 C   0  0  0  0  0  0  0  0  0  0  0  0
  151.2582  141.0190  158.4357 C   0  0  0  0  0  0  0  0  0  0  0  0
  151.2500  142.4908  158.8107 C   0  0  0  0  0  0  0  0  0  0  0  0
  152.4051  143.1105  159.3381 C   0  0  0  0  0  0  0  0  0  0  0  0
  152.3693  144.4846  159.6540 C   0  0  0  0  0  0  0  0  0  0  0  0
  151.1785  145.2080  159.4378 C   0  0  0  0  0  0  0  0  0  0  0  0
  150.0926  144.5807  158.9354 N   0  3  0  0  0  0  0  0  0  0  0  0
  150.0861  143.2671  158.6207 C   0  0  0  0  0  0  0  0  0  0  0  0
  150.3336  139.0928  154.6713 N   0  0  0  0  0  0  0  0  0  0  0  0
  151.1553  137.9200  154.3450 C   0  0  0  0  0  0  0  0  0  0  0  0
  150.5222  136.6729  154.9895 C   0  0  0  0  0  0  0  0  0  0  0  0
  149.1030  136.4907  154.5671 N   0  3  0  0  0  0  0  0  0  0  0  0
  148.4494  135.3040  155.1903 C   0  0  1  0  0  0  0  0  0  0  0  0
  147.1759  134.8195  154.4547 C   0  0  0  0  0  0  0  0  0  0  0  0
  147.4167  133.3058  154.2995 C   0  0  1  0  0  0  0  0  0  0  0  0
  148.4434  133.0807  153.1765 C   0  0  0  0  0  0  0  0  0  0  0  0
  149.7506  133.5824  153.8149 C   0  0  0  0  0  0  0  0  0  0  0  0
  149.3046  134.0127  155.2296 C   0  0  2  0  0  0  0  0  0  0  0  0
  148.2355  132.9704  155.5407 C   0  0  0  0  0  0  0  0  0  0  0  0
  148.2995  137.7358  154.7375 C   0  0  0  0  0  0  0  0  0  0  0  0
  148.9920  138.9545  154.1007 C   0  0  0  0  0  0  0  0  0  0  0  0
  152.2356  138.9401  156.1289 H   0  0  0  0  0  0  0  0  0  0  0  0
  153.1763  140.2059  157.8030 H   0  0  0  0  0  0  0  0  0  0  0  0
  152.6415  141.5781  156.8725 H   0  0  0  0  0  0  0  0  0  0  0  0
  150.2610  140.7482  158.0872 H   0  0  0  0  0  0  0  0  0  0  0  0
  151.4383  140.4187  159.3285 H   0  0  0  0  0  0  0  0  0  0  0  0
  153.3120  142.5439  159.4920 H   0  0  0  0  0  0  0  0  0  0  0  0
  153.2434  144.9769  160.0548 H   0  0  0  0  0  0  0  0  0  0  0  0
  151.0625  146.2608  159.6498 H   0  0  0  0  0  0  0  0  0  0  0  0
  149.1596  142.8822  158.2198 H   0  0  0  0  0  0  0  0  0  0  0  0
  151.1916  137.8005  153.2611 H   0  0  0  0  0  0  0  0  0  0  0  0
  152.1951  138.0064  154.6600 H   0  0  0  0  0  0  0  0  0  0  0  0
  151.1171  135.8030  154.7132 H   0  0  0  0  0  0  0  0  0  0  0  0
  150.5673  136.7553  156.0766 H   0  0  0  0  0  0  0  0  0  0  0  0
  148.1866  135.5686  156.2166 H   0  0  0  0  0  0  0  0  0  0  0  0
  146.2884  135.0171  155.0572 H   0  0  0  0  0  0  0  0  0  0  0  0
  147.0284  135.2913  153.4826 H   0  0  0  0  0  0  0  0  0  0  0  0
  146.5018  132.7251  154.1770 H   0  0  0  0  0  0  0  0  0  0  0  0
  148.5205  132.0217  152.9265 H   0  0  0  0  0  0  0  0  0  0  0  0
  148.1898  133.6212  152.2638 H   0  0  0  0  0  0  0  0  0  0  0  0
  150.4790  132.7724  153.8721 H   0  0  0  0  0  0  0  0  0  0  0  0
  150.2053  134.3927  153.2450 H   0  0  0  0  0  0  0  0  0  0  0  0
  150.1167  134.0425  155.9567 H   0  0  0  0  0  0  0  0  0  0  0  0
  147.7025  133.1575  156.4746 H   0  0  0  0  0  0  0  0  0  0  0  0
  148.6156  131.9472  155.5454 H   0  0  0  0  0  0  0  0  0  0  0  0
  147.3120  137.6176  154.2924 H   0  0  0  0  0  0  0  0  0  0  0  0
  148.1426  137.9199  155.8017 H   0  0  0  0  0  0  0  0  0  0  0  0
  148.3819  139.8480  154.2409 H   0  0  0  0  0  0  0  0  0  0  0  0
  149.0706  138.8196  153.0209 H   0  0  0  0  0  0  0  0  0  0  0  0
  149.1330  136.3082  153.5739 H   0  0  0  0  0  0  0  0  0  0  0  0
  149.2414  145.1226  158.7846 H   0  0  0  0  0  0  0  0  0  0  0  0
  1  2  2  0  0  0  0
  2  3  1  0  0  0  0
  2 12  1  0  0  0  0
  3  4  1  0  0  0  0
  3 25  1  0  0  0  0
  4  5  1  0  0  0  0
  4 26  1  0  0  0  0
  4 27  1  0  0  0  0
  5  6  1  0  0  0  0
  5 28  1  0  0  0  0
  5 29  1  0  0  0  0
  6 11  1  0  0  0  0
  6  7  2  0  0  0  0
  7  8  1  0  0  0  0
  7 30  1  0  0  0  0
  8  9  2  0  0  0  0
  8 31  1  0  0  0  0
  9 10  1  0  0  0  0
  9 32  1  0  0  0  0
 10 11  2  0  0  0  0
 10 54  1  0  0  0  0
 11 33  1  0  0  0  0
 12 24  1  0  0  0  0
 12 13  1  0  0  0  0
 13 14  1  0  0  0  0
 13 34  1  0  0  0  0
 13 35  1  0  0  0  0
 14 15  1  0  0  0  0
 14 36  1  0  0  0  0
 14 37  1  0  0  0  0
 15 16  1  0  0  0  0
 15 23  1  0  0  0  0
 15 53  1  0  0  0  0
 16 21  1  0  0  0  0
 16 17  1  0  0  0  0
 16 38  1  0  0  0  0
 17 18  1  0  0  0  0
 17 39  1  0  0  0  0
 17 40  1  0  0  0  0
 18 22  1  0  0  0  0
 18 19  1  0  0  0  0
 18 41  1  0  0  0  0
 19 20  1  0  0  0  0
 19 42  1  0  0  0  0
 19 43  1  0  0  0  0
 20 21  1  0  0  0  0
 20 44  1  0  0  0  0
 20 45  1  0  0  0  0
 21 22  1  0  0  0  0
 21 46  1  0  0  0  0
 22 47  1  0  0  0  0
 22 48  1  0  0  0  0
 23 24  1  0  0  0  0
 23 49  1  0  0  0  0
 23 50  1  0  0  0  0
 24 51  1  0  0  0  0
 24 52  1  0  0  0  0
M  CHG  1  10   1
M  CHG  1  15   1
M  END
> <s_m_source_file>
AV-unprocessed.smi

> <i_m_source_file_index>
867

> <i_lp_mmshare_version>
43012

> <i_f3d_flags>
0

> <s_epik_input>
W0NIMl0xW0NIMl1bQ0BASF0oW0NIMl0yKVtDQEBIXShbQ0gyXVtDQEhdMTIpTihbQ0gyXVtDSDJdMylbQ0gyXVtDSDJdTjNDKD1PKVtOSF1bQ0gyXVtDSDJdYzRbY0hdW2NIXVtjSF1uW2NIXTQ=

> <s_epik_cmdline>
J2VwaWtfcHl0aG9uJywgJy1waCcsICc3LjAnLCAnLXRuJywgJzgnLCAnLW1hJywgJzIwMCcsICctbWV0YWxfYmluZGluZycsICctaW1hZScsICc8aW5maWxlLm1hZT4nLCAnLW9tYWUnLCAnPG91dGZpbGUubWFlPic=

> <r_epik_Ionization_Penalty>
2.25108

> <r_epik_Ionization_Penalty_Charging>
2.25105

> <r_epik_Ionization_Penalty_Neutral>
2.64641e-05

> <r_epik_State_Penalty>
2.39519

> <r_epik_Charging_Adjusted_Penalty>
4.64625

> <i_epik_Tot_Q>
2

> <i_epik_Tot_abs_Q>
2

> <r_epik_Metal_State_Penalty>
2.40865

> <b_epik_Metal_Only>
0

> <s_lp_Force_Field>
OPLS_2005

> <r_lp_Energy>
106.845

> <b_lp_Chiralities_Consistent>
1

> <s_lp_Variant>
AV-unprocessed.smi:867-8

> <Gold.Version>
5.8.1

> <Gold.Id.Protein>
6NUR|6NUR_protein|mol2

> <Gold.PLP.Fitness>
53.2539

> <Gold.PLP.PLP>
-42.4301

> <Gold.PLP.part.hbond>
-2.0449

> <Gold.PLP.part.metal>
0.0000

> <Gold.PLP.part.buried>
-5.2040

> <Gold.PLP.part.nonpolar>
-35.5479

> <Gold.PLP.part.repulsive>
0.3801

> <Gold.PLP.ligand.clash>
0.0000

> <Gold.PLP.ligand.torsion>
0.6453

> <Gold.PLP.Chemscore.Hbond>
4.0000

> <Gold.PLP.Chemscore.CHOScore>
0.0000

> <Gold.PLP.Chemscore.Metal>
0.0000

> <Gold.Chemscore.Hbonds>
donor molecule, donor type, donor heavy atom, donor atom, acceptor molecule, acceptor atom, score
      L1  H    10    54       P1  8029  1.14
      L1  H    15    53       P1  7948  2.00

> <Gold.PLP.Chemscore.Internal.Correction>
0.1144

> <Gold.Rescore>
     Score         DG    S(hbond)    S(metal)    S(lipo)     H(rot)  DE(clash)    DE(int)     intcor
     19.73     -20.53       1.88        0.00     106.75       1.46       0.13       0.67       ----

> <Gold.Chemscore.Fitness>
19.7283

> <Gold.Chemscore.DG>
-20.5286

> <Gold.Chemscore.ZeroCoef>
-5.4800

> <Gold.Chemscore.Hbond>
1.8831

> <Gold.Chemscore.Metal>
0.0000

> <Gold.Chemscore.Lipo>
106.7481

> <Gold.Chemscore.Internal_Hbond>
0.0000

> <Gold.Chemscore.DEClash>
0.1326

> <Gold.Chemscore.DEInternal>
0.6678

> <Gold.Chemscore.Rot>
1.4572

> <Gold.Chemscore.Internal.Correction>
   9.000000E+99

> <Gold.Chemscore.Hbonds>
donor molecule, donor type, donor heavy atom, donor atom, acceptor molecule, acceptor atom, score
      L1  H    10    54       P1  8029  0.53
      L1  H    15    53       P1  7948  0.96

> <Gold.Chemscore.Hbond.Weighted>
-6.2896

> <Gold.Chemscore.Metal.Weighted>
-0.0000

> <Gold.Chemscore.Lipo.Weighted>
-12.4895

> <Gold.Chemscore.Internal_Hbond.Weighted>
0.0000

> <Gold.Chemscore.DEClash.Weighted>
0.1326

> <Gold.Chemscore.DEInternal.Weighted>
0.6678

> <Gold.Chemscore.Rot.Weighted>
3.7305

> <Gold.Chemscore.Internal.Correction.Weighted>
   9.000000E+99

> <Gold.Protein.RotatedTorsions>
[ 6907 6896 6895 6894 ] final   39.40 input  -60.11 | X-H torsion
[ 7974 7965 7964 7962 ] final  173.55 input  175.53 | X-H torsion
[ 8008 7997 7996 7995 ] final  102.66 input   59.86 | X-H torsion
[ 10167 10162 10161 10158 ] final  154.01 input  -65.29 | X-H torsion
[ 10718 10713 10712 10709 ] final   36.91 input   66.30 | X-H torsion
[ 10763 10752 10751 10750 ] final  -68.92 input  -60.55 | X-H torsion
[ 11005 11000 10999 10996 ] final  105.36 input  -57.11 | X-H torsion

> <Gold.Protein.ActiveResidues>
 VAL166  LYS551  ARG553  GLY616  TRP617  ASP618  TYR619  PRO620  LYS621  CYS622 
 ASP623  PHE694  ASN695  SER759  ASP760  ASP761  ALA762  ILE779  LEU786  VAL792 
 PHE793  MET794  SER795  GLU796  ALA797  LYS798  CYS799  TRP800  GLU811  SER814 

> <Gold.Protein.RotatedAtoms>
  152.1690  134.8849  160.0535 H   0  0  0  0  0  0  0  0  0  0  0  0  # atno 6907 bound_to 6896
  151.9816  133.3755  159.4118 H   0  0  0  0  0  0  0  0  0  0  0  0  # atno 6908 bound_to 6896
  150.6899  134.3955  159.5139 H   0  0  0  0  0  0  0  0  0  0  0  0  # atno 6909 bound_to 6896
  144.7241  139.9665  143.6436 H   0  0  0  0  0  0  0  0  0  0  0  0  # atno 7974 bound_to 7965
  156.1413  140.3177  155.8500 H   0  0  0  0  0  0  0  0  0  0  0  0  # atno 8008 bound_to 7997
  155.4148  140.0508  157.3046 H   0  0  0  0  0  0  0  0  0  0  0  0  # atno 8009 bound_to 7997
  154.4979  140.2118  155.9421 H   0  0  0  0  0  0  0  0  0  0  0  0  # atno 8010 bound_to 7997
  139.4825  144.5224  151.7855 H   0  0  0  0  0  0  0  0  0  0  0  0  # atno 10167 bound_to 10162
  157.3405  130.7545  149.6909 H   0  0  0  0  0  0  0  0  0  0  0  0  # atno 10718 bound_to 10713
  154.3960  135.6042  153.5870 H   0  0  0  0  0  0  0  0  0  0  0  0  # atno 10763 bound_to 10752
  152.9787  135.5895  154.4241 H   0  0  0  0  0  0  0  0  0  0  0  0  # atno 10764 bound_to 10752
  154.4032  135.2843  155.2062 H   0  0  0  0  0  0  0  0  0  0  0  0  # atno 10765 bound_to 10752
  139.8801  134.9333  156.5502 H   0  0  0  0  0  0  0  0  0  0  0  0  # atno 11005 bound_to 11000
  146.0596  139.3591  143.0589 LP  0  0  0  0  0  0  0  0  0  0  0  0  # atno 17320 bound_to 7965
  145.8109  140.9726  143.0949 LP  0  0  0  0  0  0  0  0  0  0  0  0  # atno 17321 bound_to 7965
  140.4740  144.1546  150.5922 LP  0  0  0  0  0  0  0  0  0  0  0  0  # atno 17342 bound_to 10162
  140.4351  143.2551  151.9545 LP  0  0  0  0  0  0  0  0  0  0  0  0  # atno 17343 bound_to 10162
  155.9707  130.4169  150.4253 LP  0  0  0  0  0  0  0  0  0  0  0  0  # atno 17370 bound_to 10713
  157.2300  131.0502  151.2498 LP  0  0  0  0  0  0  0  0  0  0  0  0  # atno 17371 bound_to 10713
  140.8246  133.8327  155.8927 LP  0  0  0  0  0  0  0  0  0  0  0  0  # atno 17394 bound_to 11000
  140.9386  134.1929  157.4813 LP  0  0  0  0  0  0  0  0  0  0  0  0  # atno 17395 bound_to 11000

$$$$
