AV-unprocessed.smi:1004|AV-procd|sdf|4361|dock7
  -GOLD-   22720 2263D 1   1.00000     0.00000
 Structure written by MMmdl.
 42 43  0  0  0  0  0  0  0  0  1 V2000
  145.0840  144.5621  154.0902 C   0  0  0  0  0  0  0  0  0  0  0  0
  145.9789  143.3485  154.2348 C   0  0  0  0  0  0  0  0  0  0  0  0
  146.7893  142.8897  153.1259 C   0  0  0  0  0  0  0  0  0  0  0  0
  147.5703  141.8108  153.2896 C   0  0  0  0  0  0  0  0  0  0  0  0
  147.6250  141.1105  154.5085 N   0  0  0  0  0  0  0  0  0  0  0  0
  148.5093  139.9348  154.5691 C   0  0  0  0  0  0  0  0  0  0  0  0
  149.9413  140.2725  155.0090 C   0  0  0  0  0  0  0  0  0  0  0  0
  150.9141  139.8277  154.3981 O   0  0  0  0  0  0  0  0  0  0  0  0
  150.0533  141.0819  156.0710 N   0  0  0  0  0  0  0  0  0  0  0  0
  151.3208  141.5181  156.6442 C   0  0  0  0  0  0  0  0  0  0  0  0
  151.7251  140.6498  157.8481 C   0  0  0  0  0  0  0  0  0  0  0  0
  152.2803  141.4462  159.0197 C   0  0  0  0  0  0  0  0  0  0  0  0
  152.0740  142.7721  159.1432 C   0  0  0  0  0  0  0  0  0  0  0  0
  152.5881  143.6115  160.2996 C   0  0  0  0  0  0  0  0  0  0  0  0
  153.0656  142.7508  161.4812 C   0  0  0  0  0  0  0  0  0  0  0  0
  153.8943  141.5553  160.9960 C   0  0  0  0  0  0  0  0  0  0  0  0
  153.0796  140.6557  160.0493 C   0  0  0  0  0  0  0  0  0  0  0  0
  146.8832  141.4892  155.5925 C   0  0  0  0  0  0  0  0  0  0  0  0
  146.9233  140.8771  156.6604 O   0  0  0  0  0  0  0  0  0  0  0  0
  146.0343  142.6712  155.4027 C   0  0  0  0  0  0  0  0  0  0  0  0
  145.1405  144.9766  153.0831 H   0  0  0  0  0  0  0  0  0  0  0  0
  145.3809  145.3387  154.7956 H   0  0  0  0  0  0  0  0  0  0  0  0
  144.0462  144.2937  154.2893 H   0  0  0  0  0  0  0  0  0  0  0  0
  146.7655  143.4035  152.1762 H   0  0  0  0  0  0  0  0  0  0  0  0
  148.1926  141.4128  152.5014 H   0  0  0  0  0  0  0  0  0  0  0  0
  148.1081  139.1919  155.2599 H   0  0  0  0  0  0  0  0  0  0  0  0
  148.5380  139.4354  153.5989 H   0  0  0  0  0  0  0  0  0  0  0  0
  149.2090  141.4082  156.5186 H   0  0  0  0  0  0  0  0  0  0  0  0
  152.0939  141.4799  155.8753 H   0  0  0  0  0  0  0  0  0  0  0  0
  151.2399  142.5602  156.9569 H   0  0  0  0  0  0  0  0  0  0  0  0
  150.8637  140.0777  158.1937 H   0  0  0  0  0  0  0  0  0  0  0  0
  152.4655  139.9158  157.5268 H   0  0  0  0  0  0  0  0  0  0  0  0
  151.5177  143.3026  158.3842 H   0  0  0  0  0  0  0  0  0  0  0  0
  153.4063  144.2295  159.9288 H   0  0  0  0  0  0  0  0  0  0  0  0
  151.8016  144.2906  160.6297 H   0  0  0  0  0  0  0  0  0  0  0  0
  153.6455  143.3594  162.1757 H   0  0  0  0  0  0  0  0  0  0  0  0
  152.2018  142.3847  162.0377 H   0  0  0  0  0  0  0  0  0  0  0  0
  154.7806  141.9218  160.4766 H   0  0  0  0  0  0  0  0  0  0  0  0
  154.2537  140.9728  161.8447 H   0  0  0  0  0  0  0  0  0  0  0  0
  152.3819  140.0498  160.6282 H   0  0  0  0  0  0  0  0  0  0  0  0
  153.7503  139.9639  159.5387 H   0  0  0  0  0  0  0  0  0  0  0  0
  145.4313  143.0079  156.2335 H   0  0  0  0  0  0  0  0  0  0  0  0
  1  2  1  0  0  0  0
  1 21  1  0  0  0  0
  1 22  1  0  0  0  0
  1 23  1  0  0  0  0
  2 20  2  0  0  0  0
  2  3  1  0  0  0  0
  3  4  2  0  0  0  0
  3 24  1  0  0  0  0
  4  5  1  0  0  0  0
  4 25  1  0  0  0  0
  5  6  1  0  0  0  0
  5 18  1  0  0  0  0
  6  7  1  0  0  0  0
  6 26  1  0  0  0  0
  6 27  1  0  0  0  0
  7  8  2  0  0  0  0
  7  9  1  0  0  0  0
  9 10  1  0  0  0  0
  9 28  1  0  0  0  0
 10 11  1  0  0  0  0
 10 29  1  0  0  0  0
 10 30  1  0  0  0  0
 11 12  1  0  0  0  0
 11 31  1  0  0  0  0
 11 32  1  0  0  0  0
 12 17  1  0  0  0  0
 12 13  2  0  0  0  0
 13 14  1  0  0  0  0
 13 33  1  0  0  0  0
 14 15  1  0  0  0  0
 14 34  1  0  0  0  0
 14 35  1  0  0  0  0
 15 16  1  0  0  0  0
 15 36  1  0  0  0  0
 15 37  1  0  0  0  0
 16 17  1  0  0  0  0
 16 38  1  0  0  0  0
 16 39  1  0  0  0  0
 17 40  1  0  0  0  0
 17 41  1  0  0  0  0
 18 19  2  0  0  0  0
 18 20  1  0  0  0  0
 20 42  1  0  0  0  0
M  END
> <s_m_source_file>
AV-unprocessed.smi

> <i_m_source_file_index>
1004

> <i_lp_mmshare_version>
43012

> <i_f3d_flags>
0

> <s_epik_input>
W0NIM11jMVtjSF1bY0hdbihjKD1PKVtjSF0xKVtDSDJdQyg9TylbTkhdW0NIMl1bQ0gyXUMyPVtDSF1bQ0gyXVtDSDJdW0NIMl1bQ0gyXTI=

> <s_epik_cmdline>
J2VwaWtfcHl0aG9uJywgJy1waCcsICc3LjAnLCAnLXRuJywgJzgnLCAnLW1hJywgJzIwMCcsICctbWV0YWxfYmluZGluZycsICctaW1hZScsICc8aW5maWxlLm1hZT4nLCAnLW9tYWUnLCAnPG91dGZpbGUubWFlPic=

> <r_lp_tautomer_probability>
1

> <r_epik_Ionization_Penalty>
5.31482e-07

> <r_epik_Ionization_Penalty_Charging>
5.13379e-07

> <r_epik_Ionization_Penalty_Neutral>
1.81035e-08

> <r_epik_State_Penalty>
-0

> <r_epik_Charging_Adjusted_Penalty>
5.13379e-07

> <i_epik_Tot_Q>
0

> <i_epik_Tot_abs_Q>
0

> <r_epik_Metal_State_Penalty>
-0

> <b_epik_Metal_Only>
0

> <s_lp_Force_Field>
OPLS_2005

> <r_lp_Energy>
18.1417

> <b_lp_Chiralities_Consistent>
1

> <s_lp_Variant>
AV-unprocessed.smi:1004-1

> <Gold.Version>
5.8.1

> <Gold.Id.Protein>
6NUR|6NUR_protein|mol2

> <Gold.PLP.Fitness>
44.9381

> <Gold.PLP.PLP>
-41.3997

> <Gold.PLP.part.hbond>
-1.0000

> <Gold.PLP.part.metal>
0.0000

> <Gold.PLP.part.buried>
-7.5594

> <Gold.PLP.part.nonpolar>
-32.3268

> <Gold.PLP.part.repulsive>
0.1886

> <Gold.PLP.ligand.clash>
0.0000

> <Gold.PLP.ligand.torsion>
1.2435

> <Gold.PLP.Chemscore.Hbond>
1.0000

> <Gold.PLP.Chemscore.CHOScore>
1.0000

> <Gold.PLP.Chemscore.Metal>
0.0000

> <Gold.Chemscore.Hbonds>
donor molecule, donor type, donor heavy atom, donor atom, acceptor molecule, acceptor atom, score
      P1  H  7989  7998       L1     8  1.00
      L1  C     4    25       P1  7957  1.00

> <Gold.PLP.Chemscore.Internal.Correction>
0.0254

> <Gold.Rescore>
     Score         DG    S(hbond)    S(metal)    S(lipo)     H(rot)  DE(clash)    DE(int)     intcor
     16.05     -17.28       0.97        0.00     108.98       1.63       0.02       1.21       ----

> <Gold.Chemscore.Fitness>
16.0521

> <Gold.Chemscore.DG>
-17.2843

> <Gold.Chemscore.ZeroCoef>
-5.4800

> <Gold.Chemscore.Hbond>
0.9670

> <Gold.Chemscore.Metal>
0.0000

> <Gold.Chemscore.Lipo>
108.9763

> <Gold.Chemscore.Internal_Hbond>
0.0000

> <Gold.Chemscore.DEClash>
0.0176

> <Gold.Chemscore.DEInternal>
1.2145

> <Gold.Chemscore.Rot>
1.6311

> <Gold.Chemscore.Internal.Correction>
   9.000000E+99

> <Gold.Chemscore.Hbonds>
donor molecule, donor type, donor heavy atom, donor atom, acceptor molecule, acceptor atom, score
      P1  H  7989  7998       L1     8  0.86

> <Gold.Chemscore.Hbond.Weighted>
-3.2298

> <Gold.Chemscore.Metal.Weighted>
-0.0000

> <Gold.Chemscore.Lipo.Weighted>
-12.7502

> <Gold.Chemscore.Internal_Hbond.Weighted>
0.0000

> <Gold.Chemscore.DEClash.Weighted>
0.0176

> <Gold.Chemscore.DEInternal.Weighted>
1.2145

> <Gold.Chemscore.Rot.Weighted>
4.1757

> <Gold.Chemscore.Internal.Correction.Weighted>
   9.000000E+99

> <Gold.Protein.RotatedTorsions>
[ 6907 6896 6895 6894 ] final   57.49 input  -60.11 | X-H torsion
[ 7974 7965 7964 7962 ] final  155.00 input  175.53 | X-H torsion
[ 8008 7997 7996 7995 ] final -146.15 input   59.86 | X-H torsion
[ 10167 10162 10161 10158 ] final  -88.54 input  -65.29 | X-H torsion
[ 10718 10713 10712 10709 ] final   -0.07 input   66.30 | X-H torsion
[ 10763 10752 10751 10750 ] final  128.06 input  -60.55 | X-H torsion
[ 11005 11000 10999 10996 ] final  -31.17 input  -57.11 | X-H torsion

> <Gold.Protein.ActiveResidues>
 VAL166  LYS551  ARG553  GLY616  TRP617  ASP618  TYR619  PRO620  LYS621  CYS622 
 ASP623  PHE694  ASN695  SER759  ASP760  ASP761  ALA762  ILE779  LEU786  VAL792 
 PHE793  MET794  SER795  GLU796  ALA797  LYS798  CYS799  TRP800  GLU811  SER814 

> <Gold.Protein.RotatedAtoms>
  152.3736  134.6696  160.0167 H   0  0  0  0  0  0  0  0  0  0  0  0  # atno 6907 bound_to 6896
  151.6982  133.3305  159.3268 H   0  0  0  0  0  0  0  0  0  0  0  0  # atno 6908 bound_to 6896
  150.7692  134.6574  159.6366 H   0  0  0  0  0  0  0  0  0  0  0  0  # atno 6909 bound_to 6896
  144.8052  139.7009  143.6165 H   0  0  0  0  0  0  0  0  0  0  0  0  # atno 7974 bound_to 7965
  155.5547  140.0620  157.2842 H   0  0  0  0  0  0  0  0  0  0  0  0  # atno 8008 bound_to 7997
  154.4409  140.1896  156.0767 H   0  0  0  0  0  0  0  0  0  0  0  0  # atno 8009 bound_to 7997
  156.0491  140.3286  155.7334 H   0  0  0  0  0  0  0  0  0  0  0  0  # atno 8010 bound_to 7997
  140.3737  143.2782  151.9469 H   0  0  0  0  0  0  0  0  0  0  0  0  # atno 10167 bound_to 10162
  156.8259  130.5472  149.5692 H   0  0  0  0  0  0  0  0  0  0  0  0  # atno 10718 bound_to 10713
  153.7194  135.3256  155.3263 H   0  0  0  0  0  0  0  0  0  0  0  0  # atno 10763 bound_to 10752
  154.8360  135.4496  154.1233 H   0  0  0  0  0  0  0  0  0  0  0  0  # atno 10764 bound_to 10752
  153.2349  135.6964  153.7928 H   0  0  0  0  0  0  0  0  0  0  0  0  # atno 10765 bound_to 10752
  140.9445  133.7258  156.1126 H   0  0  0  0  0  0  0  0  0  0  0  0  # atno 11005 bound_to 11000
  146.2342  139.5873  142.9535 LP  0  0  0  0  0  0  0  0  0  0  0  0  # atno 17320 bound_to 7965
  145.5455  141.0417  143.2307 LP  0  0  0  0  0  0  0  0  0  0  0  0  # atno 17321 bound_to 7965
  139.4801  144.5883  151.7815 LP  0  0  0  0  0  0  0  0  0  0  0  0  # atno 17342 bound_to 10162
  140.5007  144.1172  150.5970 LP  0  0  0  0  0  0  0  0  0  0  0  0  # atno 17343 bound_to 10162
  156.0962  130.5934  150.9817 LP  0  0  0  0  0  0  0  0  0  0  0  0  # atno 17370 bound_to 10713
  157.6432  131.0907  150.8207 LP  0  0  0  0  0  0  0  0  0  0  0  0  # atno 17371 bound_to 10713
  140.7688  134.3856  157.5512 LP  0  0  0  0  0  0  0  0  0  0  0  0  # atno 17394 bound_to 11000
  139.8829  134.9009  156.2798 LP  0  0  0  0  0  0  0  0  0  0  0  0  # atno 17395 bound_to 11000

$$$$
