AV-unprocessed.smi:299|AV-procd|sdf|2268|dock5
  -GOLD-   2262022163D 1   1.00000     0.00000
 Structure written by MMmdl.
 42 43  0  0  0  0  0  0  0  0  2 V2000
  152.9883  141.0352  159.1583 C   0  0  0  0  0  0  0  0  0  0  0  0
  152.1653  142.2939  159.5043 C   0  0  1  0  0  0  0  0  0  0  0  0
  152.9539  143.1238  160.5422 C   0  0  0  0  0  0  0  0  0  0  0  0
  152.2049  144.3928  160.9541 C   0  0  0  0  0  0  0  0  0  0  0  0
  151.8773  145.2125  159.7067 C   0  0  0  0  0  0  0  0  0  0  0  0
  151.0876  144.3683  158.6967 C   0  0  0  0  0  0  0  0  0  0  0  0
  151.8203  143.1283  158.3052 N   0  3  2  0  0  0  0  0  0  0  0  0
  151.1044  142.3805  157.2305 C   0  0  0  0  0  0  0  0  0  0  0  0
  149.7351  141.8261  157.6764 C   0  0  0  0  0  0  0  0  0  0  0  0
  148.9488  141.1470  156.5383 C   0  0  0  0  0  0  0  0  0  0  0  0
  149.5896  139.9275  156.0552 N   0  0  0  0  0  0  0  0  0  0  0  0
  150.0733  139.7463  154.8158 C   0  0  0  0  0  0  0  0  0  0  0  0
  150.0005  140.5967  153.9296 O   0  0  0  0  0  0  0  0  0  0  0  0
  150.7338  138.3974  154.5271 C   0  0  0  0  0  0  0  0  0  0  0  0
  152.1792  138.4890  154.6147 N   0  0  0  0  0  0  0  0  0  0  0  0
  153.0320  139.3924  154.1269 C   0  0  0  0  0  0  0  0  0  0  0  0
  154.2863  139.0947  154.4298 N   0  0  0  0  0  0  0  0  0  0  0  0
  154.1644  137.9215  155.1558 N   0  0  0  0  0  0  0  0  0  0  0  0
  152.9167  137.5575  155.2693 N   0  0  0  0  0  0  0  0  0  0  0  0
  153.3684  140.5584  160.0624 H   0  0  0  0  0  0  0  0  0  0  0  0
  153.8469  141.2793  158.5319 H   0  0  0  0  0  0  0  0  0  0  0  0
  152.3955  140.2760  158.6494 H   0  0  0  0  0  0  0  0  0  0  0  0
  151.2314  141.9696  159.9669 H   0  0  0  0  0  0  0  0  0  0  0  0
  153.1517  142.5230  161.4308 H   0  0  0  0  0  0  0  0  0  0  0  0
  153.9285  143.3953  160.1331 H   0  0  0  0  0  0  0  0  0  0  0  0
  151.2870  144.1304  161.4816 H   0  0  0  0  0  0  0  0  0  0  0  0
  152.8085  144.9810  161.6459 H   0  0  0  0  0  0  0  0  0  0  0  0
  151.3020  146.0963  159.9842 H   0  0  0  0  0  0  0  0  0  0  0  0
  152.7983  145.5735  159.2467 H   0  0  0  0  0  0  0  0  0  0  0  0
  150.1159  144.0996  159.1140 H   0  0  0  0  0  0  0  0  0  0  0  0
  150.8922  144.9954  157.8291 H   0  0  0  0  0  0  0  0  0  0  0  0
  150.8988  143.0319  156.3851 H   0  0  0  0  0  0  0  0  0  0  0  0
  151.7450  141.5811  156.8554 H   0  0  0  0  0  0  0  0  0  0  0  0
  149.8508  141.1106  158.4890 H   0  0  0  0  0  0  0  0  0  0  0  0
  149.1308  142.6417  158.0754 H   0  0  0  0  0  0  0  0  0  0  0  0
  147.9335  140.9200  156.8674 H   0  0  0  0  0  0  0  0  0  0  0  0
  148.8500  141.8326  155.6965 H   0  0  0  0  0  0  0  0  0  0  0  0
  149.6966  139.1754  156.7205 H   0  0  0  0  0  0  0  0  0  0  0  0
  150.3817  137.6504  155.2398 H   0  0  0  0  0  0  0  0  0  0  0  0
  150.4581  138.0474  153.5310 H   0  0  0  0  0  0  0  0  0  0  0  0
  152.7368  140.2580  153.5526 H   0  0  0  0  0  0  0  0  0  0  0  0
  152.7009  143.4241  157.9086 H   0  0  0  0  0  0  0  0  0  0  0  0
  1  2  1  0  0  0  0
  1 20  1  0  0  0  0
  1 21  1  0  0  0  0
  1 22  1  0  0  0  0
  2  7  1  0  0  0  0
  2  3  1  0  0  0  0
  2 23  1  0  0  0  0
  3  4  1  0  0  0  0
  3 24  1  0  0  0  0
  3 25  1  0  0  0  0
  4  5  1  0  0  0  0
  4 26  1  0  0  0  0
  4 27  1  0  0  0  0
  5  6  1  0  0  0  0
  5 28  1  0  0  0  0
  5 29  1  0  0  0  0
  6  7  1  0  0  0  0
  6 30  1  0  0  0  0
  6 31  1  0  0  0  0
  7  8  1  0  0  0  0
  7 42  1  0  0  0  0
  8  9  1  0  0  0  0
  8 32  1  0  0  0  0
  8 33  1  0  0  0  0
  9 10  1  0  0  0  0
  9 34  1  0  0  0  0
  9 35  1  0  0  0  0
 10 11  1  0  0  0  0
 10 36  1  0  0  0  0
 10 37  1  0  0  0  0
 11 12  1  0  0  0  0
 11 38  1  0  0  0  0
 12 13  2  0  0  0  0
 12 14  1  0  0  0  0
 14 15  1  0  0  0  0
 14 39  1  0  0  0  0
 14 40  1  0  0  0  0
 15 19  1  0  0  0  0
 15 16  1  0  0  0  0
 16 17  2  0  0  0  0
 16 41  1  0  0  0  0
 17 18  1  0  0  0  0
 18 19  2  0  0  0  0
M  CHG  1   7   1
M  END
> <s_m_source_file>
AV-unprocessed.smi

> <i_m_source_file_index>
299

> <i_lp_mmshare_version>
43012

> <i_f3d_flags>
0

> <s_epik_input>
W0NIM11bQ0BASF0xW0NIMl1bQ0gyXVtDSDJdW0NIMl1OMVtDSDJdW0NIMl1bQ0gyXVtOSF1DKD1PKVtDSDJdbjJbY0hdbm5uMg==

> <s_epik_cmdline>
J2VwaWtfcHl0aG9uJywgJy1waCcsICc3LjAnLCAnLXRuJywgJzgnLCAnLW1hJywgJzIwMCcsICctbWV0YWxfYmluZGluZycsICctaW1hZScsICc8aW5maWxlLm1hZT4nLCAnLW9tYWUnLCAnPG91dGZpbGUubWFlPic=

> <r_lp_tautomer_probability>
1

> <r_epik_Ionization_Penalty>
0.000544863

> <r_epik_Ionization_Penalty_Charging>
0.000543475

> <r_epik_Ionization_Penalty_Neutral>
1.38784e-06

> <r_epik_State_Penalty>
0.000340025

> <r_epik_Charging_Adjusted_Penalty>
0.0008835

> <i_epik_Tot_Q>
1

> <i_epik_Tot_abs_Q>
1

> <r_epik_Metal_State_Penalty>
-0

> <b_epik_Metal_Only>
0

> <s_lp_Force_Field>
OPLS_2005

> <r_lp_Energy>
25.9803

> <b_lp_Chiralities_Consistent>
1

> <s_lp_Variant>
AV-unprocessed.smi:299-4

> <Gold.Version>
5.8.1

> <Gold.Id.Protein>
6NUR|6NUR_protein|mol2

> <Gold.PLP.Fitness>
45.2930

> <Gold.PLP.PLP>
-41.0471

> <Gold.PLP.part.hbond>
-4.2711

> <Gold.PLP.part.metal>
0.0000

> <Gold.PLP.part.buried>
-7.3879

> <Gold.PLP.part.nonpolar>
-31.3338

> <Gold.PLP.part.repulsive>
1.2940

> <Gold.PLP.ligand.clash>
0.0000

> <Gold.PLP.ligand.torsion>
0.5059

> <Gold.PLP.Chemscore.Hbond>
1.7353

> <Gold.PLP.Chemscore.CHOScore>
0.0000

> <Gold.PLP.Chemscore.Metal>
0.0000

> <Gold.Chemscore.Hbonds>
donor molecule, donor type, donor heavy atom, donor atom, acceptor molecule, acceptor atom, score
      P1  H  7989  7998       L1    13  0.64
      P1  H  7997  8008       L1    17  0.99
      P1  H  8011  8017       L1    13  0.02
      P1  H 10752 10765       L1    19  0.38

> <Gold.PLP.Chemscore.Internal.Correction>
0.0519

> <Gold.Rescore>
     Score         DG    S(hbond)    S(metal)    S(lipo)     H(rot)  DE(clash)    DE(int)     intcor
     11.20     -12.00       0.98        0.00      92.61       2.97       0.20       0.60       ----

> <Gold.Chemscore.Fitness>
11.2009

> <Gold.Chemscore.DG>
-12.0033

> <Gold.Chemscore.ZeroCoef>
-5.4800

> <Gold.Chemscore.Hbond>
0.9838

> <Gold.Chemscore.Metal>
0.0000

> <Gold.Chemscore.Lipo>
92.6087

> <Gold.Chemscore.Internal_Hbond>
0.0000

> <Gold.Chemscore.DEClash>
0.1994

> <Gold.Chemscore.DEInternal>
0.6030

> <Gold.Chemscore.Rot>
2.9680

> <Gold.Chemscore.Internal.Correction>
   9.000000E+99

> <Gold.Chemscore.Hbonds>
donor molecule, donor type, donor heavy atom, donor atom, acceptor molecule, acceptor atom, score
      P1  H  7989  7998       L1    13  0.32
      P1  H  7997  8008       L1    17  0.26
      P1  H  8011  8017       L1    13  0.07
      P1  H 10752 10765       L1    19  0.10

> <Gold.Chemscore.Hbond.Weighted>
-3.2861

> <Gold.Chemscore.Metal.Weighted>
-0.0000

> <Gold.Chemscore.Lipo.Weighted>
-10.8352

> <Gold.Chemscore.Internal_Hbond.Weighted>
0.0000

> <Gold.Chemscore.DEClash.Weighted>
0.1994

> <Gold.Chemscore.DEInternal.Weighted>
0.6030

> <Gold.Chemscore.Rot.Weighted>
7.5980

> <Gold.Chemscore.Internal.Correction.Weighted>
   9.000000E+99

> <Gold.Protein.RotatedTorsions>
[ 6907 6896 6895 6894 ] final -105.54 input  -60.11 | X-H torsion
[ 7974 7965 7964 7962 ] final -124.41 input  175.53 | X-H torsion
[ 8008 7997 7996 7995 ] final   11.41 input   59.86 | X-H torsion
[ 10167 10162 10161 10158 ] final  -22.11 input  -65.29 | X-H torsion
[ 10718 10713 10712 10709 ] final  -65.70 input   66.30 | X-H torsion
[ 10763 10752 10751 10750 ] final -175.46 input  -60.55 | X-H torsion
[ 11005 11000 10999 10996 ] final  -50.12 input  -57.11 | X-H torsion

> <Gold.Protein.ActiveResidues>
 VAL166  LYS551  ARG553  GLY616  TRP617  ASP618  TYR619  PRO620  LYS621  CYS622 
 ASP623  PHE694  ASN695  SER759  ASP760  ASP761  ALA762  ILE779  LEU786  VAL792 
 PHE793  MET794  SER795  GLU796  ALA797  LYS798  CYS799  TRP800  GLU811  SER814 

> <Gold.Protein.RotatedAtoms>
  150.7342  134.0111  159.3669 H   0  0  0  0  0  0  0  0  0  0  0  0  # atno 6907 bound_to 6896
  151.8071  135.0689  160.0417 H   0  0  0  0  0  0  0  0  0  0  0  0  # atno 6908 bound_to 6896
  152.3099  133.5706  159.5710 H   0  0  0  0  0  0  0  0  0  0  0  0  # atno 6909 bound_to 6896
  145.0083  140.7883  143.4454 H   0  0  0  0  0  0  0  0  0  0  0  0  # atno 7974 bound_to 7965
  154.8065  140.2861  155.5884 H   0  0  0  0  0  0  0  0  0  0  0  0  # atno 8008 bound_to 7997
  156.2983  140.2576  156.2874 H   0  0  0  0  0  0  0  0  0  0  0  0  # atno 8009 bound_to 7997
  154.9497  140.0379  157.2127 H   0  0  0  0  0  0  0  0  0  0  0  0  # atno 8010 bound_to 7997
  140.7285  143.4565  151.0441 H   0  0  0  0  0  0  0  0  0  0  0  0  # atno 10167 bound_to 10162
  156.0654  130.4251  150.1601 H   0  0  0  0  0  0  0  0  0  0  0  0  # atno 10718 bound_to 10713
  154.5841  135.2839  155.0703 H   0  0  0  0  0  0  0  0  0  0  0  0  # atno 10763 bound_to 10752
  154.2028  135.6421  153.5096 H   0  0  0  0  0  0  0  0  0  0  0  0  # atno 10764 bound_to 10752
  153.0098  135.5473  154.6505 H   0  0  0  0  0  0  0  0  0  0  0  0  # atno 10765 bound_to 10752
  141.0798  133.6656  156.3685 H   0  0  0  0  0  0  0  0  0  0  0  0  # atno 11005 bound_to 11000
  145.2058  139.2229  143.5169 LP  0  0  0  0  0  0  0  0  0  0  0  0  # atno 17320 bound_to 7965
  146.3465  140.1885  142.8589 LP  0  0  0  0  0  0  0  0  0  0  0  0  # atno 17321 bound_to 7965
  139.8246  143.7774  152.3178 LP  0  0  0  0  0  0  0  0  0  0  0  0  # atno 17342 bound_to 10162
  139.7868  144.7425  151.0011 LP  0  0  0  0  0  0  0  0  0  0  0  0  # atno 17343 bound_to 10162
  156.9662  130.9820  151.3468 LP  0  0  0  0  0  0  0  0  0  0  0  0  # atno 17370 bound_to 10713
  157.5693  130.8299  149.8369 LP  0  0  0  0  0  0  0  0  0  0  0  0  # atno 17371 bound_to 10713
  140.5493  134.6043  157.5403 LP  0  0  0  0  0  0  0  0  0  0  0  0  # atno 17394 bound_to 11000
  139.9612  134.7450  156.0234 LP  0  0  0  0  0  0  0  0  0  0  0  0  # atno 17395 bound_to 11000

$$$$
