AV-unprocessed.smi:1762|AV-procd|sdf|7125|dock10
  -GOLD-   22720 8363D 1   1.00000     0.00000
 Structure written by MMmdl.
 52 53  0  0  0  0  0  0  0  0  3 V2000
  151.5172  144.9078  158.5306 C   0  0  0  0  0  0  0  0  0  0  0  0
  152.3028  143.6213  158.8087 C   0  0  2  0  0  0  0  0  0  0  0  0
  151.5271  142.3637  158.3808 C   0  0  0  0  0  0  0  0  0  0  0  0
  152.2836  141.1207  158.7116 N   0  3  2  0  0  0  0  0  0  0  0  0
  151.5960  139.8694  158.2426 C   0  0  1  0  0  0  0  0  0  0  0  0
  151.4476  139.8679  156.7014 C   0  0  0  0  0  0  0  0  0  0  0  0
  152.4717  139.8455  156.0098 O   0  0  0  0  0  0  0  0  0  0  0  0
  150.1391  139.9346  156.3292 N   0  5  0  0  0  0  0  0  0  0  0  0
  149.6876  140.0064  154.9407 C   0  0  0  0  0  0  0  0  0  0  0  0
  148.9831  141.3576  154.6764 C   0  0  0  0  0  0  0  0  0  0  0  0
  147.5428  141.4217  155.1737 C   0  0  0  0  0  0  0  0  0  0  0  0
  146.6172  142.3111  154.5817 C   0  0  0  0  0  0  0  0  0  0  0  0
  145.2949  142.3298  155.0653 C   0  0  0  0  0  0  0  0  0  0  0  0
  144.9437  141.4601  156.1152 C   0  0  0  0  0  0  0  0  0  0  0  0
  145.9343  140.6040  156.6352 C   0  0  0  0  0  0  0  0  0  0  0  0
  147.2046  140.5766  156.1783 N   0  0  0  0  0  0  0  0  0  0  0  0
  152.2475  138.5376  158.7507 C   0  0  0  0  0  0  0  0  0  0  0  0
  153.6990  138.3124  158.2777 C   0  0  0  0  0  0  0  0  0  0  0  0
  151.3923  137.2931  158.4420 C   0  0  0  0  0  0  0  0  0  0  0  0
  152.6325  141.1359  160.1595 C   0  0  0  0  0  0  0  0  0  0  0  0
  153.3648  142.4356  160.5457 C   0  0  2  0  0  0  0  0  0  0  0  0
  153.6595  142.5078  162.0480 C   0  0  0  0  0  0  0  0  0  0  0  0
  152.5558  143.5525  160.2046 O   0  0  0  0  0  0  0  0  0  0  0  0
  151.3069  145.0167  157.4663 H   0  0  0  0  0  0  0  0  0  0  0  0
  152.0812  145.7850  158.8488 H   0  0  0  0  0  0  0  0  0  0  0  0
  150.5651  144.9131  159.0620 H   0  0  0  0  0  0  0  0  0  0  0  0
  153.2506  143.6719  158.2696 H   0  0  0  0  0  0  0  0  0  0  0  0
  150.5539  142.3361  158.8741 H   0  0  0  0  0  0  0  0  0  0  0  0
  151.3337  142.4383  157.3110 H   0  0  0  0  0  0  0  0  0  0  0  0
  150.6015  139.9049  158.6950 H   0  0  0  0  0  0  0  0  0  0  0  0
  150.5093  139.8799  154.2345 H   0  0  0  0  0  0  0  0  0  0  0  0
  148.9897  139.1979  154.7218 H   0  0  0  0  0  0  0  0  0  0  0  0
  149.5470  142.1645  155.1471 H   0  0  0  0  0  0  0  0  0  0  0  0
  148.9870  141.5749  153.6069 H   0  0  0  0  0  0  0  0  0  0  0  0
  146.9158  142.9674  153.7773 H   0  0  0  0  0  0  0  0  0  0  0  0
  144.5633  142.9997  154.6383 H   0  0  0  0  0  0  0  0  0  0  0  0
  143.9396  141.4485  156.5117 H   0  0  0  0  0  0  0  0  0  0  0  0
  145.6999  139.9214  157.4386 H   0  0  0  0  0  0  0  0  0  0  0  0
  152.2673  138.5773  159.8390 H   0  0  0  0  0  0  0  0  0  0  0  0
  153.7487  138.1054  157.2087 H   0  0  0  0  0  0  0  0  0  0  0  0
  154.1422  137.4576  158.7890 H   0  0  0  0  0  0  0  0  0  0  0  0
  154.3351  139.1741  158.4770 H   0  0  0  0  0  0  0  0  0  0  0  0
  151.3531  137.0778  157.3737 H   0  0  0  0  0  0  0  0  0  0  0  0
  150.3681  137.4226  158.7931 H   0  0  0  0  0  0  0  0  0  0  0  0
  151.7974  136.4092  158.9356 H   0  0  0  0  0  0  0  0  0  0  0  0
  151.7232  141.0209  160.7515 H   0  0  0  0  0  0  0  0  0  0  0  0
  153.2910  140.3079  160.4146 H   0  0  0  0  0  0  0  0  0  0  0  0
  154.3111  142.4980  160.0051 H   0  0  0  0  0  0  0  0  0  0  0  0
  154.2959  141.6812  162.3647 H   0  0  0  0  0  0  0  0  0  0  0  0
  152.7404  142.4661  162.6332 H   0  0  0  0  0  0  0  0  0  0  0  0
  154.1719  143.4365  162.2995 H   0  0  0  0  0  0  0  0  0  0  0  0
  153.1541  141.1660  158.2014 H   0  0  0  0  0  0  0  0  0  0  0  0
  1  2  1  0  0  0  0
  1 24  1  0  0  0  0
  1 25  1  0  0  0  0
  1 26  1  0  0  0  0
  2 23  1  0  0  0  0
  2  3  1  0  0  0  0
  2 27  1  0  0  0  0
  3  4  1  0  0  0  0
  3 28  1  0  0  0  0
  3 29  1  0  0  0  0
  4  5  1  0  0  0  0
  4 20  1  0  0  0  0
  4 52  1  0  0  0  0
  5  6  1  0  0  0  0
  5 17  1  0  0  0  0
  5 30  1  0  0  0  0
  6  7  2  0  0  0  0
  6  8  1  0  0  0  0
  8  9  1  0  0  0  0
  9 10  1  0  0  0  0
  9 31  1  0  0  0  0
  9 32  1  0  0  0  0
 10 11  1  0  0  0  0
 10 33  1  0  0  0  0
 10 34  1  0  0  0  0
 11 16  1  0  0  0  0
 11 12  2  0  0  0  0
 12 13  1  0  0  0  0
 12 35  1  0  0  0  0
 13 14  2  0  0  0  0
 13 36  1  0  0  0  0
 14 15  1  0  0  0  0
 14 37  1  0  0  0  0
 15 16  2  0  0  0  0
 15 38  1  0  0  0  0
 17 18  1  0  0  0  0
 17 19  1  0  0  0  0
 17 39  1  0  0  0  0
 18 40  1  0  0  0  0
 18 41  1  0  0  0  0
 18 42  1  0  0  0  0
 19 43  1  0  0  0  0
 19 44  1  0  0  0  0
 19 45  1  0  0  0  0
 20 21  1  0  0  0  0
 20 46  1  0  0  0  0
 20 47  1  0  0  0  0
 21 22  1  0  0  0  0
 21 23  1  0  0  0  0
 21 48  1  0  0  0  0
 22 49  1  0  0  0  0
 22 50  1  0  0  0  0
 22 51  1  0  0  0  0
M  CHG  1   4   1
M  CHG  1   8  -1
M  END
> <s_m_source_file>
AV-unprocessed.smi

> <i_m_source_file_index>
1762

> <i_lp_mmshare_version>
43012

> <i_f3d_flags>
0

> <s_epik_input>
W0NIM11bQ0BASF0xW0NIMl1OKFtDSDJdW0NASF0oTzEpW0NIM10pW0NAQEhdKFtDSF0oW0NIM10pW0NIM10pQyg9TylbTkhdW0NIMl1bQ0gyXWMyW2NIXVtjSF1bY0hdW2NIXW4y

> <s_epik_cmdline>
J2VwaWtfcHl0aG9uJywgJy1waCcsICc3LjAnLCAnLXRuJywgJzgnLCAnLW1hJywgJzIwMCcsICctbWV0YWxfYmluZGluZycsICctaW1hZScsICc8aW5maWxlLm1hZT4nLCAnLW9tYWUnLCAnPG91dGZpbGUubWFlPic=

> <r_epik_Ionization_Penalty>
7.82966

> <r_epik_Ionization_Penalty_Charging>
7.7461

> <r_epik_Ionization_Penalty_Neutral>
0.0835571

> <r_epik_State_Penalty>
8.52273

> <r_epik_Charging_Adjusted_Penalty>
16.2688

> <i_epik_Tot_Q>
0

> <i_epik_Tot_abs_Q>
2

> <r_epik_Metal_State_Penalty>
4.47451

> <b_epik_Metal_Only>
1

> <s_lp_Force_Field>
OPLS_2005

> <r_lp_Energy>
21.2393

> <b_lp_Chiralities_Consistent>
1

> <s_lp_Variant>
AV-unprocessed.smi:1762-27

> <Gold.Version>
5.8.1

> <Gold.Id.Protein>
6NUR|6NUR_protein|mol2

> <Gold.PLP.Fitness>
47.5803

> <Gold.PLP.PLP>
-45.5015

> <Gold.PLP.part.hbond>
-1.0000

> <Gold.PLP.part.metal>
0.0000

> <Gold.PLP.part.buried>
-4.7460

> <Gold.PLP.part.nonpolar>
-38.0497

> <Gold.PLP.part.repulsive>
0.1750

> <Gold.PLP.ligand.clash>
0.0000

> <Gold.PLP.ligand.torsion>
0.6008

> <Gold.PLP.Chemscore.Hbond>
1.0000

> <Gold.PLP.Chemscore.CHOScore>
0.0000

> <Gold.PLP.Chemscore.Metal>
0.0000

> <Gold.Chemscore.Hbonds>
donor molecule, donor type, donor heavy atom, donor atom, acceptor molecule, acceptor atom, score
      P1  H  7997  8008       L1     7  1.00

> <Gold.PLP.Chemscore.Internal.Correction>
0.2803

> <Gold.Rescore>
     Score         DG    S(hbond)    S(metal)    S(lipo)     H(rot)  DE(clash)    DE(int)     intcor
     17.67     -18.95       1.00        0.00     121.67       1.60       0.04       1.25       ----

> <Gold.Chemscore.Fitness>
17.6651

> <Gold.Chemscore.DG>
-18.9541

> <Gold.Chemscore.ZeroCoef>
-5.4800

> <Gold.Chemscore.Hbond>
0.9992

> <Gold.Chemscore.Metal>
0.0000

> <Gold.Chemscore.Lipo>
121.6738

> <Gold.Chemscore.Internal_Hbond>
0.0000

> <Gold.Chemscore.DEClash>
0.0376

> <Gold.Chemscore.DEInternal>
1.2514

> <Gold.Chemscore.Rot>
1.6012

> <Gold.Chemscore.Internal.Correction>
   9.000000E+99

> <Gold.Chemscore.Hbonds>
donor molecule, donor type, donor heavy atom, donor atom, acceptor molecule, acceptor atom, score
      P1  H  7997  8008       L1     7  1.00

> <Gold.Chemscore.Hbond.Weighted>
-3.3372

> <Gold.Chemscore.Metal.Weighted>
-0.0000

> <Gold.Chemscore.Lipo.Weighted>
-14.2358

> <Gold.Chemscore.Internal_Hbond.Weighted>
0.0000

> <Gold.Chemscore.DEClash.Weighted>
0.0376

> <Gold.Chemscore.DEInternal.Weighted>
1.2514

> <Gold.Chemscore.Rot.Weighted>
4.0990

> <Gold.Chemscore.Internal.Correction.Weighted>
   9.000000E+99

> <Gold.Protein.RotatedTorsions>
[ 6907 6896 6895 6894 ] final   17.08 input  -60.11 | X-H torsion
[ 7974 7965 7964 7962 ] final  -69.75 input  175.53 | X-H torsion
[ 8008 7997 7996 7995 ] final  -36.15 input   59.86 | X-H torsion
[ 10167 10162 10161 10158 ] final  -12.11 input  -65.29 | X-H torsion
[ 10718 10713 10712 10709 ] final  105.91 input   66.30 | X-H torsion
[ 10763 10752 10751 10750 ] final -172.87 input  -60.55 | X-H torsion
[ 11005 11000 10999 10996 ] final -118.23 input  -57.11 | X-H torsion

> <Gold.Protein.ActiveResidues>
 VAL166  LYS551  ARG553  GLY616  TRP617  ASP618  TYR619  PRO620  LYS621  CYS622 
 ASP623  PHE694  ASN695  SER759  ASP760  ASP761  ALA762  ILE779  LEU786  VAL792 
 PHE793  MET794  SER795  GLU796  ALA797  LYS798  CYS799  TRP800  GLU811  SER814 

> <Gold.Protein.RotatedAtoms>
  151.8439  135.0581  160.0451 H   0  0  0  0  0  0  0  0  0  0  0  0  # atno 6907 bound_to 6896
  152.2788  133.5446  159.5493 H   0  0  0  0  0  0  0  0  0  0  0  0  # atno 6908 bound_to 6896
  150.7181  134.0510  159.3840 H   0  0  0  0  0  0  0  0  0  0  0  0  # atno 6909 bound_to 6896
  145.6998  140.9121  143.0737 H   0  0  0  0  0  0  0  0  0  0  0  0  # atno 7974 bound_to 7965
  154.4079  140.1638  156.2327 H   0  0  0  0  0  0  0  0  0  0  0  0  # atno 8008 bound_to 7997
  155.9269  140.3417  155.6195 H   0  0  0  0  0  0  0  0  0  0  0  0  # atno 8009 bound_to 7997
  155.7154  140.0762  157.2344 H   0  0  0  0  0  0  0  0  0  0  0  0  # atno 8010 bound_to 7997
  140.7154  143.5567  150.9241 H   0  0  0  0  0  0  0  0  0  0  0  0  # atno 10167 bound_to 10162
  157.6688  131.0839  150.5928 H   0  0  0  0  0  0  0  0  0  0  0  0  # atno 10718 bound_to 10713
  154.6143  135.2868  155.0397 H   0  0  0  0  0  0  0  0  0  0  0  0  # atno 10763 bound_to 10752
  154.1615  135.6487  153.4991 H   0  0  0  0  0  0  0  0  0  0  0  0  # atno 10764 bound_to 10752
  153.0208  135.5379  154.6909 H   0  0  0  0  0  0  0  0  0  0  0  0  # atno 10765 bound_to 10752
  141.0300  133.9995  157.3157 H   0  0  0  0  0  0  0  0  0  0  0  0  # atno 11005 bound_to 11000
  144.6972  139.8932  143.7454 LP  0  0  0  0  0  0  0  0  0  0  0  0  # atno 17320 bound_to 7965
  146.0808  139.3796  143.0466 LP  0  0  0  0  0  0  0  0  0  0  0  0  # atno 17321 bound_to 7965
  139.9292  143.6513  152.3080 LP  0  0  0  0  0  0  0  0  0  0  0  0  # atno 17342 bound_to 10162
  139.6958  144.7641  151.1359 LP  0  0  0  0  0  0  0  0  0  0  0  0  # atno 17343 bound_to 10162
  156.6229  130.4410  149.5815 LP  0  0  0  0  0  0  0  0  0  0  0  0  # atno 17370 bound_to 10713
  156.2342  130.6812  151.1493 LP  0  0  0  0  0  0  0  0  0  0  0  0  # atno 17371 bound_to 10713
  139.9202  135.0200  156.8034 LP  0  0  0  0  0  0  0  0  0  0  0  0  # atno 17394 bound_to 11000
  140.6423  133.9807  155.7713 LP  0  0  0  0  0  0  0  0  0  0  0  0  # atno 17395 bound_to 11000

$$$$
