#       Name:                AV-unprocessed.smi:1007
#       Creating user name   scv26
#       Creation time:       Fri Mar 27 02:33:18 2020


#       File generated by GOLD software.
#

@<TRIPOS>MOLECULE
AV-unprocessed.smi:1007
    62    64     1
SMALL
NO_CHARGES


@<TRIPOS>ATOM
      1 ****        -3.6322   2.4001   3.0938 C.3            1 S1                 0.0000
      2 ****        -3.9033   3.5878   2.3656 O.3            1 S1                 0.0000
      3 ****        -3.8157   3.4367   0.9559 C.3            1 S1                 0.0000
      4 ****        -2.3503   3.3907   0.4840 C.3            1 S1                 0.0000
      5 ****        -2.1693   3.4618  -0.9693 N.3            1 S1                 0.0000
      6 ****        -0.7722   3.6547  -1.3566 C.3            1 S1                 0.0000
      7 ****         0.1024   2.4035  -1.1332 C.3            1 S1                 0.0000
      8 ****        -0.4624   1.2376  -1.8649 N.4            1 S1                 1.0000
      9 ****         0.3514   0.0028  -1.7330 C.3            1 S1                 0.0000
     10 ****         1.6176   0.0260  -2.6182 C.3            1 S1                 0.0000
     11 ****         1.2253   0.0504  -3.9758 O.3            1 S1                 0.0000
     12 ****         2.5342  -1.1963  -2.4157 C.3            1 S1                 0.0000
     13 ****         3.0183  -1.3067  -1.0518 N.pl3          1 S1                 0.0000
     14 ****         4.0427  -0.6283  -0.4999 C.2            1 S1                 0.0000
     15 ****         4.3156  -0.8723   0.7783 N.2            1 S1                 0.0000
     16 ****         3.3621  -1.8257   1.0910 C.ar           1 S1                 0.0000
     17 ****         3.1058  -2.5031   2.3030 C.ar           1 S1                 0.0000
     18 ****         2.0591  -3.4477   2.3979 C.ar           1 S1                 0.0000
     19 ****         1.8184  -4.1515   3.7219 C.3            1 S1                 0.0000
     20 ****         1.2488  -3.7266   1.2680 C.ar           1 S1                 0.0000
     21 ****         0.1184  -4.7375   1.3466 C.3            1 S1                 0.0000
     22 ****         1.4921  -3.0600   0.0490 C.ar           1 S1                 0.0000
     23 ****         2.5362  -2.1217  -0.0327 C.ar           1 S1                 0.0000
     24 ****        -1.8830   1.0207  -1.4879 C.3            1 S1                 0.0000
     25 ****        -2.6995   2.3108  -1.7038 C.3            1 S1                 0.0000
     26 ****        -3.7773   2.5875   4.1577 H              1 S1                 0.0000
     27 ****        -2.6046   2.0643   2.9560 H              1 S1                 0.0000
     28 ****        -4.3068   1.5942   2.8027 H              1 S1                 0.0000
     29 ****        -4.3755   2.5566   0.6377 H              1 S1                 0.0000
     30 ****        -4.3081   4.2995   0.5059 H              1 S1                 0.0000
     31 ****        -1.8372   4.2397   0.9376 H              1 S1                 0.0000
     32 ****        -1.8624   2.5033   0.8834 H              1 S1                 0.0000
     33 ****        -0.7314   3.9290  -2.4117 H              1 S1                 0.0000
     34 ****        -0.3514   4.5023  -0.8143 H              1 S1                 0.0000
     35 ****         1.1116   2.6156  -1.4832 H              1 S1                 0.0000
     36 ****         0.1848   2.1735  -0.0701 H              1 S1                 0.0000
     37 ****         0.6069  -0.1292  -0.6810 H              1 S1                 0.0000
     38 ****        -0.2477  -0.8663  -2.0095 H              1 S1                 0.0000
     39 ****         2.2015   0.9248  -2.4230 H              1 S1                 0.0000
     40 ****         0.8131  -0.7736  -4.1884 H              1 S1                 0.0000
     41 ****         2.0096  -2.1169  -2.6752 H              1 S1                 0.0000
     42 ****         3.3988  -1.1348  -3.0783 H              1 S1                 0.0000
     43 ****         4.6166   0.0900  -1.0674 H              1 S1                 0.0000
     44 ****         3.7225  -2.2903   3.1639 H              1 S1                 0.0000
     45 ****         1.8478  -5.2335   3.5933 H              1 S1                 0.0000
     46 ****         0.8443  -3.8769   4.1271 H              1 S1                 0.0000
     47 ****         2.5760  -3.8839   4.4589 H              1 S1                 0.0000
     48 ****        -0.4433  -4.7800   0.4131 H              1 S1                 0.0000
     49 ****        -0.5777  -4.4741   2.1428 H              1 S1                 0.0000
     50 ****         0.5123  -5.7342   1.5463 H              1 S1                 0.0000
     51 ****         0.8823  -3.2647  -0.8184 H              1 S1                 0.0000
     52 ****        -2.3043   0.2250  -2.1032 H              1 S1                 0.0000
     53 ****        -1.9484   0.6839  -0.4525 H              1 S1                 0.0000
     54 ****        -3.7436   2.1396  -1.4448 H              1 S1                 0.0000
     55 ****        -2.7027   2.5460  -2.7691 H              1 S1                 0.0000
     56 ****        -0.4648   1.4773  -2.8462 H              1 S1                 0.0000
     57 ****        -3.2458   4.2863   2.6480 LP             1 S1                 0.0000
     58 ****        -4.8291   3.8906   2.5920 LP             1 S1                 0.0000
     59 ****        -2.7066   4.2651  -1.2265 LP             1 S1                 0.0000
     60 ****         2.0290   0.1837  -4.5557 LP             1 S1                 0.0000
     61 ****         0.5786   0.7983  -4.1255 LP             1 S1                 0.0000
     62 ****         5.0234  -0.4723   1.3605 LP             1 S1                 0.0000
@<TRIPOS>BOND
    1    1    2 1     
    2    1   26 1     
    3    1   27 1     
    4    1   28 1     
    5    2    3 1     
    6    3    4 1     
    7    3   29 1     
    8    3   30 1     
    9    4    5 1     
   10    4   31 1     
   11    4   32 1     
   12    5   25 1     
   13    5    6 1     
   14    6    7 1     
   15    6   33 1     
   16    6   34 1     
   17    7    8 1     
   18    7   35 1     
   19    7   36 1     
   20    8    9 1     
   21    8   24 1     
   22    8   56 1     
   23    9   10 1     
   24    9   37 1     
   25    9   38 1     
   26   10   11 1     
   27   10   12 1     
   28   10   39 1     
   29   11   40 1     
   30   12   13 1     
   31   12   41 1     
   32   12   42 1     
   33   13   23 1     
   34   13   14 1     
   35   14   15 2     
   36   14   43 1     
   37   15   16 1     
   38   16   23 ar    
   39   16   17 ar    
   40   17   18 ar    
   41   17   44 1     
   42   18   19 1     
   43   18   20 ar    
   44   19   45 1     
   45   19   46 1     
   46   19   47 1     
   47   20   21 1     
   48   20   22 ar    
   49   21   48 1     
   50   21   49 1     
   51   21   50 1     
   52   22   23 ar    
   53   22   51 1     
   54   24   25 1     
   55   24   52 1     
   56   24   53 1     
   57   25   54 1     
   58   25   55 1     
   59    2   57 1     
   60    2   58 1     
   61    5   59 1     
   62   11   60 1     
   63   11   61 1     
   64   15   62 1     
@<TRIPOS>SUBSTRUCTURE
      1 S1             1
@<TRIPOS>SET
LONE_PAIRS      STATIC     ATOMS    <user>   **** ""
6 57 58 59 60 61 62
DONOR_HYDROGENS      STATIC     ATOMS    <user>   **** ""
2 56 40
ATOM$BLUE        STATIC     ATOMS    COLORGROUP SYSTEM
6 57 58 59 60 61 62
ATOM$RED        STATIC     ATOMS    COLORGROUP SYSTEM
2 56 40
