AV-unprocessed.smi:1869|AV-procd|sdf|7592|dock2
  -GOLD-   22720 9303D 1   1.00000     0.00000
 Structure written by MMmdl.
 39 40  0  0  0  0  0  0  0  0  1 V2000
  146.5229  136.6727  154.4795 C   0  0  0  0  0  0  0  0  0  0  0  0
  145.7169  137.3816  153.5549 O   0  0  0  0  0  0  0  0  0  0  0  0
  146.4647  138.2990  152.7739 C   0  0  0  0  0  0  0  0  0  0  0  0
  147.1501  139.3068  153.7016 C   0  0  0  0  0  0  0  0  0  0  0  0
  148.5414  139.0062  153.7583 O   0  0  0  0  0  0  0  0  0  0  0  0
  149.3231  139.6730  154.6790 C   0  0  0  0  0  0  0  0  0  0  0  0
  150.6759  139.3009  154.8082 C   0  0  0  0  0  0  0  0  0  0  0  0
  151.4828  139.9779  155.7425 C   0  0  0  0  0  0  0  0  0  0  0  0
  150.9099  141.0162  156.5145 C   0  0  0  0  0  0  0  0  0  0  0  0
  151.6133  141.7587  157.5006 N   0  0  0  0  0  0  0  0  0  0  0  0
  152.6907  141.3906  158.2223 C   0  0  0  0  0  0  0  0  0  0  0  0
  153.2409  140.2953  158.1028 O   0  0  0  0  0  0  0  0  0  0  0  0
  153.1351  142.3407  159.0856 N   0  0  0  0  0  0  0  0  0  0  0  0
  153.8666  142.1007  160.3413 C   0  0  0  0  0  0  0  0  0  0  0  0
  152.8755  142.1446  161.5160 C   0  0  0  0  0  0  0  0  0  0  0  0
  152.1102  143.7899  161.6596 S   0  0  0  0  0  0  0  0  0  0  0  0
  151.5836  144.0359  159.9343 C   0  0  0  0  0  0  0  0  0  0  0  0
  152.7363  143.7479  158.9572 C   0  0  0  0  0  0  0  0  0  0  0  0
  149.5420  141.2993  156.3227 C   0  0  0  0  0  0  0  0  0  0  0  0
  148.7632  140.6549  155.4284 N   0  0  0  0  0  0  0  0  0  0  0  0
  145.9018  135.9869  155.0557 H   0  0  0  0  0  0  0  0  0  0  0  0
  147.0128  137.3516  155.1789 H   0  0  0  0  0  0  0  0  0  0  0  0
  147.2865  136.0855  153.9676 H   0  0  0  0  0  0  0  0  0  0  0  0
  147.2215  137.7531  152.2086 H   0  0  0  0  0  0  0  0  0  0  0  0
  145.8261  138.8146  152.0550 H   0  0  0  0  0  0  0  0  0  0  0  0
  146.9759  140.3237  153.3458 H   0  0  0  0  0  0  0  0  0  0  0  0
  146.7210  139.2223  154.7013 H   0  0  0  0  0  0  0  0  0  0  0  0
  151.0875  138.5065  154.2030 H   0  0  0  0  0  0  0  0  0  0  0  0
  152.5135  139.6801  155.8569 H   0  0  0  0  0  0  0  0  0  0  0  0
  151.3073  142.7128  157.6242 H   0  0  0  0  0  0  0  0  0  0  0  0
  154.4120  141.1570  160.3469 H   0  0  0  0  0  0  0  0  0  0  0  0
  154.6337  142.8648  160.4758 H   0  0  0  0  0  0  0  0  0  0  0  0
  152.0930  141.3963  161.3836 H   0  0  0  0  0  0  0  0  0  0  0  0
  153.3843  141.9135  162.4519 H   0  0  0  0  0  0  0  0  0  0  0  0
  150.7353  143.3830  159.7249 H   0  0  0  0  0  0  0  0  0  0  0  0
  151.2330  145.0614  159.8183 H   0  0  0  0  0  0  0  0  0  0  0  0
  153.5835  144.4013  159.1702 H   0  0  0  0  0  0  0  0  0  0  0  0
  152.4307  143.9974  157.9400 H   0  0  0  0  0  0  0  0  0  0  0  0
  149.0561  142.0720  156.9007 H   0  0  0  0  0  0  0  0  0  0  0  0
  1  2  1  0  0  0  0
  1 21  1  0  0  0  0
  1 22  1  0  0  0  0
  1 23  1  0  0  0  0
  2  3  1  0  0  0  0
  3  4  1  0  0  0  0
  3 24  1  0  0  0  0
  3 25  1  0  0  0  0
  4  5  1  0  0  0  0
  4 26  1  0  0  0  0
  4 27  1  0  0  0  0
  5  6  1  0  0  0  0
  6 20  1  0  0  0  0
  6  7  2  0  0  0  0
  7  8  1  0  0  0  0
  7 28  1  0  0  0  0
  8  9  2  0  0  0  0
  8 29  1  0  0  0  0
  9 10  1  0  0  0  0
  9 19  1  0  0  0  0
 10 11  1  0  0  0  0
 10 30  1  0  0  0  0
 11 12  2  0  0  0  0
 11 13  1  0  0  0  0
 13 18  1  0  0  0  0
 13 14  1  0  0  0  0
 14 15  1  0  0  0  0
 14 31  1  0  0  0  0
 14 32  1  0  0  0  0
 15 16  1  0  0  0  0
 15 33  1  0  0  0  0
 15 34  1  0  0  0  0
 16 17  1  0  0  0  0
 17 18  1  0  0  0  0
 17 35  1  0  0  0  0
 17 36  1  0  0  0  0
 18 37  1  0  0  0  0
 18 38  1  0  0  0  0
 19 20  2  0  0  0  0
 19 39  1  0  0  0  0
M  END
> <s_m_source_file>
AV-unprocessed.smi

> <i_m_source_file_index>
1869

> <i_lp_mmshare_version>
43012

> <i_f3d_flags>
0

> <s_epik_input>
W0NIM11PW0NIMl1bQ0gyXU9jMVtjSF1bY0hdYyhbY0hdbjEpW05IXUMoPU8pTjJbQ0gyXVtDSDJdU1tDSDJdW0NIMl0y

> <s_epik_cmdline>
J2VwaWtfcHl0aG9uJywgJy1waCcsICc3LjAnLCAnLXRuJywgJzgnLCAnLW1hJywgJzIwMCcsICctbWV0YWxfYmluZGluZycsICctaW1hZScsICc8aW5maWxlLm1hZT4nLCAnLW9tYWUnLCAnPG91dGZpbGUubWFlPic=

> <r_lp_tautomer_probability>
1

> <r_epik_Ionization_Penalty>
6.51674e-05

> <r_epik_Ionization_Penalty_Charging>
0

> <r_epik_Ionization_Penalty_Neutral>
6.51674e-05

> <r_epik_State_Penalty>
-0

> <r_epik_Charging_Adjusted_Penalty>
0

> <i_epik_Tot_Q>
0

> <i_epik_Tot_abs_Q>
0

> <r_epik_Metal_State_Penalty>
-0

> <b_epik_Metal_Only>
0

> <s_lp_Force_Field>
OPLS_2005

> <r_lp_Energy>
28.6984

> <b_lp_Chiralities_Consistent>
1

> <s_lp_Variant>
AV-unprocessed.smi:1869-1

> <Gold.Version>
5.8.1

> <Gold.Id.Protein>
6NUR|6NUR_protein|mol2

> <Gold.PLP.Fitness>
42.9852

> <Gold.PLP.PLP>
-39.8919

> <Gold.PLP.part.hbond>
-1.0000

> <Gold.PLP.part.metal>
0.0000

> <Gold.PLP.part.buried>
-4.1889

> <Gold.PLP.part.nonpolar>
-36.6698

> <Gold.PLP.part.repulsive>
3.0240

> <Gold.PLP.ligand.clash>
1.4732

> <Gold.PLP.ligand.torsion>
0.7528

> <Gold.PLP.Chemscore.Hbond>
0.9920

> <Gold.PLP.Chemscore.CHOScore>
1.0000

> <Gold.PLP.Chemscore.Metal>
0.0000

> <Gold.Chemscore.Hbonds>
donor molecule, donor type, donor heavy atom, donor atom, acceptor molecule, acceptor atom, score
      P1  H  7997  8009       L1    12  0.90
      L1  C    19    39       P1  8028  0.01

> <Gold.PLP.Chemscore.Internal.Correction>
0.0961

> <Gold.Rescore>
     Score         DG    S(hbond)    S(metal)    S(lipo)     H(rot)  DE(clash)    DE(int)     intcor
     13.22     -15.52       0.83        0.00      97.35       1.61       0.37       1.92       ----

> <Gold.Chemscore.Fitness>
13.2226

> <Gold.Chemscore.DG>
-15.5159

> <Gold.Chemscore.ZeroCoef>
-5.4800

> <Gold.Chemscore.Hbond>
0.8270

> <Gold.Chemscore.Metal>
0.0000

> <Gold.Chemscore.Lipo>
97.3484

> <Gold.Chemscore.Internal_Hbond>
0.0000

> <Gold.Chemscore.DEClash>
0.3683

> <Gold.Chemscore.DEInternal>
1.9250

> <Gold.Chemscore.Rot>
1.6078

> <Gold.Chemscore.Internal.Correction>
   9.000000E+99

> <Gold.Chemscore.Hbonds>
donor molecule, donor type, donor heavy atom, donor atom, acceptor molecule, acceptor atom, score
      P1  H  7997  8009       L1    12  0.87

> <Gold.Chemscore.Hbond.Weighted>
-2.7622

> <Gold.Chemscore.Metal.Weighted>
-0.0000

> <Gold.Chemscore.Lipo.Weighted>
-11.3898

> <Gold.Chemscore.Internal_Hbond.Weighted>
0.0000

> <Gold.Chemscore.DEClash.Weighted>
0.3683

> <Gold.Chemscore.DEInternal.Weighted>
1.9250

> <Gold.Chemscore.Rot.Weighted>
4.1161

> <Gold.Chemscore.Internal.Correction.Weighted>
   9.000000E+99

> <Gold.Protein.RotatedTorsions>
[ 6907 6896 6895 6894 ] final   54.53 input  -60.11 | X-H torsion
[ 7974 7965 7964 7962 ] final  156.41 input  175.53 | X-H torsion
[ 8008 7997 7996 7995 ] final  155.66 input   59.86 | X-H torsion
[ 10167 10162 10161 10158 ] final   -7.61 input  -65.29 | X-H torsion
[ 10718 10713 10712 10709 ] final  -77.25 input   66.30 | X-H torsion
[ 10763 10752 10751 10750 ] final -148.91 input  -60.55 | X-H torsion
[ 11005 11000 10999 10996 ] final  -74.50 input  -57.11 | X-H torsion

> <Gold.Protein.ActiveResidues>
 VAL166  LYS551  ARG553  GLY616  TRP617  ASP618  TYR619  PRO620  LYS621  CYS622 
 ASP623  PHE694  ASN695  SER759  ASP760  ASP761  ALA762  ILE779  LEU786  VAL792 
 PHE793  MET794  SER795  GLU796  ALA797  LYS798  CYS799  TRP800  GLU811  SER814 

> <Gold.Protein.RotatedAtoms>
  152.3448  134.7086  160.0253 H   0  0  0  0  0  0  0  0  0  0  0  0  # atno 6907 bound_to 6896
  151.7459  133.3319  159.3386 H   0  0  0  0  0  0  0  0  0  0  0  0  # atno 6908 bound_to 6896
  150.7502  134.6169  159.6160 H   0  0  0  0  0  0  0  0  0  0  0  0  # atno 6909 bound_to 6896
  144.7965  139.7200  143.6200 H   0  0  0  0  0  0  0  0  0  0  0  0  # atno 7974 bound_to 7965
  156.2466  140.1933  156.6836 H   0  0  0  0  0  0  0  0  0  0  0  0  # atno 8008 bound_to 7997
  154.6303  140.0596  156.9750 H   0  0  0  0  0  0  0  0  0  0  0  0  # atno 8009 bound_to 7997
  155.1720  140.3269  155.4393 H   0  0  0  0  0  0  0  0  0  0  0  0  # atno 8010 bound_to 7997
  140.7034  143.6062  150.8749 H   0  0  0  0  0  0  0  0  0  0  0  0  # atno 10167 bound_to 10162
  156.0150  130.4486  150.3316 H   0  0  0  0  0  0  0  0  0  0  0  0  # atno 10718 bound_to 10713
  154.8207  135.3322  154.7047 H   0  0  0  0  0  0  0  0  0  0  0  0  # atno 10763 bound_to 10752
  153.7681  135.6927  153.4916 H   0  0  0  0  0  0  0  0  0  0  0  0  # atno 10764 bound_to 10752
  153.2064  135.4498  155.0276 H   0  0  0  0  0  0  0  0  0  0  0  0  # atno 10765 bound_to 10752
  141.1636  133.6914  156.7374 H   0  0  0  0  0  0  0  0  0  0  0  0  # atno 11005 bound_to 11000
  146.2234  139.5678  142.9603 LP  0  0  0  0  0  0  0  0  0  0  0  0  # atno 17320 bound_to 7965
  145.5661  141.0399  143.2200 LP  0  0  0  0  0  0  0  0  0  0  0  0  # atno 17321 bound_to 7965
  139.9785  143.5977  152.2950 LP  0  0  0  0  0  0  0  0  0  0  0  0  # atno 17342 bound_to 10162
  139.6590  144.7662  151.2000 LP  0  0  0  0  0  0  0  0  0  0  0  0  # atno 17343 bound_to 10162
  157.1414  131.0297  151.2926 LP  0  0  0  0  0  0  0  0  0  0  0  0  # atno 17370 bound_to 10713
  157.4469  130.7576  149.7117 LP  0  0  0  0  0  0  0  0  0  0  0  0  # atno 17371 bound_to 10713
  140.2700  134.8400  157.3838 LP  0  0  0  0  0  0  0  0  0  0  0  0  # atno 17394 bound_to 11000
  140.1530  134.4825  155.7947 LP  0  0  0  0  0  0  0  0  0  0  0  0  # atno 17395 bound_to 11000

$$$$
