AV-unprocessed.smi:2183|AV-procd|sdf|8866|dock10
  -GOLD-   2272012 63D 1   1.00000     0.00000
 Structure written by MMmdl.
 40 42  0  0  0  0  0  0  0  0  1 V2000
  152.4582  136.9238  155.7843 O   0  0  0  0  0  0  0  0  0  0  0  0
  152.2244  138.1431  155.1082 C   0  0  0  0  0  0  0  0  0  0  0  0
  151.8649  139.2867  156.0146 C   0  0  0  0  0  0  0  0  0  0  0  0
  152.6985  139.7775  156.9353 N   0  0  0  0  0  0  0  0  0  0  0  0
  151.9625  140.7984  157.5031 C   0  0  0  0  0  0  0  0  0  0  0  0
  152.2922  141.7022  158.5386 C   0  0  0  0  0  0  0  0  0  0  0  0
  151.3645  142.6791  158.9557 C   0  0  0  0  0  0  0  0  0  0  0  0
  150.0964  142.7650  158.3457 C   0  0  0  0  0  0  0  0  0  0  0  0
  149.7476  141.8736  157.3127 C   0  0  0  0  0  0  0  0  0  0  0  0
  150.6778  140.9010  156.8990 C   0  0  0  0  0  0  0  0  0  0  0  0
  150.6552  139.8964  155.9357 N   0  0  0  0  0  0  0  0  0  0  0  0
  149.5514  139.5865  155.0363 C   0  0  0  0  0  0  0  0  0  0  0  0
  148.8738  140.8476  154.4610 C   0  0  1  0  0  0  0  0  0  0  0  0
  149.4839  141.2136  153.2391 O   0  0  0  0  0  0  0  0  0  0  0  0
  147.3723  140.6456  154.2110 C   0  0  0  0  0  0  0  0  0  0  0  0
  146.8827  141.7287  153.4309 O   0  0  0  0  0  0  0  0  0  0  0  0
  146.0771  142.6634  154.0450 C   0  0  0  0  0  0  0  0  0  0  0  0
  145.6067  143.7261  153.2459 C   0  0  0  0  0  0  0  0  0  0  0  0
  144.7760  144.7246  153.7897 C   0  0  0  0  0  0  0  0  0  0  0  0
  144.4047  144.6690  155.1459 C   0  0  0  0  0  0  0  0  0  0  0  0
  143.3840  145.8889  155.8145 Cl  0  0  0  0  0  0  0  0  0  0  0  0
  144.8677  143.6151  155.9554 C   0  0  0  0  0  0  0  0  0  0  0  0
  145.6994  142.6170  155.4112 C   0  0  0  0  0  0  0  0  0  0  0  0
  151.8964  136.8881  156.5429 H   0  0  0  0  0  0  0  0  0  0  0  0
  153.1215  138.4033  154.5460 H   0  0  0  0  0  0  0  0  0  0  0  0
  151.4214  137.9851  154.3890 H   0  0  0  0  0  0  0  0  0  0  0  0
  153.2608  141.6437  159.0125 H   0  0  0  0  0  0  0  0  0  0  0  0
  151.6272  143.3651  159.7479 H   0  0  0  0  0  0  0  0  0  0  0  0
  149.3911  143.5154  158.6717 H   0  0  0  0  0  0  0  0  0  0  0  0
  148.7765  141.9366  156.8454 H   0  0  0  0  0  0  0  0  0  0  0  0
  149.9298  138.9594  154.2283 H   0  0  0  0  0  0  0  0  0  0  0  0
  148.8249  138.9745  155.5711 H   0  0  0  0  0  0  0  0  0  0  0  0
  149.0049  141.6828  155.1488 H   0  0  0  0  0  0  0  0  0  0  0  0
  149.3400  140.5223  152.6113 H   0  0  0  0  0  0  0  0  0  0  0  0
  147.2163  139.7105  153.6701 H   0  0  0  0  0  0  0  0  0  0  0  0
  146.8384  140.5812  155.1609 H   0  0  0  0  0  0  0  0  0  0  0  0
  145.8857  143.7766  152.2035 H   0  0  0  0  0  0  0  0  0  0  0  0
  144.4236  145.5317  153.1644 H   0  0  0  0  0  0  0  0  0  0  0  0
  144.5847  143.5692  156.9968 H   0  0  0  0  0  0  0  0  0  0  0  0
  146.0322  141.8246  156.0640 H   0  0  0  0  0  0  0  0  0  0  0  0
  1  2  1  0  0  0  0
  1 24  1  0  0  0  0
  2  3  1  0  0  0  0
  2 25  1  0  0  0  0
  2 26  1  0  0  0  0
  3 11  1  0  0  0  0
  3  4  2  0  0  0  0
  4  5  1  0  0  0  0
  5 10  2  0  0  0  0
  5  6  1  0  0  0  0
  6  7  2  0  0  0  0
  6 27  1  0  0  0  0
  7  8  1  0  0  0  0
  7 28  1  0  0  0  0
  8  9  2  0  0  0  0
  8 29  1  0  0  0  0
  9 10  1  0  0  0  0
  9 30  1  0  0  0  0
 10 11  1  0  0  0  0
 11 12  1  0  0  0  0
 12 13  1  0  0  0  0
 12 31  1  0  0  0  0
 12 32  1  0  0  0  0
 13 14  1  0  0  0  0
 13 15  1  0  0  0  0
 13 33  1  0  0  0  0
 14 34  1  0  0  0  0
 15 16  1  0  0  0  0
 15 35  1  0  0  0  0
 15 36  1  0  0  0  0
 16 17  1  0  0  0  0
 17 23  1  0  0  0  0
 17 18  2  0  0  0  0
 18 19  1  0  0  0  0
 18 37  1  0  0  0  0
 19 20  2  0  0  0  0
 19 38  1  0  0  0  0
 20 21  1  0  0  0  0
 20 22  1  0  0  0  0
 22 23  2  0  0  0  0
 22 39  1  0  0  0  0
 23 40  1  0  0  0  0
M  END
> <s_m_source_file>
AV-unprocessed.smi

> <i_m_source_file_index>
2183

> <i_lp_mmshare_version>
43012

> <i_f3d_flags>
0

> <s_epik_input>
W2NIXTFbY0hdW2NIXVtjSF1jKGMxMiluKGMobjIpW0NIMl1bT0hdKVtDSDJdW0NASF0oW09IXSlbQ0gyXU9jM1tjSF1bY0hdYyhDbClbY0hdW2NIXTM=

> <s_epik_cmdline>
J2VwaWtfcHl0aG9uJywgJy1waCcsICc3LjAnLCAnLXRuJywgJzgnLCAnLW1hJywgJzIwMCcsICctbWV0YWxfYmluZGluZycsICctaW1hZScsICc8aW5maWxlLm1hZT4nLCAnLW9tYWUnLCAnPG91dGZpbGUubWFlPic=

> <r_lp_tautomer_probability>
1

> <r_epik_Ionization_Penalty>
0.0586933

> <r_epik_Ionization_Penalty_Charging>
0

> <r_epik_Ionization_Penalty_Neutral>
0.0586933

> <r_epik_State_Penalty>
0.0507031

> <r_epik_Charging_Adjusted_Penalty>
0.0507031

> <i_epik_Tot_Q>
0

> <i_epik_Tot_abs_Q>
0

> <r_epik_Metal_State_Penalty>
5.29335e-05

> <b_epik_Metal_Only>
0

> <s_lp_Force_Field>
OPLS_2005

> <r_lp_Energy>
14.4391

> <b_lp_Chiralities_Consistent>
1

> <s_lp_Variant>
AV-unprocessed.smi:2183-2

> <Gold.Version>
5.8.1

> <Gold.Id.Protein>
6NUR|6NUR_protein|mol2

> <Gold.PLP.Fitness>
52.5334

> <Gold.PLP.PLP>
-43.3435

> <Gold.PLP.part.hbond>
-4.3927

> <Gold.PLP.part.metal>
0.0000

> <Gold.PLP.part.buried>
-5.7307

> <Gold.PLP.part.nonpolar>
-33.3058

> <Gold.PLP.part.repulsive>
0.2017

> <Gold.PLP.ligand.clash>
0.0000

> <Gold.PLP.ligand.torsion>
1.0936

> <Gold.PLP.Chemscore.Hbond>
3.7682

> <Gold.PLP.Chemscore.CHOScore>
0.0000

> <Gold.PLP.Chemscore.Metal>
0.0000

> <Gold.Chemscore.Hbonds>
donor molecule, donor type, donor heavy atom, donor atom, acceptor molecule, acceptor atom, score
      L1  H    14    34       P1  7957  0.90
      P1  H  7989  7998       L1    14  0.05
      P1  H  7997  8009       L1     4  1.00
      P1  H  8011  8017       L1    14  1.00
      P1  H 10752 10764       L1     1  0.80

> <Gold.PLP.Chemscore.Internal.Correction>
0.0726

> <Gold.Rescore>
     Score         DG    S(hbond)    S(metal)    S(lipo)     H(rot)  DE(clash)    DE(int)     intcor
     17.94     -19.28       2.76        0.00     105.69       3.04       0.02       1.33       ----

> <Gold.Chemscore.Fitness>
17.9355

> <Gold.Chemscore.DG>
-19.2831

> <Gold.Chemscore.ZeroCoef>
-5.4800

> <Gold.Chemscore.Hbond>
2.7573

> <Gold.Chemscore.Metal>
0.0000

> <Gold.Chemscore.Lipo>
105.6873

> <Gold.Chemscore.Internal_Hbond>
0.0000

> <Gold.Chemscore.DEClash>
0.0198

> <Gold.Chemscore.DEInternal>
1.3278

> <Gold.Chemscore.Rot>
3.0358

> <Gold.Chemscore.Internal.Correction>
   9.000000E+99

> <Gold.Chemscore.Hbonds>
donor molecule, donor type, donor heavy atom, donor atom, acceptor molecule, acceptor atom, score
      L1  H    14    34       P1  7957  0.84
      P1  H  7989  7998       L1    14  0.01
      P1  H  7997  8009       L1     4  0.90
      P1  H  8011  8017       L1    14  0.32
      P1  H 10752 10764       L1     1  0.75

> <Gold.Chemscore.Hbond.Weighted>
-9.2093

> <Gold.Chemscore.Metal.Weighted>
-0.0000

> <Gold.Chemscore.Lipo.Weighted>
-12.3654

> <Gold.Chemscore.Internal_Hbond.Weighted>
0.0000

> <Gold.Chemscore.DEClash.Weighted>
0.0198

> <Gold.Chemscore.DEInternal.Weighted>
1.3278

> <Gold.Chemscore.Rot.Weighted>
7.7716

> <Gold.Chemscore.Internal.Correction.Weighted>
   9.000000E+99

> <Gold.Protein.RotatedTorsions>
[ 6907 6896 6895 6894 ] final  102.25 input  -60.11 | X-H torsion
[ 7974 7965 7964 7962 ] final   -8.17 input  175.53 | X-H torsion
[ 8008 7997 7996 7995 ] final -165.66 input   59.86 | X-H torsion
[ 10167 10162 10161 10158 ] final   22.90 input  -65.29 | X-H torsion
[ 10718 10713 10712 10709 ] final    7.21 input   66.30 | X-H torsion
[ 10763 10752 10751 10750 ] final  -46.89 input  -60.55 | X-H torsion
[ 11005 11000 10999 10996 ] final   -2.16 input  -57.11 | X-H torsion

> <Gold.Protein.ActiveResidues>
 VAL166  LYS551  ARG553  GLY616  TRP617  ASP618  TYR619  PRO620  LYS621  CYS622 
 ASP623  PHE694  ASN695  SER759  ASP760  ASP761  ALA762  ILE779  LEU786  VAL792 
 PHE793  MET794  SER795  GLU796  ALA797  LYS798  CYS799  TRP800  GLU811  SER814 

> <Gold.Protein.RotatedAtoms>
  152.5329  134.0004  159.7891 H   0  0  0  0  0  0  0  0  0  0  0  0  # atno 6907 bound_to 6896
  151.0224  133.5856  159.2677 H   0  0  0  0  0  0  0  0  0  0  0  0  # atno 6908 bound_to 6896
  151.2891  135.0743  159.9251 H   0  0  0  0  0  0  0  0  0  0  0  0  # atno 6909 bound_to 6896
  146.2287  140.2428  142.8344 H   0  0  0  0  0  0  0  0  0  0  0  0  # atno 7974 bound_to 7965
  155.8529  140.0966  157.1663 H   0  0  0  0  0  0  0  0  0  0  0  0  # atno 8008 bound_to 7997
  154.3986  140.1379  156.3929 H   0  0  0  0  0  0  0  0  0  0  0  0  # atno 8009 bound_to 7997
  155.7941  140.3455  155.5368 H   0  0  0  0  0  0  0  0  0  0  0  0  # atno 8010 bound_to 7997
  140.5312  143.9838  150.6466 H   0  0  0  0  0  0  0  0  0  0  0  0  # atno 10167 bound_to 10162
  156.9335  130.5835  149.5650 H   0  0  0  0  0  0  0  0  0  0  0  0  # atno 10718 bound_to 10713
  154.0524  135.6629  153.4802 H   0  0  0  0  0  0  0  0  0  0  0  0  # atno 10763 bound_to 10752
  153.0458  135.5115  154.7738 H   0  0  0  0  0  0  0  0  0  0  0  0  # atno 10764 bound_to 10752
  154.6748  135.3035  154.9659 H   0  0  0  0  0  0  0  0  0  0  0  0  # atno 10765 bound_to 10752
  140.6553  133.9368  155.8404 H   0  0  0  0  0  0  0  0  0  0  0  0  # atno 11005 bound_to 11000
  144.9471  140.8140  143.5594 LP  0  0  0  0  0  0  0  0  0  0  0  0  # atno 17320 bound_to 7965
  145.2385  139.2083  143.5005 LP  0  0  0  0  0  0  0  0  0  0  0  0  # atno 17321 bound_to 7965
  140.3214  143.3135  152.0780 LP  0  0  0  0  0  0  0  0  0  0  0  0  # atno 17342 bound_to 10162
  139.4955  144.6571  151.6548 LP  0  0  0  0  0  0  0  0  0  0  0  0  # atno 17343 bound_to 10162
  156.0436  130.5515  150.8829 LP  0  0  0  0  0  0  0  0  0  0  0  0  # atno 17370 bound_to 10713
  157.5831  131.0946  150.9239 LP  0  0  0  0  0  0  0  0  0  0  0  0  # atno 17371 bound_to 10713
  141.0506  134.0491  157.3789 LP  0  0  0  0  0  0  0  0  0  0  0  0  # atno 17394 bound_to 11000
  139.9031  135.0171  156.7363 LP  0  0  0  0  0  0  0  0  0  0  0  0  # atno 17395 bound_to 11000

$$$$
