#       Name:                AV-unprocessed.smi:285
#       Creating user name   scv26
#       Creation time:       Thu Mar 26 21:52:41 2020


#       File generated by GOLD software.
#

@<TRIPOS>MOLECULE
AV-unprocessed.smi:285
    40    42     1
SMALL
NO_CHARGES


@<TRIPOS>ATOM
      1 ****        -5.1179   0.0331   0.3562 N.pl3          1 S1                 0.0000
      2 ****        -3.8096   0.3213   0.3152 C.ar           1 S1                 0.0000
      3 ****        -3.4341   1.6186   0.4052 N.ar           1 S1                 0.0000
      4 ****        -2.1351   1.9329   0.3663 C.ar           1 S1                 0.0000
      5 ****        -1.0820   1.1204   0.2455 N.ar           1 S1                 0.0000
      6 ****        -1.4604  -0.1885   0.1568 C.ar           1 S1                 0.0000
      7 ****        -2.8030  -0.6682   0.1824 C.ar           1 S1                 0.0000
      8 ****        -2.8210  -2.0523   0.0656 N.2            1 S1                 0.0000
      9 ****        -1.5544  -2.3491  -0.0203 C.2            1 S1                 0.0000
     10 ****        -1.0019  -4.1616  -0.2147 Br             1 S1                 0.0000
     11 ****        -0.6580  -1.3050   0.0261 N.pl3          1 S1                 0.0000
     12 ****         0.8348  -1.3441  -0.0425 C.3            1 S1                 0.0000
     13 ****         1.3483  -0.8162  -1.3704 C.3            1 S1                 0.0000
     14 ****         2.7657  -0.4749  -0.9658 C.3            1 S1                 0.0000
     15 ****         3.3636   0.4240  -1.8791 O.3            1 S1                 0.0000
     16 ****         2.6017   0.0536   0.4789 C.3            1 S1                 0.0000
     17 ****         2.4893   1.5861   0.6114 C.3            1 S1                 0.0000
     18 ****         2.6359   1.9634   1.9637 O.3            1 S1                 0.0000
     19 ****         1.3612  -0.5025   0.9320 O.3            1 S1                 0.0000
     20 ****        -5.4235  -0.9273   0.2911 H              1 S1                 0.0000
     21 ****        -5.7947   0.7757   0.4558 H              1 S1                 0.0000
     22 ****        -1.9061   2.9856   0.4432 H              1 S1                 0.0000
     23 ****         1.1266  -2.3753   0.1564 H              1 S1                 0.0000
     24 ****         1.2748  -1.5685  -2.1562 H              1 S1                 0.0000
     25 ****         0.7907   0.0759  -1.6598 H              1 S1                 0.0000
     26 ****         3.3573  -1.3916  -0.9460 H              1 S1                 0.0000
     27 ****         4.2450   0.6055  -1.5899 H              1 S1                 0.0000
     28 ****         3.4262  -0.3145   1.0912 H              1 S1                 0.0000
     29 ****         3.2886   2.0859   0.0648 H              1 S1                 0.0000
     30 ****         1.5458   1.9571   0.2123 H              1 S1                 0.0000
     31 ****         2.5448   2.9018   2.0246 H              1 S1                 0.0000
     32 ****        -4.1233   2.3368   0.5001 LP             1 S1                 0.0000
     33 ****        -0.1322   1.4325   0.2228 LP             1 S1                 0.0000
     34 ****        -3.6090  -2.6677   0.0510 LP             1 S1                 0.0000
     35 ****         2.8372   1.2736  -1.9092 LP             1 S1                 0.0000
     36 ****         3.3859   0.0132  -2.7906 LP             1 S1                 0.0000
     37 ****         3.5393   1.6900   2.2942 LP             1 S1                 0.0000
     38 ****         1.9305   1.5194   2.5162 LP             1 S1                 0.0000
     39 ****         1.5185  -1.0241   1.7706 LP             1 S1                 0.0000
     40 ****         0.7140   0.2372   1.1159 LP             1 S1                 0.0000
@<TRIPOS>BOND
    1    1    2 1     
    2    1   20 1     
    3    1   21 1     
    4    2    7 ar    
    5    2    3 ar    
    6    3    4 ar    
    7    4    5 ar    
    8    4   22 1     
    9    5    6 ar    
   10    6   11 1     
   11    6    7 ar    
   12    7    8 1     
   13    8    9 2     
   14    9   10 1     
   15    9   11 1     
   16   11   12 1     
   17   12   19 1     
   18   12   13 1     
   19   12   23 1     
   20   13   14 1     
   21   13   24 1     
   22   13   25 1     
   23   14   15 1     
   24   14   16 1     
   25   14   26 1     
   26   15   27 1     
   27   16   17 1     
   28   16   19 1     
   29   16   28 1     
   30   17   18 1     
   31   17   29 1     
   32   17   30 1     
   33   18   31 1     
   34    3   32 1     
   35    5   33 1     
   36    8   34 1     
   37   15   35 1     
   38   15   36 1     
   39   18   37 1     
   40   18   38 1     
   41   19   39 1     
   42   19   40 1     
@<TRIPOS>SUBSTRUCTURE
      1 S1             1
@<TRIPOS>SET
LONE_PAIRS      STATIC     ATOMS    <user>   **** ""
9 32 33 34 35 36 37 38 39 40
DONOR_HYDROGENS      STATIC     ATOMS    <user>   **** ""
4 20 21 27 31
ATOM$BLUE        STATIC     ATOMS    COLORGROUP SYSTEM
9 32 33 34 35 36 37 38 39 40
ATOM$RED        STATIC     ATOMS    COLORGROUP SYSTEM
4 20 21 27 31
