#       Name:                AV-unprocessed.smi:38
#       Creating user name   scv26
#       Creation time:       Thu Mar 26 16:17:17 2020


#       File generated by GOLD software.
#

@<TRIPOS>MOLECULE
AV-unprocessed.smi:38
    38    39     1
SMALL
NO_CHARGES


@<TRIPOS>ATOM
      1 ****        -4.1538   2.9562   1.4939 O.2            1 S1                 0.0000
      2 ****        -3.2044   2.3535   0.9970 C.2            1 S1                 0.0000
      3 ****        -2.9491   2.4520  -0.3739 N.am           1 S1                 0.0000
      4 ****        -1.9070   1.8182  -1.0536 C.2            1 S1                 0.0000
      5 ****        -1.7900   1.9653  -2.2693 O.2            1 S1                 0.0000
      6 ****        -1.0309   1.0174  -0.2872 N.am           1 S1                 0.0000
      7 ****         0.1175   0.3070  -0.9666 C.3            1 S1                 0.0000
      8 ****        -0.2267  -1.1602  -1.2271 C.3            1 S1                 0.0000
      9 ****         1.0973  -1.8330  -0.9310 C.3            1 S1                 0.0000
     10 ****         0.9098  -3.1859  -0.5692 O.3            1 S1                 0.0000
     11 ****         1.6342  -0.9855   0.2251 C.3            1 S1                 0.0000
     12 ****         3.1622  -1.0456   0.3703 C.3            1 S1                 0.0000
     13 ****         3.5449  -0.5942   1.6515 O.3            1 S1                 0.0000
     14 ****         1.2338   0.3391  -0.1259 O.3            1 S1                 0.0000
     15 ****        -1.2533   0.8814   1.0767 C.2            1 S1                 0.0000
     16 ****        -2.2703   1.4985   1.7236 C.2            1 S1                 0.0000
     17 ****        -2.4230   1.3172   3.0463 F              1 S1                 0.0000
     18 ****        -3.5740   3.0277  -0.9192 H              1 S1                 0.0000
     19 ****         0.3738   0.8609  -1.8709 H              1 S1                 0.0000
     20 ****         1.7544  -1.7625  -1.7991 H              1 S1                 0.0000
     21 ****         1.1387  -1.2795   1.1523 H              1 S1                 0.0000
     22 ****        -0.9963  -1.4893  -0.5263 H              1 S1                 0.0000
     23 ****        -0.5836  -1.3106  -2.2464 H              1 S1                 0.0000
     24 ****         0.3382  -3.2209   0.1828 H              1 S1                 0.0000
     25 ****         3.5087  -2.0746   0.2699 H              1 S1                 0.0000
     26 ****         3.6579  -0.4598  -0.4043 H              1 S1                 0.0000
     27 ****         4.4861  -0.6468   1.7200 H              1 S1                 0.0000
     28 ****        -0.5961   0.2549   1.6602 H              1 S1                 0.0000
     29 ****        -4.3359   2.8810   2.4743 LP             1 S1                 0.0000
     30 ****        -4.7439   3.5216   0.9177 LP             1 S1                 0.0000
     31 ****        -2.4404   2.5377  -2.7686 LP             1 S1                 0.0000
     32 ****        -1.0445   1.5124  -2.7583 LP             1 S1                 0.0000
     33 ****         1.7916  -3.5990  -0.3415 LP             1 S1                 0.0000
     34 ****         0.4952  -3.6839  -1.3308 LP             1 S1                 0.0000
     35 ****         3.1232  -1.1702   2.3518 LP             1 S1                 0.0000
     36 ****         3.2502   0.3530   1.7772 LP             1 S1                 0.0000
     37 ****         1.0049   0.8449   0.7058 LP             1 S1                 0.0000
     38 ****         1.9877   0.7966  -0.5974 LP             1 S1                 0.0000
@<TRIPOS>BOND
    1    1    2 2     
    2    2   16 1     
    3    2    3 1     
    4    3   18 1     
    5    3    4 1     
    6    4    5 2     
    7    4    6 1     
    8    6    7 1     
    9    6   15 1     
   10    7   19 1     
   11    7   14 1     
   12    7    8 1     
   13    8    9 1     
   14    8   22 1     
   15    8   23 1     
   16    9   20 1     
   17    9   10 1     
   18    9   11 1     
   19   10   24 1     
   20   11   21 1     
   21   11   12 1     
   22   11   14 1     
   23   12   13 1     
   24   12   25 1     
   25   12   26 1     
   26   13   27 1     
   27   15   16 2     
   28   15   28 1     
   29   16   17 1     
   30    1   29 1     
   31    1   30 1     
   32    5   31 1     
   33    5   32 1     
   34   10   33 1     
   35   10   34 1     
   36   13   35 1     
   37   13   36 1     
   38   14   37 1     
   39   14   38 1     
@<TRIPOS>SUBSTRUCTURE
      1 S1             1
@<TRIPOS>SET
LONE_PAIRS      STATIC     ATOMS    <user>   **** ""
10 29 30 31 32 33 34 35 36 37 38
DONOR_HYDROGENS      STATIC     ATOMS    <user>   **** ""
3 18 24 27
ATOM$BLUE        STATIC     ATOMS    COLORGROUP SYSTEM
10 29 30 31 32 33 34 35 36 37 38
ATOM$RED        STATIC     ATOMS    COLORGROUP SYSTEM
3 18 24 27
