AV-unprocessed.smi:2063|AV-procd|sdf|8408|dock3
  -GOLD-   2272011 93D 1   1.00000     0.00000
 Structure written by MMmdl.
 39 40  0  0  0  0  0  0  0  0  1 V2000
  144.2498  131.4551  150.9954 C   0  0  0  0  0  0  0  0  0  0  0  0
  143.6957  132.7034  150.2932 C   0  0  0  0  0  0  0  0  0  0  0  0
  143.8359  132.6483  148.7650 C   0  0  0  0  0  0  0  0  0  0  0  0
  144.2559  133.9681  150.8659 C   0  0  0  0  0  0  0  0  0  0  0  0
  143.4876  134.9454  151.3663 N   0  0  0  0  0  0  0  0  0  0  0  0
  144.2347  136.0135  151.8418 N   0  0  0  0  0  0  0  0  0  0  0  0
  145.5501  135.8127  151.6849 C   0  0  0  0  0  0  0  0  0  0  0  0
  146.5439  136.7431  152.0894 N   0  0  0  0  0  0  0  0  0  0  0  0
  146.4077  137.8084  152.8985 C   0  0  0  0  0  0  0  0  0  0  0  0
  145.3551  138.1732  153.4226 O   0  0  0  0  0  0  0  0  0  0  0  0
  147.5805  138.4361  153.0727 N   0  0  0  0  0  0  0  0  0  0  0  0
  147.8003  139.6309  153.8870 C   0  0  2  0  0  0  0  0  0  0  0  0
  147.1674  140.8352  153.1744 C   0  0  0  0  0  0  0  0  0  0  0  0
  149.3072  139.8439  154.1429 C   0  0  2  0  0  0  0  0  0  0  0  0
  149.9952  138.7331  154.9387 C   0  0  0  0  0  0  0  0  0  0  0  0
  151.2020  139.4562  155.4897 C   0  0  0  0  0  0  0  0  0  0  0  0
  150.6245  140.8318  155.8102 C   0  0  0  0  0  0  0  0  0  0  0  0
  149.5243  141.0180  154.9224 O   0  0  0  0  0  0  0  0  0  0  0  0
  145.9863  134.2866  150.9358 S   0  0  0  0  0  0  0  0  0  0  0  0
  144.0566  131.4906  152.0679 H   0  0  0  0  0  0  0  0  0  0  0  0
  145.3273  131.3650  150.8536 H   0  0  0  0  0  0  0  0  0  0  0  0
  143.7868  130.5478  150.6063 H   0  0  0  0  0  0  0  0  0  0  0  0
  142.6251  132.7209  150.5011 H   0  0  0  0  0  0  0  0  0  0  0  0
  143.3589  133.5097  148.2965 H   0  0  0  0  0  0  0  0  0  0  0  0
  143.3680  131.7508  148.3595 H   0  0  0  0  0  0  0  0  0  0  0  0
  144.8835  132.6418  148.4624 H   0  0  0  0  0  0  0  0  0  0  0  0
  147.4698  136.5723  151.7263 H   0  0  0  0  0  0  0  0  0  0  0  0
  148.3906  138.0593  152.6032 H   0  0  0  0  0  0  0  0  0  0  0  0
  147.2982  139.5194  154.8498 H   0  0  0  0  0  0  0  0  0  0  0  0
  147.2697  141.7435  153.7687 H   0  0  0  0  0  0  0  0  0  0  0  0
  146.1022  140.6755  153.0042 H   0  0  0  0  0  0  0  0  0  0  0  0
  147.6363  141.0172  152.2066 H   0  0  0  0  0  0  0  0  0  0  0  0
  149.8326  139.9751  153.1951 H   0  0  0  0  0  0  0  0  0  0  0  0
  149.3585  138.3942  155.7575 H   0  0  0  0  0  0  0  0  0  0  0  0
  150.2578  137.8690  154.3279 H   0  0  0  0  0  0  0  0  0  0  0  0
  151.6399  138.9637  156.3584 H   0  0  0  0  0  0  0  0  0  0  0  0
  151.9701  139.5401  154.7196 H   0  0  0  0  0  0  0  0  0  0  0  0
  150.2507  140.8612  156.8340 H   0  0  0  0  0  0  0  0  0  0  0  0
  151.3642  141.6247  155.6973 H   0  0  0  0  0  0  0  0  0  0  0  0
  1  2  1  0  0  0  0
  1 20  1  0  0  0  0
  1 21  1  0  0  0  0
  1 22  1  0  0  0  0
  2  3  1  0  0  0  0
  2  4  1  0  0  0  0
  2 23  1  0  0  0  0
  3 24  1  0  0  0  0
  3 25  1  0  0  0  0
  3 26  1  0  0  0  0
  4 19  1  0  0  0  0
  4  5  2  0  0  0  0
  5  6  1  0  0  0  0
  6  7  2  0  0  0  0
  7  8  1  0  0  0  0
  7 19  1  0  0  0  0
  8  9  1  0  0  0  0
  8 27  1  0  0  0  0
  9 10  2  0  0  0  0
  9 11  1  0  0  0  0
 11 12  1  0  0  0  0
 11 28  1  0  0  0  0
 12 13  1  0  0  0  0
 12 14  1  0  0  0  0
 12 29  1  0  0  0  0
 13 30  1  0  0  0  0
 13 31  1  0  0  0  0
 13 32  1  0  0  0  0
 14 18  1  0  0  0  0
 14 15  1  0  0  0  0
 14 33  1  0  0  0  0
 15 16  1  0  0  0  0
 15 34  1  0  0  0  0
 15 35  1  0  0  0  0
 16 17  1  0  0  0  0
 16 36  1  0  0  0  0
 16 37  1  0  0  0  0
 17 18  1  0  0  0  0
 17 38  1  0  0  0  0
 17 39  1  0  0  0  0
M  END
> <s_m_source_file>
AV-unprocessed.smi

> <i_m_source_file_index>
2063

> <i_lp_mmshare_version>
43012

> <i_f3d_flags>
0

> <s_epik_input>
W0NIM11bQ0hdKFtDSDNdKWMxbm5jKHMxKVtOSF1DKD1PKVtOSF1bQ0BIXShbQ0gzXSlbQ0BASF0yW0NIMl1bQ0gyXVtDSDJdTzI=

> <s_epik_cmdline>
J2VwaWtfcHl0aG9uJywgJy1waCcsICc3LjAnLCAnLXRuJywgJzgnLCAnLW1hJywgJzIwMCcsICctbWV0YWxfYmluZGluZycsICctaW1hZScsICc8aW5maWxlLm1hZT4nLCAnLW9tYWUnLCAnPG91dGZpbGUubWFlPic=

> <r_lp_tautomer_probability>
1

> <r_epik_Ionization_Penalty>
0.00050567

> <r_epik_Ionization_Penalty_Charging>
0

> <r_epik_Ionization_Penalty_Neutral>
0.00050567

> <r_epik_State_Penalty>
-0

> <r_epik_Charging_Adjusted_Penalty>
0

> <i_epik_Tot_Q>
0

> <i_epik_Tot_abs_Q>
0

> <r_epik_Metal_State_Penalty>
0.219912

> <b_epik_Metal_Only>
0

> <s_lp_Force_Field>
OPLS_2005

> <r_lp_Energy>
10.8376

> <b_lp_Chiralities_Consistent>
1

> <s_lp_Variant>
AV-unprocessed.smi:2063-1

> <Gold.Version>
5.8.1

> <Gold.Id.Protein>
6NUR|6NUR_protein|mol2

> <Gold.PLP.Fitness>
40.2585

> <Gold.PLP.PLP>
-36.0871

> <Gold.PLP.part.hbond>
-2.6039

> <Gold.PLP.part.metal>
0.0000

> <Gold.PLP.part.buried>
-2.1282

> <Gold.PLP.part.nonpolar>
-32.1199

> <Gold.PLP.part.repulsive>
0.9786

> <Gold.PLP.ligand.clash>
0.0000

> <Gold.PLP.ligand.torsion>
0.3402

> <Gold.PLP.Chemscore.Hbond>
1.5883

> <Gold.PLP.Chemscore.CHOScore>
0.0000

> <Gold.PLP.Chemscore.Metal>
0.0000

> <Gold.Chemscore.Hbonds>
donor molecule, donor type, donor heavy atom, donor atom, acceptor molecule, acceptor atom, score
      L1  H     8    27       P1  7948  0.93
      L1  H    11    28       P1  7948  0.75

> <Gold.PLP.Chemscore.Internal.Correction>
0.0869

> <Gold.Rescore>
     Score         DG    S(hbond)    S(metal)    S(lipo)     H(rot)  DE(clash)    DE(int)     intcor
     14.97     -17.18       1.51        0.00      87.79       1.42       0.39       1.81       ----

> <Gold.Chemscore.Fitness>
14.9708

> <Gold.Chemscore.DG>
-17.1764

> <Gold.Chemscore.ZeroCoef>
-5.4800

> <Gold.Chemscore.Hbond>
1.5114

> <Gold.Chemscore.Metal>
0.0000

> <Gold.Chemscore.Lipo>
87.7884

> <Gold.Chemscore.Internal_Hbond>
0.0000

> <Gold.Chemscore.DEClash>
0.3934

> <Gold.Chemscore.DEInternal>
1.8122

> <Gold.Chemscore.Rot>
1.4152

> <Gold.Chemscore.Internal.Correction>
   9.000000E+99

> <Gold.Chemscore.Hbonds>
donor molecule, donor type, donor heavy atom, donor atom, acceptor molecule, acceptor atom, score
      L1  H     8    27       P1  7948  0.87
      L1  H    11    28       P1  7948  0.69

> <Gold.Chemscore.Hbond.Weighted>
-5.0481

> <Gold.Chemscore.Metal.Weighted>
-0.0000

> <Gold.Chemscore.Lipo.Weighted>
-10.2712

> <Gold.Chemscore.Internal_Hbond.Weighted>
0.0000

> <Gold.Chemscore.DEClash.Weighted>
0.3934

> <Gold.Chemscore.DEInternal.Weighted>
1.8122

> <Gold.Chemscore.Rot.Weighted>
3.6229

> <Gold.Chemscore.Internal.Correction.Weighted>
   9.000000E+99

> <Gold.Protein.RotatedTorsions>
[ 6907 6896 6895 6894 ] final -165.28 input  -60.11 | X-H torsion
[ 7974 7965 7964 7962 ] final   38.65 input  175.53 | X-H torsion
[ 8008 7997 7996 7995 ] final   49.62 input   59.86 | X-H torsion
[ 10167 10162 10161 10158 ] final -123.56 input  -65.29 | X-H torsion
[ 10718 10713 10712 10709 ] final  -86.98 input   66.30 | X-H torsion
[ 10763 10752 10751 10750 ] final   -2.04 input  -60.55 | X-H torsion
[ 11005 11000 10999 10996 ] final  130.56 input  -57.11 | X-H torsion

> <Gold.Protein.ActiveResidues>
 VAL166  LYS551  ARG553  GLY616  TRP617  ASP618  TYR619  PRO620  LYS621  CYS622 
 ASP623  PHE694  ASN695  SER759  ASP760  ASP761  ALA762  ILE779  LEU786  VAL792 
 PHE793  MET794  SER795  GLU796  ALA797  LYS798  CYS799  TRP800  GLU811  SER814 

> <Gold.Protein.RotatedAtoms>
  151.4251  133.3686  159.2761 H   0  0  0  0  0  0  0  0  0  0  0  0  # atno 6907 bound_to 6896
  150.9265  134.8683  159.7534 H   0  0  0  0  0  0  0  0  0  0  0  0  # atno 6908 bound_to 6896
  152.5007  134.4193  159.9527 H   0  0  0  0  0  0  0  0  0  0  0  0  # atno 6909 bound_to 6896
  146.1045  139.5746  142.9392 H   0  0  0  0  0  0  0  0  0  0  0  0  # atno 7974 bound_to 7965
  155.4052  140.3439  155.4259 H   0  0  0  0  0  0  0  0  0  0  0  0  # atno 8008 bound_to 7997
  156.1481  140.1562  156.8846 H   0  0  0  0  0  0  0  0  0  0  0  0  # atno 8009 bound_to 7997
  154.5028  140.0810  156.7814 H   0  0  0  0  0  0  0  0  0  0  0  0  # atno 8010 bound_to 7997
  140.0022  143.5528  152.2298 H   0  0  0  0  0  0  0  0  0  0  0  0  # atno 10167 bound_to 10162
  155.9987  130.4784  150.4797 H   0  0  0  0  0  0  0  0  0  0  0  0  # atno 10718 bound_to 10713
  153.3528  135.6986  153.6774 H   0  0  0  0  0  0  0  0  0  0  0  0  # atno 10763 bound_to 10752
  153.5494  135.3557  155.2753 H   0  0  0  0  0  0  0  0  0  0  0  0  # atno 10764 bound_to 10752
  154.8656  135.4223  154.2768 H   0  0  0  0  0  0  0  0  0  0  0  0  # atno 10765 bound_to 10752
  139.9679  134.9585  156.9311 H   0  0  0  0  0  0  0  0  0  0  0  0  # atno 11005 bound_to 11000
  145.5788  141.0385  143.2133 LP  0  0  0  0  0  0  0  0  0  0  0  0  # atno 17320 bound_to 7965
  144.7460  139.7320  143.7292 LP  0  0  0  0  0  0  0  0  0  0  0  0  # atno 17321 bound_to 7965
  139.6263  144.7638  151.2630 LP  0  0  0  0  0  0  0  0  0  0  0  0  # atno 17342 bound_to 10162
  140.7414  143.6557  150.8208 LP  0  0  0  0  0  0  0  0  0  0  0  0  # atno 17343 bound_to 10162
  157.2803  131.0605  151.2202 LP  0  0  0  0  0  0  0  0  0  0  0  0  # atno 17370 bound_to 10713
  157.3250  130.6956  149.6291 LP  0  0  0  0  0  0  0  0  0  0  0  0  # atno 17371 bound_to 10713
  140.5357  134.0769  155.7327 LP  0  0  0  0  0  0  0  0  0  0  0  0  # atno 17394 bound_to 11000
  141.1359  133.9223  157.2435 LP  0  0  0  0  0  0  0  0  0  0  0  0  # atno 17395 bound_to 11000

$$$$
