AV-unprocessed.smi:1075|AV-procd|sdf|4693|dock10
  -GOLD-   22720 3213D 1   1.00000     0.00000
 Structure written by MMmdl.
 50 51  0  0  0  0  0  0  0  0  1 V2000
  151.3551  137.8932  154.3381 C   0  0  0  0  0  0  0  0  0  0  0  0
  150.6477  139.1654  154.7085 C   0  0  0  0  0  0  0  0  0  0  0  0
  151.3170  140.1190  155.3329 N   0  0  0  0  0  0  0  0  0  0  0  0
  150.4150  141.1005  155.5277 N   0  0  0  0  0  0  0  0  0  0  0  0
  150.8252  142.3172  156.2019 C   0  0  0  0  0  0  0  0  0  0  0  0
  149.1709  140.7658  155.0290 C   0  0  0  0  0  0  0  0  0  0  0  0
  148.0029  141.6942  155.1420 C   0  0  0  0  0  0  0  0  0  0  0  0
  149.2828  139.5124  154.4806 C   0  0  0  0  0  0  0  0  0  0  0  0
  148.2351  138.6507  153.8002 C   0  0  2  0  0  0  0  0  0  0  0  0
  147.0257  139.4896  153.3456 C   0  0  0  0  0  0  0  0  0  0  0  0
  147.8431  137.4606  154.6967 C   0  0  0  0  0  0  0  0  0  0  0  0
  147.6168  137.6295  155.8950 O   0  0  0  0  0  0  0  0  0  0  0  0
  147.7557  136.2633  154.0880 N   0  0  0  0  0  0  0  0  0  0  0  0
  147.4164  134.9545  154.6611 C   0  0  1  0  0  0  0  0  0  0  0  0
  148.4617  134.5574  155.7261 C   0  0  0  0  0  0  0  0  0  0  0  0
  145.9903  134.9577  155.2704 C   0  0  0  0  0  0  0  0  0  0  0  0
  144.8941  135.2071  154.2182 C   0  0  0  0  0  0  0  0  0  0  0  0
  144.9613  134.1756  153.0771 C   0  0  1  0  0  0  0  0  0  0  0  0
  143.8779  134.4342  152.0209 C   0  0  0  0  0  0  0  0  0  0  0  0
  146.3671  134.1574  152.4499 C   0  0  0  0  0  0  0  0  0  0  0  0
  147.4585  133.9202  153.5109 C   0  0  0  0  0  0  0  0  0  0  0  0
  150.8708  137.0321  154.7993 H   0  0  0  0  0  0  0  0  0  0  0  0
  152.3968  137.8989  154.6614 H   0  0  0  0  0  0  0  0  0  0  0  0
  151.3445  137.7426  153.2584 H   0  0  0  0  0  0  0  0  0  0  0  0
  150.5483  143.1819  155.5988 H   0  0  0  0  0  0  0  0  0  0  0  0
  151.9053  142.3284  156.3552 H   0  0  0  0  0  0  0  0  0  0  0  0
  150.3290  142.3837  157.1703 H   0  0  0  0  0  0  0  0  0  0  0  0
  147.0631  141.1821  154.9395 H   0  0  0  0  0  0  0  0  0  0  0  0
  148.0960  142.5178  154.4341 H   0  0  0  0  0  0  0  0  0  0  0  0
  147.9337  142.1150  156.1452 H   0  0  0  0  0  0  0  0  0  0  0  0
  148.6577  138.2031  152.9000 H   0  0  0  0  0  0  0  0  0  0  0  0
  146.5107  139.9541  154.1866 H   0  0  0  0  0  0  0  0  0  0  0  0
  146.2985  138.8818  152.8062 H   0  0  0  0  0  0  0  0  0  0  0  0
  147.3411  140.2870  152.6721 H   0  0  0  0  0  0  0  0  0  0  0  0
  147.9622  136.2557  153.0994 H   0  0  0  0  0  0  0  0  0  0  0  0
  148.2916  133.5419  156.0849 H   0  0  0  0  0  0  0  0  0  0  0  0
  148.4294  135.2105  156.5977 H   0  0  0  0  0  0  0  0  0  0  0  0
  149.4740  134.5960  155.3218 H   0  0  0  0  0  0  0  0  0  0  0  0
  145.8018  133.9949  155.7475 H   0  0  0  0  0  0  0  0  0  0  0  0
  145.9074  135.6978  156.0662 H   0  0  0  0  0  0  0  0  0  0  0  0
  143.9158  135.1646  154.6982 H   0  0  0  0  0  0  0  0  0  0  0  0
  144.9906  136.2158  153.8146 H   0  0  0  0  0  0  0  0  0  0  0  0
  144.7735  133.1899  153.5057 H   0  0  0  0  0  0  0  0  0  0  0  0
  144.0093  135.4081  151.5481 H   0  0  0  0  0  0  0  0  0  0  0  0
  142.8828  134.4116  152.4658 H   0  0  0  0  0  0  0  0  0  0  0  0
  143.9053  133.6767  151.2369 H   0  0  0  0  0  0  0  0  0  0  0  0
  146.4241  133.3754  151.6919 H   0  0  0  0  0  0  0  0  0  0  0  0
  146.5536  135.0976  151.9290 H   0  0  0  0  0  0  0  0  0  0  0  0
  148.4388  133.9302  153.0319 H   0  0  0  0  0  0  0  0  0  0  0  0
  147.3351  132.9156  153.9183 H   0  0  0  0  0  0  0  0  0  0  0  0
  1  2  1  0  0  0  0
  1 22  1  0  0  0  0
  1 23  1  0  0  0  0
  1 24  1  0  0  0  0
  2  8  1  0  0  0  0
  2  3  2  0  0  0  0
  3  4  1  0  0  0  0
  4  5  1  0  0  0  0
  4  6  1  0  0  0  0
  5 25  1  0  0  0  0
  5 26  1  0  0  0  0
  5 27  1  0  0  0  0
  6  7  1  0  0  0  0
  6  8  2  0  0  0  0
  7 28  1  0  0  0  0
  7 29  1  0  0  0  0
  7 30  1  0  0  0  0
  8  9  1  0  0  0  0
  9 10  1  0  0  0  0
  9 11  1  0  0  0  0
  9 31  1  0  0  0  0
 10 32  1  0  0  0  0
 10 33  1  0  0  0  0
 10 34  1  0  0  0  0
 11 12  2  0  0  0  0
 11 13  1  0  0  0  0
 13 14  1  0  0  0  0
 13 35  1  0  0  0  0
 14 21  1  0  0  0  0
 14 15  1  0  0  0  0
 14 16  1  0  0  0  0
 15 36  1  0  0  0  0
 15 37  1  0  0  0  0
 15 38  1  0  0  0  0
 16 17  1  0  0  0  0
 16 39  1  0  0  0  0
 16 40  1  0  0  0  0
 17 18  1  0  0  0  0
 17 41  1  0  0  0  0
 17 42  1  0  0  0  0
 18 19  1  0  0  0  0
 18 20  1  0  0  0  0
 18 43  1  0  0  0  0
 19 44  1  0  0  0  0
 19 45  1  0  0  0  0
 19 46  1  0  0  0  0
 20 21  1  0  0  0  0
 20 47  1  0  0  0  0
 20 48  1  0  0  0  0
 21 49  1  0  0  0  0
 21 50  1  0  0  0  0
M  END
> <s_m_source_file>
AV-unprocessed.smi

> <i_m_source_file_index>
1075

> <i_lp_mmshare_version>
43012

> <i_f3d_flags>
0

> <s_epik_input>
W0NIM11jMW5uKFtDSDNdKWMoW0NIM10pYzFbQ0BIXShbQ0gzXSlDKD1PKVtOSF1bQ0BAXTIoW0NIM10pW0NIMl1bQ0gyXVtDQEBIXShbQ0gzXSlbQ0gyXVtDSDJdMg==

> <s_epik_cmdline>
J2VwaWtfcHl0aG9uJywgJy1waCcsICc3LjAnLCAnLXRuJywgJzgnLCAnLW1hJywgJzIwMCcsICctbWV0YWxfYmluZGluZycsICctaW1hZScsICc8aW5maWxlLm1hZT4nLCAnLW9tYWUnLCAnPG91dGZpbGUubWFlPic=

> <r_lp_tautomer_probability>
1

> <r_epik_Ionization_Penalty>
0.00502928

> <r_epik_Ionization_Penalty_Charging>
0

> <r_epik_Ionization_Penalty_Neutral>
0.00502928

> <r_epik_State_Penalty>
0.0036576

> <r_epik_Charging_Adjusted_Penalty>
0.0036576

> <i_epik_Tot_Q>
0

> <i_epik_Tot_abs_Q>
0

> <r_epik_Metal_State_Penalty>
-0

> <b_epik_Metal_Only>
0

> <s_lp_Force_Field>
OPLS_2005

> <r_lp_Energy>
4.57547

> <b_lp_Chiralities_Consistent>
1

> <s_lp_Variant>
AV-unprocessed.smi:1075-1

> <Gold.Version>
5.8.1

> <Gold.Id.Protein>
6NUR|6NUR_protein|mol2

> <Gold.PLP.Fitness>
31.1875

> <Gold.PLP.PLP>
-29.3877

> <Gold.PLP.part.hbond>
-1.9749

> <Gold.PLP.part.metal>
0.0000

> <Gold.PLP.part.buried>
-0.6345

> <Gold.PLP.part.nonpolar>
-25.8054

> <Gold.PLP.part.repulsive>
0.0495

> <Gold.PLP.ligand.clash>
0.0000

> <Gold.PLP.ligand.torsion>
0.8473

> <Gold.PLP.Chemscore.Hbond>
1.1350

> <Gold.PLP.Chemscore.CHOScore>
0.0000

> <Gold.PLP.Chemscore.Metal>
0.0000

> <Gold.Chemscore.Hbonds>
donor molecule, donor type, donor heavy atom, donor atom, acceptor molecule, acceptor atom, score
      L1  H    13    35       P1  7948  1.00
      P1  H  7989  7998       L1     3  0.12

> <Gold.PLP.Chemscore.Internal.Correction>
0.0893

> <Gold.Rescore>
     Score         DG    S(hbond)    S(metal)    S(lipo)     H(rot)  DE(clash)    DE(int)     intcor
     12.68     -14.58       0.95        0.00      77.65       1.23       0.10       1.80       ----

> <Gold.Chemscore.Fitness>
12.6819

> <Gold.Chemscore.DG>
-14.5824

> <Gold.Chemscore.ZeroCoef>
-5.4800

> <Gold.Chemscore.Hbond>
0.9495

> <Gold.Chemscore.Metal>
0.0000

> <Gold.Chemscore.Lipo>
77.6501

> <Gold.Chemscore.Internal_Hbond>
0.0000

> <Gold.Chemscore.DEClash>
0.1026

> <Gold.Chemscore.DEInternal>
1.7978

> <Gold.Chemscore.Rot>
1.2321

> <Gold.Chemscore.Internal.Correction>
   9.000000E+99

> <Gold.Chemscore.Hbonds>
donor molecule, donor type, donor heavy atom, donor atom, acceptor molecule, acceptor atom, score
      L1  H    13    35       P1  7948  0.95

> <Gold.Chemscore.Hbond.Weighted>
-3.1714

> <Gold.Chemscore.Metal.Weighted>
-0.0000

> <Gold.Chemscore.Lipo.Weighted>
-9.0851

> <Gold.Chemscore.Internal_Hbond.Weighted>
0.0000

> <Gold.Chemscore.DEClash.Weighted>
0.1026

> <Gold.Chemscore.DEInternal.Weighted>
1.7978

> <Gold.Chemscore.Rot.Weighted>
3.1541

> <Gold.Chemscore.Internal.Correction.Weighted>
   9.000000E+99

> <Gold.Protein.RotatedTorsions>
[ 6907 6896 6895 6894 ] final  -54.76 input  -60.11 | X-H torsion
[ 7974 7965 7964 7962 ] final -164.71 input  175.53 | X-H torsion
[ 8008 7997 7996 7995 ] final  -32.03 input   59.86 | X-H torsion
[ 10167 10162 10161 10158 ] final   36.61 input  -65.29 | X-H torsion
[ 10718 10713 10712 10709 ] final -157.13 input   66.30 | X-H torsion
[ 10763 10752 10751 10750 ] final   98.30 input  -60.55 | X-H torsion
[ 11005 11000 10999 10996 ] final  -50.55 input  -57.11 | X-H torsion

> <Gold.Protein.ActiveResidues>
 VAL166  LYS551  ARG553  GLY616  TRP617  ASP618  TYR619  PRO620  LYS621  CYS622 
 ASP623  PHE694  ASN695  SER759  ASP760  ASP761  ALA762  ILE779  LEU786  VAL792 
 PHE793  MET794  SER795  GLU796  ALA797  LYS798  CYS799  TRP800  GLU811  SER814 

> <Gold.Protein.RotatedAtoms>
  150.8310  134.7562  159.6852 H   0  0  0  0  0  0  0  0  0  0  0  0  # atno 6907 bound_to 6896
  152.4414  134.5580  159.9895 H   0  0  0  0  0  0  0  0  0  0  0  0  # atno 6908 bound_to 6896
  151.5741  133.3348  159.3031 H   0  0  0  0  0  0  0  0  0  0  0  0  # atno 6909 bound_to 6896
  144.7289  140.2921  143.6219 H   0  0  0  0  0  0  0  0  0  0  0  0  # atno 7974 bound_to 7965
  154.4193  140.1748  156.1661 H   0  0  0  0  0  0  0  0  0  0  0  0  # atno 8008 bound_to 7997
  155.9798  140.3378  155.6628 H   0  0  0  0  0  0  0  0  0  0  0  0  # atno 8009 bound_to 7997
  155.6515  140.0691  157.2576 H   0  0  0  0  0  0  0  0  0  0  0  0  # atno 8010 bound_to 7997
  140.4111  144.1591  150.6139 H   0  0  0  0  0  0  0  0  0  0  0  0  # atno 10167 bound_to 10162
  156.5361  130.8542  151.2733 H   0  0  0  0  0  0  0  0  0  0  0  0  # atno 10718 bound_to 10713
  153.2874  135.4153  155.1135 H   0  0  0  0  0  0  0  0  0  0  0  0  # atno 10763 bound_to 10752
  154.8509  135.3510  154.6029 H   0  0  0  0  0  0  0  0  0  0  0  0  # atno 10764 bound_to 10752
  153.6451  135.7055  153.5286 H   0  0  0  0  0  0  0  0  0  0  0  0  # atno 10765 bound_to 10752
  141.0822  133.6650  156.3748 H   0  0  0  0  0  0  0  0  0  0  0  0  # atno 11005 bound_to 11000
  145.7845  139.1903  143.2139 LP  0  0  0  0  0  0  0  0  0  0  0  0  # atno 17320 bound_to 7965
  146.0807  140.7767  142.9643 LP  0  0  0  0  0  0  0  0  0  0  0  0  # atno 17321 bound_to 7965
  140.4637  143.2439  151.9185 LP  0  0  0  0  0  0  0  0  0  0  0  0  # atno 17342 bound_to 10162
  139.4782  144.5441  151.8484 LP  0  0  0  0  0  0  0  0  0  0  0  0  # atno 17343 bound_to 10162
  157.7413  130.9868  150.2439 LP  0  0  0  0  0  0  0  0  0  0  0  0  # atno 17370 bound_to 10713
  156.3015  130.3759  149.7746 LP  0  0  0  0  0  0  0  0  0  0  0  0  # atno 17371 bound_to 10713
  140.5443  134.6090  157.5389 LP  0  0  0  0  0  0  0  0  0  0  0  0  # atno 17394 bound_to 11000
  139.9637  134.7409  156.0183 LP  0  0  0  0  0  0  0  0  0  0  0  0  # atno 17395 bound_to 11000

$$$$
