AV-unprocessed.smi:1252|AV-procd|sdf|5264|dock10
  -GOLD-   22720 4373D 1   1.00000     0.00000
 Structure written by MMmdl.
 43 44  0  0  0  0  0  0  0  0  1 V2000
  147.6303  140.2780  153.6557 C   0  0  0  0  0  0  0  0  0  0  0  0
  147.8204  141.5783  154.4567 C   0  0  2  0  0  0  0  0  0  0  0  0
  148.3351  141.3146  155.8794 C   0  0  0  0  0  0  0  0  0  0  0  0
  148.4979  140.1615  156.2810 O   0  0  0  0  0  0  0  0  0  0  0  0
  148.5882  142.3992  156.6283 N   0  0  0  0  0  0  0  0  0  0  0  0
  149.1040  142.3966  157.9967 C   0  0  0  0  0  0  0  0  0  0  0  0
  150.6253  142.0675  158.0761 C   0  0  0  0  0  0  0  0  0  0  0  0
  150.7808  140.5598  157.7624 C   0  0  0  0  0  0  0  0  0  0  0  0
  151.3103  142.8416  156.9212 C   0  0  0  0  0  0  0  0  0  0  0  0
  151.2047  142.4517  159.3944 N   0  0  0  0  0  0  0  0  0  0  0  0
  152.5242  141.8759  159.6808 C   0  0  0  0  0  0  0  0  0  0  0  0
  153.0050  142.2109  161.1029 C   0  0  0  0  0  0  0  0  0  0  0  0
  153.0290  143.6220  161.2803 O   0  0  0  0  0  0  0  0  0  0  0  0
  151.7537  144.2160  161.0702 C   0  0  0  0  0  0  0  0  0  0  0  0
  151.2598  143.8962  159.6489 C   0  0  0  0  0  0  0  0  0  0  0  0
  146.5870  142.3518  154.4955 N   0  0  0  0  0  0  0  0  0  0  0  0
  146.2201  143.4550  153.8360 C   0  0  0  0  0  0  0  0  0  0  0  0
  145.0076  143.8900  154.1488 N   0  0  0  0  0  0  0  0  0  0  0  0
  144.6602  142.9478  155.0748 C   0  0  0  0  0  0  0  0  0  0  0  0
  145.5712  142.0067  155.3224 N   0  0  0  0  0  0  0  0  0  0  0  0
  148.5487  139.6899  153.6338 H   0  0  0  0  0  0  0  0  0  0  0  0
  147.3567  140.4966  152.6231 H   0  0  0  0  0  0  0  0  0  0  0  0
  146.8440  139.6515  154.0789 H   0  0  0  0  0  0  0  0  0  0  0  0
  148.5748  142.1732  153.9375 H   0  0  0  0  0  0  0  0  0  0  0  0
  148.4288  143.3046  156.2109 H   0  0  0  0  0  0  0  0  0  0  0  0
  148.8972  143.3762  158.4266 H   0  0  0  0  0  0  0  0  0  0  0  0
  148.5312  141.7045  158.6170 H   0  0  0  0  0  0  0  0  0  0  0  0
  150.3563  140.3182  156.7870 H   0  0  0  0  0  0  0  0  0  0  0  0
  150.2682  139.9325  158.4914 H   0  0  0  0  0  0  0  0  0  0  0  0
  151.8252  140.2500  157.7344 H   0  0  0  0  0  0  0  0  0  0  0  0
  150.7749  142.7124  155.9798 H   0  0  0  0  0  0  0  0  0  0  0  0
  152.3283  142.4972  156.7396 H   0  0  0  0  0  0  0  0  0  0  0  0
  151.3573  143.9119  157.1249 H   0  0  0  0  0  0  0  0  0  0  0  0
  152.5060  140.7919  159.5845 H   0  0  0  0  0  0  0  0  0  0  0  0
  153.2599  142.2452  158.9662 H   0  0  0  0  0  0  0  0  0  0  0  0
  152.3533  141.7532  161.8491 H   0  0  0  0  0  0  0  0  0  0  0  0
  154.0072  141.8147  161.2665 H   0  0  0  0  0  0  0  0  0  0  0  0
  151.0462  143.8505  161.8160 H   0  0  0  0  0  0  0  0  0  0  0  0
  151.8357  145.2942  161.2084 H   0  0  0  0  0  0  0  0  0  0  0  0
  151.9209  144.3811  158.9308 H   0  0  0  0  0  0  0  0  0  0  0  0
  150.2774  144.3496  159.5320 H   0  0  0  0  0  0  0  0  0  0  0  0
  146.8538  143.9499  153.1144 H   0  0  0  0  0  0  0  0  0  0  0  0
  143.7075  142.9571  155.5837 H   0  0  0  0  0  0  0  0  0  0  0  0
  1  2  1  0  0  0  0
  1 21  1  0  0  0  0
  1 22  1  0  0  0  0
  1 23  1  0  0  0  0
  2  3  1  0  0  0  0
  2 16  1  0  0  0  0
  2 24  1  0  0  0  0
  3  4  2  0  0  0  0
  3  5  1  0  0  0  0
  5  6  1  0  0  0  0
  5 25  1  0  0  0  0
  6  7  1  0  0  0  0
  6 26  1  0  0  0  0
  6 27  1  0  0  0  0
  7  8  1  0  0  0  0
  7  9  1  0  0  0  0
  7 10  1  0  0  0  0
  8 28  1  0  0  0  0
  8 29  1  0  0  0  0
  8 30  1  0  0  0  0
  9 31  1  0  0  0  0
  9 32  1  0  0  0  0
  9 33  1  0  0  0  0
 10 15  1  0  0  0  0
 10 11  1  0  0  0  0
 11 12  1  0  0  0  0
 11 34  1  0  0  0  0
 11 35  1  0  0  0  0
 12 13  1  0  0  0  0
 12 36  1  0  0  0  0
 12 37  1  0  0  0  0
 13 14  1  0  0  0  0
 14 15  1  0  0  0  0
 14 38  1  0  0  0  0
 14 39  1  0  0  0  0
 15 40  1  0  0  0  0
 15 41  1  0  0  0  0
 16 20  1  0  0  0  0
 16 17  1  0  0  0  0
 17 18  2  0  0  0  0
 17 42  1  0  0  0  0
 18 19  1  0  0  0  0
 19 20  2  0  0  0  0
 19 43  1  0  0  0  0
M  END
> <s_m_source_file>
AV-unprocessed.smi

> <i_m_source_file_index>
1252

> <i_lp_mmshare_version>
43012

> <i_f3d_flags>
0

> <s_epik_input>
bjFbY0hdbltjSF1uMVtDQEhdKFtDSDNdKUMoPU8pW05IXVtDSDJdQyhbQ0gzXSkoW0NIM10pTjJbQ0gyXVtDSDJdT1tDSDJdW0NIMl0y

> <s_epik_cmdline>
J2VwaWtfcHl0aG9uJywgJy1waCcsICc3LjAnLCAnLXRuJywgJzgnLCAnLW1hJywgJzIwMCcsICctbWV0YWxfYmluZGluZycsICctaW1hZScsICc8aW5maWxlLm1hZT4nLCAnLW9tYWUnLCAnPG91dGZpbGUubWFlPic=

> <r_lp_tautomer_probability>
1

> <r_epik_Ionization_Penalty>
0.211373

> <r_epik_Ionization_Penalty_Charging>
0

> <r_epik_Ionization_Penalty_Neutral>
0.211373

> <r_epik_State_Penalty>
0.201459

> <r_epik_Charging_Adjusted_Penalty>
0.201459

> <i_epik_Tot_Q>
0

> <i_epik_Tot_abs_Q>
0

> <r_epik_Metal_State_Penalty>
0.201458

> <b_epik_Metal_Only>
0

> <s_lp_Force_Field>
OPLS_2005

> <r_lp_Energy>
48.0219

> <b_lp_Chiralities_Consistent>
1

> <s_lp_Variant>
AV-unprocessed.smi:1252-1

> <Gold.Version>
5.8.1

> <Gold.Id.Protein>
6NUR|6NUR_protein|mol2

> <Gold.PLP.Fitness>
35.9410

> <Gold.PLP.PLP>
-34.5251

> <Gold.PLP.part.hbond>
-1.5142

> <Gold.PLP.part.metal>
0.0000

> <Gold.PLP.part.buried>
-2.6306

> <Gold.PLP.part.nonpolar>
-30.3484

> <Gold.PLP.part.repulsive>
0.4535

> <Gold.PLP.ligand.clash>
0.0000

> <Gold.PLP.ligand.torsion>
0.8562

> <Gold.PLP.Chemscore.Hbond>
1.0000

> <Gold.PLP.Chemscore.CHOScore>
0.0000

> <Gold.PLP.Chemscore.Metal>
0.0000

> <Gold.Chemscore.Hbonds>
donor molecule, donor type, donor heavy atom, donor atom, acceptor molecule, acceptor atom, score
      L1  H     5    25       P1  8028  1.00

> <Gold.PLP.Chemscore.Internal.Correction>
0.1282

> <Gold.Rescore>
     Score         DG    S(hbond)    S(metal)    S(lipo)     H(rot)  DE(clash)    DE(int)     intcor
      9.34     -11.04       0.94        0.00      75.72       2.52       0.04       1.65       ----

> <Gold.Chemscore.Fitness>
9.3400

> <Gold.Chemscore.DG>
-11.0369

> <Gold.Chemscore.ZeroCoef>
-5.4800

> <Gold.Chemscore.Hbond>
0.9391

> <Gold.Chemscore.Metal>
0.0000

> <Gold.Chemscore.Lipo>
75.7218

> <Gold.Chemscore.Internal_Hbond>
0.0000

> <Gold.Chemscore.DEClash>
0.0444

> <Gold.Chemscore.DEInternal>
1.6525

> <Gold.Chemscore.Rot>
2.5153

> <Gold.Chemscore.Internal.Correction>
   9.000000E+99

> <Gold.Chemscore.Hbonds>
donor molecule, donor type, donor heavy atom, donor atom, acceptor molecule, acceptor atom, score
      L1  H     5    25       P1  8028  0.75

> <Gold.Chemscore.Hbond.Weighted>
-3.1366

> <Gold.Chemscore.Metal.Weighted>
-0.0000

> <Gold.Chemscore.Lipo.Weighted>
-8.8594

> <Gold.Chemscore.Internal_Hbond.Weighted>
0.0000

> <Gold.Chemscore.DEClash.Weighted>
0.0444

> <Gold.Chemscore.DEInternal.Weighted>
1.6525

> <Gold.Chemscore.Rot.Weighted>
6.4392

> <Gold.Chemscore.Internal.Correction.Weighted>
   9.000000E+99

> <Gold.Protein.RotatedTorsions>
[ 6907 6896 6895 6894 ] final  173.41 input  -60.11 | X-H torsion
[ 7974 7965 7964 7962 ] final  -87.18 input  175.53 | X-H torsion
[ 8008 7997 7996 7995 ] final  118.45 input   59.86 | X-H torsion
[ 10167 10162 10161 10158 ] final  128.12 input  -65.29 | X-H torsion
[ 10718 10713 10712 10709 ] final  108.01 input   66.30 | X-H torsion
[ 10763 10752 10751 10750 ] final  -54.74 input  -60.55 | X-H torsion
[ 11005 11000 10999 10996 ] final   24.53 input  -57.11 | X-H torsion

> <Gold.Protein.ActiveResidues>
 VAL166  LYS551  ARG553  GLY616  TRP617  ASP618  TYR619  PRO620  LYS621  CYS622 
 ASP623  PHE694  ASN695  SER759  ASP760  ASP761  ALA762  ILE779  LEU786  VAL792 
 PHE793  MET794  SER795  GLU796  ALA797  LYS798  CYS799  TRP800  GLU811  SER814 

> <Gold.Protein.RotatedAtoms>
  151.7687  133.3339  159.3438 H   0  0  0  0  0  0  0  0  0  0  0  0  # atno 6907 bound_to 6896
  150.7470  134.6038  159.6060 H   0  0  0  0  0  0  0  0  0  0  0  0  # atno 6908 bound_to 6896
  152.3356  134.7204  160.0329 H   0  0  0  0  0  0  0  0  0  0  0  0  # atno 6909 bound_to 6896
  145.4699  140.9560  143.1923 H   0  0  0  0  0  0  0  0  0  0  0  0  # atno 7974 bound_to 7965
  156.2547  140.2874  156.0836 H   0  0  0  0  0  0  0  0  0  0  0  0  # atno 8008 bound_to 7997
  155.1539  140.0398  157.2845 H   0  0  0  0  0  0  0  0  0  0  0  0  # atno 8009 bound_to 7997
  154.6441  140.2529  155.7295 H   0  0  0  0  0  0  0  0  0  0  0  0  # atno 8010 bound_to 7997
  139.5543  144.6837  151.4229 H   0  0  0  0  0  0  0  0  0  0  0  0  # atno 10167 bound_to 10162
  157.6604  131.0885  150.6242 H   0  0  0  0  0  0  0  0  0  0  0  0  # atno 10718 bound_to 10713
  154.1797  135.6445  153.5031 H   0  0  0  0  0  0  0  0  0  0  0  0  # atno 10763 bound_to 10752
  153.0062  135.5403  154.6527 H   0  0  0  0  0  0  0  0  0  0  0  0  # atno 10764 bound_to 10752
  154.5888  135.2932  155.0629 H   0  0  0  0  0  0  0  0  0  0  0  0  # atno 10765 bound_to 10752
  140.3577  134.2159  155.7674 H   0  0  0  0  0  0  0  0  0  0  0  0  # atno 11005 bound_to 11000
  144.7951  139.6250  143.7096 LP  0  0  0  0  0  0  0  0  0  0  0  0  # atno 17320 bound_to 7965
  146.2402  139.5987  142.9496 LP  0  0  0  0  0  0  0  0  0  0  0  0  # atno 17321 bound_to 7965
  140.6813  143.8076  150.7125 LP  0  0  0  0  0  0  0  0  0  0  0  0  # atno 17342 bound_to 10162
  140.1530  143.4341  152.2118 LP  0  0  0  0  0  0  0  0  0  0  0  0  # atno 17343 bound_to 10162
  156.6545  130.4494  149.5708 LP  0  0  0  0  0  0  0  0  0  0  0  0  # atno 17370 bound_to 10713
  156.2112  130.6680  151.1272 LP  0  0  0  0  0  0  0  0  0  0  0  0  # atno 17371 bound_to 10713
  141.1993  133.8014  157.0541 LP  0  0  0  0  0  0  0  0  0  0  0  0  # atno 17394 bound_to 11000
  140.0651  134.9733  157.1372 LP  0  0  0  0  0  0  0  0  0  0  0  0  # atno 17395 bound_to 11000

$$$$
