AV-unprocessed.smi:1933|AV-procd|sdf|7820|dock5
  -GOLD-   22720 9563D 1   1.00000     0.00000
 Structure written by MMmdl.
 48 50  0  0  0  0  0  0  0  0  2 V2000
  144.7305  136.9326  152.1090 O   0  0  0  0  0  0  0  0  0  0  0  0
  145.9364  136.7140  151.9921 C   0  0  0  0  0  0  0  0  0  0  0  0
  146.8804  137.6516  152.1609 N   0  0  0  0  0  0  0  0  0  0  0  0
  146.6396  139.0485  152.5107 C   0  0  0  0  0  0  0  0  0  0  0  0
  146.5084  139.2858  154.0417 C   0  0  1  0  0  0  0  0  0  0  0  0
  147.8306  139.0824  154.8384 C   0  0  2  0  0  0  0  0  0  0  0  0
  149.0365  139.8943  154.3600 C   0  0  0  0  0  0  0  0  0  0  0  0
  150.2386  138.9580  154.5148 C   0  0  0  0  0  0  0  0  0  0  0  0
  149.7340  137.8097  155.1763 O   0  0  0  0  0  0  0  0  0  0  0  0
  148.3870  137.6559  154.7727 C   0  0  0  0  0  0  0  0  0  0  0  0
  145.9401  140.6357  154.3412 N   0  3  0  0  0  0  0  0  0  0  0  0
  145.5285  140.8772  155.7475 C   0  0  0  0  0  0  0  0  0  0  0  0
  144.7866  142.2198  155.8494 C   0  0  0  0  0  0  0  0  0  0  0  0
  145.6283  143.2634  155.3727 O   0  0  0  0  0  0  0  0  0  0  0  0
  145.9811  143.0877  154.0053 C   0  0  0  0  0  0  0  0  0  0  0  0
  146.7516  141.7677  153.8313 C   0  0  0  0  0  0  0  0  0  0  0  0
  146.4822  135.5331  151.6537 N   0  0  0  0  0  0  0  0  0  0  0  0
  145.8149  134.3414  151.2679 C   0  0  0  0  0  0  0  0  0  0  0  0
  146.5457  133.2405  150.7521 C   0  0  0  0  0  0  0  0  0  0  0  0
  145.8558  132.0776  150.3593 C   0  0  0  0  0  0  0  0  0  0  0  0
  144.4552  132.0465  150.4786 C   0  0  0  0  0  0  0  0  0  0  0  0
  143.8074  133.1899  150.9804 C   0  0  0  0  0  0  0  0  0  0  0  0
  144.4652  134.3069  151.3574 N   0  0  0  0  0  0  0  0  0  0  0  0
  147.8439  137.3750  152.0403 H   0  0  0  0  0  0  0  0  0  0  0  0
  147.4223  139.6844  152.0955 H   0  0  0  0  0  0  0  0  0  0  0  0
  145.7194  139.3363  152.0036 H   0  0  0  0  0  0  0  0  0  0  0  0
  145.7956  138.5578  154.4324 H   0  0  0  0  0  0  0  0  0  0  0  0
  147.6635  139.3246  155.8890 H   0  0  0  0  0  0  0  0  0  0  0  0
  148.9394  140.1996  153.3177 H   0  0  0  0  0  0  0  0  0  0  0  0
  149.1674  140.7938  154.9613 H   0  0  0  0  0  0  0  0  0  0  0  0
  150.6290  138.6695  153.5377 H   0  0  0  0  0  0  0  0  0  0  0  0
  151.0504  139.4102  155.0852 H   0  0  0  0  0  0  0  0  0  0  0  0
  147.8587  136.9645  155.4299 H   0  0  0  0  0  0  0  0  0  0  0  0
  148.3522  137.2603  153.7558 H   0  0  0  0  0  0  0  0  0  0  0  0
  144.8816  140.0749  156.1012 H   0  0  0  0  0  0  0  0  0  0  0  0
  146.4015  140.9020  156.4005 H   0  0  0  0  0  0  0  0  0  0  0  0
  143.8558  142.1957  155.2803 H   0  0  0  0  0  0  0  0  0  0  0  0
  144.5212  142.4255  156.8865 H   0  0  0  0  0  0  0  0  0  0  0  0
  145.0851  143.0998  153.3827 H   0  0  0  0  0  0  0  0  0  0  0  0
  146.5995  143.9281  153.6894 H   0  0  0  0  0  0  0  0  0  0  0  0
  147.7006  141.8229  154.3655 H   0  0  0  0  0  0  0  0  0  0  0  0
  146.9831  141.6180  152.7761 H   0  0  0  0  0  0  0  0  0  0  0  0
  147.4816  135.5303  151.5137 H   0  0  0  0  0  0  0  0  0  0  0  0
  147.6192  133.2741  150.6424 H   0  0  0  0  0  0  0  0  0  0  0  0
  146.3931  131.2263  149.9680 H   0  0  0  0  0  0  0  0  0  0  0  0
  143.8919  131.1724  150.1870 H   0  0  0  0  0  0  0  0  0  0  0  0
  142.7323  133.2101  151.0808 H   0  0  0  0  0  0  0  0  0  0  0  0
  145.0858  140.6737  153.8033 H   0  0  0  0  0  0  0  0  0  0  0  0
  1  2  2  0  0  0  0
  2  3  1  0  0  0  0
  2 17  1  0  0  0  0
  3  4  1  0  0  0  0
  3 24  1  0  0  0  0
  4  5  1  0  0  0  0
  4 25  1  0  0  0  0
  4 26  1  0  0  0  0
  5  6  1  0  0  0  0
  5 11  1  0  0  0  0
  5 27  1  0  0  0  0
  6 10  1  0  0  0  0
  6  7  1  0  0  0  0
  6 28  1  0  0  0  0
  7  8  1  0  0  0  0
  7 29  1  0  0  0  0
  7 30  1  0  0  0  0
  8  9  1  0  0  0  0
  8 31  1  0  0  0  0
  8 32  1  0  0  0  0
  9 10  1  0  0  0  0
 10 33  1  0  0  0  0
 10 34  1  0  0  0  0
 11 16  1  0  0  0  0
 11 12  1  0  0  0  0
 11 48  1  0  0  0  0
 12 13  1  0  0  0  0
 12 35  1  0  0  0  0
 12 36  1  0  0  0  0
 13 14  1  0  0  0  0
 13 37  1  0  0  0  0
 13 38  1  0  0  0  0
 14 15  1  0  0  0  0
 15 16  1  0  0  0  0
 15 39  1  0  0  0  0
 15 40  1  0  0  0  0
 16 41  1  0  0  0  0
 16 42  1  0  0  0  0
 17 18  1  0  0  0  0
 17 43  1  0  0  0  0
 18 23  1  0  0  0  0
 18 19  2  0  0  0  0
 19 20  1  0  0  0  0
 19 44  1  0  0  0  0
 20 21  2  0  0  0  0
 20 45  1  0  0  0  0
 21 22  1  0  0  0  0
 21 46  1  0  0  0  0
 22 23  2  0  0  0  0
 22 47  1  0  0  0  0
M  CHG  1  11   1
M  END
> <s_m_source_file>
AV-unprocessed.smi

> <i_m_source_file_index>
1933

> <i_lp_mmshare_version>
43012

> <i_f3d_flags>
0

> <s_epik_input>
bjFbY0hdW2NIXVtjSF1bY0hdYzFbTkhdQyg9TylbTkhdW0NIMl1bQ0BIXShbQ0BASF0yW0NIMl1bQ0gyXU9bQ0gyXTIpTjNbQ0gyXVtDSDJdT1tDSDJdW0NIMl0z

> <s_epik_cmdline>
J2VwaWtfcHl0aG9uJywgJy1waCcsICc3LjAnLCAnLXRuJywgJzgnLCAnLW1hJywgJzIwMCcsICctbWV0YWxfYmluZGluZycsICctaW1hZScsICc8aW5maWxlLm1hZT4nLCAnLW9tYWUnLCAnPG91dGZpbGUubWFlPic=

> <r_epik_Ionization_Penalty>
0.983294

> <r_epik_Ionization_Penalty_Charging>
0.98326

> <r_epik_Ionization_Penalty_Neutral>
3.39688e-05

> <r_epik_State_Penalty>
1.0303

> <r_epik_Charging_Adjusted_Penalty>
2.01356

> <i_epik_Tot_Q>
1

> <i_epik_Tot_abs_Q>
1

> <r_epik_Metal_State_Penalty>
1.0303

> <b_epik_Metal_Only>
0

> <s_lp_Force_Field>
OPLS_2005

> <r_lp_Energy>
43.6882

> <b_lp_Chiralities_Consistent>
1

> <s_lp_Variant>
AV-unprocessed.smi:1933-6

> <Gold.Version>
5.8.1

> <Gold.Id.Protein>
6NUR|6NUR_protein|mol2

> <Gold.PLP.Fitness>
51.4770

> <Gold.PLP.PLP>
-36.9850

> <Gold.PLP.part.hbond>
-2.9075

> <Gold.PLP.part.metal>
0.0000

> <Gold.PLP.part.buried>
-6.7505

> <Gold.PLP.part.nonpolar>
-30.8024

> <Gold.PLP.part.repulsive>
2.1911

> <Gold.PLP.ligand.clash>
0.0000

> <Gold.PLP.ligand.torsion>
0.3712

> <Gold.PLP.Chemscore.Hbond>
3.9920

> <Gold.PLP.Chemscore.CHOScore>
0.9998

> <Gold.PLP.Chemscore.Metal>
0.0000

> <Gold.Chemscore.Hbonds>
donor molecule, donor type, donor heavy atom, donor atom, acceptor molecule, acceptor atom, score
      L1  H     3    24       P1  7948  1.00
      L1  H    11    48       P1 10175  2.00
      L1  H    17    43       P1  7948  0.99
      L1  C    22    47       P1 10186  0.80

> <Gold.PLP.Chemscore.Internal.Correction>
0.2592

> <Gold.Rescore>
     Score         DG    S(hbond)    S(metal)    S(lipo)     H(rot)  DE(clash)    DE(int)     intcor
     18.23     -20.31       2.85        0.00      83.95       1.77       0.17       1.91       ----

> <Gold.Chemscore.Fitness>
18.2327

> <Gold.Chemscore.DG>
-20.3105

> <Gold.Chemscore.ZeroCoef>
-5.4800

> <Gold.Chemscore.Hbond>
2.8538

> <Gold.Chemscore.Metal>
0.0000

> <Gold.Chemscore.Lipo>
83.9539

> <Gold.Chemscore.Internal_Hbond>
0.0000

> <Gold.Chemscore.DEClash>
0.1687

> <Gold.Chemscore.DEInternal>
1.9091

> <Gold.Chemscore.Rot>
1.7671

> <Gold.Chemscore.Internal.Correction>
   9.000000E+99

> <Gold.Chemscore.Hbonds>
donor molecule, donor type, donor heavy atom, donor atom, acceptor molecule, acceptor atom, score
      L1  H     3    24       P1  7948  0.93
      L1  H    11    48       P1 10175  0.97
      L1  H    17    43       P1  7948  0.88

> <Gold.Chemscore.Hbond.Weighted>
-9.5317

> <Gold.Chemscore.Metal.Weighted>
-0.0000

> <Gold.Chemscore.Lipo.Weighted>
-9.8226

> <Gold.Chemscore.Internal_Hbond.Weighted>
0.0000

> <Gold.Chemscore.DEClash.Weighted>
0.1687

> <Gold.Chemscore.DEInternal.Weighted>
1.9091

> <Gold.Chemscore.Rot.Weighted>
4.5238

> <Gold.Chemscore.Internal.Correction.Weighted>
   9.000000E+99

> <Gold.Protein.RotatedTorsions>
[ 6907 6896 6895 6894 ] final   81.47 input  -60.11 | X-H torsion
[ 7974 7965 7964 7962 ] final  -54.08 input  175.53 | X-H torsion
[ 8008 7997 7996 7995 ] final  155.66 input   59.86 | X-H torsion
[ 10167 10162 10161 10158 ] final -127.01 input  -65.29 | X-H torsion
[ 10718 10713 10712 10709 ] final -103.08 input   66.30 | X-H torsion
[ 10763 10752 10751 10750 ] final   83.04 input  -60.55 | X-H torsion
[ 11005 11000 10999 10996 ] final   74.34 input  -57.11 | X-H torsion

> <Gold.Protein.ActiveResidues>
 VAL166  LYS551  ARG553  GLY616  TRP617  ASP618  TYR619  PRO620  LYS621  CYS622 
 ASP623  PHE694  ASN695  SER759  ASP760  ASP761  ALA762  ILE779  LEU786  VAL792 
 PHE793  MET794  SER795  GLU796  ALA797  LYS798  CYS799  TRP800  GLU811  SER814 

> <Gold.Protein.RotatedAtoms>
  152.5269  134.3199  159.9144 H   0  0  0  0  0  0  0  0  0  0  0  0  # atno 6907 bound_to 6896
  151.3148  133.4059  159.2657 H   0  0  0  0  0  0  0  0  0  0  0  0  # atno 6908 bound_to 6896
  151.0008  134.9337  159.8010 H   0  0  0  0  0  0  0  0  0  0  0  0  # atno 6909 bound_to 6896
  145.8896  140.8081  142.9798 H   0  0  0  0  0  0  0  0  0  0  0  0  # atno 7974 bound_to 7965
  156.2466  140.1933  156.6835 H   0  0  0  0  0  0  0  0  0  0  0  0  # atno 8008 bound_to 7997
  154.6304  140.0596  156.9751 H   0  0  0  0  0  0  0  0  0  0  0  0  # atno 8009 bound_to 7997
  155.1719  140.3269  155.4393 H   0  0  0  0  0  0  0  0  0  0  0  0  # atno 8010 bound_to 7997
  139.9654  143.5904  152.2431 H   0  0  0  0  0  0  0  0  0  0  0  0  # atno 10167 bound_to 10162
  156.0252  130.5450  150.7202 H   0  0  0  0  0  0  0  0  0  0  0  0  # atno 10718 bound_to 10713
  153.1255  135.4706  154.9266 H   0  0  0  0  0  0  0  0  0  0  0  0  # atno 10763 bound_to 10752
  154.7616  135.3133  154.8369 H   0  0  0  0  0  0  0  0  0  0  0  0  # atno 10764 bound_to 10752
  153.8923  135.6883  153.4813 H   0  0  0  0  0  0  0  0  0  0  0  0  # atno 10765 bound_to 10752
  139.9396  134.7424  156.1136 H   0  0  0  0  0  0  0  0  0  0  0  0  # atno 11005 bound_to 11000
  144.6730  140.1509  143.7430 LP  0  0  0  0  0  0  0  0  0  0  0  0  # atno 17320 bound_to 7965
  145.8925  139.2383  143.1541 LP  0  0  0  0  0  0  0  0  0  0  0  0  # atno 17321 bound_to 7965
  139.6522  144.7661  151.2126 LP  0  0  0  0  0  0  0  0  0  0  0  0  # atno 17342 bound_to 10162
  140.7540  143.6143  150.8575 LP  0  0  0  0  0  0  0  0  0  0  0  0  # atno 17343 bound_to 10162
  157.4819  131.0903  151.0526 LP  0  0  0  0  0  0  0  0  0  0  0  0  # atno 17370 bound_to 10713
  157.0957  130.5961  149.5449 LP  0  0  0  0  0  0  0  0  0  0  0  0  # atno 17371 bound_to 10713
  141.1024  133.6672  156.2786 LP  0  0  0  0  0  0  0  0  0  0  0  0  # atno 17394 bound_to 11000
  140.5987  134.5577  157.5513 LP  0  0  0  0  0  0  0  0  0  0  0  0  # atno 17395 bound_to 11000

$$$$
