#       Name:                AV-unprocessed.smi:845
#       Creating user name   scv26
#       Creation time:       Fri Mar 27 01:39:47 2020


#       File generated by GOLD software.
#

@<TRIPOS>MOLECULE
AV-unprocessed.smi:845
    48    49     1
SMALL
NO_CHARGES


@<TRIPOS>ATOM
      1 ****        -2.3257  -0.6599  -0.9985 C.3            1 S1                 0.0000
      2 ****        -1.9046   0.6901  -0.3799 C.3            1 S1                 0.0000
      3 ****        -2.7519   1.8473  -0.9377 C.3            1 S1                 0.0000
      4 ****        -0.3748   1.0128  -0.3727 C.3            1 S1                 0.0000
      5 ****         0.5065  -0.1646   0.1227 C.3            1 S1                 0.0000
      6 ****         0.0652  -0.6569   1.4226 N.am           1 S1                 0.0000
      7 ****         0.5929  -1.7012   2.0738 C.2            1 S1                 0.0000
      8 ****         1.5296  -2.3276   1.5724 O.2            1 S1                 0.0000
      9 ****         0.0035  -1.9536   3.2647 N.pl3          1 S1                -1.0000
     10 ****         0.4445  -2.9632   4.0327 C.2            1 S1                 0.0000
     11 ****         1.2634  -2.7818   5.0752 N.2            1 S1                 0.0000
     12 ****         1.5876  -3.9660   5.7396 C.2            1 S1                 0.0000
     13 ****         0.9948  -5.0744   5.1954 C.2            1 S1                 0.0000
     14 ****         0.0067  -4.6613   3.8231 S.3            1 S1                 0.0000
     15 ****         0.1251   1.6960  -1.5833 N.3            1 S1                 0.0000
     16 ****         1.3762   2.4186  -1.3610 C.3            1 S1                 0.0000
     17 ****         1.7916   3.2325  -2.5976 C.3            1 S1                 0.0000
     18 ****         1.9044   2.3637  -3.7198 O.3            1 S1                 0.0000
     19 ****         0.6918   1.6726  -4.0013 C.3            1 S1                 0.0000
     20 ****         0.2532   0.8564  -2.7724 C.3            1 S1                 0.0000
     21 ****        -2.1927  -0.6955  -2.0767 H              1 S1                 0.0000
     22 ****        -3.3835  -0.8452  -0.8105 H              1 S1                 0.0000
     23 ****        -1.7835  -1.4996  -0.5647 H              1 S1                 0.0000
     24 ****        -2.1892   0.6119   0.6703 H              1 S1                 0.0000
     25 ****        -2.5996   1.9755  -2.0098 H              1 S1                 0.0000
     26 ****        -2.5014   2.7891  -0.4487 H              1 S1                 0.0000
     27 ****        -3.8151   1.6673  -0.7774 H              1 S1                 0.0000
     28 ****        -0.2937   1.7592   0.4194 H              1 S1                 0.0000
     29 ****         0.4962  -0.9854  -0.5954 H              1 S1                 0.0000
     30 ****         1.5460   0.1449   0.2268 H              1 S1                 0.0000
     31 ****        -0.7010  -0.1694   1.8634 H              1 S1                 0.0000
     32 ****         2.2470  -3.9264   6.5937 H              1 S1                 0.0000
     33 ****         1.0769  -6.1021   5.5159 H              1 S1                 0.0000
     34 ****         1.2728   3.0901  -0.5081 H              1 S1                 0.0000
     35 ****         2.1793   1.7228  -1.1189 H              1 S1                 0.0000
     36 ****         1.0637   4.0181  -2.8060 H              1 S1                 0.0000
     37 ****         2.7509   3.7207  -2.4262 H              1 S1                 0.0000
     38 ****        -0.0825   2.3879  -4.2831 H              1 S1                 0.0000
     39 ****         0.8466   1.0152  -4.8569 H              1 S1                 0.0000
     40 ****         0.9766   0.0600  -2.5950 H              1 S1                 0.0000
     41 ****        -0.6935   0.3813  -3.0085 H              1 S1                 0.0000
     42 ****         1.8932  -2.0552   0.6815 LP             1 S1                 0.0000
     43 ****         1.9254  -3.1078   2.0567 LP             1 S1                 0.0000
     44 ****        -0.7612  -1.3880   3.5735 LP             1 S1                 0.0000
     45 ****         1.6095  -1.8852   5.3515 LP             1 S1                 0.0000
     46 ****        -0.6057   2.3514  -1.7739 LP             1 S1                 0.0000
     47 ****         2.6205   1.6911  -3.5334 LP             1 S1                 0.0000
     48 ****         2.1571   2.9064  -4.5209 LP             1 S1                 0.0000
@<TRIPOS>BOND
    1    1    2 1     
    2    1   21 1     
    3    1   22 1     
    4    1   23 1     
    5    2    3 1     
    6    2    4 1     
    7    2   24 1     
    8    3   25 1     
    9    3   26 1     
   10    3   27 1     
   11    4    5 1     
   12    4   15 1     
   13    4   28 1     
   14    5    6 1     
   15    5   29 1     
   16    5   30 1     
   17    6    7 am    
   18    6   31 1     
   19    7    8 2     
   20    7    9 1     
   21    9   10 1     
   22   10   14 1     
   23   10   11 2     
   24   11   12 1     
   25   12   13 2     
   26   12   32 1     
   27   13   14 1     
   28   13   33 1     
   29   15   20 1     
   30   15   16 1     
   31   16   17 1     
   32   16   34 1     
   33   16   35 1     
   34   17   18 1     
   35   17   36 1     
   36   17   37 1     
   37   18   19 1     
   38   19   20 1     
   39   19   38 1     
   40   19   39 1     
   41   20   40 1     
   42   20   41 1     
   43    8   42 1     
   44    8   43 1     
   45    9   44 1     
   46   11   45 1     
   47   15   46 1     
   48   18   47 1     
   49   18   48 1     
@<TRIPOS>SUBSTRUCTURE
      1 S1             1
@<TRIPOS>SET
LONE_PAIRS      STATIC     ATOMS    <user>   **** ""
7 42 43 44 45 46 47 48
DONOR_HYDROGENS      STATIC     ATOMS    <user>   **** ""
1 31
ATOM$BLUE        STATIC     ATOMS    COLORGROUP SYSTEM
7 42 43 44 45 46 47 48
ATOM$RED        STATIC     ATOMS    COLORGROUP SYSTEM
1 31
