AV-unprocessed.smi:2883|AV-procd|sdf|11081|dock6
  -GOLD-   2272015553D 1   1.00000     0.00000
 Structure written by MMmdl.
 39 41  0  0  0  0  0  0  0  0  1 V2000
  150.8614  137.1052  154.6899 C   0  0  0  0  0  0  0  0  0  0  0  0
  151.4947  138.2563  155.4925 C   0  0  0  0  0  0  0  0  0  0  0  0
  151.5587  137.8719  156.9899 C   0  0  0  0  0  0  0  0  0  0  0  0
  152.9599  138.4573  155.0391 C   0  0  0  0  0  0  0  0  0  0  0  0
  150.6689  139.5378  155.2886 C   0  0  0  0  0  0  0  0  0  0  0  0
  149.5626  139.4434  154.5389 N   0  0  0  0  0  0  0  0  0  0  0  0
  148.7667  140.5310  154.4621 C   0  0  0  0  0  0  0  0  0  0  0  0
  149.0591  141.7156  155.1654 C   0  0  0  0  0  0  0  0  0  0  0  0
  150.2233  141.7025  155.9585 C   0  0  0  0  0  0  0  0  0  0  0  0
  150.5682  142.8437  156.6954 N   0  0  0  0  0  0  0  0  0  0  0  0
  151.6803  142.8157  157.6410 C   0  0  2  0  0  0  0  0  0  0  0  0
  151.3072  142.1933  158.9885 C   0  0  0  0  0  0  0  0  0  0  0  0
  151.7443  143.2874  159.9728 C   0  0  2  0  0  0  0  0  0  0  0  0
  150.7705  144.4726  159.9658 C   0  0  0  0  0  0  0  0  0  0  0  0
  151.0904  145.1282  158.6237 C   0  0  0  0  0  0  0  0  0  0  0  0
  152.1909  144.2056  158.0722 C   0  0  1  0  0  0  0  0  0  0  0  0
  152.8446  143.8534  159.2800 O   0  0  0  0  0  0  0  0  0  0  0  0
  151.0082  140.6027  156.0265 N   0  0  0  0  0  0  0  0  0  0  0  0
  151.4231  136.1785  154.8118 H   0  0  0  0  0  0  0  0  0  0  0  0
  150.8327  137.3349  153.6243 H   0  0  0  0  0  0  0  0  0  0  0  0
  149.8373  136.9142  155.0126 H   0  0  0  0  0  0  0  0  0  0  0  0
  150.5735  137.6365  157.3946 H   0  0  0  0  0  0  0  0  0  0  0  0
  151.9771  138.6807  157.5903 H   0  0  0  0  0  0  0  0  0  0  0  0
  152.1816  136.9908  157.1478 H   0  0  0  0  0  0  0  0  0  0  0  0
  153.5585  137.5649  155.2254 H   0  0  0  0  0  0  0  0  0  0  0  0
  153.4312  139.2844  155.5715 H   0  0  0  0  0  0  0  0  0  0  0  0
  153.0326  138.6666  153.9712 H   0  0  0  0  0  0  0  0  0  0  0  0
  147.8869  140.4536  153.8406 H   0  0  0  0  0  0  0  0  0  0  0  0
  148.4179  142.5824  155.1012 H   0  0  0  0  0  0  0  0  0  0  0  0
  150.1969  143.7402  156.4172 H   0  0  0  0  0  0  0  0  0  0  0  0
  152.5039  142.2432  157.2116 H   0  0  0  0  0  0  0  0  0  0  0  0
  150.2467  141.9569  159.0866 H   0  0  0  0  0  0  0  0  0  0  0  0
  151.8736  141.2756  159.1496 H   0  0  0  0  0  0  0  0  0  0  0  0
  151.9819  142.9169  160.9703 H   0  0  0  0  0  0  0  0  0  0  0  0
  149.7301  144.1566  160.0462 H   0  0  0  0  0  0  0  0  0  0  0  0
  150.9851  145.1573  160.7869 H   0  0  0  0  0  0  0  0  0  0  0  0
  150.2234  145.2014  157.9669 H   0  0  0  0  0  0  0  0  0  0  0  0
  151.4788  146.1355  158.7785 H   0  0  0  0  0  0  0  0  0  0  0  0
  152.8418  144.6860  157.3411 H   0  0  0  0  0  0  0  0  0  0  0  0
  1  2  1  0  0  0  0
  1 19  1  0  0  0  0
  1 20  1  0  0  0  0
  1 21  1  0  0  0  0
  2  3  1  0  0  0  0
  2  4  1  0  0  0  0
  2  5  1  0  0  0  0
  3 22  1  0  0  0  0
  3 23  1  0  0  0  0
  3 24  1  0  0  0  0
  4 25  1  0  0  0  0
  4 26  1  0  0  0  0
  4 27  1  0  0  0  0
  5 18  1  0  0  0  0
  5  6  2  0  0  0  0
  6  7  1  0  0  0  0
  7  8  2  0  0  0  0
  7 28  1  0  0  0  0
  8  9  1  0  0  0  0
  8 29  1  0  0  0  0
  9 10  1  0  0  0  0
  9 18  2  0  0  0  0
 10 11  1  0  0  0  0
 10 30  1  0  0  0  0
 11 16  1  0  0  0  0
 11 12  1  0  0  0  0
 11 31  1  0  0  0  0
 12 13  1  0  0  0  0
 12 32  1  0  0  0  0
 12 33  1  0  0  0  0
 13 17  1  0  0  0  0
 13 14  1  0  0  0  0
 13 34  1  0  0  0  0
 14 15  1  0  0  0  0
 14 35  1  0  0  0  0
 14 36  1  0  0  0  0
 15 16  1  0  0  0  0
 15 37  1  0  0  0  0
 15 38  1  0  0  0  0
 16 17  1  0  0  0  0
 16 39  1  0  0  0  0
M  END
> <s_m_source_file>
AV-unprocessed.smi

> <i_m_source_file_index>
2883

> <i_lp_mmshare_version>
43012

> <i_f3d_flags>
0

> <s_epik_input>
W0NIM11DKFtDSDNdKShbQ0gzXSljMW5bY0hdW2NIXWMobjEpW05IXVtDQEhdKFtDSDJdW0NAQEhdMjMpW0NAQEhdKE8zKVtDSDJdW0NIMl0y

> <s_epik_cmdline>
J2VwaWtfcHl0aG9uJywgJy1waCcsICc3LjAnLCAnLXRuJywgJzgnLCAnLW1hJywgJzIwMCcsICctbWV0YWxfYmluZGluZycsICctaW1hZScsICc8aW5maWxlLm1hZT4nLCAnLW9tYWUnLCAnPG91dGZpbGUubWFlPic=

> <r_lp_tautomer_probability>
1

> <r_epik_Ionization_Penalty>
0.453006

> <r_epik_Ionization_Penalty_Charging>
0

> <r_epik_Ionization_Penalty_Neutral>
0.453006

> <r_epik_State_Penalty>
0.455155

> <r_epik_Charging_Adjusted_Penalty>
0.455155

> <i_epik_Tot_Q>
0

> <i_epik_Tot_abs_Q>
0

> <r_epik_Metal_State_Penalty>
0.255592

> <b_epik_Metal_Only>
0

> <s_lp_Force_Field>
OPLS_2005

> <r_lp_Energy>
33.5757

> <b_lp_Chiralities_Consistent>
1

> <s_lp_Variant>
AV-unprocessed.smi:2883-7

> <Gold.Version>
5.8.1

> <Gold.Id.Protein>
6NUR|6NUR_protein|mol2

> <Gold.PLP.Fitness>
41.4668

> <Gold.PLP.PLP>
-39.0026

> <Gold.PLP.part.hbond>
-1.2055

> <Gold.PLP.part.metal>
0.0000

> <Gold.PLP.part.buried>
-4.7053

> <Gold.PLP.part.nonpolar>
-34.1364

> <Gold.PLP.part.repulsive>
0.2071

> <Gold.PLP.ligand.clash>
0.0000

> <Gold.PLP.ligand.torsion>
0.3400

> <Gold.PLP.Chemscore.Hbond>
1.0000

> <Gold.PLP.Chemscore.CHOScore>
0.0000

> <Gold.PLP.Chemscore.Metal>
0.0000

> <Gold.Chemscore.Hbonds>
donor molecule, donor type, donor heavy atom, donor atom, acceptor molecule, acceptor atom, score
      L1  H    10    30       P1  8028  1.00

> <Gold.PLP.Chemscore.Internal.Correction>
0.1441

> <Gold.Rescore>
     Score         DG    S(hbond)    S(metal)    S(lipo)     H(rot)  DE(clash)    DE(int)     intcor
     17.95     -18.45       0.99        0.00     107.76       1.15       0.15       0.35       ----

> <Gold.Chemscore.Fitness>
17.9485

> <Gold.Chemscore.DG>
-18.4497

> <Gold.Chemscore.ZeroCoef>
-5.4800

> <Gold.Chemscore.Hbond>
0.9884

> <Gold.Chemscore.Metal>
0.0000

> <Gold.Chemscore.Lipo>
107.7570

> <Gold.Chemscore.Internal_Hbond>
0.0000

> <Gold.Chemscore.DEClash>
0.1538

> <Gold.Chemscore.DEInternal>
0.3474

> <Gold.Chemscore.Rot>
1.1482

> <Gold.Chemscore.Internal.Correction>
   9.000000E+99

> <Gold.Chemscore.Hbonds>
donor molecule, donor type, donor heavy atom, donor atom, acceptor molecule, acceptor atom, score
      L1  H    10    30       P1  8028  0.95

> <Gold.Chemscore.Hbond.Weighted>
-3.3014

> <Gold.Chemscore.Metal.Weighted>
-0.0000

> <Gold.Chemscore.Lipo.Weighted>
-12.6076

> <Gold.Chemscore.Internal_Hbond.Weighted>
0.0000

> <Gold.Chemscore.DEClash.Weighted>
0.1538

> <Gold.Chemscore.DEInternal.Weighted>
0.3474

> <Gold.Chemscore.Rot.Weighted>
2.9393

> <Gold.Chemscore.Internal.Correction.Weighted>
   9.000000E+99

> <Gold.Protein.RotatedTorsions>
[ 6907 6896 6895 6894 ] final   -0.57 input  -60.11 | X-H torsion
[ 7974 7965 7964 7962 ] final  -95.78 input  175.53 | X-H torsion
[ 8008 7997 7996 7995 ] final  -26.78 input   59.86 | X-H torsion
[ 10167 10162 10161 10158 ] final    5.63 input  -65.29 | X-H torsion
[ 10718 10713 10712 10709 ] final  100.52 input   66.30 | X-H torsion
[ 10763 10752 10751 10750 ] final  -46.60 input  -60.55 | X-H torsion
[ 11005 11000 10999 10996 ] final   48.09 input  -57.11 | X-H torsion

> <Gold.Protein.ActiveResidues>
 VAL166  LYS551  ARG553  GLY616  TRP617  ASP618  TYR619  PRO620  LYS621  CYS622 
 ASP623  PHE694  ASN695  SER759  ASP760  ASP761  ALA762  ILE779  LEU786  VAL792 
 PHE793  MET794  SER795  GLU796  ALA797  LYS798  CYS799  TRP800  GLU811  SER814 

> <Gold.Protein.RotatedAtoms>
  151.5600  135.1065  159.9970 H   0  0  0  0  0  0  0  0  0  0  0  0  # atno 6907 bound_to 6896
  152.4451  133.7516  159.6708 H   0  0  0  0  0  0  0  0  0  0  0  0  # atno 6908 bound_to 6896
  150.8364  133.7938  159.3101 H   0  0  0  0  0  0  0  0  0  0  0  0  # atno 6909 bound_to 6896
  145.3555  140.9483  143.2530 H   0  0  0  0  0  0  0  0  0  0  0  0  # atno 7974 bound_to 7965
  154.4408  140.1890  156.0829 H   0  0  0  0  0  0  0  0  0  0  0  0  # atno 8008 bound_to 7997
  156.0424  140.3318  155.7233 H   0  0  0  0  0  0  0  0  0  0  0  0  # atno 8009 bound_to 7997
  155.5679  140.0610  157.2804 H   0  0  0  0  0  0  0  0  0  0  0  0  # atno 8010 bound_to 7997
  140.6472  143.7633  150.7517 H   0  0  0  0  0  0  0  0  0  0  0  0  # atno 10167 bound_to 10162
  157.6852  131.0701  150.5114 H   0  0  0  0  0  0  0  0  0  0  0  0  # atno 10718 bound_to 10713
  154.0476  135.6635  153.4797 H   0  0  0  0  0  0  0  0  0  0  0  0  # atno 10763 bound_to 10752
  153.0476  135.5104  154.7782 H   0  0  0  0  0  0  0  0  0  0  0  0  # atno 10764 bound_to 10752
  154.6778  135.3040  154.9621 H   0  0  0  0  0  0  0  0  0  0  0  0  # atno 10765 bound_to 10752
  140.1222  134.4815  155.8588 H   0  0  0  0  0  0  0  0  0  0  0  0  # atno 11005 bound_to 11000
  144.8685  139.5072  143.6779 LP  0  0  0  0  0  0  0  0  0  0  0  0  # atno 17320 bound_to 7965
  146.2949  139.7249  142.9133 LP  0  0  0  0  0  0  0  0  0  0  0  0  # atno 17321 bound_to 7965
  140.1277  143.4554  152.2274 LP  0  0  0  0  0  0  0  0  0  0  0  0  # atno 17342 bound_to 10162
  139.5683  144.7448  151.3960 LP  0  0  0  0  0  0  0  0  0  0  0  0  # atno 17343 bound_to 10162
  156.5431  130.4213  149.6144 LP  0  0  0  0  0  0  0  0  0  0  0  0  # atno 17370 bound_to 10713
  156.2968  130.7155  151.2017 LP  0  0  0  0  0  0  0  0  0  0  0  0  # atno 17371 bound_to 10713
  141.2154  133.6764  156.6910 LP  0  0  0  0  0  0  0  0  0  0  0  0  # atno 17394 bound_to 11000
  140.2951  134.8209  157.4050 LP  0  0  0  0  0  0  0  0  0  0  0  0  # atno 17395 bound_to 11000

$$$$
