AV-unprocessed.smi:2660|AV-procd|sdf|10314|dock10
  -GOLD-   2272014333D 1   1.00000     0.00000
 Structure written by MMmdl.
 36 37  0  0  0  0  0  0  0  0  1 V2000
  144.4869  142.4091  154.6122 N   0  0  0  0  0  0  0  0  0  0  0  0
  145.4140  142.8754  155.4583 C   0  0  0  0  0  0  0  0  0  0  0  0
  145.1488  143.8670  156.1379 O   0  0  0  0  0  0  0  0  0  0  0  0
  146.6785  142.1042  155.4613 C   0  0  0  0  0  0  0  0  0  0  0  0
  147.0962  141.3822  154.3971 C   0  0  0  0  0  0  0  0  0  0  0  0
  148.3311  140.6498  154.4472 C   0  0  0  0  0  0  0  0  0  0  0  0
  149.0981  140.6887  155.5527 C   0  0  0  0  0  0  0  0  0  0  0  0
  150.4116  139.8993  155.6221 C   0  0  0  0  0  0  0  0  0  0  0  0
  150.3762  138.9860  156.5938 F   0  0  0  0  0  0  0  0  0  0  0  0
  150.6495  139.2401  154.4900 F   0  0  0  0  0  0  0  0  0  0  0  0
  151.4392  140.7059  155.8900 F   0  0  0  0  0  0  0  0  0  0  0  0
  148.6847  141.4678  156.6786 N   0  0  0  0  0  0  0  0  0  0  0  0
  149.5380  141.5507  157.8906 C   0  0  0  0  0  0  0  0  0  0  0  0
  150.3040  142.8992  157.9982 C   0  0  2  0  0  0  0  0  0  0  0  0
  150.9974  143.1411  156.7910 O   0  0  0  0  0  0  0  0  0  0  0  0
  151.2610  142.9156  159.1820 C   0  0  0  0  0  0  0  0  0  0  0  0
  152.2072  141.8800  159.3398 C   0  0  0  0  0  0  0  0  0  0  0  0
  153.0997  141.8934  160.4289 C   0  0  0  0  0  0  0  0  0  0  0  0
  153.0522  142.9425  161.3667 C   0  0  0  0  0  0  0  0  0  0  0  0
  152.1113  143.9788  161.2147 C   0  0  0  0  0  0  0  0  0  0  0  0
  151.2179  143.9657  160.1258 C   0  0  0  0  0  0  0  0  0  0  0  0
  147.4949  142.1614  156.7013 C   0  0  0  0  0  0  0  0  0  0  0  0
  147.1627  142.7877  157.7119 O   0  0  0  0  0  0  0  0  0  0  0  0
  143.5928  142.8735  154.5470 H   0  0  0  0  0  0  0  0  0  0  0  0
  144.6816  141.5969  154.0455 H   0  0  0  0  0  0  0  0  0  0  0  0
  146.5275  141.3272  153.4807 H   0  0  0  0  0  0  0  0  0  0  0  0
  148.6217  140.0656  153.5869 H   0  0  0  0  0  0  0  0  0  0  0  0
  148.8960  141.4214  158.7645 H   0  0  0  0  0  0  0  0  0  0  0  0
  150.2241  140.7181  158.0121 H   0  0  0  0  0  0  0  0  0  0  0  0
  149.6004  143.7249  158.1142 H   0  0  0  0  0  0  0  0  0  0  0  0
  150.3929  143.5186  156.1703 H   0  0  0  0  0  0  0  0  0  0  0  0
  152.2562  141.0734  158.6229 H   0  0  0  0  0  0  0  0  0  0  0  0
  153.8224  141.0989  160.5434 H   0  0  0  0  0  0  0  0  0  0  0  0
  153.7379  142.9527  162.2011 H   0  0  0  0  0  0  0  0  0  0  0  0
  152.0754  144.7850  161.9325 H   0  0  0  0  0  0  0  0  0  0  0  0
  150.5010  144.7660  160.0145 H   0  0  0  0  0  0  0  0  0  0  0  0
  1  2  1  0  0  0  0
  1 24  1  0  0  0  0
  1 25  1  0  0  0  0
  2  3  2  0  0  0  0
  2  4  1  0  0  0  0
  4 22  1  0  0  0  0
  4  5  2  0  0  0  0
  5  6  1  0  0  0  0
  5 26  1  0  0  0  0
  6  7  2  0  0  0  0
  6 27  1  0  0  0  0
  7  8  1  0  0  0  0
  7 12  1  0  0  0  0
  8  9  1  0  0  0  0
  8 10  1  0  0  0  0
  8 11  1  0  0  0  0
 12 13  1  0  0  0  0
 12 22  1  0  0  0  0
 13 14  1  0  0  0  0
 13 28  1  0  0  0  0
 13 29  1  0  0  0  0
 14 15  1  0  0  0  0
 14 16  1  0  0  0  0
 14 30  1  0  0  0  0
 15 31  1  0  0  0  0
 16 21  1  0  0  0  0
 16 17  2  0  0  0  0
 17 18  1  0  0  0  0
 17 32  1  0  0  0  0
 18 19  2  0  0  0  0
 18 33  1  0  0  0  0
 19 20  1  0  0  0  0
 19 34  1  0  0  0  0
 20 21  2  0  0  0  0
 20 35  1  0  0  0  0
 21 36  1  0  0  0  0
 22 23  2  0  0  0  0
M  END
> <s_m_source_file>
AV-unprocessed.smi

> <i_m_source_file_index>
2660

> <i_lp_mmshare_version>
43012

> <i_f3d_flags>
0

> <s_epik_input>
W05IMl1DKD1PKWMxW2NIXVtjSF1jKEMoRikoRilGKW4oYzE9TylbQ0gyXVtDQEhdKFtPSF0pYzJbY0hdW2NIXVtjSF1bY0hdW2NIXTI=

> <s_epik_cmdline>
J2VwaWtfcHl0aG9uJywgJy1waCcsICc3LjAnLCAnLXRuJywgJzgnLCAnLW1hJywgJzIwMCcsICctbWV0YWxfYmluZGluZycsICctaW1hZScsICc8aW5maWxlLm1hZT4nLCAnLW9tYWUnLCAnPG91dGZpbGUubWFlPic=

> <r_lp_tautomer_probability>
1

> <r_epik_Ionization_Penalty>
1.58596e-06

> <r_epik_Ionization_Penalty_Charging>
5.13453e-09

> <r_epik_Ionization_Penalty_Neutral>
1.58083e-06

> <r_epik_State_Penalty>
-0

> <r_epik_Charging_Adjusted_Penalty>
5.13453e-09

> <i_epik_Tot_Q>
0

> <i_epik_Tot_abs_Q>
0

> <r_epik_Metal_State_Penalty>
-0

> <b_epik_Metal_Only>
0

> <s_lp_Force_Field>
OPLS_2005

> <r_lp_Energy>
35.2508

> <b_lp_Chiralities_Consistent>
1

> <s_lp_Variant>
AV-unprocessed.smi:2660-1

> <Gold.Version>
5.8.1

> <Gold.Id.Protein>
6NUR|6NUR_protein|mol2

> <Gold.PLP.Fitness>
42.9850

> <Gold.PLP.PLP>
-41.5212

> <Gold.PLP.part.hbond>
-2.7680

> <Gold.PLP.part.metal>
0.0000

> <Gold.PLP.part.buried>
-3.7824

> <Gold.PLP.part.nonpolar>
-34.4880

> <Gold.PLP.part.repulsive>
0.3166

> <Gold.PLP.ligand.clash>
5.2415

> <Gold.PLP.ligand.torsion>
0.6704

> <Gold.PLP.Chemscore.Hbond>
1.5148

> <Gold.PLP.Chemscore.CHOScore>
0.0000

> <Gold.PLP.Chemscore.Metal>
0.0000

> <Gold.Chemscore.Hbonds>
donor molecule, donor type, donor heavy atom, donor atom, acceptor molecule, acceptor atom, score
      L1  H     1    25       P1 10175  0.48
      L1  H    15    31       P1  8028  1.00

> <Gold.PLP.Chemscore.Internal.Correction>
3.5016

> <Gold.Rescore>
     Score         DG    S(hbond)    S(metal)    S(lipo)     H(rot)  DE(clash)    DE(int)     intcor
     10.17     -15.04       1.06        0.00      99.92       2.21       0.17       4.71       ----

> <Gold.Chemscore.Fitness>
10.1706

> <Gold.Chemscore.DG>
-15.0448

> <Gold.Chemscore.ZeroCoef>
-5.4800

> <Gold.Chemscore.Hbond>
1.0564

> <Gold.Chemscore.Metal>
0.0000

> <Gold.Chemscore.Lipo>
99.9190

> <Gold.Chemscore.Internal_Hbond>
0.0000

> <Gold.Chemscore.DEClash>
0.1674

> <Gold.Chemscore.DEInternal>
4.7068

> <Gold.Chemscore.Rot>
2.2086

> <Gold.Chemscore.Internal.Correction>
   9.000000E+99

> <Gold.Chemscore.Hbonds>
donor molecule, donor type, donor heavy atom, donor atom, acceptor molecule, acceptor atom, score
      L1  H     1    25       P1 10175  0.11
      L1  H    15    31       P1  8028  0.94

> <Gold.Chemscore.Hbond.Weighted>
-3.5283

> <Gold.Chemscore.Metal.Weighted>
-0.0000

> <Gold.Chemscore.Lipo.Weighted>
-11.6905

> <Gold.Chemscore.Internal_Hbond.Weighted>
0.0000

> <Gold.Chemscore.DEClash.Weighted>
0.1674

> <Gold.Chemscore.DEInternal.Weighted>
4.7068

> <Gold.Chemscore.Rot.Weighted>
5.6540

> <Gold.Chemscore.Internal.Correction.Weighted>
   9.000000E+99

> <Gold.Protein.RotatedTorsions>
[ 6907 6896 6895 6894 ] final    7.25 input  -60.11 | X-H torsion
[ 7974 7965 7964 7962 ] final   74.28 input  175.53 | X-H torsion
[ 8008 7997 7996 7995 ] final  152.66 input   59.86 | X-H torsion
[ 10167 10162 10161 10158 ] final   53.05 input  -65.29 | X-H torsion
[ 10718 10713 10712 10709 ] final  117.01 input   66.30 | X-H torsion
[ 10763 10752 10751 10750 ] final  110.53 input  -60.55 | X-H torsion
[ 11005 11000 10999 10996 ] final  -43.76 input  -57.11 | X-H torsion

> <Gold.Protein.ActiveResidues>
 VAL166  LYS551  ARG553  GLY616  TRP617  ASP618  TYR619  PRO620  LYS621  CYS622 
 ASP623  PHE694  ASN695  SER759  ASP760  ASP761  ALA762  ILE779  LEU786  VAL792 
 PHE793  MET794  SER795  GLU796  ALA797  LYS798  CYS799  TRP800  GLU811  SER814 

> <Gold.Protein.RotatedAtoms>
  151.6868  135.0953  160.0225 H   0  0  0  0  0  0  0  0  0  0  0  0  # atno 6907 bound_to 6896
  152.3803  133.6532  159.6164 H   0  0  0  0  0  0  0  0  0  0  0  0  # atno 6908 bound_to 6896
  150.7741  133.9042  159.3391 H   0  0  0  0  0  0  0  0  0  0  0  0  # atno 6909 bound_to 6896
  145.7302  139.2681  143.1545 H   0  0  0  0  0  0  0  0  0  0  0  0  # atno 7974 bound_to 7965
  156.2618  140.2014  156.6369 H   0  0  0  0  0  0  0  0  0  0  0  0  # atno 8008 bound_to 7997
  154.6640  140.0557  157.0117 H   0  0  0  0  0  0  0  0  0  0  0  0  # atno 8009 bound_to 7997
  155.1235  140.3227  155.4494 H   0  0  0  0  0  0  0  0  0  0  0  0  # atno 8010 bound_to 7997
  140.2449  144.3543  150.6367 H   0  0  0  0  0  0  0  0  0  0  0  0  # atno 10167 bound_to 10162
  157.6124  131.1032  150.7554 H   0  0  0  0  0  0  0  0  0  0  0  0  # atno 10718 bound_to 10713
  153.4503  135.3745  155.2280 H   0  0  0  0  0  0  0  0  0  0  0  0  # atno 10763 bound_to 10752
  154.8756  135.3884  154.4047 H   0  0  0  0  0  0  0  0  0  0  0  0  # atno 10764 bound_to 10752
  153.4605  135.7086  153.6117 H   0  0  0  0  0  0  0  0  0  0  0  0  # atno 10765 bound_to 10752
  141.0406  133.6782  156.2779 H   0  0  0  0  0  0  0  0  0  0  0  0  # atno 11005 bound_to 11000
  146.0544  140.8036  142.9765 LP  0  0  0  0  0  0  0  0  0  0  0  0  # atno 17320 bound_to 7965
  144.6895  140.3102  143.7249 LP  0  0  0  0  0  0  0  0  0  0  0  0  # atno 17321 bound_to 7965
  140.6085  143.2168  151.6932 LP  0  0  0  0  0  0  0  0  0  0  0  0  # atno 17342 bound_to 10162
  139.5065  144.3679  152.0499 LP  0  0  0  0  0  0  0  0  0  0  0  0  # atno 17343 bound_to 10162
  156.7929  130.4896  149.5382 LP  0  0  0  0  0  0  0  0  0  0  0  0  # atno 17370 bound_to 10713
  156.1232  130.6125  151.0224 LP  0  0  0  0  0  0  0  0  0  0  0  0  # atno 17371 bound_to 10713
  140.6242  134.5330  157.5551 LP  0  0  0  0  0  0  0  0  0  0  0  0  # atno 17394 bound_to 11000
  139.9273  134.8032  156.1033 LP  0  0  0  0  0  0  0  0  0  0  0  0  # atno 17395 bound_to 11000

$$$$
