AV-unprocessed.smi:1815|AV-procd|sdf|7353|dock1
  -GOLD-   22720 9 13D 1   1.00000     0.00000
 Structure written by MMmdl.
 40 41  0  0  0  0  0  0  0  0  2 V2000
  151.5183  138.1410  154.7746 C   0  0  0  0  0  0  0  0  0  0  0  0
  150.3413  139.0564  155.1297 C   0  0  2  0  0  0  0  0  0  0  0  0
  149.0649  138.6794  154.3570 C   0  0  0  0  0  0  0  0  0  0  0  0
  147.9743  139.6365  154.6548 N   0  3  2  0  0  0  0  0  0  0  0  0
  146.6941  139.2477  154.0127 C   0  0  0  0  0  0  0  0  0  0  0  0
  146.8284  139.0626  152.4886 C   0  0  0  0  0  0  0  0  0  0  0  0
  146.9563  137.6545  152.1301 N   0  0  0  0  0  0  0  0  0  0  0  0
  145.9237  136.8195  151.9432 C   0  0  0  0  0  0  0  0  0  0  0  0
  144.7476  137.1633  152.0669 O   0  0  0  0  0  0  0  0  0  0  0  0
  146.3432  135.5855  151.6135 N   0  0  0  0  0  0  0  0  0  0  0  0
  145.5551  134.4371  151.3374 C   0  0  0  0  0  0  0  0  0  0  0  0
  144.2245  134.4518  151.1938 N   0  0  0  0  0  0  0  0  0  0  0  0
  143.7116  133.1801  150.9267 C   0  0  0  0  0  0  0  0  0  0  0  0
  144.6726  132.2015  150.8705 C   0  0  0  0  0  0  0  0  0  0  0  0
  146.2694  132.8423  151.1515 S   0  0  0  0  0  0  0  0  0  0  0  0
  148.4056  141.0209  154.3397 C   0  0  0  0  0  0  0  0  0  0  0  0
  149.7129  141.3764  155.0753 C   0  0  1  0  0  0  0  0  0  0  0  0
  149.5222  141.6185  156.5832 C   0  0  0  0  0  0  0  0  0  0  0  0
  150.7135  140.3939  154.8075 O   0  0  0  0  0  0  0  0  0  0  0  0
  151.2918  137.1004  155.0081 H   0  0  0  0  0  0  0  0  0  0  0  0
  152.4116  138.4196  155.3342 H   0  0  0  0  0  0  0  0  0  0  0  0
  151.7595  138.2008  153.7129 H   0  0  0  0  0  0  0  0  0  0  0  0
  150.1597  138.9720  156.2012 H   0  0  0  0  0  0  0  0  0  0  0  0
  149.2579  138.6709  153.2829 H   0  0  0  0  0  0  0  0  0  0  0  0
  148.7567  137.6706  154.6351 H   0  0  0  0  0  0  0  0  0  0  0  0
  146.3047  138.3416  154.4797 H   0  0  0  0  0  0  0  0  0  0  0  0
  145.9598  140.0319  154.2023 H   0  0  0  0  0  0  0  0  0  0  0  0
  145.9732  139.5017  151.9720 H   0  0  0  0  0  0  0  0  0  0  0  0
  147.7143  139.5726  152.1122 H   0  0  0  0  0  0  0  0  0  0  0  0
  147.8922  137.2950  152.0079 H   0  0  0  0  0  0  0  0  0  0  0  0
  147.3414  135.4504  151.5502 H   0  0  0  0  0  0  0  0  0  0  0  0
  142.6470  133.0614  150.7895 H   0  0  0  0  0  0  0  0  0  0  0  0
  144.5376  131.1470  150.6812 H   0  0  0  0  0  0  0  0  0  0  0  0
  148.5569  141.1091  153.2626 H   0  0  0  0  0  0  0  0  0  0  0  0
  147.6328  141.7409  154.6077 H   0  0  0  0  0  0  0  0  0  0  0  0
  150.0872  142.3093  154.6527 H   0  0  0  0  0  0  0  0  0  0  0  0
  148.8573  142.4648  156.7570 H   0  0  0  0  0  0  0  0  0  0  0  0
  150.4741  141.8448  157.0640 H   0  0  0  0  0  0  0  0  0  0  0  0
  149.0870  140.7577  157.0902 H   0  0  0  0  0  0  0  0  0  0  0  0
  147.8215  139.5910  155.6524 H   0  0  0  0  0  0  0  0  0  0  0  0
  1  2  1  0  0  0  0
  1 20  1  0  0  0  0
  1 21  1  0  0  0  0
  1 22  1  0  0  0  0
  2 19  1  0  0  0  0
  2  3  1  0  0  0  0
  2 23  1  0  0  0  0
  3  4  1  0  0  0  0
  3 24  1  0  0  0  0
  3 25  1  0  0  0  0
  4  5  1  0  0  0  0
  4 16  1  0  0  0  0
  4 40  1  0  0  0  0
  5  6  1  0  0  0  0
  5 26  1  0  0  0  0
  5 27  1  0  0  0  0
  6  7  1  0  0  0  0
  6 28  1  0  0  0  0
  6 29  1  0  0  0  0
  7  8  1  0  0  0  0
  7 30  1  0  0  0  0
  8  9  2  0  0  0  0
  8 10  1  0  0  0  0
 10 11  1  0  0  0  0
 10 31  1  0  0  0  0
 11 15  1  0  0  0  0
 11 12  2  0  0  0  0
 12 13  1  0  0  0  0
 13 14  2  0  0  0  0
 13 32  1  0  0  0  0
 14 15  1  0  0  0  0
 14 33  1  0  0  0  0
 16 17  1  0  0  0  0
 16 34  1  0  0  0  0
 16 35  1  0  0  0  0
 17 18  1  0  0  0  0
 17 19  1  0  0  0  0
 17 36  1  0  0  0  0
 18 37  1  0  0  0  0
 18 38  1  0  0  0  0
 18 39  1  0  0  0  0
M  CHG  1   4   1
M  END
> <s_m_source_file>
AV-unprocessed.smi

> <i_m_source_file_index>
1815

> <i_lp_mmshare_version>
43012

> <i_f3d_flags>
0

> <s_epik_input>
W0NIM11bQ0BASF0xW0NIMl1OKFtDSDJdW0NASF0oTzEpW0NIM10pW0NIMl1bQ0gyXVtOSF1DKD1PKVtOSF1jMm5bY0hdW2NIXXMy

> <s_epik_cmdline>
J2VwaWtfcHl0aG9uJywgJy1waCcsICc3LjAnLCAnLXRuJywgJzgnLCAnLW1hJywgJzIwMCcsICctbWV0YWxfYmluZGluZycsICctaW1hZScsICc8aW5maWxlLm1hZT4nLCAnLW9tYWUnLCAnPG91dGZpbGUubWFlPic=

> <r_lp_tautomer_probability>
0.999

> <r_epik_Ionization_Penalty>
0.695838

> <r_epik_Ionization_Penalty_Charging>
0.695697

> <r_epik_Ionization_Penalty_Neutral>
0.000141198

> <r_epik_State_Penalty>
0.717972

> <r_epik_Charging_Adjusted_Penalty>
1.41367

> <i_epik_Tot_Q>
1

> <i_epik_Tot_abs_Q>
1

> <r_epik_Metal_State_Penalty>
0.756405

> <b_epik_Metal_Only>
0

> <s_lp_Force_Field>
OPLS_2005

> <r_lp_Energy>
15.3222

> <b_lp_Chiralities_Consistent>
1

> <s_lp_Variant>
AV-unprocessed.smi:1815-4

> <Gold.Version>
5.8.1

> <Gold.Id.Protein>
6NUR|6NUR_protein|mol2

> <Gold.PLP.Fitness>
44.1950

> <Gold.PLP.PLP>
-33.4758

> <Gold.PLP.part.hbond>
-2.7122

> <Gold.PLP.part.metal>
0.0000

> <Gold.PLP.part.buried>
-4.5484

> <Gold.PLP.part.nonpolar>
-27.8764

> <Gold.PLP.part.repulsive>
2.1487

> <Gold.PLP.ligand.clash>
0.0000

> <Gold.PLP.ligand.torsion>
0.5060

> <Gold.PLP.Chemscore.Hbond>
2.9280

> <Gold.PLP.Chemscore.CHOScore>
0.9756

> <Gold.PLP.Chemscore.Metal>
0.0000

> <Gold.Chemscore.Hbonds>
donor molecule, donor type, donor heavy atom, donor atom, acceptor molecule, acceptor atom, score
      L1  H     7    30       P1  7948  0.89
      L1  H    10    31       P1  7948  0.91
      P1  H  7989  7998       L1    19  1.00
      L1  C    13    32       P1 10186  1.00

> <Gold.PLP.Chemscore.Internal.Correction>
0.0204

> <Gold.Rescore>
     Score         DG    S(hbond)    S(metal)    S(lipo)     H(rot)  DE(clash)    DE(int)     intcor
     17.54     -19.43       2.81        0.00      74.99       1.64       0.10       1.79       ----

> <Gold.Chemscore.Fitness>
17.5446

> <Gold.Chemscore.DG>
-19.4317

> <Gold.Chemscore.ZeroCoef>
-5.4800

> <Gold.Chemscore.Hbond>
2.8062

> <Gold.Chemscore.Metal>
0.0000

> <Gold.Chemscore.Lipo>
74.9875

> <Gold.Chemscore.Internal_Hbond>
0.0000

> <Gold.Chemscore.DEClash>
0.1007

> <Gold.Chemscore.DEInternal>
1.7864

> <Gold.Chemscore.Rot>
1.6385

> <Gold.Chemscore.Internal.Correction>
   9.000000E+99

> <Gold.Chemscore.Hbonds>
donor molecule, donor type, donor heavy atom, donor atom, acceptor molecule, acceptor atom, score
      L1  H     7    30       P1  7948  0.85
      L1  H    10    31       P1  7948  0.86
      P1  H  7989  7998       L1    19  0.69

> <Gold.Chemscore.Hbond.Weighted>
-9.3727

> <Gold.Chemscore.Metal.Weighted>
-0.0000

> <Gold.Chemscore.Lipo.Weighted>
-8.7735

> <Gold.Chemscore.Internal_Hbond.Weighted>
0.0000

> <Gold.Chemscore.DEClash.Weighted>
0.1007

> <Gold.Chemscore.DEInternal.Weighted>
1.7864

> <Gold.Chemscore.Rot.Weighted>
4.1945

> <Gold.Chemscore.Internal.Correction.Weighted>
   9.000000E+99

> <Gold.Protein.RotatedTorsions>
[ 6907 6896 6895 6894 ] final  -56.23 input  -60.11 | X-H torsion
[ 7974 7965 7964 7962 ] final   52.81 input  175.53 | X-H torsion
[ 8008 7997 7996 7995 ] final  -29.59 input   59.86 | X-H torsion
[ 10167 10162 10161 10158 ] final  150.43 input  -65.29 | X-H torsion
[ 10718 10713 10712 10709 ] final -142.00 input   66.30 | X-H torsion
[ 10763 10752 10751 10750 ] final -132.29 input  -60.55 | X-H torsion
[ 11005 11000 10999 10996 ] final  -50.87 input  -57.11 | X-H torsion

> <Gold.Protein.ActiveResidues>
 VAL166  LYS551  ARG553  GLY616  TRP617  ASP618  TYR619  PRO620  LYS621  CYS622 
 ASP623  PHE694  ASN695  SER759  ASP760  ASP761  ALA762  ILE779  LEU786  VAL792 
 PHE793  MET794  SER795  GLU796  ALA797  LYS798  CYS799  TRP800  GLU811  SER814 

> <Gold.Protein.RotatedAtoms>
  150.8185  134.7379  159.6750 H   0  0  0  0  0  0  0  0  0  0  0  0  # atno 6907 bound_to 6896
  152.4302  134.5789  159.9952 H   0  0  0  0  0  0  0  0  0  0  0  0  # atno 6908 bound_to 6896
  151.5980  133.3322  159.3077 H   0  0  0  0  0  0  0  0  0  0  0  0  # atno 6909 bound_to 6896
  145.9775  139.4210  143.0152 H   0  0  0  0  0  0  0  0  0  0  0  0  # atno 7974 bound_to 7965
  154.4284  140.1814  156.1272 H   0  0  0  0  0  0  0  0  0  0  0  0  # atno 8008 bound_to 7997
  156.0096  140.3352  155.6902 H   0  0  0  0  0  0  0  0  0  0  0  0  # atno 8009 bound_to 7997
  155.6129  140.0652  157.2692 H   0  0  0  0  0  0  0  0  0  0  0  0  # atno 8010 bound_to 7997
  139.4850  144.5523  151.7379 H   0  0  0  0  0  0  0  0  0  0  0  0  # atno 10167 bound_to 10162
  156.3407  130.7636  151.1771 H   0  0  0  0  0  0  0  0  0  0  0  0  # atno 10718 bound_to 10713
  154.8744  135.3803  154.4385 H   0  0  0  0  0  0  0  0  0  0  0  0  # atno 10763 bound_to 10752
  153.5072  135.7030  153.5805 H   0  0  0  0  0  0  0  0  0  0  0  0  # atno 10764 bound_to 10752
  153.4111  135.3924  155.2017 H   0  0  0  0  0  0  0  0  0  0  0  0  # atno 10765 bound_to 10752
  141.0840  133.6647  156.3794 H   0  0  0  0  0  0  0  0  0  0  0  0  # atno 11005 bound_to 11000
  145.7817  140.9853  143.1096 LP  0  0  0  0  0  0  0  0  0  0  0  0  # atno 17320 bound_to 7965
  144.6853  139.9572  143.7479 LP  0  0  0  0  0  0  0  0  0  0  0  0  # atno 17321 bound_to 7965
  140.5079  144.1070  150.5987 LP  0  0  0  0  0  0  0  0  0  0  0  0  # atno 17342 bound_to 10162
  140.3986  143.2715  151.9975 LP  0  0  0  0  0  0  0  0  0  0  0  0  # atno 17343 bound_to 10162
  157.7446  131.0455  150.4847 LP  0  0  0  0  0  0  0  0  0  0  0  0  # atno 17370 bound_to 10713
  156.5027  130.4121  149.6344 LP  0  0  0  0  0  0  0  0  0  0  0  0  # atno 17371 bound_to 10713
  140.5405  134.6125  157.5378 LP  0  0  0  0  0  0  0  0  0  0  0  0  # atno 17394 bound_to 11000
  139.9656  134.7378  156.0145 LP  0  0  0  0  0  0  0  0  0  0  0  0  # atno 17395 bound_to 11000

$$$$
