AV-unprocessed.smi:107|AV-procd|sdf|1026|dock7
  -GOLD-   2262018 23D 1   1.00000     0.00000
 Structure written by MMmdl.
 30 31  0  0  0  0  0  0  0  0  2 V2000
  151.8047  144.8269  158.1793 C   0  0  0  0  0  0  0  0  0  0  0  0
  151.6804  143.3250  158.3663 C   0  0  0  0  0  0  0  0  0  0  0  0
  150.9275  142.5561  157.5488 C   0  0  0  0  0  0  0  0  0  0  0  0
  150.8147  141.1884  157.7240 N   0  0  0  0  0  0  0  0  0  0  0  0
  149.9551  140.3673  156.7896 C   0  0  1  0  0  0  0  0  0  0  0  0
  149.3572  141.2459  155.6884 C   0  0  0  0  0  0  0  0  0  0  0  0
  149.4427  140.3273  154.4873 C   0  0  1  0  0  0  0  0  0  0  0  0
  149.4889  141.0714  153.2871 O   0  0  0  0  0  0  0  0  0  0  0  0
  150.7466  139.5715  154.7607 C   0  0  2  0  0  0  0  0  0  0  0  0
  150.8514  138.1982  154.0798 C   0  0  0  0  0  0  0  0  0  0  0  0
  149.6600  137.4614  154.2575 O   0  0  0  0  0  0  0  0  0  0  0  0
  150.7504  139.3943  156.1754 O   0  0  0  0  0  0  0  0  0  0  0  0
  151.4856  140.5620  158.8072 C   0  0  0  0  0  0  0  0  0  0  0  0
  151.3378  139.3498  158.9632 O   0  0  0  0  0  0  0  0  0  0  0  0
  152.2552  141.3284  159.6318 N   0  5  0  0  0  0  0  0  0  0  0  0
  152.3951  142.6758  159.4718 C   0  0  0  0  0  0  0  0  0  0  0  0
  153.0956  143.3544  160.2222 O   0  0  0  0  0  0  0  0  0  0  0  0
  151.2249  145.1687  157.3216 H   0  0  0  0  0  0  0  0  0  0  0  0
  152.8460  145.1056  158.0157 H   0  0  0  0  0  0  0  0  0  0  0  0
  151.4422  145.3523  159.0635 H   0  0  0  0  0  0  0  0  0  0  0  0
  150.3944  143.0285  156.7380 H   0  0  0  0  0  0  0  0  0  0  0  0
  149.2067  139.8483  157.3891 H   0  0  0  0  0  0  0  0  0  0  0  0
  148.3431  141.5594  155.9378 H   0  0  0  0  0  0  0  0  0  0  0  0
  149.9790  142.1315  155.5449 H   0  0  0  0  0  0  0  0  0  0  0  0
  148.5927  139.6436  154.4778 H   0  0  0  0  0  0  0  0  0  0  0  0
  149.3105  140.4854  152.5671 H   0  0  0  0  0  0  0  0  0  0  0  0
  151.6061  140.1927  154.5025 H   0  0  0  0  0  0  0  0  0  0  0  0
  151.0165  138.3254  153.0097 H   0  0  0  0  0  0  0  0  0  0  0  0
  151.6965  137.6309  154.4705 H   0  0  0  0  0  0  0  0  0  0  0  0
  149.2776  137.3004  153.4082 H   0  0  0  0  0  0  0  0  0  0  0  0
  1  2  1  0  0  0  0
  1 18  1  0  0  0  0
  1 19  1  0  0  0  0
  1 20  1  0  0  0  0
  2 16  1  0  0  0  0
  2  3  2  0  0  0  0
  3  4  1  0  0  0  0
  3 21  1  0  0  0  0
  4  5  1  0  0  0  0
  4 13  1  0  0  0  0
  5 12  1  0  0  0  0
  5  6  1  0  0  0  0
  5 22  1  0  0  0  0
  6  7  1  0  0  0  0
  6 23  1  0  0  0  0
  6 24  1  0  0  0  0
  7  8  1  0  0  0  0
  7  9  1  0  0  0  0
  7 25  1  0  0  0  0
  8 26  1  0  0  0  0
  9 10  1  0  0  0  0
  9 12  1  0  0  0  0
  9 27  1  0  0  0  0
 10 11  1  0  0  0  0
 10 28  1  0  0  0  0
 10 29  1  0  0  0  0
 11 30  1  0  0  0  0
 13 14  2  0  0  0  0
 13 15  1  0  0  0  0
 15 16  1  0  0  0  0
 16 17  2  0  0  0  0
M  CHG  1  15  -1
M  END
> <s_m_source_file>
AV-unprocessed.smi

> <i_m_source_file_index>
107

> <i_lp_mmshare_version>
43012

> <i_f3d_flags>
0

> <s_epik_input>
Tz1jMVtuSF1jKD1PKW4oW2NIXWMxW0NIM10pW0NAQEhdMltDSDJdW0NAQEhdKFtPSF0pW0NASF0oTzIpW0NIMl1bT0hd

> <s_epik_cmdline>
J2VwaWtfcHl0aG9uJywgJy1waCcsICc3LjAnLCAnLXRuJywgJzgnLCAnLW1hJywgJzIwMCcsICctbWV0YWxfYmluZGluZycsICctaW1hZScsICc8aW5maWxlLm1hZT4nLCAnLW9tYWUnLCAnPG91dGZpbGUubWFlPic=

> <r_lp_tautomer_probability>
0.999537

> <r_epik_Ionization_Penalty>
3.66603

> <r_epik_Ionization_Penalty_Charging>
1.09773e-07

> <r_epik_Ionization_Penalty_Neutral>
3.66603

> <r_epik_State_Penalty>
3.66562

> <r_epik_Charging_Adjusted_Penalty>
3.66562

> <i_epik_Tot_Q>
-1

> <i_epik_Tot_abs_Q>
1

> <r_epik_Metal_State_Penalty>
0.234536

> <b_epik_Metal_Only>
1

> <s_epik_Chemistry_Notes>
This compound contains an acetal/aminal-like group ( X-CH(R)-Y where X, Y are N, S, or O) that may be acid/base labile, releasing an aldehyde.

> <s_lp_Force_Field>
OPLS_2005

> <r_lp_Energy>
34.2111

> <b_lp_Chiralities_Consistent>
1

> <s_lp_Variant>
AV-unprocessed.smi:107-14

> <Gold.Version>
5.8.1

> <Gold.Id.Protein>
6NUR|6NUR_protein|mol2

> <Gold.PLP.Fitness>
45.1730

> <Gold.PLP.PLP>
-33.9295

> <Gold.PLP.part.hbond>
-3.3495

> <Gold.PLP.part.metal>
0.0000

> <Gold.PLP.part.buried>
-4.8171

> <Gold.PLP.part.nonpolar>
-26.1352

> <Gold.PLP.part.repulsive>
0.0000

> <Gold.PLP.ligand.clash>
0.0000

> <Gold.PLP.ligand.torsion>
0.0751

> <Gold.PLP.Chemscore.Hbond>
2.8184

> <Gold.PLP.Chemscore.CHOScore>
0.9766

> <Gold.PLP.Chemscore.Metal>
0.0000

> <Gold.Chemscore.Hbonds>
donor molecule, donor type, donor heavy atom, donor atom, acceptor molecule, acceptor atom, score
      L1  H     8    26       P1  7957  0.90
      L1  H    11    30       P1  7948  1.00
      P1  H  7989  7998       L1     8  0.04
      P1  H  8011  8017       L1     8  0.75
      L1  C     3    21       P1  8028  1.00

> <Gold.PLP.Chemscore.Internal.Correction>
0.0085

> <Gold.Rescore>
     Score         DG    S(hbond)    S(metal)    S(lipo)     H(rot)  DE(clash)    DE(int)     intcor
     11.43     -12.49       1.94        0.00      63.44       2.69       0.07       0.98       ----

> <Gold.Chemscore.Fitness>
11.4347

> <Gold.Chemscore.DG>
-12.4902

> <Gold.Chemscore.ZeroCoef>
-5.4800

> <Gold.Chemscore.Hbond>
1.9360

> <Gold.Chemscore.Metal>
0.0000

> <Gold.Chemscore.Lipo>
63.4435

> <Gold.Chemscore.Internal_Hbond>
0.0000

> <Gold.Chemscore.DEClash>
0.0736

> <Gold.Chemscore.DEInternal>
0.9819

> <Gold.Chemscore.Rot>
2.6871

> <Gold.Chemscore.Internal.Correction>
   9.000000E+99

> <Gold.Chemscore.Hbonds>
donor molecule, donor type, donor heavy atom, donor atom, acceptor molecule, acceptor atom, score
      L1  H     8    26       P1  7957  0.82
      L1  H    11    30       P1  7948  0.95
      P1  H  8011  8017       L1     8  0.09

> <Gold.Chemscore.Hbond.Weighted>
-6.4664

> <Gold.Chemscore.Metal.Weighted>
-0.0000

> <Gold.Chemscore.Lipo.Weighted>
-7.4229

> <Gold.Chemscore.Internal_Hbond.Weighted>
0.0000

> <Gold.Chemscore.DEClash.Weighted>
0.0736

> <Gold.Chemscore.DEInternal.Weighted>
0.9819

> <Gold.Chemscore.Rot.Weighted>
6.8791

> <Gold.Chemscore.Internal.Correction.Weighted>
   9.000000E+99

> <Gold.Protein.RotatedTorsions>
[ 6907 6896 6895 6894 ] final   52.43 input  -60.11 | X-H torsion
[ 7974 7965 7964 7962 ] final   31.61 input  175.53 | X-H torsion
[ 8008 7997 7996 7995 ] final -105.81 input   59.86 | X-H torsion
[ 10167 10162 10161 10158 ] final  179.34 input  -65.29 | X-H torsion
[ 10718 10713 10712 10709 ] final  -81.49 input   66.30 | X-H torsion
[ 10763 10752 10751 10750 ] final  123.86 input  -60.55 | X-H torsion
[ 11005 11000 10999 10996 ] final   34.11 input  -57.11 | X-H torsion

> <Gold.Protein.ActiveResidues>
 VAL166  LYS551  ARG553  GLY616  TRP617  ASP618  TYR619  PRO620  LYS621  CYS622 
 ASP623  PHE694  ASN695  SER759  ASP760  ASP761  ALA762  ILE779  LEU786  VAL792 
 PHE793  MET794  SER795  GLU796  ALA797  LYS798  CYS799  TRP800  GLU811  SER814 

> <Gold.Protein.RotatedAtoms>
  152.3232  134.7353  160.0308 H   0  0  0  0  0  0  0  0  0  0  0  0  # atno 6907 bound_to 6896
  151.7795  133.3343  159.3475 H   0  0  0  0  0  0  0  0  0  0  0  0  # atno 6908 bound_to 6896
  150.7381  134.5875  159.6015 H   0  0  0  0  0  0  0  0  0  0  0  0  # atno 6909 bound_to 6896
  146.1539  139.6634  142.9080 H   0  0  0  0  0  0  0  0  0  0  0  0  # atno 7974 bound_to 7965
  154.9053  140.0411  157.1916 H   0  0  0  0  0  0  0  0  0  0  0  0  # atno 8008 bound_to 7997
  154.8402  140.2913  155.5643 H   0  0  0  0  0  0  0  0  0  0  0  0  # atno 8009 bound_to 7997
  156.2992  140.2484  156.3343 H   0  0  0  0  0  0  0  0  0  0  0  0  # atno 8010 bound_to 7997
  139.5332  144.2573  152.0736 H   0  0  0  0  0  0  0  0  0  0  0  0  # atno 10167 bound_to 10162
  156.0049  130.4605  150.3960 H   0  0  0  0  0  0  0  0  0  0  0  0  # atno 10718 bound_to 10713
  153.6521  135.3361  155.3103 H   0  0  0  0  0  0  0  0  0  0  0  0  # atno 10763 bound_to 10752
  154.8535  135.4343  154.1893 H   0  0  0  0  0  0  0  0  0  0  0  0  # atno 10764 bound_to 10752
  153.2838  135.7011  153.7434 H   0  0  0  0  0  0  0  0  0  0  0  0  # atno 10765 bound_to 10752
  140.2562  134.3245  155.7873 H   0  0  0  0  0  0  0  0  0  0  0  0  # atno 11005 bound_to 11000
  145.4755  141.0437  143.2674 LP  0  0  0  0  0  0  0  0  0  0  0  0  # atno 17320 bound_to 7965
  144.7939  139.6274  143.7101 LP  0  0  0  0  0  0  0  0  0  0  0  0  # atno 17321 bound_to 7965
  140.2039  144.4630  150.6418 LP  0  0  0  0  0  0  0  0  0  0  0  0  # atno 17342 bound_to 10162
  140.6523  143.2228  151.6048 LP  0  0  0  0  0  0  0  0  0  0  0  0  # atno 17343 bound_to 10162
  157.2032  131.0443  151.2639 LP  0  0  0  0  0  0  0  0  0  0  0  0  # atno 17370 bound_to 10713
  157.3957  130.7306  149.6730 LP  0  0  0  0  0  0  0  0  0  0  0  0  # atno 17371 bound_to 10713
  141.2196  133.7382  156.9115 LP  0  0  0  0  0  0  0  0  0  0  0  0  # atno 17394 bound_to 11000
  140.1509  134.9230  157.2591 LP  0  0  0  0  0  0  0  0  0  0  0  0  # atno 17395 bound_to 11000

$$$$
