#       Name:                AV-unprocessed.smi:1191
#       Creating user name   scv26
#       Creation time:       Fri Mar 27 03:58:31 2020


#       File generated by GOLD software.
#

@<TRIPOS>MOLECULE
AV-unprocessed.smi:1191
    50    51     1
SMALL
NO_CHARGES


@<TRIPOS>ATOM
      1 ****        -5.5026   1.1881  -0.7917 C.3            1 S1                 0.0000
      2 ****        -4.5403   0.3608  -1.5920 C.2            1 S1                 0.0000
      3 ****        -4.0487   0.6032  -2.9051 C.2            1 S1                 0.0000
      4 ****        -3.2097  -0.4470  -3.1512 C.2            1 S1                 0.0000
      5 ****        -2.3875  -0.7612  -4.3578 C.3            1 S1                 0.0000
      6 ****        -3.2304  -1.2495  -2.0241 N.pl3          1 S1                 0.0000
      7 ****        -2.5090  -2.4856  -1.7634 C.3            1 S1                 0.0000
      8 ****        -1.1092  -2.2034  -1.2160 C.2            1 S1                 0.0000
      9 ****        -0.1206  -2.3839  -1.9266 O.2            1 S1                 0.0000
     10 ****        -1.0388  -1.7560   0.0473 N.am           1 S1                 0.0000
     11 ****         0.1921  -1.4050   0.7436 C.3            1 S1                 0.0000
     12 ****         0.6950  -0.0098   0.3267 C.3            1 S1                 0.0000
     13 ****         1.9672   0.3511   1.0002 N.4            1 S1                 1.0000
     14 ****         2.7531   1.3473   0.2277 C.3            1 S1                 0.0000
     15 ****         4.1329   1.5765   0.8645 C.3            1 S1                 0.0000
     16 ****         3.9998   1.9980   2.3348 C.3            1 S1                 0.0000
     17 ****         3.1300   1.0032   3.1261 C.3            1 S1                 0.0000
     18 ****         3.8560  -0.3206   3.4232 C.3            1 S1                 0.0000
     19 ****         1.7805   0.7790   2.4134 C.3            1 S1                 0.0000
     20 ****        -4.0451  -0.7488  -1.0692 N.2            1 S1                 0.0000
     21 ****        -5.8826   2.0265  -1.3757 H              1 S1                 0.0000
     22 ****        -5.0231   1.5949   0.0989 H              1 S1                 0.0000
     23 ****        -6.3584   0.5945  -0.4692 H              1 S1                 0.0000
     24 ****        -4.2777   1.4250  -3.5673 H              1 S1                 0.0000
     25 ****        -2.5142   0.0031  -5.1249 H              1 S1                 0.0000
     26 ****        -2.6792  -1.7191  -4.7890 H              1 S1                 0.0000
     27 ****        -1.3281  -0.8096  -4.1056 H              1 S1                 0.0000
     28 ****        -3.0708  -3.0921  -1.0510 H              1 S1                 0.0000
     29 ****        -2.4431  -3.0627  -2.6863 H              1 S1                 0.0000
     30 ****        -1.9044  -1.6373   0.5547 H              1 S1                 0.0000
     31 ****        -0.0194  -1.4407   1.8115 H              1 S1                 0.0000
     32 ****         0.9564  -2.1605   0.5527 H              1 S1                 0.0000
     33 ****         0.8522  -0.0117  -0.7528 H              1 S1                 0.0000
     34 ****        -0.0603   0.7526   0.5239 H              1 S1                 0.0000
     35 ****         2.8907   0.9983  -0.7966 H              1 S1                 0.0000
     36 ****         2.2002   2.2864   0.1724 H              1 S1                 0.0000
     37 ****         4.7284   0.6661   0.7896 H              1 S1                 0.0000
     38 ****         4.6751   2.3416   0.3082 H              1 S1                 0.0000
     39 ****         4.9849   2.0953   2.7923 H              1 S1                 0.0000
     40 ****         3.5434   2.9878   2.3800 H              1 S1                 0.0000
     41 ****         2.9162   1.4591   4.0938 H              1 S1                 0.0000
     42 ****         4.0930  -0.8699   2.5121 H              1 S1                 0.0000
     43 ****         3.2425  -0.9706   4.0478 H              1 S1                 0.0000
     44 ****         4.7905  -0.1435   3.9565 H              1 S1                 0.0000
     45 ****         1.1982   1.7019   2.4302 H              1 S1                 0.0000
     46 ****         1.2008   0.0404   2.9661 H              1 S1                 0.0000
     47 ****         2.5259  -0.4903   1.0182 H              1 S1                 0.0000
     48 ****        -0.2321  -2.7156  -2.8634 LP             1 S1                 0.0000
     49 ****         0.7940  -2.1989  -1.5672 LP             1 S1                 0.0000
     50 ****        -4.2326  -1.1331  -0.1652 LP             1 S1                 0.0000
@<TRIPOS>BOND
    1    1    2 1     
    2    1   21 1     
    3    1   22 1     
    4    1   23 1     
    5    2   20 2     
    6    2    3 1     
    7    3    4 2     
    8    3   24 1     
    9    4    5 1     
   10    4    6 1     
   11    5   25 1     
   12    5   26 1     
   13    5   27 1     
   14    6    7 1     
   15    6   20 1     
   16    7    8 1     
   17    7   28 1     
   18    7   29 1     
   19    8    9 2     
   20    8   10 am    
   21   10   11 1     
   22   10   30 1     
   23   11   12 1     
   24   11   31 1     
   25   11   32 1     
   26   12   13 1     
   27   12   33 1     
   28   12   34 1     
   29   13   19 1     
   30   13   14 1     
   31   13   47 1     
   32   14   15 1     
   33   14   35 1     
   34   14   36 1     
   35   15   16 1     
   36   15   37 1     
   37   15   38 1     
   38   16   17 1     
   39   16   39 1     
   40   16   40 1     
   41   17   18 1     
   42   17   19 1     
   43   17   41 1     
   44   18   42 1     
   45   18   43 1     
   46   18   44 1     
   47   19   45 1     
   48   19   46 1     
   49    9   48 1     
   50    9   49 1     
   51   20   50 1     
@<TRIPOS>SUBSTRUCTURE
      1 S1             1
@<TRIPOS>SET
LONE_PAIRS      STATIC     ATOMS    <user>   **** ""
3 48 49 50
DONOR_HYDROGENS      STATIC     ATOMS    <user>   **** ""
2 30 47
ATOM$BLUE        STATIC     ATOMS    COLORGROUP SYSTEM
3 48 49 50
ATOM$RED        STATIC     ATOMS    COLORGROUP SYSTEM
2 30 47
