#       Name:                AV-unprocessed.smi:1273
#       Creating user name   scv26
#       Creation time:       Fri Mar 27 04:47:06 2020


#       File generated by GOLD software.
#

@<TRIPOS>MOLECULE
AV-unprocessed.smi:1273
    46    47     1
SMALL
NO_CHARGES


@<TRIPOS>ATOM
      1 ****        -5.1301  -1.5820   1.4751 C.3            1 S1                 0.0000
      2 ****        -4.3744  -1.0108   0.2641 C.3            1 S1                 0.0000
      3 ****        -2.8538  -1.0648   0.4661 C.2            1 S1                 0.0000
      4 ****        -2.3334  -2.0718   0.9462 O.2            1 S1                 0.0000
      5 ****        -2.1716   0.0274   0.0736 N.am           1 S1                 0.0000
      6 ****        -0.7741   0.2649   0.1552 C.ar           1 S1                 0.0000
      7 ****        -0.2006   1.1883  -0.7399 C.ar           1 S1                 0.0000
      8 ****         1.1787   1.4581  -0.6599 C.ar           1 S1                 0.0000
      9 ****         1.9542   0.8024   0.3255 C.ar           1 S1                 0.0000
     10 ****         3.3394   1.0567   0.4262 N.3            1 S1                 0.0000
     11 ****         4.1023   0.9031  -0.8103 C.3            1 S1                 0.0000
     12 ****         5.5142   1.4924  -0.6467 C.3            1 S1                 0.0000
     13 ****         6.1573   0.9027   0.4782 O.3            1 S1                 0.0000
     14 ****         5.4534   1.1654   1.6873 C.3            1 S1                 0.0000
     15 ****         4.0430   0.5577   1.6067 C.3            1 S1                 0.0000
     16 ****         1.3959  -0.0694   1.2009 N.ar           1 S1                 0.0000
     17 ****         0.0743  -0.3290   1.1185 C.ar           1 S1                 0.0000
     18 ****        -4.8495  -1.9375  -1.2703 S.o2           1 S1                 0.0000
     19 ****        -3.9903  -1.0045  -2.6067 C.3            1 S1                 0.0000
     20 ****        -4.2702  -3.2886  -1.2133 O.2            1 S1                 0.0000
     21 ****        -6.2996  -1.7834  -1.4634 O.2            1 S1                 0.0000
     22 ****        -4.8337  -1.0846   2.3994 H              1 S1                 0.0000
     23 ****        -4.9460  -2.6504   1.5949 H              1 S1                 0.0000
     24 ****        -6.2055  -1.4455   1.3604 H              1 S1                 0.0000
     25 ****        -4.6824   0.0258   0.1220 H              1 S1                 0.0000
     26 ****        -2.7075   0.7448  -0.3926 H              1 S1                 0.0000
     27 ****        -0.8074   1.6860  -1.4823 H              1 S1                 0.0000
     28 ****         1.6189   2.1725  -1.3394 H              1 S1                 0.0000
     29 ****         4.1677  -0.1583  -1.0528 H              1 S1                 0.0000
     30 ****         3.6113   1.3905  -1.6513 H              1 S1                 0.0000
     31 ****         6.1086   1.2942  -1.5387 H              1 S1                 0.0000
     32 ****         5.4714   2.5763  -0.5274 H              1 S1                 0.0000
     33 ****         6.0030   0.7283   2.5210 H              1 S1                 0.0000
     34 ****         5.4043   2.2408   1.8667 H              1 S1                 0.0000
     35 ****         3.4894   0.8102   2.5121 H              1 S1                 0.0000
     36 ****         4.1081  -0.5301   1.5559 H              1 S1                 0.0000
     37 ****        -0.3005  -1.0118   1.8651 H              1 S1                 0.0000
     38 ****        -4.2797  -1.4163  -3.5734 H              1 S1                 0.0000
     39 ****        -2.9108  -1.0973  -2.4912 H              1 S1                 0.0000
     40 ****        -4.2759   0.0461  -2.5632 H              1 S1                 0.0000
     41 ****        -2.9012  -2.8535   1.2042 LP             1 S1                 0.0000
     42 ****        -1.3428  -2.1081   1.0783 LP             1 S1                 0.0000
     43 ****         3.3043   2.0410   0.5994 LP             1 S1                 0.0000
     44 ****         7.0822   1.2754   0.5546 LP             1 S1                 0.0000
     45 ****         6.2069  -0.0866   0.3409 LP             1 S1                 0.0000
     46 ****         1.9567  -0.5145   1.8991 LP             1 S1                 0.0000
@<TRIPOS>BOND
    1    1    2 1     
    2    1   22 1     
    3    1   23 1     
    4    1   24 1     
    5    2    3 1     
    6    2   18 1     
    7    2   25 1     
    8    3    4 2     
    9    3    5 am    
   10    5    6 1     
   11    5   26 1     
   12    6   17 ar    
   13    6    7 ar    
   14    7    8 ar    
   15    7   27 1     
   16    8    9 ar    
   17    8   28 1     
   18    9   10 1     
   19    9   16 ar    
   20   10   15 1     
   21   10   11 1     
   22   11   12 1     
   23   11   29 1     
   24   11   30 1     
   25   12   13 1     
   26   12   31 1     
   27   12   32 1     
   28   13   14 1     
   29   14   15 1     
   30   14   33 1     
   31   14   34 1     
   32   15   35 1     
   33   15   36 1     
   34   16   17 ar    
   35   17   37 1     
   36   18   19 1     
   37   18   20 2     
   38   18   21 2     
   39   19   38 1     
   40   19   39 1     
   41   19   40 1     
   42    4   41 1     
   43    4   42 1     
   44   10   43 1     
   45   13   44 1     
   46   13   45 1     
   47   16   46 1     
@<TRIPOS>SUBSTRUCTURE
      1 S1             1
@<TRIPOS>SET
LONE_PAIRS      STATIC     ATOMS    <user>   **** ""
8 41 42 43 44 45 46 20 21
DONOR_HYDROGENS      STATIC     ATOMS    <user>   **** ""
1 26
ATOM$BLUE        STATIC     ATOMS    COLORGROUP SYSTEM
8 41 42 43 44 45 46 20 21
ATOM$RED        STATIC     ATOMS    COLORGROUP SYSTEM
1 26
