AV-unprocessed.smi:1626|AV-procd|sdf|6506|dock3
  -GOLD-   22720 7173D 1   1.00000     0.00000
 Structure written by MMmdl.
 48 50  0  0  0  0  0  0  0  0  2 V2000
  152.8315  143.2561  161.7830 C   0  0  0  0  0  0  0  0  0  0  0  0
  152.3015  142.8376  160.4227 C   0  0  0  0  0  0  0  0  0  0  0  0
  152.3619  141.4754  160.0515 C   0  0  0  0  0  0  0  0  0  0  0  0
  151.8774  141.0443  158.7973 C   0  0  0  0  0  0  0  0  0  0  0  0
  151.8370  139.7798  158.2358 N   0  0  0  0  0  0  0  0  0  0  0  0
  151.2732  140.0270  157.0574 C   0  0  0  0  0  0  0  0  0  0  0  0
  150.9570  141.3073  156.7814 N   0  0  0  0  0  0  0  0  0  0  0  0
  150.3504  141.8161  155.5638 C   0  0  0  0  0  0  0  0  0  0  0  0
  149.5334  140.7440  154.8149 C   0  0  2  0  0  0  0  0  0  0  0  0
  150.4125  140.0743  153.9338 O   0  0  0  0  0  0  0  0  0  0  0  0
  148.3509  141.3240  154.0057 C   0  0  0  0  0  0  0  0  0  0  0  0
  147.5034  142.2374  154.8135 N   0  3  2  0  0  0  0  0  0  0  0  0
  147.1939  141.6805  156.1561 C   0  0  0  0  0  0  0  0  0  0  0  0
  146.4365  142.7029  157.0203 C   0  0  0  0  0  0  0  0  0  0  0  0
  145.1546  143.1714  156.3166 C   0  0  1  0  0  0  0  0  0  0  0  0
  144.5335  144.1802  157.0839 O   0  0  0  0  0  0  0  0  0  0  0  0
  145.4948  143.7147  154.9211 C   0  0  0  0  0  0  0  0  0  0  0  0
  146.2680  142.6674  154.1028 C   0  0  0  0  0  0  0  0  0  0  0  0
  151.3289  142.0214  157.9158 C   0  0  0  0  0  0  0  0  0  0  0  0
  151.2611  143.3792  158.2751 C   0  0  0  0  0  0  0  0  0  0  0  0
  151.7502  143.7930  159.5317 C   0  0  0  0  0  0  0  0  0  0  0  0
  151.6734  145.2617  159.9093 C   0  0  0  0  0  0  0  0  0  0  0  0
  153.1565  142.3940  162.3661 H   0  0  0  0  0  0  0  0  0  0  0  0
  152.0590  143.7718  162.3538 H   0  0  0  0  0  0  0  0  0  0  0  0
  153.6845  143.9255  161.6696 H   0  0  0  0  0  0  0  0  0  0  0  0
  152.7804  140.7471  160.7307 H   0  0  0  0  0  0  0  0  0  0  0  0
  151.0888  139.2320  156.3494 H   0  0  0  0  0  0  0  0  0  0  0  0
  149.7148  142.6653  155.8208 H   0  0  0  0  0  0  0  0  0  0  0  0
  151.1462  142.2023  154.9253 H   0  0  0  0  0  0  0  0  0  0  0  0
  149.1794  140.0149  155.5416 H   0  0  0  0  0  0  0  0  0  0  0  0
  149.9595  139.8918  153.1250 H   0  0  0  0  0  0  0  0  0  0  0  0
  148.6981  141.8715  153.1288 H   0  0  0  0  0  0  0  0  0  0  0  0
  147.7560  140.4941  153.6207 H   0  0  0  0  0  0  0  0  0  0  0  0
  146.6057  140.7678  156.0472 H   0  0  0  0  0  0  0  0  0  0  0  0
  148.1194  141.4038  156.6624 H   0  0  0  0  0  0  0  0  0  0  0  0
  146.1947  142.2629  157.9886 H   0  0  0  0  0  0  0  0  0  0  0  0
  147.0845  143.5573  157.2212 H   0  0  0  0  0  0  0  0  0  0  0  0
  144.4600  142.3350  156.2263 H   0  0  0  0  0  0  0  0  0  0  0  0
  144.0344  144.7373  156.5058 H   0  0  0  0  0  0  0  0  0  0  0  0
  144.5826  143.9971  154.3940 H   0  0  0  0  0  0  0  0  0  0  0  0
  146.0957  144.6213  155.0098 H   0  0  0  0  0  0  0  0  0  0  0  0
  146.5127  143.0892  153.1286 H   0  0  0  0  0  0  0  0  0  0  0  0
  145.6337  141.7993  153.9156 H   0  0  0  0  0  0  0  0  0  0  0  0
  150.8337  144.0972  157.5912 H   0  0  0  0  0  0  0  0  0  0  0  0
  151.2778  145.8633  159.0904 H   0  0  0  0  0  0  0  0  0  0  0  0
  152.6626  145.6467  160.1580 H   0  0  0  0  0  0  0  0  0  0  0  0
  151.0206  145.3993  160.7714 H   0  0  0  0  0  0  0  0  0  0  0  0
  148.0555  143.0669  154.9777 H   0  0  0  0  0  0  0  0  0  0  0  0
  1  2  1  0  0  0  0
  1 23  1  0  0  0  0
  1 24  1  0  0  0  0
  1 25  1  0  0  0  0
  2 21  1  0  0  0  0
  2  3  2  0  0  0  0
  3  4  1  0  0  0  0
  3 26  1  0  0  0  0
  4 19  2  0  0  0  0
  4  5  1  0  0  0  0
  5  6  2  0  0  0  0
  6  7  1  0  0  0  0
  6 27  1  0  0  0  0
  7  8  1  0  0  0  0
  7 19  1  0  0  0  0
  8  9  1  0  0  0  0
  8 28  1  0  0  0  0
  8 29  1  0  0  0  0
  9 10  1  0  0  0  0
  9 11  1  0  0  0  0
  9 30  1  0  0  0  0
 10 31  1  0  0  0  0
 11 12  1  0  0  0  0
 11 32  1  0  0  0  0
 11 33  1  0  0  0  0
 12 18  1  0  0  0  0
 12 13  1  0  0  0  0
 12 48  1  0  0  0  0
 13 14  1  0  0  0  0
 13 34  1  0  0  0  0
 13 35  1  0  0  0  0
 14 15  1  0  0  0  0
 14 36  1  0  0  0  0
 14 37  1  0  0  0  0
 15 16  1  0  0  0  0
 15 17  1  0  0  0  0
 15 38  1  0  0  0  0
 16 39  1  0  0  0  0
 17 18  1  0  0  0  0
 17 40  1  0  0  0  0
 17 41  1  0  0  0  0
 18 42  1  0  0  0  0
 18 43  1  0  0  0  0
 19 20  1  0  0  0  0
 20 21  2  0  0  0  0
 20 44  1  0  0  0  0
 21 22  1  0  0  0  0
 22 45  1  0  0  0  0
 22 46  1  0  0  0  0
 22 47  1  0  0  0  0
M  CHG  1  12   1
M  END
> <s_m_source_file>
AV-unprocessed.smi

> <i_m_source_file_index>
1626

> <i_lp_mmshare_version>
43012

> <i_f3d_flags>
0

> <s_epik_input>
W0NIM11jKFtjSF0xKWMoW0NIM10pW2NIXWMoYzEyKW4oW2NIXW4yKVtDSDJdW0NASF0oW09IXSlbQ0gyXU4zW0NIMl1bQ0gyXVtDSF0oW09IXSlbQ0gyXVtDSDJdMw==

> <s_epik_cmdline>
J2VwaWtfcHl0aG9uJywgJy1waCcsICc3LjAnLCAnLXRuJywgJzgnLCAnLW1hJywgJzIwMCcsICctbWV0YWxfYmluZGluZycsICctaW1hZScsICc8aW5maWxlLm1hZT4nLCAnLW9tYWUnLCAnPG91dGZpbGUubWFlPic=

> <r_epik_Ionization_Penalty>
0.106584

> <r_epik_Ionization_Penalty_Charging>
0.0185694

> <r_epik_Ionization_Penalty_Neutral>
0.0880147

> <r_epik_State_Penalty>
0.0908428

> <r_epik_Charging_Adjusted_Penalty>
0.109412

> <i_epik_Tot_Q>
1

> <i_epik_Tot_abs_Q>
1

> <r_epik_Metal_State_Penalty>
0.0153739

> <b_epik_Metal_Only>
0

> <s_lp_Force_Field>
OPLS_2005

> <r_lp_Energy>
21.7695

> <b_lp_Chiralities_Consistent>
1

> <s_lp_Variant>
AV-unprocessed.smi:1626-1

> <Gold.Version>
5.8.1

> <Gold.Id.Protein>
6NUR|6NUR_protein|mol2

> <Gold.PLP.Fitness>
58.8067

> <Gold.PLP.PLP>
-48.4152

> <Gold.PLP.part.hbond>
-2.8867

> <Gold.PLP.part.metal>
0.0000

> <Gold.PLP.part.buried>
-7.0026

> <Gold.PLP.part.nonpolar>
-38.8174

> <Gold.PLP.part.repulsive>
0.1063

> <Gold.PLP.ligand.clash>
0.0000

> <Gold.PLP.ligand.torsion>
0.8189

> <Gold.PLP.Chemscore.Hbond>
4.0000

> <Gold.PLP.Chemscore.CHOScore>
0.0000

> <Gold.PLP.Chemscore.Metal>
0.0000

> <Gold.Chemscore.Hbonds>
donor molecule, donor type, donor heavy atom, donor atom, acceptor molecule, acceptor atom, score
      L1  H    10    31       P1  7957  1.00
      L1  H    12    48       P1  8028  2.00
      P1  H  7989  7998       L1    10  0.93

> <Gold.PLP.Chemscore.Internal.Correction>
0.0292

> <Gold.Rescore>
     Score         DG    S(hbond)    S(metal)    S(lipo)     H(rot)  DE(clash)    DE(int)     intcor
     19.63     -20.83       2.35        0.00     122.62       2.67       0.38       0.82       ----

> <Gold.Chemscore.Fitness>
19.6345

> <Gold.Chemscore.DG>
-20.8343

> <Gold.Chemscore.ZeroCoef>
-5.4800

> <Gold.Chemscore.Hbond>
2.3493

> <Gold.Chemscore.Metal>
0.0000

> <Gold.Chemscore.Lipo>
122.6153

> <Gold.Chemscore.Internal_Hbond>
0.0000

> <Gold.Chemscore.DEClash>
0.3833

> <Gold.Chemscore.DEInternal>
0.8164

> <Gold.Chemscore.Rot>
2.6712

> <Gold.Chemscore.Internal.Correction>
   9.000000E+99

> <Gold.Chemscore.Hbonds>
donor molecule, donor type, donor heavy atom, donor atom, acceptor molecule, acceptor atom, score
      L1  H    10    31       P1  7957  0.95
      L1  H    12    48       P1  8028  0.92
      P1  H  7989  7998       L1    10  0.31

> <Gold.Chemscore.Hbond.Weighted>
-7.8467

> <Gold.Chemscore.Metal.Weighted>
-0.0000

> <Gold.Chemscore.Lipo.Weighted>
-14.3460

> <Gold.Chemscore.Internal_Hbond.Weighted>
0.0000

> <Gold.Chemscore.DEClash.Weighted>
0.3833

> <Gold.Chemscore.DEInternal.Weighted>
0.8164

> <Gold.Chemscore.Rot.Weighted>
6.8383

> <Gold.Chemscore.Internal.Correction.Weighted>
   9.000000E+99

> <Gold.Protein.RotatedTorsions>
[ 6907 6896 6895 6894 ] final -177.49 input  -60.11 | X-H torsion
[ 7974 7965 7964 7962 ] final  165.45 input  175.53 | X-H torsion
[ 8008 7997 7996 7995 ] final  134.86 input   59.86 | X-H torsion
[ 10167 10162 10161 10158 ] final   65.16 input  -65.29 | X-H torsion
[ 10718 10713 10712 10709 ] final   -2.12 input   66.30 | X-H torsion
[ 10763 10752 10751 10750 ] final  149.38 input  -60.55 | X-H torsion
[ 11005 11000 10999 10996 ] final   77.66 input  -57.11 | X-H torsion

> <Gold.Protein.ActiveResidues>
 VAL166  LYS551  ARG553  GLY616  TRP617  ASP618  TYR619  PRO620  LYS621  CYS622 
 ASP623  PHE694  ASN695  SER759  ASP760  ASP761  ALA762  ILE779  LEU786  VAL792 
 PHE793  MET794  SER795  GLU796  ALA797  LYS798  CYS799  TRP800  GLU811  SER814 

> <Gold.Protein.RotatedAtoms>
  151.6218  133.3338  159.3089 H   0  0  0  0  0  0  0  0  0  0  0  0  # atno 6907 bound_to 6896
  150.8102  134.7255  159.6692 H   0  0  0  0  0  0  0  0  0  0  0  0  # atno 6908 bound_to 6896
  152.4198  134.5980  160.0044 H   0  0  0  0  0  0  0  0  0  0  0  0  # atno 6909 bound_to 6896
  144.7502  139.8473  143.6369 H   0  0  0  0  0  0  0  0  0  0  0  0  # atno 7974 bound_to 7965
  156.3001  140.2485  156.3487 H   0  0  0  0  0  0  0  0  0  0  0  0  # atno 8008 bound_to 7997
  154.8986  140.0407  157.1899 H   0  0  0  0  0  0  0  0  0  0  0  0  # atno 8009 bound_to 7997
  154.8524  140.2908  155.5594 H   0  0  0  0  0  0  0  0  0  0  0  0  # atno 8010 bound_to 7997
  140.1144  144.4789  150.6958 H   0  0  0  0  0  0  0  0  0  0  0  0  # atno 10167 bound_to 10162
  156.7955  130.5375  149.5729 H   0  0  0  0  0  0  0  0  0  0  0  0  # atno 10718 bound_to 10713
  154.0702  135.2867  155.3309 H   0  0  0  0  0  0  0  0  0  0  0  0  # atno 10763 bound_to 10752
  154.6752  135.5284  153.8193 H   0  0  0  0  0  0  0  0  0  0  0  0  # atno 10764 bound_to 10752
  153.0488  135.6567  154.0884 H   0  0  0  0  0  0  0  0  0  0  0  0  # atno 10765 bound_to 10752
  139.9245  134.7701  156.1550 H   0  0  0  0  0  0  0  0  0  0  0  0  # atno 11005 bound_to 11000
  146.1441  139.4505  143.0090 LP  0  0  0  0  0  0  0  0  0  0  0  0  # atno 17320 bound_to 7965
  145.6973  141.0146  143.1523 LP  0  0  0  0  0  0  0  0  0  0  0  0  # atno 17321 bound_to 7965
  140.6908  143.2375  151.5137 LP  0  0  0  0  0  0  0  0  0  0  0  0  # atno 17342 bound_to 10162
  139.5602  144.2175  152.1679 LP  0  0  0  0  0  0  0  0  0  0  0  0  # atno 17343 bound_to 10162
  156.1133  130.6056  151.0081 LP  0  0  0  0  0  0  0  0  0  0  0  0  # atno 17370 bound_to 10713
  157.6580  131.0886  150.7904 LP  0  0  0  0  0  0  0  0  0  0  0  0  # atno 17371 bound_to 10713
  141.0792  133.6762  156.2300 LP  0  0  0  0  0  0  0  0  0  0  0  0  # atno 17394 bound_to 11000
  140.6376  134.5199  157.5566 LP  0  0  0  0  0  0  0  0  0  0  0  0  # atno 17395 bound_to 11000

$$$$
