AV-unprocessed.smi:1217|AV-procd|sdf|5102|dock5
  -GOLD-   22720 4153D 1   1.00000     0.00000
 Structure written by MMmdl.
 34 35  0  0  0  0  0  0  0  0  1 V2000
  148.4113  141.1256  153.9668 C   0  0  0  0  0  0  0  0  0  0  0  0
  149.3799  140.8036  155.1151 C   0  0  2  0  0  0  0  0  0  0  0  0
  149.7026  142.0463  155.8133 N   0  0  0  0  0  0  0  0  0  0  0  0
  150.3849  142.1418  156.9645 C   0  0  0  0  0  0  0  0  0  0  0  0
  150.8252  141.1699  157.5792 O   0  0  0  0  0  0  0  0  0  0  0  0
  150.5225  143.4254  157.3407 N   0  0  0  0  0  0  0  0  0  0  0  0
  151.1331  143.9348  158.5177 C   0  0  0  0  0  0  0  0  0  0  0  0
  152.0720  143.0715  159.1265 C   0  0  0  0  0  0  0  0  0  0  0  0
  152.7382  143.4860  160.2961 C   0  0  0  0  0  0  0  0  0  0  0  0
  152.4503  144.7561  160.8262 C   0  0  0  0  0  0  0  0  0  0  0  0
  151.5034  145.5542  160.1581 C   0  0  0  0  0  0  0  0  0  0  0  0
  150.8628  145.1583  159.0379 N   0  0  0  0  0  0  0  0  0  0  0  0
  150.6756  140.1328  154.6156 C   0  0  2  0  0  0  0  0  0  0  0  0
  150.4613  138.8655  153.7853 C   0  0  0  0  0  0  0  0  0  0  0  0
  151.7435  138.0725  153.9906 C   0  0  0  0  0  0  0  0  0  0  0  0
  152.4337  138.7745  155.1624 C   0  0  0  0  0  0  0  0  0  0  0  0
  151.4463  139.6406  155.7014 O   0  0  0  0  0  0  0  0  0  0  0  0
  148.1016  140.2217  153.4422 H   0  0  0  0  0  0  0  0  0  0  0  0
  148.8685  141.7939  153.2363 H   0  0  0  0  0  0  0  0  0  0  0  0
  147.5079  141.6087  154.3407 H   0  0  0  0  0  0  0  0  0  0  0  0
  148.8692  140.1191  155.7949 H   0  0  0  0  0  0  0  0  0  0  0  0
  149.3855  142.9008  155.3802 H   0  0  0  0  0  0  0  0  0  0  0  0
  150.1331  144.1186  156.7194 H   0  0  0  0  0  0  0  0  0  0  0  0
  152.2824  142.0993  158.7049 H   0  0  0  0  0  0  0  0  0  0  0  0
  153.4581  142.8402  160.7768 H   0  0  0  0  0  0  0  0  0  0  0  0
  152.9418  145.1097  161.7204 H   0  0  0  0  0  0  0  0  0  0  0  0
  151.2544  146.5363  160.5317 H   0  0  0  0  0  0  0  0  0  0  0  0
  151.2805  140.8459  154.0517 H   0  0  0  0  0  0  0  0  0  0  0  0
  149.6173  138.2959  154.1770 H   0  0  0  0  0  0  0  0  0  0  0  0
  150.2616  139.0806  152.7352 H   0  0  0  0  0  0  0  0  0  0  0  0
  151.5196  137.0312  154.2241 H   0  0  0  0  0  0  0  0  0  0  0  0
  152.3760  138.0895  153.1025 H   0  0  0  0  0  0  0  0  0  0  0  0
  152.7998  138.0757  155.9148 H   0  0  0  0  0  0  0  0  0  0  0  0
  153.2777  139.3694  154.8103 H   0  0  0  0  0  0  0  0  0  0  0  0
  1  2  1  0  0  0  0
  1 18  1  0  0  0  0
  1 19  1  0  0  0  0
  1 20  1  0  0  0  0
  2  3  1  0  0  0  0
  2 13  1  0  0  0  0
  2 21  1  0  0  0  0
  3  4  1  0  0  0  0
  3 22  1  0  0  0  0
  4  5  2  0  0  0  0
  4  6  1  0  0  0  0
  6  7  1  0  0  0  0
  6 23  1  0  0  0  0
  7 12  1  0  0  0  0
  7  8  2  0  0  0  0
  8  9  1  0  0  0  0
  8 24  1  0  0  0  0
  9 10  2  0  0  0  0
  9 25  1  0  0  0  0
 10 11  1  0  0  0  0
 10 26  1  0  0  0  0
 11 12  2  0  0  0  0
 11 27  1  0  0  0  0
 13 17  1  0  0  0  0
 13 14  1  0  0  0  0
 13 28  1  0  0  0  0
 14 15  1  0  0  0  0
 14 29  1  0  0  0  0
 14 30  1  0  0  0  0
 15 16  1  0  0  0  0
 15 31  1  0  0  0  0
 15 32  1  0  0  0  0
 16 17  1  0  0  0  0
 16 33  1  0  0  0  0
 16 34  1  0  0  0  0
M  END
> <s_m_source_file>
AV-unprocessed.smi

> <i_m_source_file_index>
1217

> <i_lp_mmshare_version>
43012

> <i_f3d_flags>
0

> <s_epik_input>
TzFbQ0gyXVtDSDJdW0NIMl1bQ0BIXTFbQ0BIXShbQ0gzXSlbTkhdQyg9TylbTkhdYzJbY0hdW2NIXVtjSF1bY0hdbjI=

> <s_epik_cmdline>
J2VwaWtfcHl0aG9uJywgJy1waCcsICc3LjAnLCAnLXRuJywgJzgnLCAnLW1hJywgJzIwMCcsICctbWV0YWxfYmluZGluZycsICctaW1hZScsICc8aW5maWxlLm1hZT4nLCAnLW9tYWUnLCAnPG91dGZpbGUubWFlPic=

> <r_lp_tautomer_probability>
1

> <r_epik_Ionization_Penalty>
4.51768e-05

> <r_epik_Ionization_Penalty_Charging>
0

> <r_epik_Ionization_Penalty_Neutral>
4.51768e-05

> <r_epik_State_Penalty>
-0

> <r_epik_Charging_Adjusted_Penalty>
0

> <i_epik_Tot_Q>
0

> <i_epik_Tot_abs_Q>
0

> <r_epik_Metal_State_Penalty>
-0

> <b_epik_Metal_Only>
0

> <s_lp_Force_Field>
OPLS_2005

> <r_lp_Energy>
20.7335

> <b_lp_Chiralities_Consistent>
1

> <s_lp_Variant>
AV-unprocessed.smi:1217-1

> <Gold.Version>
5.8.1

> <Gold.Id.Protein>
6NUR|6NUR_protein|mol2

> <Gold.PLP.Fitness>
41.8067

> <Gold.PLP.PLP>
-36.5312

> <Gold.PLP.part.hbond>
-2.0000

> <Gold.PLP.part.metal>
0.0000

> <Gold.PLP.part.buried>
-4.7887

> <Gold.PLP.part.nonpolar>
-31.6818

> <Gold.PLP.part.repulsive>
0.3059

> <Gold.PLP.ligand.clash>
0.0000

> <Gold.PLP.ligand.torsion>
0.2167

> <Gold.PLP.Chemscore.Hbond>
1.8960

> <Gold.PLP.Chemscore.CHOScore>
0.0000

> <Gold.PLP.Chemscore.Metal>
0.0000

> <Gold.Chemscore.Hbonds>
donor molecule, donor type, donor heavy atom, donor atom, acceptor molecule, acceptor atom, score
      L1  H     3    22       P1  8028  0.93
      L1  H     6    23       P1  8028  1.00

> <Gold.PLP.Chemscore.Internal.Correction>
0.0210

> <Gold.Rescore>
     Score         DG    S(hbond)    S(metal)    S(lipo)     H(rot)  DE(clash)    DE(int)     intcor
     15.11     -18.58       1.73        0.00      89.89       1.25       0.00       3.47       ----

> <Gold.Chemscore.Fitness>
15.1085

> <Gold.Chemscore.DG>
-18.5842

> <Gold.Chemscore.ZeroCoef>
-5.4800

> <Gold.Chemscore.Hbond>
1.7330

> <Gold.Chemscore.Metal>
0.0000

> <Gold.Chemscore.Lipo>
89.8932

> <Gold.Chemscore.Internal_Hbond>
0.0000

> <Gold.Chemscore.DEClash>
0.0042

> <Gold.Chemscore.DEInternal>
3.4715

> <Gold.Chemscore.Rot>
1.2506

> <Gold.Chemscore.Internal.Correction>
   9.000000E+99

> <Gold.Chemscore.Hbonds>
donor molecule, donor type, donor heavy atom, donor atom, acceptor molecule, acceptor atom, score
      L1  H     3    22       P1  8028  0.91
      L1  H     6    23       P1  8028  0.96

> <Gold.Chemscore.Hbond.Weighted>
-5.7883

> <Gold.Chemscore.Metal.Weighted>
-0.0000

> <Gold.Chemscore.Lipo.Weighted>
-10.5175

> <Gold.Chemscore.Internal_Hbond.Weighted>
0.0000

> <Gold.Chemscore.DEClash.Weighted>
0.0042

> <Gold.Chemscore.DEInternal.Weighted>
3.4715

> <Gold.Chemscore.Rot.Weighted>
3.2016

> <Gold.Chemscore.Internal.Correction.Weighted>
   9.000000E+99

> <Gold.Protein.RotatedTorsions>
[ 6907 6896 6895 6894 ] final -154.52 input  -60.11 | X-H torsion
[ 7974 7965 7964 7962 ] final   51.96 input  175.53 | X-H torsion
[ 8008 7997 7996 7995 ] final -131.38 input   59.86 | X-H torsion
[ 10167 10162 10161 10158 ] final -123.69 input  -65.29 | X-H torsion
[ 10718 10713 10712 10709 ] final -173.09 input   66.30 | X-H torsion
[ 10763 10752 10751 10750 ] final   80.91 input  -60.55 | X-H torsion
[ 11005 11000 10999 10996 ] final  -16.74 input  -57.11 | X-H torsion

> <Gold.Protein.ActiveResidues>
 VAL166  LYS551  ARG553  GLY616  TRP617  ASP618  TYR619  PRO620  LYS621  CYS622 
 ASP623  PHE694  ASN695  SER759  ASP760  ASP761  ALA762  ILE779  LEU786  VAL792 
 PHE793  MET794  SER795  GLU796  ALA797  LYS798  CYS799  TRP800  GLU811  SER814 

> <Gold.Protein.RotatedAtoms>
  151.2588  133.4312  159.2614 H   0  0  0  0  0  0  0  0  0  0  0  0  # atno 6907 bound_to 6896
  151.0550  134.9699  159.8241 H   0  0  0  0  0  0  0  0  0  0  0  0  # atno 6908 bound_to 6896
  152.5389  134.2540  159.8962 H   0  0  0  0  0  0  0  0  0  0  0  0  # atno 6909 bound_to 6896
  145.9861  139.4291  143.0102 H   0  0  0  0  0  0  0  0  0  0  0  0  # atno 7974 bound_to 7965
  155.3114  140.0457  157.3035 H   0  0  0  0  0  0  0  0  0  0  0  0  # atno 8008 bound_to 7997
  154.5431  140.2294  155.8575 H   0  0  0  0  0  0  0  0  0  0  0  0  # atno 8009 bound_to 7997
  156.1899  140.3053  155.9318 H   0  0  0  0  0  0  0  0  0  0  0  0  # atno 8010 bound_to 7997
  140.0008  143.5543  152.2304 H   0  0  0  0  0  0  0  0  0  0  0  0  # atno 10167 bound_to 10162
  156.7652  130.9428  151.3119 H   0  0  0  0  0  0  0  0  0  0  0  0  # atno 10718 bound_to 10713
  153.1072  135.4785  154.8972 H   0  0  0  0  0  0  0  0  0  0  0  0  # atno 10763 bound_to 10752
  154.7443  135.3090  154.8675 H   0  0  0  0  0  0  0  0  0  0  0  0  # atno 10764 bound_to 10752
  153.9274  135.6848  153.4799 H   0  0  0  0  0  0  0  0  0  0  0  0  # atno 10765 bound_to 10752
  140.8098  133.8149  155.9552 H   0  0  0  0  0  0  0  0  0  0  0  0  # atno 11005 bound_to 11000
  145.7699  140.9901  143.1155 LP  0  0  0  0  0  0  0  0  0  0  0  0  # atno 17320 bound_to 7965
  144.6875  139.9434  143.7476 LP  0  0  0  0  0  0  0  0  0  0  0  0  # atno 17321 bound_to 7965
  139.6273  144.7639  151.2611 LP  0  0  0  0  0  0  0  0  0  0  0  0  # atno 17342 bound_to 10162
  140.7419  143.6541  150.8222 LP  0  0  0  0  0  0  0  0  0  0  0  0  # atno 17343 bound_to 10162
  157.6716  130.9056  150.0054 LP  0  0  0  0  0  0  0  0  0  0  0  0  # atno 17370 bound_to 10713
  156.1313  130.3643  149.9727 LP  0  0  0  0  0  0  0  0  0  0  0  0  # atno 17371 bound_to 10713
  140.9209  134.2143  157.4927 LP  0  0  0  0  0  0  0  0  0  0  0  0  # atno 17394 bound_to 11000
  139.8715  134.9792  156.5026 LP  0  0  0  0  0  0  0  0  0  0  0  0  # atno 17395 bound_to 11000

$$$$
