AV-unprocessed.smi:876|AV-procd|sdf|4022|dock10
  -GOLD-   22720 1513D 1   1.00000     0.00000
 Structure written by MMmdl.
 41 42  0  0  0  0  0  0  0  0  2 V2000
  143.5226  132.8093  148.6922 C   0  0  0  0  0  0  0  0  0  0  0  0
  144.1948  132.7033  149.9808 N   0  0  0  0  0  0  0  0  0  0  0  0
  144.6614  131.4083  150.4639 C   0  0  0  0  0  0  0  0  0  0  0  0
  144.4385  133.8661  150.7436 C   0  0  0  0  0  0  0  0  0  0  0  0
  144.0024  134.0216  152.0823 C   0  0  0  0  0  0  0  0  0  0  0  0
  144.2829  135.2139  152.7813 C   0  0  0  0  0  0  0  0  0  0  0  0
  145.0091  136.2469  152.1393 C   0  0  0  0  0  0  0  0  0  0  0  0
  145.3335  137.4934  152.7407 N   0  0  0  0  0  0  0  0  0  0  0  0
  146.1178  138.4779  152.2686 C   0  0  0  0  0  0  0  0  0  0  0  0
  146.6945  138.4709  151.1813 O   0  0  0  0  0  0  0  0  0  0  0  0
  146.1884  139.4986  153.1345 N   0  0  0  0  0  0  0  0  0  0  0  0
  146.9577  140.7195  152.9214 C   0  0  1  0  0  0  0  0  0  0  0  0
  146.6454  141.7334  153.9876 C   0  0  0  0  0  0  0  0  0  0  0  0
  147.7333  142.1625  154.6232 C   0  0  0  0  0  0  0  0  0  0  0  0
  148.9987  141.5173  154.1177 C   0  0  1  0  0  0  0  0  0  0  0  0
  149.8300  140.8673  155.2373 C   0  0  0  0  0  0  0  0  0  0  0  0
  150.9357  140.1737  154.6977 O   0  0  0  0  0  0  0  0  0  0  0  0
  148.4869  140.4991  153.0671 C   0  0  0  0  0  0  0  0  0  0  0  0
  145.4095  136.0462  150.8032 C   0  0  0  0  0  0  0  0  0  0  0  0
  145.1190  134.8889  150.1711 N   0  3  0  0  0  0  0  0  0  0  0  0
  146.7166  141.1572  151.9512 H   0  0  0  0  0  0  0  0  0  0  0  0
  149.5904  142.2864  153.6191 H   0  0  0  0  0  0  0  0  0  0  0  0
  144.1022  133.4294  148.0076 H   0  0  0  0  0  0  0  0  0  0  0  0
  142.5326  133.2505  148.8111 H   0  0  0  0  0  0  0  0  0  0  0  0
  143.3961  131.8304  148.2292 H   0  0  0  0  0  0  0  0  0  0  0  0
  144.2075  131.1720  151.4269 H   0  0  0  0  0  0  0  0  0  0  0  0
  145.7455  131.4117  150.5821 H   0  0  0  0  0  0  0  0  0  0  0  0
  144.4041  130.6086  149.7690 H   0  0  0  0  0  0  0  0  0  0  0  0
  143.4494  133.2448  152.5887 H   0  0  0  0  0  0  0  0  0  0  0  0
  143.9213  135.3120  153.7928 H   0  0  0  0  0  0  0  0  0  0  0  0
  144.8748  137.6802  153.6203 H   0  0  0  0  0  0  0  0  0  0  0  0
  145.6801  139.4274  154.0037 H   0  0  0  0  0  0  0  0  0  0  0  0
  145.6386  142.0729  154.1830 H   0  0  0  0  0  0  0  0  0  0  0  0
  147.7399  142.9005  155.4118 H   0  0  0  0  0  0  0  0  0  0  0  0
  150.1868  141.6178  155.9436 H   0  0  0  0  0  0  0  0  0  0  0  0
  149.2195  140.1593  155.7983 H   0  0  0  0  0  0  0  0  0  0  0  0
  151.1281  139.4352  155.2553 H   0  0  0  0  0  0  0  0  0  0  0  0
  148.7037  139.4790  153.3892 H   0  0  0  0  0  0  0  0  0  0  0  0
  148.9926  140.6363  152.1107 H   0  0  0  0  0  0  0  0  0  0  0  0
  145.9570  136.7726  150.2200 H   0  0  0  0  0  0  0  0  0  0  0  0
  145.4297  134.7792  149.2057 H   0  0  0  0  0  0  0  0  0  0  0  0
  1  2  1  0  0  0  0
  1 23  1  0  0  0  0
  1 24  1  0  0  0  0
  1 25  1  0  0  0  0
  2  3  1  0  0  0  0
  2  4  1  0  0  0  0
  3 26  1  0  0  0  0
  3 27  1  0  0  0  0
  3 28  1  0  0  0  0
  4 20  1  0  0  0  0
  4  5  2  0  0  0  0
  5  6  1  0  0  0  0
  5 29  1  0  0  0  0
  6  7  2  0  0  0  0
  6 30  1  0  0  0  0
  7  8  1  0  0  0  0
  7 19  1  0  0  0  0
  8  9  1  0  0  0  0
  8 31  1  0  0  0  0
  9 10  2  0  0  0  0
  9 11  1  0  0  0  0
 11 12  1  0  0  0  0
 11 32  1  0  0  0  0
 12 21  1  0  0  0  0
 12 18  1  0  0  0  0
 12 13  1  0  0  0  0
 13 14  2  0  0  0  0
 13 33  1  0  0  0  0
 14 15  1  0  0  0  0
 14 34  1  0  0  0  0
 15 22  1  0  0  0  0
 15 16  1  0  0  0  0
 15 18  1  0  0  0  0
 16 17  1  0  0  0  0
 16 35  1  0  0  0  0
 16 36  1  0  0  0  0
 17 37  1  0  0  0  0
 18 38  1  0  0  0  0
 18 39  1  0  0  0  0
 19 20  2  0  0  0  0
 19 40  1  0  0  0  0
 20 41  1  0  0  0  0
M  CHG  1  20   1
M  END
> <s_m_source_file>
AV-unprocessed.smi

> <i_m_source_file_index>
876

> <i_lp_mmshare_version>
43012

> <i_f3d_flags>
0

> <s_epik_input>
W0NIM11OKFtDSDNdKWMxW2NIXVtjSF1jKFtjSF1uMSlbTkhdQyg9TylbTkhdW0NAQEhdMltDSF09W0NIXVtDQEBIXShbQ0gyXTIpW0NIMl1bT0hd

> <s_epik_cmdline>
J2VwaWtfcHl0aG9uJywgJy1waCcsICc3LjAnLCAnLXRuJywgJzgnLCAnLW1hJywgJzIwMCcsICctbWV0YWxfYmluZGluZycsICctaW1hZScsICc8aW5maWxlLm1hZT4nLCAnLW9tYWUnLCAnPG91dGZpbGUubWFlPic=

> <r_lp_tautomer_probability>
0.999994

> <r_epik_Ionization_Penalty>
0.257994

> <r_epik_Ionization_Penalty_Charging>
0.257974

> <r_epik_Ionization_Penalty_Neutral>
1.95938e-05

> <r_epik_State_Penalty>
0.249586

> <r_epik_Charging_Adjusted_Penalty>
0.50756

> <i_epik_Tot_Q>
1

> <i_epik_Tot_abs_Q>
1

> <r_epik_Metal_State_Penalty>
0.538508

> <b_epik_Metal_Only>
0

> <s_lp_Force_Field>
OPLS_2005

> <r_lp_Energy>
25.8864

> <b_lp_Chiralities_Consistent>
1

> <s_lp_Variant>
AV-unprocessed.smi:876-4

> <Gold.Version>
5.8.1

> <Gold.Id.Protein>
6NUR|6NUR_protein|mol2

> <Gold.PLP.Fitness>
46.6916

> <Gold.PLP.PLP>
-40.0247

> <Gold.PLP.part.hbond>
-4.0000

> <Gold.PLP.part.metal>
0.0000

> <Gold.PLP.part.buried>
2.0120

> <Gold.PLP.part.nonpolar>
-39.0880

> <Gold.PLP.part.repulsive>
1.0095

> <Gold.PLP.ligand.clash>
0.0000

> <Gold.PLP.ligand.torsion>
1.1761

> <Gold.PLP.Chemscore.Hbond>
3.0000

> <Gold.PLP.Chemscore.CHOScore>
0.0000

> <Gold.PLP.Chemscore.Metal>
0.0000

> <Gold.Chemscore.Hbonds>
donor molecule, donor type, donor heavy atom, donor atom, acceptor molecule, acceptor atom, score
      L1  H    20    41       P1  7921  1.00
      P1  H  7954  7966       L1    10  0.98
      P1  H  7989  7998       L1    17  1.00

> <Gold.PLP.Chemscore.Internal.Correction>
0.0192

> <Gold.Rescore>
     Score         DG    S(hbond)    S(metal)    S(lipo)     H(rot)  DE(clash)    DE(int)     intcor
     16.27     -20.89       2.93        0.00      87.96       1.82       2.22       2.39       ----

> <Gold.Chemscore.Fitness>
16.2747

> <Gold.Chemscore.DG>
-20.8858

> <Gold.Chemscore.ZeroCoef>
-5.4800

> <Gold.Chemscore.Hbond>
2.9262

> <Gold.Chemscore.Metal>
0.0000

> <Gold.Chemscore.Lipo>
87.9552

> <Gold.Chemscore.Internal_Hbond>
0.0000

> <Gold.Chemscore.DEClash>
2.2249

> <Gold.Chemscore.DEInternal>
2.3862

> <Gold.Chemscore.Rot>
1.8197

> <Gold.Chemscore.Internal.Correction>
   9.000000E+99

> <Gold.Chemscore.Hbonds>
donor molecule, donor type, donor heavy atom, donor atom, acceptor molecule, acceptor atom, score
      L1  H    20    41       P1  7921  1.00
      P1  H  7954  7966       L1    10  0.89
      P1  H  7989  7998       L1    17  0.86

> <Gold.Chemscore.Hbond.Weighted>
-9.7736

> <Gold.Chemscore.Metal.Weighted>
-0.0000

> <Gold.Chemscore.Lipo.Weighted>
-10.2908

> <Gold.Chemscore.Internal_Hbond.Weighted>
0.0000

> <Gold.Chemscore.DEClash.Weighted>
2.2249

> <Gold.Chemscore.DEInternal.Weighted>
2.3862

> <Gold.Chemscore.Rot.Weighted>
4.6585

> <Gold.Chemscore.Internal.Correction.Weighted>
   9.000000E+99

> <Gold.Protein.RotatedTorsions>
[ 6907 6896 6895 6894 ] final    1.44 input  -60.11 | X-H torsion
[ 7974 7965 7964 7962 ] final  126.48 input  175.53 | X-H torsion
[ 8008 7997 7996 7995 ] final  -19.61 input   59.86 | X-H torsion
[ 10167 10162 10161 10158 ] final   18.93 input  -65.29 | X-H torsion
[ 10718 10713 10712 10709 ] final -140.14 input   66.30 | X-H torsion
[ 10763 10752 10751 10750 ] final   46.43 input  -60.55 | X-H torsion
[ 11005 11000 10999 10996 ] final   96.97 input  -57.11 | X-H torsion

> <Gold.Protein.ActiveResidues>
 VAL166  LYS551  ARG553  GLY616  TRP617  ASP618  TYR619  PRO620  LYS621  CYS622 
 ASP623  PHE694  ASN695  SER759  ASP760  ASP761  ALA762  ILE779  LEU786  VAL792 
 PHE793  MET794  SER795  GLU796  ALA797  LYS798  CYS799  TRP800  GLU811  SER814 

> <Gold.Protein.RotatedAtoms>
  151.5926  135.1052  160.0042 H   0  0  0  0  0  0  0  0  0  0  0  0  # atno 6907 bound_to 6896
  152.4298  133.7254  159.6568 H   0  0  0  0  0  0  0  0  0  0  0  0  # atno 6908 bound_to 6896
  150.8190  133.8215  159.3170 H   0  0  0  0  0  0  0  0  0  0  0  0  # atno 6909 bound_to 6896
  145.0613  139.3803  143.5004 H   0  0  0  0  0  0  0  0  0  0  0  0  # atno 7974 bound_to 7965
  154.4825  140.2084  155.9730 H   0  0  0  0  0  0  0  0  0  0  0  0  # atno 8008 bound_to 7997
  156.1187  140.3217  155.8146 H   0  0  0  0  0  0  0  0  0  0  0  0  # atno 8009 bound_to 7997
  155.4507  140.0517  157.2992 H   0  0  0  0  0  0  0  0  0  0  0  0  # atno 8010 bound_to 7997
  140.5617  143.9325  150.6647 H   0  0  0  0  0  0  0  0  0  0  0  0  # atno 10167 bound_to 10162
  156.3188  130.7523  151.1616 H   0  0  0  0  0  0  0  0  0  0  0  0  # atno 10718 bound_to 10713
  152.9811  135.6008  154.3599 H   0  0  0  0  0  0  0  0  0  0  0  0  # atno 10763 bound_to 10752
  154.3282  135.2769  155.2487 H   0  0  0  0  0  0  0  0  0  0  0  0  # atno 10764 bound_to 10752
  154.4623  135.5963  153.6320 H   0  0  0  0  0  0  0  0  0  0  0  0  # atno 10765 bound_to 10752
  139.8778  134.8977  156.4238 H   0  0  0  0  0  0  0  0  0  0  0  0  # atno 11005 bound_to 11000
  146.3524  140.0312  142.8650 LP  0  0  0  0  0  0  0  0  0  0  0  0  # atno 17320 bound_to 7965
  145.1405  140.9569  143.4491 LP  0  0  0  0  0  0  0  0  0  0  0  0  # atno 17321 bound_to 7965
  140.2778  143.3411  152.1179 LP  0  0  0  0  0  0  0  0  0  0  0  0  # atno 17342 bound_to 10162
  139.5073  144.6830  151.5961 LP  0  0  0  0  0  0  0  0  0  0  0  0  # atno 17343 bound_to 10162
  157.7407  131.0513  150.5146 LP  0  0  0  0  0  0  0  0  0  0  0  0  # atno 17370 bound_to 10713
  156.5295  130.4181  149.6208 LP  0  0  0  0  0  0  0  0  0  0  0  0  # atno 17371 bound_to 10713
  140.9115  133.7708  155.9797 LP  0  0  0  0  0  0  0  0  0  0  0  0  # atno 17394 bound_to 11000
  140.8541  134.2919  157.5263 LP  0  0  0  0  0  0  0  0  0  0  0  0  # atno 17395 bound_to 11000

$$$$
