#       Name:                AV-unprocessed.smi:3165
#       Creating user name   scv26
#       Creation time:       Fri Mar 27 17:52:22 2020


#       File generated by GOLD software.
#

@<TRIPOS>MOLECULE
AV-unprocessed.smi:3165
    41    42     1
SMALL
NO_CHARGES


@<TRIPOS>ATOM
      1 ****        -1.8840  -1.7252   1.6354 C.3            1 S1                 0.0000
      2 ****        -1.4471  -0.6922   0.5823 C.3            1 S1                 0.0000
      3 ****        -2.0079  -0.9964  -0.8285 C.3            1 S1                 0.0000
      4 ****        -3.4443  -1.2117  -0.8361 N.pl3          1 S1                 0.0000
      5 ****        -4.4491  -0.2816  -0.6706 C.2            1 S1                 0.0000
      6 ****        -5.6382  -0.9469  -0.7613 C.2            1 S1                 0.0000
      7 ****        -5.2528  -2.2974  -0.9905 C.2            1 S1                 0.0000
      8 ****        -3.9396  -2.4525  -1.0367 N.2            1 S1                 0.0000
      9 ****         0.0163  -0.6051   0.5788 N.3            1 S1                 0.0000
     10 ****         0.5829   0.4699  -0.2343 C.3            1 S1                 0.0000
     11 ****         2.1076   0.5369  -0.0677 C.3            1 S1                 0.0000
     12 ****         2.7550   1.4466  -1.1298 C.3            1 S1                 0.0000
     13 ****         4.2639   1.5690  -0.8886 C.3            1 S1                 0.0000
     14 ****         4.5216   2.0124   0.5552 C.3            1 S1                 0.0000
     15 ****         3.7803   1.0912   1.5368 C.3            1 S1                 0.0000
     16 ****         2.3906   1.0695   1.2253 O.3            1 S1                 0.0000
     17 ****        -2.9662  -1.7372   1.7651 H              1 S1                 0.0000
     18 ****        -1.4489  -1.4993   2.6095 H              1 S1                 0.0000
     19 ****        -1.5702  -2.7317   1.3562 H              1 S1                 0.0000
     20 ****        -1.8490   0.2707   0.9003 H              1 S1                 0.0000
     21 ****        -1.8023  -0.1738  -1.5135 H              1 S1                 0.0000
     22 ****        -1.5178  -1.8781  -1.2452 H              1 S1                 0.0000
     23 ****        -4.2352   0.7638  -0.5025 H              1 S1                 0.0000
     24 ****        -6.6319  -0.5326  -0.6787 H              1 S1                 0.0000
     25 ****        -5.8837  -3.1635  -1.1260 H              1 S1                 0.0000
     26 ****         0.3530  -0.5164   1.5325 H              1 S1                 0.0000
     27 ****         0.3532   0.2976  -1.2855 H              1 S1                 0.0000
     28 ****         0.1384   1.4293   0.0332 H              1 S1                 0.0000
     29 ****         2.5251  -0.4686  -0.1524 H              1 S1                 0.0000
     30 ****         2.5696   1.0532  -2.1298 H              1 S1                 0.0000
     31 ****         2.2982   2.4366  -1.0940 H              1 S1                 0.0000
     32 ****         4.7438   0.6061  -1.0691 H              1 S1                 0.0000
     33 ****         4.7060   2.2769  -1.5900 H              1 S1                 0.0000
     34 ****         5.5913   2.0089   0.7664 H              1 S1                 0.0000
     35 ****         4.1781   3.0389   0.6902 H              1 S1                 0.0000
     36 ****         4.1875   0.0794   1.5052 H              1 S1                 0.0000
     37 ****         3.9066   1.4525   2.5573 H              1 S1                 0.0000
     38 ****        -3.4283  -3.2987  -1.1865 LP             1 S1                 0.0000
     39 ****         0.3265  -1.4536   0.1501 LP             1 S1                 0.0000
     40 ****         1.9214   0.5097   1.9083 LP             1 S1                 0.0000
     41 ****         2.0421   2.0060   1.2656 LP             1 S1                 0.0000
@<TRIPOS>BOND
    1    1    2 1     
    2    1   17 1     
    3    1   18 1     
    4    1   19 1     
    5    2    3 1     
    6    2    9 1     
    7    2   20 1     
    8    3    4 1     
    9    3   21 1     
   10    3   22 1     
   11    4    8 1     
   12    4    5 1     
   13    5    6 2     
   14    5   23 1     
   15    6    7 1     
   16    6   24 1     
   17    7    8 2     
   18    7   25 1     
   19    9   10 1     
   20    9   26 1     
   21   10   11 1     
   22   10   27 1     
   23   10   28 1     
   24   11   16 1     
   25   11   12 1     
   26   11   29 1     
   27   12   13 1     
   28   12   30 1     
   29   12   31 1     
   30   13   14 1     
   31   13   32 1     
   32   13   33 1     
   33   14   15 1     
   34   14   34 1     
   35   14   35 1     
   36   15   16 1     
   37   15   36 1     
   38   15   37 1     
   39    8   38 1     
   40    9   39 1     
   41   16   40 1     
   42   16   41 1     
@<TRIPOS>SUBSTRUCTURE
      1 S1             1
@<TRIPOS>SET
LONE_PAIRS      STATIC     ATOMS    <user>   **** ""
4 38 39 40 41
DONOR_HYDROGENS      STATIC     ATOMS    <user>   **** ""
1 26
ATOM$BLUE        STATIC     ATOMS    COLORGROUP SYSTEM
4 38 39 40 41
ATOM$RED        STATIC     ATOMS    COLORGROUP SYSTEM
1 26
