#       Name:                AV-unprocessed.smi:1649
#       Creating user name   scv26
#       Creation time:       Fri Mar 27 07:33:57 2020


#       File generated by GOLD software.
#

@<TRIPOS>MOLECULE
AV-unprocessed.smi:1649
    48    49     1
SMALL
NO_CHARGES


@<TRIPOS>ATOM
      1 ****        -6.8541   2.3882  -1.0117 C.3            1 S1                 0.0000
      2 ****        -6.4789   2.1578   0.7739 S.o2           1 S1                 0.0000
      3 ****        -6.7648   3.4203   1.4731 O.2            1 S1                 0.0000
      4 ****        -7.1353   0.9177   1.2166 O.2            1 S1                 0.0000
      5 ****        -4.7089   1.8991   0.8051 C.ar           1 S1                 0.0000
      6 ****        -4.1808   0.6076   1.0035 C.ar           1 S1                 0.0000
      7 ****        -2.7821   0.4506   0.9726 C.ar           1 S1                 0.0000
      8 ****        -1.9701   1.5884   0.7419 C.ar           1 S1                 0.0000
      9 ****        -0.5515   1.5591   0.6641 N.am           1 S1                 0.0000
     10 ****         0.2976   0.6245   1.1238 C.2            1 S1                 0.0000
     11 ****        -0.0233  -0.3832   1.7532 O.2            1 S1                 0.0000
     12 ****         1.5646   0.9336   0.8140 N.am           1 S1                 0.0000
     13 ****         2.7456   0.1370   1.1427 C.3            1 S1                 0.0000
     14 ****         3.2685  -0.7006  -0.0510 C.3            1 S1                 0.0000
     15 ****         3.7749   0.2179  -1.0034 O.3            1 S1                 0.0000
     16 ****         4.4487  -1.5855   0.4172 C.3            1 S1                 0.0000
     17 ****         4.9851  -2.5159  -0.6855 C.3            1 S1                 0.0000
     18 ****         3.8646  -3.3811  -1.2773 C.3            1 S1                 0.0000
     19 ****         2.7204  -2.5068  -1.8076 C.3            1 S1                 0.0000
     20 ****         2.1710  -1.5714  -0.7155 C.3            1 S1                 0.0000
     21 ****        -2.6139   2.8269   0.5320 C.ar           1 S1                 0.0000
     22 ****        -3.9531   2.9897   0.5574 N.ar           1 S1                 0.0000
     23 ****        -7.9237   2.5531  -1.1393 H              1 S1                 0.0000
     24 ****        -6.5549   1.4976  -1.5638 H              1 S1                 0.0000
     25 ****        -6.3062   3.2510  -1.3901 H              1 S1                 0.0000
     26 ****        -4.8243  -0.2434   1.1702 H              1 S1                 0.0000
     27 ****        -2.3676  -0.5359   1.1077 H              1 S1                 0.0000
     28 ****        -0.1266   2.3683   0.2353 H              1 S1                 0.0000
     29 ****         1.7302   1.7826   0.2936 H              1 S1                 0.0000
     30 ****         3.5237   0.8159   1.4944 H              1 S1                 0.0000
     31 ****         2.5273  -0.5195   1.9868 H              1 S1                 0.0000
     32 ****         4.1214  -0.2712  -1.7340 H              1 S1                 0.0000
     33 ****         5.2602  -0.9638   0.7982 H              1 S1                 0.0000
     34 ****         4.1231  -2.2009   1.2572 H              1 S1                 0.0000
     35 ****         5.4513  -1.9264  -1.4760 H              1 S1                 0.0000
     36 ****         5.7691  -3.1551  -0.2787 H              1 S1                 0.0000
     37 ****         4.2598  -4.0047  -2.0796 H              1 S1                 0.0000
     38 ****         3.4837  -4.0612  -0.5144 H              1 S1                 0.0000
     39 ****         3.0724  -1.9179  -2.6552 H              1 S1                 0.0000
     40 ****         1.9180  -3.1397  -2.1878 H              1 S1                 0.0000
     41 ****         1.6840  -2.1757   0.0509 H              1 S1                 0.0000
     42 ****         1.3906  -0.9451  -1.1488 H              1 S1                 0.0000
     43 ****        -2.0357   3.7182   0.3360 H              1 S1                 0.0000
     44 ****        -0.9859  -0.5579   1.9604 LP             1 S1                 0.0000
     45 ****         0.6785  -1.0273   2.0574 LP             1 S1                 0.0000
     46 ****         4.5009   0.7674  -0.5900 LP             1 S1                 0.0000
     47 ****         3.0398   0.8188  -1.3174 LP             1 S1                 0.0000
     48 ****        -4.3700   3.8847   0.3986 LP             1 S1                 0.0000
@<TRIPOS>BOND
    1    1    2 1     
    2    1   23 1     
    3    1   24 1     
    4    1   25 1     
    5    2    3 2     
    6    2    4 2     
    7    2    5 1     
    8    5   22 ar    
    9    5    6 ar    
   10    6    7 ar    
   11    6   26 1     
   12    7    8 ar    
   13    7   27 1     
   14    8    9 1     
   15    8   21 ar    
   16    9   10 am    
   17    9   28 1     
   18   10   11 2     
   19   10   12 am    
   20   12   13 1     
   21   12   29 1     
   22   13   14 1     
   23   13   30 1     
   24   13   31 1     
   25   14   20 1     
   26   14   15 1     
   27   14   16 1     
   28   15   32 1     
   29   16   17 1     
   30   16   33 1     
   31   16   34 1     
   32   17   18 1     
   33   17   35 1     
   34   17   36 1     
   35   18   19 1     
   36   18   37 1     
   37   18   38 1     
   38   19   20 1     
   39   19   39 1     
   40   19   40 1     
   41   20   41 1     
   42   20   42 1     
   43   21   22 ar    
   44   21   43 1     
   45   11   44 1     
   46   11   45 1     
   47   15   46 1     
   48   15   47 1     
   49   22   48 1     
@<TRIPOS>SUBSTRUCTURE
      1 S1             1
@<TRIPOS>SET
LONE_PAIRS      STATIC     ATOMS    <user>   **** ""
7 3 4 44 45 46 47 48
DONOR_HYDROGENS      STATIC     ATOMS    <user>   **** ""
3 28 29 32
ATOM$BLUE        STATIC     ATOMS    COLORGROUP SYSTEM
7 3 4 44 45 46 47 48
ATOM$RED        STATIC     ATOMS    COLORGROUP SYSTEM
3 28 29 32
