AV-unprocessed.smi:2586|AV-procd|sdf|10145|dock1
  -GOLD-   2272014153D 1   1.00000     0.00000
 Structure written by MMmdl.
 30 31  0  0  0  0  0  0  0  0  1 V2000
  152.5488  143.7107  162.1204 C   0  0  0  0  0  0  0  0  0  0  0  0
  151.5229  143.8389  161.1431 O   0  0  0  0  0  0  0  0  0  0  0  0
  151.8291  143.3811  159.8215 C   0  0  0  0  0  0  0  0  0  0  0  0
  152.4611  141.9838  159.8274 C   0  0  0  0  0  0  0  0  0  0  0  0
  152.4899  141.4244  158.4794 N   0  0  0  0  0  0  0  0  0  0  0  0
  152.2140  140.1536  158.1553 C   0  0  0  0  0  0  0  0  0  0  0  0
  151.9392  139.2842  158.9825 O   0  0  0  0  0  0  0  0  0  0  0  0
  152.2739  139.9729  156.8246 N   0  0  0  0  0  0  0  0  0  0  0  0
  152.0450  138.8397  156.1116 C   0  0  0  0  0  0  0  0  0  0  0  0
  152.0254  138.7308  154.7473 C   0  0  0  0  0  0  0  0  0  0  0  0
  151.7623  137.4341  154.2771 N   0  0  0  0  0  0  0  0  0  0  0  0
  151.5827  136.5530  155.2168 N   0  0  0  0  0  0  0  0  0  0  0  0
  151.7225  137.2507  156.7323 S   0  0  0  0  0  0  0  0  0  0  0  0
  150.5661  143.5992  158.9670 C   0  0  0  0  0  0  0  0  0  0  0  0
  151.0796  144.9952  158.6103 C   0  0  0  0  0  0  0  0  0  0  0  0
  152.4790  144.5045  158.9863 C   0  0  0  0  0  0  0  0  0  0  0  0
  152.2325  144.2113  163.0351 H   0  0  0  0  0  0  0  0  0  0  0  0
  153.4858  144.1664  161.8020 H   0  0  0  0  0  0  0  0  0  0  0  0
  152.7380  142.6686  162.3749 H   0  0  0  0  0  0  0  0  0  0  0  0
  153.4923  142.0432  160.1769 H   0  0  0  0  0  0  0  0  0  0  0  0
  151.9555  141.3272  160.5364 H   0  0  0  0  0  0  0  0  0  0  0  0
  152.7050  142.0671  157.7315 H   0  0  0  0  0  0  0  0  0  0  0  0
  152.5093  140.7870  156.2763 H   0  0  0  0  0  0  0  0  0  0  0  0
  152.1868  139.5207  154.0287 H   0  0  0  0  0  0  0  0  0  0  0  0
  150.5232  142.9383  158.0997 H   0  0  0  0  0  0  0  0  0  0  0  0
  149.6267  143.5868  159.5209 H   0  0  0  0  0  0  0  0  0  0  0  0
  150.9583  145.2745  157.5632 H   0  0  0  0  0  0  0  0  0  0  0  0
  150.7064  145.7682  159.2838 H   0  0  0  0  0  0  0  0  0  0  0  0
  153.0732  145.2326  159.5376 H   0  0  0  0  0  0  0  0  0  0  0  0
  153.0283  144.1228  158.1241 H   0  0  0  0  0  0  0  0  0  0  0  0
  1  2  1  0  0  0  0
  1 17  1  0  0  0  0
  1 18  1  0  0  0  0
  1 19  1  0  0  0  0
  2  3  1  0  0  0  0
  3 16  1  0  0  0  0
  3  4  1  0  0  0  0
  3 14  1  0  0  0  0
  4  5  1  0  0  0  0
  4 20  1  0  0  0  0
  4 21  1  0  0  0  0
  5  6  1  0  0  0  0
  5 22  1  0  0  0  0
  6  7  2  0  0  0  0
  6  8  1  0  0  0  0
  8  9  1  0  0  0  0
  8 23  1  0  0  0  0
  9 13  1  0  0  0  0
  9 10  2  0  0  0  0
 10 11  1  0  0  0  0
 10 24  1  0  0  0  0
 11 12  2  0  0  0  0
 12 13  1  0  0  0  0
 14 15  1  0  0  0  0
 14 25  1  0  0  0  0
 14 26  1  0  0  0  0
 15 16  1  0  0  0  0
 15 27  1  0  0  0  0
 15 28  1  0  0  0  0
 16 29  1  0  0  0  0
 16 30  1  0  0  0  0
M  END
> <s_m_source_file>
AV-unprocessed.smi

> <i_m_source_file_index>
2586

> <i_lp_mmshare_version>
43012

> <i_f3d_flags>
0

> <s_epik_input>
W0NIMl0xW0NIMl1bQ0gyXUMxKE9bQ0gzXSlbQ0gyXVtOSF1DKD1PKVtOSF1jMltjSF1ubnMy

> <s_epik_cmdline>
J2VwaWtfcHl0aG9uJywgJy1waCcsICc3LjAnLCAnLXRuJywgJzgnLCAnLW1hJywgJzIwMCcsICctbWV0YWxfYmluZGluZycsICctaW1hZScsICc8aW5maWxlLm1hZT4nLCAnLW9tYWUnLCAnPG91dGZpbGUubWFlPic=

> <r_lp_tautomer_probability>
1

> <r_epik_Ionization_Penalty>
2.25632e-05

> <r_epik_Ionization_Penalty_Charging>
0

> <r_epik_Ionization_Penalty_Neutral>
2.25632e-05

> <r_epik_State_Penalty>
-0

> <r_epik_Charging_Adjusted_Penalty>
0

> <i_epik_Tot_Q>
0

> <i_epik_Tot_abs_Q>
0

> <r_epik_Metal_State_Penalty>
-0

> <b_epik_Metal_Only>
0

> <s_lp_Force_Field>
OPLS_2005

> <r_lp_Energy>
14.9091

> <b_lp_Chiralities_Consistent>
1

> <s_lp_Variant>
AV-unprocessed.smi:2586-1

> <Gold.Version>
5.8.1

> <Gold.Id.Protein>
6NUR|6NUR_protein|mol2

> <Gold.PLP.Fitness>
34.6859

> <Gold.PLP.PLP>
-32.3068

> <Gold.PLP.part.hbond>
-2.1058

> <Gold.PLP.part.metal>
0.0000

> <Gold.PLP.part.buried>
-5.5755

> <Gold.PLP.part.nonpolar>
-25.9197

> <Gold.PLP.part.repulsive>
1.5088

> <Gold.PLP.ligand.clash>
0.0000

> <Gold.PLP.ligand.torsion>
0.4507

> <Gold.PLP.Chemscore.Hbond>
1.0000

> <Gold.PLP.Chemscore.CHOScore>
0.0000

> <Gold.PLP.Chemscore.Metal>
0.0000

> <Gold.Chemscore.Hbonds>
donor molecule, donor type, donor heavy atom, donor atom, acceptor molecule, acceptor atom, score
      P1  H 10752 10764       L1    12  0.85

> <Gold.PLP.Chemscore.Internal.Correction>
0.2805

> <Gold.Rescore>
     Score         DG    S(hbond)    S(metal)    S(lipo)     H(rot)  DE(clash)    DE(int)     intcor
     10.92     -12.25       0.30        0.00      84.75       1.61       0.08       1.25       ----

> <Gold.Chemscore.Fitness>
10.9201

> <Gold.Chemscore.DG>
-12.2516

> <Gold.Chemscore.ZeroCoef>
-5.4800

> <Gold.Chemscore.Hbond>
0.2959

> <Gold.Chemscore.Metal>
0.0000

> <Gold.Chemscore.Lipo>
84.7479

> <Gold.Chemscore.Internal_Hbond>
0.0000

> <Gold.Chemscore.DEClash>
0.0837

> <Gold.Chemscore.DEInternal>
1.2477

> <Gold.Chemscore.Rot>
1.6141

> <Gold.Chemscore.Internal.Correction>
   9.000000E+99

> <Gold.Chemscore.Hbonds>
donor molecule, donor type, donor heavy atom, donor atom, acceptor molecule, acceptor atom, score
      P1  H 10752 10764       L1    12  0.11

> <Gold.Chemscore.Hbond.Weighted>
-0.9881

> <Gold.Chemscore.Metal.Weighted>
-0.0000

> <Gold.Chemscore.Lipo.Weighted>
-9.9155

> <Gold.Chemscore.Internal_Hbond.Weighted>
0.0000

> <Gold.Chemscore.DEClash.Weighted>
0.0837

> <Gold.Chemscore.DEInternal.Weighted>
1.2477

> <Gold.Chemscore.Rot.Weighted>
4.1320

> <Gold.Chemscore.Internal.Correction.Weighted>
   9.000000E+99

> <Gold.Protein.RotatedTorsions>
[ 6907 6896 6895 6894 ] final   13.92 input  -60.11 | X-H torsion
[ 7974 7965 7964 7962 ] final   35.19 input  175.53 | X-H torsion
[ 8008 7997 7996 7995 ] final  -32.70 input   59.86 | X-H torsion
[ 10167 10162 10161 10158 ] final  -45.38 input  -65.29 | X-H torsion
[ 10718 10713 10712 10709 ] final  119.72 input   66.30 | X-H torsion
[ 10763 10752 10751 10750 ] final  -44.13 input  -60.55 | X-H torsion
[ 11005 11000 10999 10996 ] final   37.49 input  -57.11 | X-H torsion

> <Gold.Protein.ActiveResidues>
 VAL166  LYS551  ARG553  GLY616  TRP617  ASP618  TYR619  PRO620  LYS621  CYS622 
 ASP623  PHE694  ASN695  SER759  ASP760  ASP761  ALA762  ILE779  LEU786  VAL792 
 PHE793  MET794  SER795  GLU796  ALA797  LYS798  CYS799  TRP800  GLU811  SER814 

> <Gold.Protein.RotatedAtoms>
  151.7940  135.0727  160.0390 H   0  0  0  0  0  0  0  0  0  0  0  0  # atno 6907 bound_to 6896
  152.3136  133.5774  159.5705 H   0  0  0  0  0  0  0  0  0  0  0  0  # atno 6908 bound_to 6896
  150.7332  134.0032  159.3687 H   0  0  0  0  0  0  0  0  0  0  0  0  # atno 6909 bound_to 6896
  146.1301  139.6174  142.9232 H   0  0  0  0  0  0  0  0  0  0  0  0  # atno 7974 bound_to 7965
  154.4171  140.1730  156.1770 H   0  0  0  0  0  0  0  0  0  0  0  0  # atno 8008 bound_to 7997
  155.9714  140.3385  155.6555 H   0  0  0  0  0  0  0  0  0  0  0  0  # atno 8009 bound_to 7997
  155.6621  140.0702  157.2541 H   0  0  0  0  0  0  0  0  0  0  0  0  # atno 8010 bound_to 7997
  140.6860  143.2882  151.3630 H   0  0  0  0  0  0  0  0  0  0  0  0  # atno 10167 bound_to 10162
  157.5941  131.1060  150.7936 H   0  0  0  0  0  0  0  0  0  0  0  0  # atno 10718 bound_to 10713
  154.0071  135.6686  153.4763 H   0  0  0  0  0  0  0  0  0  0  0  0  # atno 10763 bound_to 10752
  153.0637  135.5013  154.8148 H   0  0  0  0  0  0  0  0  0  0  0  0  # atno 10764 bound_to 10752
  154.7018  135.3080  154.9293 H   0  0  0  0  0  0  0  0  0  0  0  0  # atno 10765 bound_to 10752
  140.2220  134.3629  155.8001 H   0  0  0  0  0  0  0  0  0  0  0  0  # atno 11005 bound_to 11000
  145.5280  141.0428  143.2398 LP  0  0  0  0  0  0  0  0  0  0  0  0  # atno 17320 bound_to 7965
  144.7681  139.6797  143.7206 LP  0  0  0  0  0  0  0  0  0  0  0  0  # atno 17321 bound_to 7965
  139.6219  144.0889  152.2399 LP  0  0  0  0  0  0  0  0  0  0  0  0  # atno 17342 bound_to 10162
  140.0336  144.6061  150.7467 LP  0  0  0  0  0  0  0  0  0  0  0  0  # atno 17343 bound_to 10162
  156.8351  130.5029  149.5327 LP  0  0  0  0  0  0  0  0  0  0  0  0  # atno 17370 bound_to 10713
  156.1001  130.5962  150.9879 LP  0  0  0  0  0  0  0  0  0  0  0  0  # atno 17371 bound_to 10713
  141.2222  133.7199  156.8592 LP  0  0  0  0  0  0  0  0  0  0  0  0  # atno 17394 bound_to 11000
  140.1839  134.9013  157.2981 LP  0  0  0  0  0  0  0  0  0  0  0  0  # atno 17395 bound_to 11000

$$$$
