AV-unprocessed.smi:193|AV-procd|sdf|1514|dock2
  -GOLD-   2262019353D 1   1.00000     0.00000
 Structure written by MMmdl.
 61 65  0  0  0  0  0  0  0  0  1 V2000
  153.7276  139.3267  160.6476 C   0  0  0  0  0  0  0  0  0  0  0  0
  152.8714  140.1914  159.7110 C   0  0  2  0  0  0  0  0  0  0  0  0
  152.8178  139.5344  158.3127 C   0  0  0  0  0  0  0  0  0  0  0  0
  151.8619  140.1709  157.4054 N   0  0  0  0  0  0  0  0  0  0  0  0
  151.3224  139.4316  156.4031 C   0  0  0  0  0  0  0  0  0  0  0  0
  150.7686  140.0577  155.3307 N   0  0  0  0  0  0  0  0  0  0  0  0
  150.2278  139.3449  154.3382 C   0  0  0  0  0  0  0  0  0  0  0  0
  150.1350  138.0193  154.2170 N   0  0  0  0  0  0  0  0  0  0  0  0
  150.6935  137.3840  155.2866 C   0  0  0  0  0  0  0  0  0  0  0  0
  151.3087  138.0075  156.4089 C   0  0  0  0  0  0  0  0  0  0  0  0
  151.7880  137.0387  157.2833 N   0  0  0  0  0  0  0  0  0  0  0  0
  151.4626  135.9093  156.7177 C   0  0  0  0  0  0  0  0  0  0  0  0
  150.7894  136.0232  155.5222 N   0  0  0  0  0  0  0  0  0  0  0  0
  150.3090  134.9313  154.6890 C   0  0  0  0  0  0  0  0  0  0  0  0
  148.7651  134.7520  154.7003 C   0  0  0  0  0  0  0  0  0  0  0  0
  148.1884  135.9958  154.3505 O   0  0  0  0  0  0  0  0  0  0  0  0
  148.3058  133.7189  153.6525 C   0  0  0  0  0  0  0  0  0  0  0  0
  148.6138  132.2785  154.1029 C   0  0  0  0  0  0  0  0  0  0  0  0
  148.0266  132.0248  155.3752 O   0  0  0  0  0  0  0  0  0  0  0  0
  148.5197  132.8781  156.4026 C   0  0  0  0  0  0  0  0  0  0  0  0
  148.1822  134.3415  156.0697 C   0  0  0  0  0  0  0  0  0  0  0  0
  151.9440  141.6145  157.1953 C   0  0  0  0  0  0  0  0  0  0  0  0
  151.4207  142.3604  158.4313 C   0  0  0  0  0  0  0  0  0  0  0  0
  152.4706  142.6924  159.3964 N   0  0  0  0  0  0  0  0  0  0  0  0
  151.8387  143.1018  160.6446 C   0  0  1  0  0  0  0  0  0  0  0  0
  152.4340  144.2773  161.3870 C   0  0  0  0  0  0  0  0  0  0  0  0
  151.0991  144.4273  160.6963 C   0  0  1  0  0  0  0  0  0  0  0  0
  150.9645  145.3486  159.4991 C   0  0  0  0  0  0  0  0  0  0  0  0
  153.4498  141.6268  159.6438 C   0  0  0  0  0  0  0  0  0  0  0  0
  154.7551  139.2520  160.2897 H   0  0  0  0  0  0  0  0  0  0  0  0
  153.3279  138.3153  160.7245 H   0  0  0  0  0  0  0  0  0  0  0  0
  153.7536  139.7439  161.6546 H   0  0  0  0  0  0  0  0  0  0  0  0
  151.8686  140.2104  160.1403 H   0  0  0  0  0  0  0  0  0  0  0  0
  153.8064  139.5423  157.8521 H   0  0  0  0  0  0  0  0  0  0  0  0
  152.5398  138.4868  158.4372 H   0  0  0  0  0  0  0  0  0  0  0  0
  149.8087  139.9187  153.5247 H   0  0  0  0  0  0  0  0  0  0  0  0
  151.7004  134.9550  157.1644 H   0  0  0  0  0  0  0  0  0  0  0  0
  150.6605  135.1000  153.6701 H   0  0  0  0  0  0  0  0  0  0  0  0
  150.8055  134.0217  155.0255 H   0  0  0  0  0  0  0  0  0  0  0  0
  148.1274  136.0460  153.4091 H   0  0  0  0  0  0  0  0  0  0  0  0
  147.2286  133.8047  153.4997 H   0  0  0  0  0  0  0  0  0  0  0  0
  148.7679  133.9193  152.6851 H   0  0  0  0  0  0  0  0  0  0  0  0
  148.2034  131.5697  153.3836 H   0  0  0  0  0  0  0  0  0  0  0  0
  149.6877  132.0938  154.1428 H   0  0  0  0  0  0  0  0  0  0  0  0
  148.0522  132.5939  157.3454 H   0  0  0  0  0  0  0  0  0  0  0  0
  149.5937  132.7353  156.5279 H   0  0  0  0  0  0  0  0  0  0  0  0
  148.5212  135.0036  156.8661 H   0  0  0  0  0  0  0  0  0  0  0  0
  147.0957  134.4409  156.0474 H   0  0  0  0  0  0  0  0  0  0  0  0
  152.9677  141.9044  156.9564 H   0  0  0  0  0  0  0  0  0  0  0  0
  151.3541  141.9117  156.3287 H   0  0  0  0  0  0  0  0  0  0  0  0
  150.9648  143.2973  158.1120 H   0  0  0  0  0  0  0  0  0  0  0  0
  150.6216  141.7837  158.9004 H   0  0  0  0  0  0  0  0  0  0  0  0
  151.4283  142.3235  161.2859 H   0  0  0  0  0  0  0  0  0  0  0  0
  152.4338  144.2354  162.4742 H   0  0  0  0  0  0  0  0  0  0  0  0
  153.2930  144.7770  160.9426 H   0  0  0  0  0  0  0  0  0  0  0  0
  150.2259  144.4429  161.3455 H   0  0  0  0  0  0  0  0  0  0  0  0
  151.8756  145.3516  158.8999 H   0  0  0  0  0  0  0  0  0  0  0  0
  150.7711  146.3675  159.8345 H   0  0  0  0  0  0  0  0  0  0  0  0
  150.1338  145.0285  158.8704 H   0  0  0  0  0  0  0  0  0  0  0  0
  153.9843  141.8620  160.5651 H   0  0  0  0  0  0  0  0  0  0  0  0
  154.2103  141.6688  158.8636 H   0  0  0  0  0  0  0  0  0  0  0  0
  1  2  1  0  0  0  0
  1 30  1  0  0  0  0
  1 31  1  0  0  0  0
  1 32  1  0  0  0  0
  2 29  1  0  0  0  0
  2  3  1  0  0  0  0
  2 33  1  0  0  0  0
  3  4  1  0  0  0  0
  3 34  1  0  0  0  0
  3 35  1  0  0  0  0
  4  5  1  0  0  0  0
  4 22  1  0  0  0  0
  5 10  1  0  0  0  0
  5  6  2  0  0  0  0
  6  7  1  0  0  0  0
  7  8  2  0  0  0  0
  7 36  1  0  0  0  0
  8  9  1  0  0  0  0
  9 13  1  0  0  0  0
  9 10  2  0  0  0  0
 10 11  1  0  0  0  0
 11 12  2  0  0  0  0
 12 13  1  0  0  0  0
 12 37  1  0  0  0  0
 13 14  1  0  0  0  0
 14 15  1  0  0  0  0
 14 38  1  0  0  0  0
 14 39  1  0  0  0  0
 15 21  1  0  0  0  0
 15 16  1  0  0  0  0
 15 17  1  0  0  0  0
 16 40  1  0  0  0  0
 17 18  1  0  0  0  0
 17 41  1  0  0  0  0
 17 42  1  0  0  0  0
 18 19  1  0  0  0  0
 18 43  1  0  0  0  0
 18 44  1  0  0  0  0
 19 20  1  0  0  0  0
 20 21  1  0  0  0  0
 20 45  1  0  0  0  0
 20 46  1  0  0  0  0
 21 47  1  0  0  0  0
 21 48  1  0  0  0  0
 22 23  1  0  0  0  0
 22 49  1  0  0  0  0
 22 50  1  0  0  0  0
 23 24  1  0  0  0  0
 23 51  1  0  0  0  0
 23 52  1  0  0  0  0
 24 25  1  0  0  0  0
 24 29  1  0  0  0  0
 25 27  1  0  0  0  0
 25 26  1  0  0  0  0
 25 53  1  0  0  0  0
 26 27  1  0  0  0  0
 26 54  1  0  0  0  0
 26 55  1  0  0  0  0
 27 28  1  0  0  0  0
 27 56  1  0  0  0  0
 28 57  1  0  0  0  0
 28 58  1  0  0  0  0
 28 59  1  0  0  0  0
 29 60  1  0  0  0  0
 29 61  1  0  0  0  0
M  END
> <s_m_source_file>
AV-unprocessed.smi

> <i_m_source_file_index>
193

> <i_lp_mmshare_version>
43012

> <i_f3d_flags>
0

> <s_epik_input>
W0NIM11bQ0BASF0xW0NIMl1bQ0BIXTFOKFtDSDJdMilbQ0gyXVtDSDJdTihbQ0gyXVtDQEhdMltDSDNdKWMobltjSF1uMyljKGMzNCluW2NIXW40W0NIMl1DNShbT0hdKVtDSDJdW0NIMl1PW0NIMl1bQ0gyXTU=

> <s_epik_cmdline>
J2VwaWtfcHl0aG9uJywgJy1waCcsICc3LjAnLCAnLXRuJywgJzgnLCAnLW1hJywgJzIwMCcsICctbWV0YWxfYmluZGluZycsICctaW1hZScsICc8aW5maWxlLm1hZT4nLCAnLW9tYWUnLCAnPG91dGZpbGUubWFlPic=

> <r_lp_tautomer_probability>
1

> <r_epik_Ionization_Penalty>
1.45227

> <r_epik_Ionization_Penalty_Charging>
0

> <r_epik_Ionization_Penalty_Neutral>
1.45227

> <r_epik_State_Penalty>
2.02377

> <r_epik_Charging_Adjusted_Penalty>
2.02377

> <i_epik_Tot_Q>
0

> <i_epik_Tot_abs_Q>
0

> <r_epik_Metal_State_Penalty>
2.01937

> <b_epik_Metal_Only>
0

> <s_lp_Force_Field>
OPLS_2005

> <r_lp_Energy>
54.496

> <b_lp_Chiralities_Consistent>
1

> <s_lp_Variant>
AV-unprocessed.smi:193-19

> <Gold.Version>
5.8.1

> <Gold.Id.Protein>
6NUR|6NUR_protein|mol2

> <Gold.PLP.Fitness>
46.7628

> <Gold.PLP.PLP>
-41.1231

> <Gold.PLP.part.hbond>
-1.3163

> <Gold.PLP.part.metal>
0.0000

> <Gold.PLP.part.buried>
-7.0320

> <Gold.PLP.part.nonpolar>
-33.3842

> <Gold.PLP.part.repulsive>
0.2702

> <Gold.PLP.ligand.clash>
0.0000

> <Gold.PLP.ligand.torsion>
0.8774

> <Gold.PLP.Chemscore.Hbond>
0.9920

> <Gold.PLP.Chemscore.CHOScore>
1.0000

> <Gold.PLP.Chemscore.Metal>
0.0000

> <Gold.Chemscore.Hbonds>
donor molecule, donor type, donor heavy atom, donor atom, acceptor molecule, acceptor atom, score
      L1  H    16    40       P1  7948  0.96
      L1  C     7    36       P1  7957  1.00

> <Gold.PLP.Chemscore.Internal.Correction>
1.4185

> <Gold.Rescore>
     Score         DG    S(hbond)    S(metal)    S(lipo)     H(rot)  DE(clash)    DE(int)     intcor
     14.01     -18.22       0.98        0.00     122.74       1.91       1.29       2.91       ----

> <Gold.Chemscore.Fitness>
14.0142

> <Gold.Chemscore.DG>
-18.2158

> <Gold.Chemscore.ZeroCoef>
-5.4800

> <Gold.Chemscore.Hbond>
0.9751

> <Gold.Chemscore.Metal>
0.0000

> <Gold.Chemscore.Lipo>
122.7377

> <Gold.Chemscore.Internal_Hbond>
0.0000

> <Gold.Chemscore.DEClash>
1.2943

> <Gold.Chemscore.DEInternal>
2.9072

> <Gold.Chemscore.Rot>
1.9068

> <Gold.Chemscore.Internal.Correction>
   9.000000E+99

> <Gold.Chemscore.Hbonds>
donor molecule, donor type, donor heavy atom, donor atom, acceptor molecule, acceptor atom, score
      L1  H    16    40       P1  7948  0.92

> <Gold.Chemscore.Hbond.Weighted>
-3.2569

> <Gold.Chemscore.Metal.Weighted>
-0.0000

> <Gold.Chemscore.Lipo.Weighted>
-14.3603

> <Gold.Chemscore.Internal_Hbond.Weighted>
0.0000

> <Gold.Chemscore.DEClash.Weighted>
1.2943

> <Gold.Chemscore.DEInternal.Weighted>
2.9072

> <Gold.Chemscore.Rot.Weighted>
4.8814

> <Gold.Chemscore.Internal.Correction.Weighted>
   9.000000E+99

> <Gold.Protein.RotatedTorsions>
[ 6907 6896 6895 6894 ] final   14.45 input  -60.11 | X-H torsion
[ 7974 7965 7964 7962 ] final -127.06 input  175.53 | X-H torsion
[ 8008 7997 7996 7995 ] final -131.70 input   59.86 | X-H torsion
[ 10167 10162 10161 10158 ] final   82.80 input  -65.29 | X-H torsion
[ 10718 10713 10712 10709 ] final   71.62 input   66.30 | X-H torsion
[ 10763 10752 10751 10750 ] final   85.13 input  -60.55 | X-H torsion
[ 11005 11000 10999 10996 ] final   90.04 input  -57.11 | X-H torsion

> <Gold.Protein.ActiveResidues>
 VAL166  LYS551  ARG553  GLY616  TRP617  ASP618  TYR619  PRO620  LYS621  CYS622 
 ASP623  PHE694  ASN695  SER759  ASP760  ASP761  ALA762  ILE779  LEU786  VAL792 
 PHE793  MET794  SER795  GLU796  ALA797  LYS798  CYS799  TRP800  GLU811  SER814 

> <Gold.Protein.RotatedAtoms>
  151.8025  135.0704  160.0401 H   0  0  0  0  0  0  0  0  0  0  0  0  # atno 6907 bound_to 6896
  152.3079  133.5717  159.5669 H   0  0  0  0  0  0  0  0  0  0  0  0  # atno 6908 bound_to 6896
  150.7305  134.0112  159.3712 H   0  0  0  0  0  0  0  0  0  0  0  0  # atno 6909 bound_to 6896
  144.9809  140.7639  143.4613 H   0  0  0  0  0  0  0  0  0  0  0  0  # atno 7974 bound_to 7965
  155.3166  140.0460  157.3037 H   0  0  0  0  0  0  0  0  0  0  0  0  # atno 8008 bound_to 7997
  154.5403  140.2285  155.8619 H   0  0  0  0  0  0  0  0  0  0  0  0  # atno 8009 bound_to 7997
  156.1874  140.3059  155.9272 H   0  0  0  0  0  0  0  0  0  0  0  0  # atno 8010 bound_to 7997
  139.9250  144.6188  150.8402 H   0  0  0  0  0  0  0  0  0  0  0  0  # atno 10167 bound_to 10162
  157.6460  130.9537  150.0814 H   0  0  0  0  0  0  0  0  0  0  0  0  # atno 10718 bound_to 10713
  153.1446  135.4628  154.9547 H   0  0  0  0  0  0  0  0  0  0  0  0  # atno 10763 bound_to 10752
  154.7776  135.3178  154.8062 H   0  0  0  0  0  0  0  0  0  0  0  0  # atno 10764 bound_to 10752
  153.8578  135.6915  153.4840 H   0  0  0  0  0  0  0  0  0  0  0  0  # atno 10765 bound_to 10752
  139.8863  134.8589  156.3228 H   0  0  0  0  0  0  0  0  0  0  0  0  # atno 11005 bound_to 11000
  145.2422  139.2067  143.4986 LP  0  0  0  0  0  0  0  0  0  0  0  0  # atno 17320 bound_to 7965
  146.3408  140.2320  142.8593 LP  0  0  0  0  0  0  0  0  0  0  0  0  # atno 17321 bound_to 7965
  140.7652  143.3270  151.2494 LP  0  0  0  0  0  0  0  0  0  0  0  0  # atno 17342 bound_to 10162
  139.6830  143.9823  152.2818 LP  0  0  0  0  0  0  0  0  0  0  0  0  # atno 17343 bound_to 10162
  156.1789  130.3649  149.9062 LP  0  0  0  0  0  0  0  0  0  0  0  0  # atno 17370 bound_to 10713
  156.7019  130.8936  151.3600 LP  0  0  0  0  0  0  0  0  0  0  0  0  # atno 17371 bound_to 10713
  140.9775  133.7288  156.0623 LP  0  0  0  0  0  0  0  0  0  0  0  0  # atno 17394 bound_to 11000
  140.7792  134.3745  157.5491 LP  0  0  0  0  0  0  0  0  0  0  0  0  # atno 17395 bound_to 11000

$$$$
