AV-unprocessed.smi:1453|AV-procd|sdf|5911|dock3
  -GOLD-   22720 5593D 1   1.00000     0.00000
 Structure written by MMmdl.
 43 44  0  0  0  0  0  0  0  0  1 V2000
  150.8957  134.1733  155.0843 C   0  0  0  0  0  0  0  0  0  0  0  0
  150.2772  135.4252  155.7264 C   0  0  2  0  0  0  0  0  0  0  0  0
  151.0616  136.6922  155.3618 C   0  0  0  0  0  0  0  0  0  0  0  0
  152.2716  136.7615  155.5785 O   0  0  0  0  0  0  0  0  0  0  0  0
  150.3582  137.6929  154.8084 N   0  0  0  0  0  0  0  0  0  0  0  0
  150.9130  138.9855  154.4225 C   0  0  0  0  0  0  0  0  0  0  0  0
  151.1758  139.8966  155.6092 C   0  0  0  0  0  0  0  0  0  0  0  0
  152.1776  139.5958  156.5531 C   0  0  0  0  0  0  0  0  0  0  0  0
  152.3886  140.4778  157.6297 C   0  0  0  0  0  0  0  0  0  0  0  0
  151.5878  141.6400  157.7376 C   0  0  0  0  0  0  0  0  0  0  0  0
  151.7852  142.5422  158.8058 N   0  0  0  0  0  0  0  0  0  0  0  0
  150.5976  143.2698  159.2471 C   0  0  0  0  0  0  0  0  0  0  0  0
  150.9928  144.4218  160.1873 C   0  0  0  0  0  0  0  0  0  0  0  0
  151.7664  143.9173  161.2707 O   0  0  0  0  0  0  0  0  0  0  0  0
  152.9744  143.3125  160.8217 C   0  0  0  0  0  0  0  0  0  0  0  0
  152.6473  142.1193  159.9084 C   0  0  0  0  0  0  0  0  0  0  0  0
  150.6150  141.9164  156.8336 N   0  0  0  0  0  0  0  0  0  0  0  0
  150.4188  141.0695  155.8014 C   0  0  0  0  0  0  0  0  0  0  0  0
  150.2121  135.2207  157.5686 S   0  0  0  0  0  0  0  0  0  0  0  0
  151.0810  136.7222  158.1884 C   0  0  0  0  0  0  0  0  0  0  0  0
  148.8031  135.3025  157.9829 O   0  0  0  0  0  0  0  0  0  0  0  0
  151.0069  134.0431  157.9504 O   0  0  0  0  0  0  0  0  0  0  0  0
  150.9566  134.2727  153.9999 H   0  0  0  0  0  0  0  0  0  0  0  0
  150.2939  133.2901  155.2992 H   0  0  0  0  0  0  0  0  0  0  0  0
  151.9020  133.9844  155.4611 H   0  0  0  0  0  0  0  0  0  0  0  0
  149.2477  135.5241  155.3799 H   0  0  0  0  0  0  0  0  0  0  0  0
  149.3700  137.5552  154.6539 H   0  0  0  0  0  0  0  0  0  0  0  0
  151.8256  138.8452  153.8405 H   0  0  0  0  0  0  0  0  0  0  0  0
  150.2002  139.4792  153.7616 H   0  0  0  0  0  0  0  0  0  0  0  0
  152.7787  138.7037  156.4550 H   0  0  0  0  0  0  0  0  0  0  0  0
  153.1472  140.2465  158.3623 H   0  0  0  0  0  0  0  0  0  0  0  0
  150.0363  143.6765  158.4073 H   0  0  0  0  0  0  0  0  0  0  0  0
  149.9338  142.5770  159.7660 H   0  0  0  0  0  0  0  0  0  0  0  0
  151.5553  145.1866  159.6490 H   0  0  0  0  0  0  0  0  0  0  0  0
  150.0999  144.9046  160.5844 H   0  0  0  0  0  0  0  0  0  0  0  0
  153.5892  144.0465  160.2979 H   0  0  0  0  0  0  0  0  0  0  0  0
  153.5466  142.9769  161.6869 H   0  0  0  0  0  0  0  0  0  0  0  0
  152.1442  141.3383  160.4807 H   0  0  0  0  0  0  0  0  0  0  0  0
  153.5754  141.6957  159.5224 H   0  0  0  0  0  0  0  0  0  0  0  0
  149.6373  141.3416  155.1072 H   0  0  0  0  0  0  0  0  0  0  0  0
  151.0010  136.7608  159.2745 H   0  0  0  0  0  0  0  0  0  0  0  0
  150.6249  137.6146  157.7609 H   0  0  0  0  0  0  0  0  0  0  0  0
  152.1341  136.6782  157.9135 H   0  0  0  0  0  0  0  0  0  0  0  0
  1  2  1  0  0  0  0
  1 23  1  0  0  0  0
  1 24  1  0  0  0  0
  1 25  1  0  0  0  0
  2  3  1  0  0  0  0
  2 19  1  0  0  0  0
  2 26  1  0  0  0  0
  3  4  2  0  0  0  0
  3  5  1  0  0  0  0
  5  6  1  0  0  0  0
  5 27  1  0  0  0  0
  6  7  1  0  0  0  0
  6 28  1  0  0  0  0
  6 29  1  0  0  0  0
  7 18  1  0  0  0  0
  7  8  2  0  0  0  0
  8  9  1  0  0  0  0
  8 30  1  0  0  0  0
  9 10  2  0  0  0  0
  9 31  1  0  0  0  0
 10 11  1  0  0  0  0
 10 17  1  0  0  0  0
 11 16  1  0  0  0  0
 11 12  1  0  0  0  0
 12 13  1  0  0  0  0
 12 32  1  0  0  0  0
 12 33  1  0  0  0  0
 13 14  1  0  0  0  0
 13 34  1  0  0  0  0
 13 35  1  0  0  0  0
 14 15  1  0  0  0  0
 15 16  1  0  0  0  0
 15 36  1  0  0  0  0
 15 37  1  0  0  0  0
 16 38  1  0  0  0  0
 16 39  1  0  0  0  0
 17 18  2  0  0  0  0
 18 40  1  0  0  0  0
 19 20  1  0  0  0  0
 19 21  2  0  0  0  0
 19 22  2  0  0  0  0
 20 41  1  0  0  0  0
 20 42  1  0  0  0  0
 20 43  1  0  0  0  0
M  END
> <s_m_source_file>
AV-unprocessed.smi

> <i_m_source_file_index>
1453

> <i_lp_mmshare_version>
43012

> <i_f3d_flags>
0

> <s_epik_input>
W0NIM11TKD1PKSg9TylbQ0BIXShbQ0gzXSlDKD1PKVtOSF1bQ0gyXWMxW2NIXVtjSF1jKG5bY0hdMSlOMltDSDJdW0NIMl1PW0NIMl1bQ0gyXTI=

> <s_epik_cmdline>
J2VwaWtfcHl0aG9uJywgJy1waCcsICc3LjAnLCAnLXRuJywgJzgnLCAnLW1hJywgJzIwMCcsICctbWV0YWxfYmluZGluZycsICctaW1hZScsICc8aW5maWxlLm1hZT4nLCAnLW9tYWUnLCAnPG91dGZpbGUubWFlPic=

> <r_lp_tautomer_probability>
1

> <r_epik_Ionization_Penalty>
0.00349781

> <r_epik_Ionization_Penalty_Charging>
0

> <r_epik_Ionization_Penalty_Neutral>
0.00349781

> <r_epik_State_Penalty>
0.00248024

> <r_epik_Charging_Adjusted_Penalty>
0.00248024

> <i_epik_Tot_Q>
0

> <i_epik_Tot_abs_Q>
0

> <r_epik_Metal_State_Penalty>
-0

> <b_epik_Metal_Only>
0

> <s_lp_Force_Field>
OPLS_2005

> <r_lp_Energy>
14.1024

> <b_lp_Chiralities_Consistent>
1

> <s_lp_Variant>
AV-unprocessed.smi:1453-1

> <Gold.Version>
5.8.1

> <Gold.Id.Protein>
6NUR|6NUR_protein|mol2

> <Gold.PLP.Fitness>
41.2756

> <Gold.PLP.PLP>
-36.4781

> <Gold.PLP.part.hbond>
-2.0000

> <Gold.PLP.part.metal>
0.0000

> <Gold.PLP.part.buried>
-5.4975

> <Gold.PLP.part.nonpolar>
-28.3947

> <Gold.PLP.part.repulsive>
0.3331

> <Gold.PLP.ligand.clash>
0.0000

> <Gold.PLP.ligand.torsion>
0.8499

> <Gold.PLP.Chemscore.Hbond>
2.0000

> <Gold.PLP.Chemscore.CHOScore>
0.0000

> <Gold.PLP.Chemscore.Metal>
0.0000

> <Gold.Chemscore.Hbonds>
donor molecule, donor type, donor heavy atom, donor atom, acceptor molecule, acceptor atom, score
      P1  H  6896  6908       L1    22  0.19
      P1  H 10752 10763       L1     4  0.85

> <Gold.PLP.Chemscore.Internal.Correction>
0.4973

> <Gold.Rescore>
     Score         DG    S(hbond)    S(metal)    S(lipo)     H(rot)  DE(clash)    DE(int)     intcor
     14.91     -16.91       1.97        0.00      87.03       2.08       0.07       1.93       ----

> <Gold.Chemscore.Fitness>
14.9070

> <Gold.Chemscore.DG>
-16.9150

> <Gold.Chemscore.ZeroCoef>
-5.4800

> <Gold.Chemscore.Hbond>
1.9664

> <Gold.Chemscore.Metal>
0.0000

> <Gold.Chemscore.Lipo>
87.0333

> <Gold.Chemscore.Internal_Hbond>
0.0000

> <Gold.Chemscore.DEClash>
0.0737

> <Gold.Chemscore.DEInternal>
1.9342

> <Gold.Chemscore.Rot>
2.0764

> <Gold.Chemscore.Internal.Correction>
   9.000000E+99

> <Gold.Chemscore.Hbonds>
donor molecule, donor type, donor heavy atom, donor atom, acceptor molecule, acceptor atom, score
      P1  H  6896  6908       L1    22  0.11
      P1  H 10752 10763       L1     4  0.46

> <Gold.Chemscore.Hbond.Weighted>
-6.5676

> <Gold.Chemscore.Metal.Weighted>
-0.0000

> <Gold.Chemscore.Lipo.Weighted>
-10.1829

> <Gold.Chemscore.Internal_Hbond.Weighted>
0.0000

> <Gold.Chemscore.DEClash.Weighted>
0.0737

> <Gold.Chemscore.DEInternal.Weighted>
1.9342

> <Gold.Chemscore.Rot.Weighted>
5.3155

> <Gold.Chemscore.Internal.Correction.Weighted>
   9.000000E+99

> <Gold.Protein.RotatedTorsions>
[ 6907 6896 6895 6894 ] final  124.99 input  -60.11 | X-H torsion
[ 7974 7965 7964 7962 ] final -176.52 input  175.53 | X-H torsion
[ 8008 7997 7996 7995 ] final -142.94 input   59.86 | X-H torsion
[ 10167 10162 10161 10158 ] final   51.17 input  -65.29 | X-H torsion
[ 10718 10713 10712 10709 ] final  -78.73 input   66.30 | X-H torsion
[ 10763 10752 10751 10750 ] final   61.32 input  -60.55 | X-H torsion
[ 11005 11000 10999 10996 ] final  162.28 input  -57.11 | X-H torsion

> <Gold.Protein.ActiveResidues>
 VAL166  LYS551  ARG553  GLY616  TRP617  ASP618  TYR619  PRO620  LYS621  CYS622 
 ASP623  PHE694  ASN695  SER759  ASP760  ASP761  ALA762  ILE779  LEU786  VAL792 
 PHE793  MET794  SER795  GLU796  ALA797  LYS798  CYS799  TRP800  GLU811  SER814 

> <Gold.Protein.RotatedAtoms>
  152.4031  133.6847  159.6332 H   0  0  0  0  0  0  0  0  0  0  0  0  # atno 6907 bound_to 6896
  150.7919  133.8757  159.3280 H   0  0  0  0  0  0  0  0  0  0  0  0  # atno 6908 bound_to 6896
  151.6518  135.1002  160.0213 H   0  0  0  0  0  0  0  0  0  0  0  0  # atno 6909 bound_to 6896
  144.7127  140.1157  143.6408 H   0  0  0  0  0  0  0  0  0  0  0  0  # atno 7974 bound_to 7965
  155.5024  140.0576  157.2937 H   0  0  0  0  0  0  0  0  0  0  0  0  # atno 8008 bound_to 7997
  154.4582  140.1983  156.0269 H   0  0  0  0  0  0  0  0  0  0  0  0  # atno 8009 bound_to 7997
  156.0840  140.3243  155.7734 H   0  0  0  0  0  0  0  0  0  0  0  0  # atno 8010 bound_to 7997
  140.2648  144.3332  150.6307 H   0  0  0  0  0  0  0  0  0  0  0  0  # atno 10167 bound_to 10162
  156.0110  130.4526  150.3541 H   0  0  0  0  0  0  0  0  0  0  0  0  # atno 10718 bound_to 10713
  152.9947  135.5505  154.6015 H   0  0  0  0  0  0  0  0  0  0  0  0  # atno 10763 bound_to 10752
  154.5355  135.2816  155.1144 H   0  0  0  0  0  0  0  0  0  0  0  0  # atno 10764 bound_to 10752
  154.2442  135.6411  153.5270 H   0  0  0  0  0  0  0  0  0  0  0  0  # atno 10765 bound_to 10752
  140.2242  134.8173  157.3252 H   0  0  0  0  0  0  0  0  0  0  0  0  # atno 11005 bound_to 11000
  145.9415  139.2672  143.1266 LP  0  0  0  0  0  0  0  0  0  0  0  0  # atno 17320 bound_to 7965
  145.9419  140.8973  143.0303 LP  0  0  0  0  0  0  0  0  0  0  0  0  # atno 17321 bound_to 7965
  140.5937  143.2167  151.7204 LP  0  0  0  0  0  0  0  0  0  0  0  0  # atno 17342 bound_to 10162
  139.5006  144.3900  152.0290 LP  0  0  0  0  0  0  0  0  0  0  0  0  # atno 17343 bound_to 10162
  157.1632  131.0350  151.2831 LP  0  0  0  0  0  0  0  0  0  0  0  0  # atno 17370 bound_to 10713
  157.4293  130.7481  149.6976 LP  0  0  0  0  0  0  0  0  0  0  0  0  # atno 17371 bound_to 10713
  140.1818  134.4481  155.7768 LP  0  0  0  0  0  0  0  0  0  0  0  0  # atno 17394 bound_to 11000
  141.2221  133.6987  156.7880 LP  0  0  0  0  0  0  0  0  0  0  0  0  # atno 17395 bound_to 11000

$$$$
