AV-unprocessed.smi:2499|AV-procd|sdf|9833|dock2
  -GOLD-   2272013463D 1   1.00000     0.00000
 Structure written by MMmdl.
 28 29  0  0  0  0  0  0  0  0  2 V2000
  152.7982  144.7134  157.7246 C   0  0  0  0  0  0  0  0  0  0  0  0
  151.9327  143.5456  158.2169 C   0  0  2  0  0  0  0  0  0  0  0  0
  150.9596  143.2150  157.1801 N   0  0  0  0  0  0  0  0  0  0  0  0
  150.8229  142.0124  156.6013 C   0  0  0  0  0  0  0  0  0  0  0  0
  151.5189  141.0354  156.8799 O   0  0  0  0  0  0  0  0  0  0  0  0
  149.8391  142.0107  155.6890 N   0  0  0  0  0  0  0  0  0  0  0  0
  149.4454  140.9015  154.9053 C   0  0  0  0  0  0  0  0  0  0  0  0
  148.2082  140.7110  154.4502 N   0  3  0  0  0  0  0  0  0  0  0  0
  148.1789  139.5427  153.7296 C   0  0  0  0  0  0  0  0  0  0  0  0
  149.4585  139.0436  153.7748 C   0  0  0  0  0  0  0  0  0  0  0  0
  150.2663  139.8868  154.5111 O   0  0  0  0  0  0  0  0  0  0  0  0
  151.2995  143.8700  159.5597 C   0  0  0  0  0  0  0  0  0  0  0  0
  150.6771  145.2220  159.8171 C   0  0  0  0  0  0  0  0  0  0  0  0
  151.9512  144.8286  160.5285 C   0  0  0  0  0  0  0  0  0  0  0  0
  153.5742  144.9597  158.4502 H   0  0  0  0  0  0  0  0  0  0  0  0
  152.2005  145.6110  157.5617 H   0  0  0  0  0  0  0  0  0  0  0  0
  153.2955  144.4677  156.7855 H   0  0  0  0  0  0  0  0  0  0  0  0
  152.5960  142.6893  158.3551 H   0  0  0  0  0  0  0  0  0  0  0  0
  150.3436  143.9599  156.8879 H   0  0  0  0  0  0  0  0  0  0  0  0
  147.3984  141.3026  154.5887 H   0  0  0  0  0  0  0  0  0  0  0  0
  147.2693  139.1893  153.2654 H   0  0  0  0  0  0  0  0  0  0  0  0
  149.9313  138.1622  153.3662 H   0  0  0  0  0  0  0  0  0  0  0  0
  150.7782  143.0259  160.0079 H   0  0  0  0  0  0  0  0  0  0  0  0
  150.7531  145.9741  159.0339 H   0  0  0  0  0  0  0  0  0  0  0  0
  149.7619  145.2511  160.4048 H   0  0  0  0  0  0  0  0  0  0  0  0
  151.8840  144.5930  161.5885 H   0  0  0  0  0  0  0  0  0  0  0  0
  152.8692  145.3239  160.2183 H   0  0  0  0  0  0  0  0  0  0  0  0
  149.3320  142.8708  155.5426 H   0  0  0  0  0  0  0  0  0  0  0  0
  1  2  1  0  0  0  0
  1 15  1  0  0  0  0
  1 16  1  0  0  0  0
  1 17  1  0  0  0  0
  2  3  1  0  0  0  0
  2 12  1  0  0  0  0
  2 18  1  0  0  0  0
  3 19  1  0  0  0  0
  3  4  1  0  0  0  0
  4  6  1  0  0  0  0
  4  5  2  0  0  0  0
  6  7  1  0  0  0  0
  6 28  1  0  0  0  0
  7 11  1  0  0  0  0
  7  8  2  0  0  0  0
  8 20  1  0  0  0  0
  8  9  1  0  0  0  0
  9 21  1  0  0  0  0
  9 10  2  0  0  0  0
 10 22  1  0  0  0  0
 10 11  1  0  0  0  0
 12 14  1  0  0  0  0
 12 13  1  0  0  0  0
 12 23  1  0  0  0  0
 13 14  1  0  0  0  0
 13 24  1  0  0  0  0
 13 25  1  0  0  0  0
 14 26  1  0  0  0  0
 14 27  1  0  0  0  0
M  CHG  1   8   1
M  END
> <s_m_source_file>
AV-unprocessed.smi

> <i_m_source_file_index>
2499

> <i_lp_mmshare_version>
43012

> <i_f3d_flags>
0

> <s_epik_input>
W0NIMl0xW0NIMl1bQ0hdMVtDQEhdKFtDSDNdKVtOSF1DKD1PKVtOSF1jMm5bY0hdW2NIXW8y

> <s_epik_cmdline>
J2VwaWtfcHl0aG9uJywgJy1waCcsICc3LjAnLCAnLXRuJywgJzgnLCAnLW1hJywgJzIwMCcsICctbWV0YWxfYmluZGluZycsICctaW1hZScsICc8aW5maWxlLm1hZT4nLCAnLW9tYWUnLCAnPG91dGZpbGUubWFlPic=

> <r_epik_Ionization_Penalty>
6.56099

> <r_epik_Ionization_Penalty_Charging>
6.51293

> <r_epik_Ionization_Penalty_Neutral>
0.0480564

> <r_epik_State_Penalty>
1.72359

> <r_epik_Charging_Adjusted_Penalty>
8.23652

> <i_epik_Tot_Q>
1

> <i_epik_Tot_abs_Q>
1

> <r_epik_Metal_State_Penalty>
1.73747

> <b_epik_Metal_Only>
0

> <s_lp_Force_Field>
OPLS_2005

> <r_lp_Energy>
20.6817

> <b_lp_Chiralities_Consistent>
1

> <s_lp_Variant>
AV-unprocessed.smi:2499-3

> <Gold.Version>
5.8.1

> <Gold.Id.Protein>
6NUR|6NUR_protein|mol2

> <Gold.PLP.Fitness>
40.6636

> <Gold.PLP.PLP>
-29.7057

> <Gold.PLP.part.hbond>
-3.0000

> <Gold.PLP.part.metal>
0.0000

> <Gold.PLP.part.buried>
-2.6020

> <Gold.PLP.part.nonpolar>
-24.6561

> <Gold.PLP.part.repulsive>
0.3496

> <Gold.PLP.ligand.clash>
0.0000

> <Gold.PLP.ligand.torsion>
0.7447

> <Gold.PLP.Chemscore.Hbond>
3.0000

> <Gold.PLP.Chemscore.CHOScore>
0.7935

> <Gold.PLP.Chemscore.Metal>
0.0000

> <Gold.Chemscore.Hbonds>
donor molecule, donor type, donor heavy atom, donor atom, acceptor molecule, acceptor atom, score
      L1  H     3    19       P1  8028  0.99
      L1  H     6    28       P1  8028  1.00
      P1  H  7989  7998       L1    11  1.00
      L1  C    10    22       P1  7948  0.84

> <Gold.PLP.Chemscore.Internal.Correction>
1.0668

> <Gold.Rescore>
     Score         DG    S(hbond)    S(metal)    S(lipo)     H(rot)  DE(clash)    DE(int)     intcor
     14.76     -17.39       1.97        0.00      74.21       1.30       0.64       1.99       ----

> <Gold.Chemscore.Fitness>
14.7579

> <Gold.Chemscore.DG>
-17.3941

> <Gold.Chemscore.ZeroCoef>
-5.4800

> <Gold.Chemscore.Hbond>
1.9668

> <Gold.Chemscore.Metal>
0.0000

> <Gold.Chemscore.Lipo>
74.2058

> <Gold.Chemscore.Internal_Hbond>
0.0000

> <Gold.Chemscore.DEClash>
0.6434

> <Gold.Chemscore.DEInternal>
1.9928

> <Gold.Chemscore.Rot>
1.3036

> <Gold.Chemscore.Internal.Correction>
   9.000000E+99

> <Gold.Chemscore.Hbonds>
donor molecule, donor type, donor heavy atom, donor atom, acceptor molecule, acceptor atom, score
      L1  H     3    19       P1  8028  0.89
      L1  H     6    28       P1  8028  0.99
      P1  H  7989  7998       L1    11  0.27

> <Gold.Chemscore.Hbond.Weighted>
-6.5691

> <Gold.Chemscore.Metal.Weighted>
-0.0000

> <Gold.Chemscore.Lipo.Weighted>
-8.6821

> <Gold.Chemscore.Internal_Hbond.Weighted>
0.0000

> <Gold.Chemscore.DEClash.Weighted>
0.6434

> <Gold.Chemscore.DEInternal.Weighted>
1.9928

> <Gold.Chemscore.Rot.Weighted>
3.3371

> <Gold.Chemscore.Internal.Correction.Weighted>
   9.000000E+99

> <Gold.Protein.RotatedTorsions>
[ 6907 6896 6895 6894 ] final  -84.89 input  -60.11 | X-H torsion
[ 7974 7965 7964 7962 ] final   -2.32 input  175.53 | X-H torsion
[ 8008 7997 7996 7995 ] final  -96.75 input   59.86 | X-H torsion
[ 10167 10162 10161 10158 ] final   11.11 input  -65.29 | X-H torsion
[ 10718 10713 10712 10709 ] final  -65.63 input   66.30 | X-H torsion
[ 10763 10752 10751 10750 ] final   54.85 input  -60.55 | X-H torsion
[ 11005 11000 10999 10996 ] final  -89.26 input  -57.11 | X-H torsion

> <Gold.Protein.ActiveResidues>
 VAL166  LYS551  ARG553  GLY616  TRP617  ASP618  TYR619  PRO620  LYS621  CYS622 
 ASP623  PHE694  ASN695  SER759  ASP760  ASP761  ALA762  ILE779  LEU786  VAL792 
 PHE793  MET794  SER795  GLU796  ALA797  LYS798  CYS799  TRP800  GLU811  SER814 

> <Gold.Protein.RotatedAtoms>
  150.6873  134.3289  159.4818 H   0  0  0  0  0  0  0  0  0  0  0  0  # atno 6907 bound_to 6896
  152.1156  134.9240  160.0574 H   0  0  0  0  0  0  0  0  0  0  0  0  # atno 6908 bound_to 6896
  152.0466  133.3966  159.4396 H   0  0  0  0  0  0  0  0  0  0  0  0  # atno 6909 bound_to 6896
  146.2406  140.1553  142.8333 H   0  0  0  0  0  0  0  0  0  0  0  0  # atno 7974 bound_to 7965
  154.7786  140.0469  157.1109 H   0  0  0  0  0  0  0  0  0  0  0  0  # atno 8008 bound_to 7997
  154.9733  140.3092  155.4959 H   0  0  0  0  0  0  0  0  0  0  0  0  # atno 8009 bound_to 7997
  156.2933  140.2249  156.4827 H   0  0  0  0  0  0  0  0  0  0  0  0  # atno 8010 bound_to 7997
  140.6152  143.8322  150.7111 H   0  0  0  0  0  0  0  0  0  0  0  0  # atno 10167 bound_to 10162
  156.0658  130.4250  150.1592 H   0  0  0  0  0  0  0  0  0  0  0  0  # atno 10718 bound_to 10713
  152.9809  135.5731  154.4971 H   0  0  0  0  0  0  0  0  0  0  0  0  # atno 10763 bound_to 10752
  154.4496  135.2778  155.1792 H   0  0  0  0  0  0  0  0  0  0  0  0  # atno 10764 bound_to 10752
  154.3426  135.6226  153.5657 H   0  0  0  0  0  0  0  0  0  0  0  0  # atno 10765 bound_to 10752
  141.1588  133.7619  156.9570 H   0  0  0  0  0  0  0  0  0  0  0  0  # atno 11005 bound_to 11000
  145.0134  140.8733  143.5210 LP  0  0  0  0  0  0  0  0  0  0  0  0  # atno 17320 bound_to 7965
  145.1590  139.2470  143.5401 LP  0  0  0  0  0  0  0  0  0  0  0  0  # atno 17321 bound_to 7965
  140.1900  143.4044  152.1870 LP  0  0  0  0  0  0  0  0  0  0  0  0  # atno 17342 bound_to 10162
  139.5393  144.7241  151.4787 LP  0  0  0  0  0  0  0  0  0  0  0  0  # atno 17343 bound_to 10162
  156.9652  130.9817  151.3470 LP  0  0  0  0  0  0  0  0  0  0  0  0  # atno 17370 bound_to 10713
  157.5699  130.8303  149.8377 LP  0  0  0  0  0  0  0  0  0  0  0  0  # atno 17371 bound_to 10713
  140.1219  134.9412  157.2215 LP  0  0  0  0  0  0  0  0  0  0  0  0  # atno 17394 bound_to 11000
  140.3062  134.3076  155.7277 LP  0  0  0  0  0  0  0  0  0  0  0  0  # atno 17395 bound_to 11000

$$$$
