AV-unprocessed.smi:1623|AV-procd|sdf|6501|dock3
  -GOLD-   22720 7163D 1   1.00000     0.00000
 Structure written by MMmdl.
 42 43  0  0  0  0  0  0  0  0  1 V2000
  148.0992  142.6090  158.2290 C   0  0  0  0  0  0  0  0  0  0  0  0
  148.8098  141.7987  157.1789 C   0  0  0  0  0  0  0  0  0  0  0  0
  148.1890  141.6314  156.0576 N   0  0  0  0  0  0  0  0  0  0  0  0
  148.7485  140.9006  155.0275 N   0  0  0  0  0  0  0  0  0  0  0  0
  147.9040  140.8121  153.8308 C   0  0  0  0  0  0  0  0  0  0  0  0
  147.5315  139.3523  153.4896 C   0  0  2  0  0  0  0  0  0  0  0  0
  147.4326  139.1684  152.0922 O   0  0  0  0  0  0  0  0  0  0  0  0
  146.1925  138.9230  154.1103 C   0  0  0  0  0  0  0  0  0  0  0  0
  145.8871  137.5925  153.7140 O   0  0  0  0  0  0  0  0  0  0  0  0
  144.6785  137.4657  152.9792 C   0  0  0  0  0  0  0  0  0  0  0  0
  144.5289  136.1109  152.3016 C   0  0  0  0  0  0  0  0  0  0  0  0
  145.5052  135.6914  151.3723 C   0  0  0  0  0  0  0  0  0  0  0  0
  145.3916  134.4416  150.7342 C   0  0  0  0  0  0  0  0  0  0  0  0
  144.2978  133.6034  151.0190 C   0  0  0  0  0  0  0  0  0  0  0  0
  143.3171  134.0174  151.9401 C   0  0  0  0  0  0  0  0  0  0  0  0
  143.4259  135.2678  152.5810 C   0  0  0  0  0  0  0  0  0  0  0  0
  142.1960  135.7396  153.7009 Cl  0  0  0  0  0  0  0  0  0  0  0  0
  149.9652  140.2880  155.0810 C   0  0  0  0  0  0  0  0  0  0  0  0
  150.4218  139.6340  154.1423 O   0  0  0  0  0  0  0  0  0  0  0  0
  150.6653  140.4856  156.3523 C   0  0  0  0  0  0  0  0  0  0  0  0
  151.9458  139.8629  156.4514 C   0  0  0  0  0  0  0  0  0  0  0  0
  152.9746  139.3398  156.5412 N   0  0  0  0  0  0  0  0  0  0  0  0
  150.1324  141.2107  157.3672 C   0  0  0  0  0  0  0  0  0  0  0  0
  150.8205  141.4428  158.7055 C   0  0  0  0  0  0  0  0  0  0  0  0
  148.0677  142.0740  159.1782 H   0  0  0  0  0  0  0  0  0  0  0  0
  147.0690  142.8294  157.9445 H   0  0  0  0  0  0  0  0  0  0  0  0
  148.6081  143.5592  158.3921 H   0  0  0  0  0  0  0  0  0  0  0  0
  146.9888  141.3734  154.0299 H   0  0  0  0  0  0  0  0  0  0  0  0
  148.3543  141.3143  152.9725 H   0  0  0  0  0  0  0  0  0  0  0  0
  148.3037  138.6741  153.8552 H   0  0  0  0  0  0  0  0  0  0  0  0
  148.0687  139.7273  151.6721 H   0  0  0  0  0  0  0  0  0  0  0  0
  146.2144  139.0075  155.1980 H   0  0  0  0  0  0  0  0  0  0  0  0
  145.4160  139.6011  153.7541 H   0  0  0  0  0  0  0  0  0  0  0  0
  143.8467  137.5908  153.6727 H   0  0  0  0  0  0  0  0  0  0  0  0
  144.5956  138.2769  152.2540 H   0  0  0  0  0  0  0  0  0  0  0  0
  146.3496  136.3263  151.1476 H   0  0  0  0  0  0  0  0  0  0  0  0
  146.1438  134.1263  150.0261 H   0  0  0  0  0  0  0  0  0  0  0  0
  144.2095  132.6445  150.5300 H   0  0  0  0  0  0  0  0  0  0  0  0
  142.4776  133.3724  152.1545 H   0  0  0  0  0  0  0  0  0  0  0  0
  151.8609  141.1194  158.6936 H   0  0  0  0  0  0  0  0  0  0  0  0
  150.3093  140.8904  159.4944 H   0  0  0  0  0  0  0  0  0  0  0  0
  150.8167  142.5013  158.9676 H   0  0  0  0  0  0  0  0  0  0  0  0
  1  2  1  0  0  0  0
  1 25  1  0  0  0  0
  1 26  1  0  0  0  0
  1 27  1  0  0  0  0
  2 23  1  0  0  0  0
  2  3  2  0  0  0  0
  3  4  1  0  0  0  0
  4  5  1  0  0  0  0
  4 18  1  0  0  0  0
  5  6  1  0  0  0  0
  5 28  1  0  0  0  0
  5 29  1  0  0  0  0
  6  7  1  0  0  0  0
  6  8  1  0  0  0  0
  6 30  1  0  0  0  0
  7 31  1  0  0  0  0
  8  9  1  0  0  0  0
  8 32  1  0  0  0  0
  8 33  1  0  0  0  0
  9 10  1  0  0  0  0
 10 11  1  0  0  0  0
 10 34  1  0  0  0  0
 10 35  1  0  0  0  0
 11 16  1  0  0  0  0
 11 12  2  0  0  0  0
 12 13  1  0  0  0  0
 12 36  1  0  0  0  0
 13 14  2  0  0  0  0
 13 37  1  0  0  0  0
 14 15  1  0  0  0  0
 14 38  1  0  0  0  0
 15 16  2  0  0  0  0
 15 39  1  0  0  0  0
 16 17  1  0  0  0  0
 18 19  2  0  0  0  0
 18 20  1  0  0  0  0
 20 21  1  0  0  0  0
 20 23  2  0  0  0  0
 21 22  3  0  0  0  0
 23 24  1  0  0  0  0
 24 40  1  0  0  0  0
 24 41  1  0  0  0  0
 24 42  1  0  0  0  0
M  END
> <s_m_source_file>
AV-unprocessed.smi

> <i_m_source_file_index>
1623

> <i_lp_mmshare_version>
43012

> <i_f3d_flags>
0

> <s_epik_input>
TiNDYyhjMVtDSDNdKWMoPU8pbihuYzFbQ0gzXSlbQ0gyXVtDQEhdKFtPSF0pW0NIMl1PW0NIMl1jMltjSF1bY0hdW2NIXVtjSF1jMkNs

> <s_epik_cmdline>
J2VwaWtfcHl0aG9uJywgJy1waCcsICc3LjAnLCAnLXRuJywgJzgnLCAnLW1hJywgJzIwMCcsICctbWV0YWxfYmluZGluZycsICctaW1hZScsICc8aW5maWxlLm1hZT4nLCAnLW9tYWUnLCAnPG91dGZpbGUubWFlPic=

> <r_lp_tautomer_probability>
1

> <r_epik_Ionization_Penalty>
6.50533e-08

> <r_epik_Ionization_Penalty_Charging>
2.19172e-10

> <r_epik_Ionization_Penalty_Neutral>
6.48342e-08

> <r_epik_State_Penalty>
-0

> <r_epik_Charging_Adjusted_Penalty>
2.19172e-10

> <i_epik_Tot_Q>
0

> <i_epik_Tot_abs_Q>
0

> <r_epik_Metal_State_Penalty>
-0

> <b_epik_Metal_Only>
0

> <s_lp_Force_Field>
OPLS_2005

> <r_lp_Energy>
31.4415

> <b_lp_Chiralities_Consistent>
1

> <s_lp_Variant>
AV-unprocessed.smi:1623-1

> <Gold.Version>
5.8.1

> <Gold.Id.Protein>
6NUR|6NUR_protein|mol2

> <Gold.PLP.Fitness>
47.2611

> <Gold.PLP.PLP>
-40.1090

> <Gold.PLP.part.hbond>
-3.0860

> <Gold.PLP.part.metal>
0.0000

> <Gold.PLP.part.buried>
-5.7371

> <Gold.PLP.part.nonpolar>
-32.1696

> <Gold.PLP.part.repulsive>
0.8841

> <Gold.PLP.ligand.clash>
0.0000

> <Gold.PLP.ligand.torsion>
0.8673

> <Gold.PLP.Chemscore.Hbond>
2.9000

> <Gold.PLP.Chemscore.CHOScore>
0.0000

> <Gold.PLP.Chemscore.Metal>
0.0000

> <Gold.Chemscore.Hbonds>
donor molecule, donor type, donor heavy atom, donor atom, acceptor molecule, acceptor atom, score
      L1  H     7    31       P1  7957  1.00
      P1  H  7989  7998       L1    19  1.00
      P1  H  7997  8009       L1    22  1.00

> <Gold.PLP.Chemscore.Internal.Correction>
0.1867

> <Gold.Rescore>
     Score         DG    S(hbond)    S(metal)    S(lipo)     H(rot)  DE(clash)    DE(int)     intcor
     16.28     -17.26       2.85        0.00      73.52       2.48       0.13       0.85       ----

> <Gold.Chemscore.Fitness>
16.2831

> <Gold.Chemscore.DG>
-17.2621

> <Gold.Chemscore.ZeroCoef>
-5.4800

> <Gold.Chemscore.Hbond>
2.8514

> <Gold.Chemscore.Metal>
0.0000

> <Gold.Chemscore.Lipo>
73.5164

> <Gold.Chemscore.Internal_Hbond>
0.0000

> <Gold.Chemscore.DEClash>
0.1260

> <Gold.Chemscore.DEInternal>
0.8530

> <Gold.Chemscore.Rot>
2.4777

> <Gold.Chemscore.Internal.Correction>
   9.000000E+99

> <Gold.Chemscore.Hbonds>
donor molecule, donor type, donor heavy atom, donor atom, acceptor molecule, acceptor atom, score
      L1  H     7    31       P1  7957  0.95
      P1  H  7989  7998       L1    19  0.25
      P1  H  7997  8009       L1    22  0.96

> <Gold.Chemscore.Hbond.Weighted>
-9.5235

> <Gold.Chemscore.Metal.Weighted>
-0.0000

> <Gold.Chemscore.Lipo.Weighted>
-8.6014

> <Gold.Chemscore.Internal_Hbond.Weighted>
0.0000

> <Gold.Chemscore.DEClash.Weighted>
0.1260

> <Gold.Chemscore.DEInternal.Weighted>
0.8530

> <Gold.Chemscore.Rot.Weighted>
6.3428

> <Gold.Chemscore.Internal.Correction.Weighted>
   9.000000E+99

> <Gold.Protein.RotatedTorsions>
[ 6907 6896 6895 6894 ] final  -14.70 input  -60.11 | X-H torsion
[ 7974 7965 7964 7962 ] final  -95.07 input  175.53 | X-H torsion
[ 8008 7997 7996 7995 ] final -169.95 input   59.86 | X-H torsion
[ 10167 10162 10161 10158 ] final -140.66 input  -65.29 | X-H torsion
[ 10718 10713 10712 10709 ] final   76.09 input   66.30 | X-H torsion
[ 10763 10752 10751 10750 ] final   -8.01 input  -60.55 | X-H torsion
[ 11005 11000 10999 10996 ] final  -96.25 input  -57.11 | X-H torsion

> <Gold.Protein.ActiveResidues>
 VAL166  LYS551  ARG553  GLY616  TRP617  ASP618  TYR619  PRO620  LYS621  CYS622 
 ASP623  PHE694  ASN695  SER759  ASP760  ASP761  ALA762  ILE779  LEU786  VAL792 
 PHE793  MET794  SER795  GLU796  ALA797  LYS798  CYS799  TRP800  GLU811  SER814 

> <Gold.Protein.RotatedAtoms>
  151.3354  135.0851  159.9352 H   0  0  0  0  0  0  0  0  0  0  0  0  # atno 6907 bound_to 6896
  152.5224  133.9501  159.7678 H   0  0  0  0  0  0  0  0  0  0  0  0  # atno 6908 bound_to 6896
  150.9847  133.6156  159.2747 H   0  0  0  0  0  0  0  0  0  0  0  0  # atno 6909 bound_to 6896
  145.3649  140.9497  143.2480 H   0  0  0  0  0  0  0  0  0  0  0  0  # atno 7974 bound_to 7965
  155.9118  140.1059  157.1273 H   0  0  0  0  0  0  0  0  0  0  0  0  # atno 8008 bound_to 7997
  154.4040  140.1273  156.4632 H   0  0  0  0  0  0  0  0  0  0  0  0  # atno 8009 bound_to 7997
  155.7301  140.3468  155.5058 H   0  0  0  0  0  0  0  0  0  0  0  0  # atno 8010 bound_to 7997
  139.8260  143.7510  152.2666 H   0  0  0  0  0  0  0  0  0  0  0  0  # atno 10167 bound_to 10162
  157.6660  130.9757  150.1446 H   0  0  0  0  0  0  0  0  0  0  0  0  # atno 10718 bound_to 10713
  153.4345  135.7012  153.6209 H   0  0  0  0  0  0  0  0  0  0  0  0  # atno 10763 bound_to 10752
  153.4610  135.3736  155.2338 H   0  0  0  0  0  0  0  0  0  0  0  0  # atno 10764 bound_to 10752
  154.8726  135.4020  154.3734 H   0  0  0  0  0  0  0  0  0  0  0  0  # atno 10765 bound_to 10752
  141.1417  133.8084  157.0546 H   0  0  0  0  0  0  0  0  0  0  0  0  # atno 11005 bound_to 11000
  144.8619  139.5165  143.6808 LP  0  0  0  0  0  0  0  0  0  0  0  0  # atno 17320 bound_to 7965
  146.2911  139.7142  142.9160 LP  0  0  0  0  0  0  0  0  0  0  0  0  # atno 17321 bound_to 7965
  139.7703  144.7479  151.0234 LP  0  0  0  0  0  0  0  0  0  0  0  0  # atno 17342 bound_to 10162
  140.7810  143.4652  151.0222 LP  0  0  0  0  0  0  0  0  0  0  0  0  # atno 17343 bound_to 10162
  156.2261  130.3678  149.8499 LP  0  0  0  0  0  0  0  0  0  0  0  0  # atno 17370 bound_to 10713
  156.6339  130.8677  151.3501 LP  0  0  0  0  0  0  0  0  0  0  0  0  # atno 17371 bound_to 10713
  140.0610  134.9755  157.1305 LP  0  0  0  0  0  0  0  0  0  0  0  0  # atno 17394 bound_to 11000
  140.3848  134.2248  155.7169 LP  0  0  0  0  0  0  0  0  0  0  0  0  # atno 17395 bound_to 11000

$$$$
