AV-unprocessed.smi:1056|AV-procd|sdf|4647|dock4
  -GOLD-   22720 3153D 1   1.00000     0.00000
 Structure written by MMmdl.
 45 47  0  0  0  0  0  0  0  0  4 V2000
  154.0483  142.4972  163.5123 C   0  0  0  0  0  0  0  0  0  0  0  0
  153.4127  142.7005  162.1474 C   0  0  0  0  0  0  0  0  0  0  0  0
  152.5314  143.7909  161.9697 C   0  0  0  0  0  0  0  0  0  0  0  0
  151.9671  143.9514  160.7100 C   0  0  0  0  0  0  0  0  0  0  0  0
  151.0743  144.9078  160.2216 N   0  3  0  0  0  0  0  0  0  0  0  0
  150.8070  144.6530  158.9110 C   0  0  0  0  0  0  0  0  0  0  0  0
  151.5149  143.5462  158.5560 N   0  0  0  0  0  0  0  0  0  0  0  0
  151.5891  142.8467  157.2665 C   0  0  0  0  0  0  0  0  0  0  0  0
  150.6616  141.6174  157.1945 C   0  0  1  0  0  0  0  0  0  0  0  0
  149.4704  141.9790  156.5207 O   0  0  0  0  0  0  0  0  0  0  0  0
  151.3315  140.4490  156.4436 C   0  0  0  0  0  0  0  0  0  0  0  0
  151.2564  139.1694  157.1920 N   0  3  2  0  0  0  0  0  0  0  0  0
  151.5744  139.3048  158.6379 C   0  0  0  0  0  0  0  0  0  0  0  0
  151.1712  138.0236  159.3918 C   0  0  0  0  0  0  0  0  0  0  0  0
  151.6670  136.8386  158.6817 N   0  5  0  0  0  0  0  0  0  0  0  0
  151.9974  136.7627  157.3543 C   0  0  0  0  0  0  0  0  0  0  0  0
  152.2898  135.7333  156.7502 O   0  0  0  0  0  0  0  0  0  0  0  0
  152.0577  138.0901  156.5505 C   0  0  0  0  0  0  0  0  0  0  0  0
  152.2528  143.0737  159.6463 C   0  0  0  0  0  0  0  0  0  0  0  0
  153.1181  141.9939  159.8037 C   0  0  0  0  0  0  0  0  0  0  0  0
  153.7017  141.8130  161.0783 C   0  0  0  0  0  0  0  0  0  0  0  0
  154.6494  140.6433  161.2820 C   0  0  0  0  0  0  0  0  0  0  0  0
  153.7099  143.2485  164.2265 H   0  0  0  0  0  0  0  0  0  0  0  0
  155.1339  142.5694  163.4428 H   0  0  0  0  0  0  0  0  0  0  0  0
  153.7908  141.5170  163.9135 H   0  0  0  0  0  0  0  0  0  0  0  0
  152.3066  144.4705  162.7790 H   0  0  0  0  0  0  0  0  0  0  0  0
  150.1496  145.2232  158.2703 H   0  0  0  0  0  0  0  0  0  0  0  0
  151.3262  143.5662  156.4895 H   0  0  0  0  0  0  0  0  0  0  0  0
  152.6276  142.5648  157.0879 H   0  0  0  0  0  0  0  0  0  0  0  0
  150.3979  141.3204  158.2087 H   0  0  0  0  0  0  0  0  0  0  0  0
  149.4586  142.9162  156.3984 H   0  0  0  0  0  0  0  0  0  0  0  0
  150.8497  140.3389  155.4705 H   0  0  0  0  0  0  0  0  0  0  0  0
  152.3791  140.6745  156.2376 H   0  0  0  0  0  0  0  0  0  0  0  0
  152.6419  139.4979  158.7577 H   0  0  0  0  0  0  0  0  0  0  0  0
  151.0533  140.1535  159.0787 H   0  0  0  0  0  0  0  0  0  0  0  0
  151.5452  138.0740  160.4139 H   0  0  0  0  0  0  0  0  0  0  0  0
  150.0844  137.9973  159.4733 H   0  0  0  0  0  0  0  0  0  0  0  0
  151.6862  137.9101  155.5408 H   0  0  0  0  0  0  0  0  0  0  0  0
  153.0998  138.4014  156.4644 H   0  0  0  0  0  0  0  0  0  0  0  0
  153.3378  141.3191  158.9897 H   0  0  0  0  0  0  0  0  0  0  0  0
  154.7790  140.0690  160.3642 H   0  0  0  0  0  0  0  0  0  0  0  0
  154.2643  139.9675  162.0460 H   0  0  0  0  0  0  0  0  0  0  0  0
  155.6325  140.9962  161.5951 H   0  0  0  0  0  0  0  0  0  0  0  0
  150.2976  138.8570  157.1425 H   0  0  0  0  0  0  0  0  0  0  0  0
  150.6754  145.6790  160.7419 H   0  0  0  0  0  0  0  0  0  0  0  0
  1  2  1  0  0  0  0
  1 23  1  0  0  0  0
  1 24  1  0  0  0  0
  1 25  1  0  0  0  0
  2 21  1  0  0  0  0
  2  3  2  0  0  0  0
  3  4  1  0  0  0  0
  3 26  1  0  0  0  0
  4 19  2  0  0  0  0
  4  5  1  0  0  0  0
  5  6  2  0  0  0  0
  5 45  1  0  0  0  0
  6  7  1  0  0  0  0
  6 27  1  0  0  0  0
  7  8  1  0  0  0  0
  7 19  1  0  0  0  0
  8  9  1  0  0  0  0
  8 28  1  0  0  0  0
  8 29  1  0  0  0  0
  9 10  1  0  0  0  0
  9 11  1  0  0  0  0
  9 30  1  0  0  0  0
 10 31  1  0  0  0  0
 11 12  1  0  0  0  0
 11 32  1  0  0  0  0
 11 33  1  0  0  0  0
 12 18  1  0  0  0  0
 12 13  1  0  0  0  0
 12 44  1  0  0  0  0
 13 14  1  0  0  0  0
 13 34  1  0  0  0  0
 13 35  1  0  0  0  0
 14 15  1  0  0  0  0
 14 36  1  0  0  0  0
 14 37  1  0  0  0  0
 15 16  1  0  0  0  0
 16 17  2  0  0  0  0
 16 18  1  0  0  0  0
 18 38  1  0  0  0  0
 18 39  1  0  0  0  0
 19 20  1  0  0  0  0
 20 21  2  0  0  0  0
 20 40  1  0  0  0  0
 21 22  1  0  0  0  0
 22 41  1  0  0  0  0
 22 42  1  0  0  0  0
 22 43  1  0  0  0  0
M  CHG  1   5   1
M  CHG  1  12   1
M  CHG  1  15  -1
M  END
> <s_m_source_file>
AV-unprocessed.smi

> <i_m_source_file_index>
1056

> <i_lp_mmshare_version>
43012

> <i_f3d_flags>
0

> <s_epik_input>
W0NIM11jKFtjSF0xKWMoW0NIM10pW2NIXWMoYzEyKW4oW2NIXW4yKVtDSDJdW0NASF0oW09IXSlbQ0gyXU4zW0NIMl1bQ0gyXVtOSF1DKD1PKVtDSDJdMw==

> <s_epik_cmdline>
J2VwaWtfcHl0aG9uJywgJy1waCcsICc3LjAnLCAnLXRuJywgJzgnLCAnLW1hJywgJzIwMCcsICctbWV0YWxfYmluZGluZycsICctaW1hZScsICc8aW5maWxlLm1hZT4nLCAnLW9tYWUnLCAnPG91dGZpbGUubWFlPic=

> <r_epik_Ionization_Penalty>
6.22415

> <r_epik_Ionization_Penalty_Charging>
6.22415

> <r_epik_Ionization_Penalty_Neutral>
4.02797e-07

> <r_epik_State_Penalty>
6.37716

> <r_epik_Charging_Adjusted_Penalty>
12.6013

> <i_epik_Tot_Q>
1

> <i_epik_Tot_abs_Q>
3

> <r_epik_Metal_State_Penalty>
2.53509

> <b_epik_Metal_Only>
1

> <s_lp_Force_Field>
OPLS_2005

> <r_lp_Energy>
25.2777

> <b_lp_Chiralities_Consistent>
1

> <s_lp_Variant>
AV-unprocessed.smi:1056-18

> <Gold.Version>
5.8.1

> <Gold.Id.Protein>
6NUR|6NUR_protein|mol2

> <Gold.PLP.Fitness>
57.9180

> <Gold.PLP.PLP>
-47.7756

> <Gold.PLP.part.hbond>
-3.0000

> <Gold.PLP.part.metal>
0.0000

> <Gold.PLP.part.buried>
-6.3803

> <Gold.PLP.part.nonpolar>
-38.9937

> <Gold.PLP.part.repulsive>
0.1952

> <Gold.PLP.ligand.clash>
0.0000

> <Gold.PLP.ligand.torsion>
1.6252

> <Gold.PLP.Chemscore.Hbond>
3.4244

> <Gold.PLP.Chemscore.CHOScore>
1.0290

> <Gold.PLP.Chemscore.Metal>
0.0000

> <Gold.Chemscore.Hbonds>
donor molecule, donor type, donor heavy atom, donor atom, acceptor molecule, acceptor atom, score
      L1  H    10    31       P1  8028  0.99
      P1  H  6896  6908       L1    15  1.35
      P1  H 10752 10764       L1    17  1.00
      L1  C     6    27       P1  8028  0.02
      L1  C     6    27       P1  8029  0.95

> <Gold.PLP.Chemscore.Internal.Correction>
0.0328

> <Gold.Rescore>
     Score         DG    S(hbond)    S(metal)    S(lipo)     H(rot)  DE(clash)    DE(int)     intcor
     20.80     -22.67       2.56        0.00     125.66       2.37       0.25       1.62       ----

> <Gold.Chemscore.Fitness>
20.7994

> <Gold.Chemscore.DG>
-22.6679

> <Gold.Chemscore.ZeroCoef>
-5.4800

> <Gold.Chemscore.Hbond>
2.5625

> <Gold.Chemscore.Metal>
0.0000

> <Gold.Chemscore.Lipo>
125.6630

> <Gold.Chemscore.Internal_Hbond>
0.0000

> <Gold.Chemscore.DEClash>
0.2476

> <Gold.Chemscore.DEInternal>
1.6208

> <Gold.Chemscore.Rot>
2.3724

> <Gold.Chemscore.Internal.Correction>
   9.000000E+99

> <Gold.Chemscore.Hbonds>
donor molecule, donor type, donor heavy atom, donor atom, acceptor molecule, acceptor atom, score
      L1  H    10    31       P1  8028  0.92
      P1  H  6896  6908       L1    15  0.47
      P1  H 10752 10764       L1    17  1.00

> <Gold.Chemscore.Hbond.Weighted>
-8.5587

> <Gold.Chemscore.Metal.Weighted>
-0.0000

> <Gold.Chemscore.Lipo.Weighted>
-14.7026

> <Gold.Chemscore.Internal_Hbond.Weighted>
0.0000

> <Gold.Chemscore.DEClash.Weighted>
0.2476

> <Gold.Chemscore.DEInternal.Weighted>
1.6208

> <Gold.Chemscore.Rot.Weighted>
6.0734

> <Gold.Chemscore.Internal.Correction.Weighted>
   9.000000E+99

> <Gold.Protein.RotatedTorsions>
[ 6907 6896 6895 6894 ] final -126.66 input  -60.11 | X-H torsion
[ 7974 7965 7964 7962 ] final -137.66 input  175.53 | X-H torsion
[ 8008 7997 7996 7995 ] final   10.76 input   59.86 | X-H torsion
[ 10167 10162 10161 10158 ] final -179.92 input  -65.29 | X-H torsion
[ 10718 10713 10712 10709 ] final -164.70 input   66.30 | X-H torsion
[ 10763 10752 10751 10750 ] final  -20.83 input  -60.55 | X-H torsion
[ 11005 11000 10999 10996 ] final   40.66 input  -57.11 | X-H torsion

> <Gold.Protein.ActiveResidues>
 VAL166  LYS551  ARG553  GLY616  TRP617  ASP618  TYR619  PRO620  LYS621  CYS622 
 ASP623  PHE694  ASN695  SER759  ASP760  ASP761  ALA762  ILE779  LEU786  VAL792 
 PHE793  MET794  SER795  GLU796  ALA797  LYS798  CYS799  TRP800  GLU811  SER814 

> <Gold.Protein.RotatedAtoms>
  150.8992  133.7141  159.2883 H   0  0  0  0  0  0  0  0  0  0  0  0  # atno 6907 bound_to 6896
  151.4665  135.1041  159.9749 H   0  0  0  0  0  0  0  0  0  0  0  0  # atno 6908 bound_to 6896
  152.4867  133.8342  159.7174 H   0  0  0  0  0  0  0  0  0  0  0  0  # atno 6909 bound_to 6896
  144.8823  140.6525  143.5198 H   0  0  0  0  0  0  0  0  0  0  0  0  # atno 7974 bound_to 7965
  154.7977  140.2846  155.5944 H   0  0  0  0  0  0  0  0  0  0  0  0  # atno 8008 bound_to 7997
  156.2973  140.2592  156.2767 H   0  0  0  0  0  0  0  0  0  0  0  0  # atno 8009 bound_to 7997
  154.9595  140.0378  157.2172 H   0  0  0  0  0  0  0  0  0  0  0  0  # atno 8010 bound_to 7997
  139.5365  144.2483  152.0805 H   0  0  0  0  0  0  0  0  0  0  0  0  # atno 10167 bound_to 10162
  156.6427  130.8975  151.2999 H   0  0  0  0  0  0  0  0  0  0  0  0  # atno 10718 bound_to 10713
  153.6266  135.6990  153.5291 H   0  0  0  0  0  0  0  0  0  0  0  0  # atno 10763 bound_to 10752
  153.2894  135.4161  155.1152 H   0  0  0  0  0  0  0  0  0  0  0  0  # atno 10764 bound_to 10752
  154.8531  135.3621  154.5808 H   0  0  0  0  0  0  0  0  0  0  0  0  # atno 10765 bound_to 10752
  140.1909  134.3987  155.8147 H   0  0  0  0  0  0  0  0  0  0  0  0  # atno 11005 bound_to 11000
  145.3932  139.1612  143.4218 LP  0  0  0  0  0  0  0  0  0  0  0  0  # atno 17320 bound_to 7965
  146.3002  140.4023  142.8707 LP  0  0  0  0  0  0  0  0  0  0  0  0  # atno 17321 bound_to 7965
  140.1955  144.4710  150.6457 LP  0  0  0  0  0  0  0  0  0  0  0  0  # atno 17342 bound_to 10162
  140.6574  143.2241  151.5937 LP  0  0  0  0  0  0  0  0  0  0  0  0  # atno 17343 bound_to 10162
  157.7166  130.9505  150.1277 LP  0  0  0  0  0  0  0  0  0  0  0  0  # atno 17370 bound_to 10713
  156.2146  130.3669  149.8629 LP  0  0  0  0  0  0  0  0  0  0  0  0  # atno 17371 bound_to 10713
  141.2226  133.7046  156.8094 LP  0  0  0  0  0  0  0  0  0  0  0  0  # atno 17394 bound_to 11000
  140.2160  134.8792  157.3326 LP  0  0  0  0  0  0  0  0  0  0  0  0  # atno 17395 bound_to 11000

$$$$
