#       Name:                AV-unprocessed.smi:2168
#       Creating user name   scv26
#       Creation time:       Fri Mar 27 12:01:29 2020


#       File generated by GOLD software.
#

@<TRIPOS>MOLECULE
AV-unprocessed.smi:2168
    50    51     1
SMALL
NO_CHARGES


@<TRIPOS>ATOM
      1 ****        -2.3510   3.3311   1.1262 C.3            1 S1                 0.0000
      2 ****        -2.8401   3.4110   2.5815 C.3            1 S1                 0.0000
      3 ****        -2.2862   2.3426   3.4380 N.pl3          1 S1                 0.0000
      4 ****        -3.1689   1.1949   3.7293 C.3            1 S1                 0.0000
      5 ****        -3.5431   0.3901   2.4754 C.3            1 S1                 0.0000
      6 ****        -0.5715   2.2286   3.7228 S.o2           1 S1                 0.0000
      7 ****        -0.0379   3.5943   3.5892 O.2            1 S1                 0.0000
      8 ****        -0.4115   1.5517   5.0202 O.2            1 S1                 0.0000
      9 ****        -0.2158   1.2732   2.4634 N.pl3          1 S1                -1.0000
     10 ****         1.1610   0.8837   2.2381 C.3            1 S1                 0.0000
     11 ****         1.2964   0.1025   0.9411 C.ar           1 S1                 0.0000
     12 ****         1.0696  -1.2916   0.9061 C.ar           1 S1                 0.0000
     13 ****         1.1844  -1.9851  -0.3169 C.ar           1 S1                 0.0000
     14 ****         1.5263  -1.2832  -1.5009 C.ar           1 S1                 0.0000
     15 ****         1.6496  -1.8925  -2.7703 N.3            1 S1                 0.0000
     16 ****         1.3977  -3.3274  -2.8751 C.3            1 S1                 0.0000
     17 ****         1.2628  -3.7491  -4.3480 C.3            1 S1                 0.0000
     18 ****         2.4085  -3.3250  -5.0766 O.3            1 S1                 0.0000
     19 ****         2.5368  -1.9083  -5.0737 C.3            1 S1                 0.0000
     20 ****         2.7275  -1.4076  -3.6324 C.3            1 S1                 0.0000
     21 ****         1.7339   0.0534  -1.4107 N.pl3          1 S1                 1.0000
     22 ****         1.6333   0.7583  -0.2623 C.ar           1 S1                 0.0000
     23 ****        -2.8409   4.0899   0.5164 H              1 S1                 0.0000
     24 ****        -2.5613   2.3614   0.6770 H              1 S1                 0.0000
     25 ****        -1.2774   3.5048   1.0556 H              1 S1                 0.0000
     26 ****        -2.5620   4.3763   3.0048 H              1 S1                 0.0000
     27 ****        -3.9294   3.3732   2.6079 H              1 S1                 0.0000
     28 ****        -2.6840   0.5370   4.4498 H              1 S1                 0.0000
     29 ****        -4.0740   1.5606   4.2149 H              1 S1                 0.0000
     30 ****        -4.1414  -0.4796   2.7466 H              1 S1                 0.0000
     31 ****        -2.6595   0.0281   1.9505 H              1 S1                 0.0000
     32 ****        -4.1340   0.9828   1.7777 H              1 S1                 0.0000
     33 ****         1.8243   1.7478   2.1854 H              1 S1                 0.0000
     34 ****         1.5452   0.2653   3.0498 H              1 S1                 0.0000
     35 ****         0.8024  -1.8393   1.7998 H              1 S1                 0.0000
     36 ****         1.0094  -3.0498  -0.3162 H              1 S1                 0.0000
     37 ****         2.2150  -3.8717  -2.4003 H              1 S1                 0.0000
     38 ****         0.4768  -3.5925  -2.3554 H              1 S1                 0.0000
     39 ****         1.1764  -4.8332  -4.4209 H              1 S1                 0.0000
     40 ****         0.3593  -3.3281  -4.7923 H              1 S1                 0.0000
     41 ****         3.3951  -1.6282  -5.6842 H              1 S1                 0.0000
     42 ****         1.6585  -1.4506  -5.5320 H              1 S1                 0.0000
     43 ****         2.7714  -0.3187  -3.6477 H              1 S1                 0.0000
     44 ****         3.6803  -1.7614  -3.2368 H              1 S1                 0.0000
     45 ****         1.8176   1.8202  -0.3526 H              1 S1                 0.0000
     46 ****         1.9720   0.5619  -2.2619 H              1 S1                 0.0000
     47 ****        -0.9383   0.9562   1.8489 LP             1 S1                 0.0000
     48 ****         0.8217  -1.5110  -3.1816 LP             1 S1                 0.0000
     49 ****         2.3273  -3.6415  -6.0217 LP             1 S1                 0.0000
     50 ****         3.2245  -3.7255  -4.6599 LP             1 S1                 0.0000
@<TRIPOS>BOND
    1    1    2 1     
    2    1   23 1     
    3    1   24 1     
    4    1   25 1     
    5    2    3 1     
    6    2   26 1     
    7    2   27 1     
    8    3    4 1     
    9    3    6 1     
   10    4    5 1     
   11    4   28 1     
   12    4   29 1     
   13    5   30 1     
   14    5   31 1     
   15    5   32 1     
   16    6    7 2     
   17    6    8 2     
   18    6    9 1     
   19    9   10 1     
   20   10   11 1     
   21   10   33 1     
   22   10   34 1     
   23   11   22 ar    
   24   11   12 ar    
   25   12   13 ar    
   26   12   35 1     
   27   13   14 ar    
   28   13   36 1     
   29   14   15 1     
   30   14   21 ar    
   31   15   20 1     
   32   15   16 1     
   33   16   17 1     
   34   16   37 1     
   35   16   38 1     
   36   17   18 1     
   37   17   39 1     
   38   17   40 1     
   39   18   19 1     
   40   19   20 1     
   41   19   41 1     
   42   19   42 1     
   43   20   43 1     
   44   20   44 1     
   45   21   22 ar    
   46   21   46 1     
   47   22   45 1     
   48    9   47 1     
   49   15   48 1     
   50   18   49 1     
   51   18   50 1     
@<TRIPOS>SUBSTRUCTURE
      1 S1             1
@<TRIPOS>SET
LONE_PAIRS      STATIC     ATOMS    <user>   **** ""
6 7 8 47 48 49 50
DONOR_HYDROGENS      STATIC     ATOMS    <user>   **** ""
1 46
ATOM$BLUE        STATIC     ATOMS    COLORGROUP SYSTEM
6 7 8 47 48 49 50
ATOM$RED        STATIC     ATOMS    COLORGROUP SYSTEM
1 46
