AV-unprocessed.smi:1816|AV-procd|sdf|7366|dock2
  -GOLD-   22720 9 33D 1   1.00000     0.00000
 Structure written by MMmdl.
 35 36  0  0  0  0  0  0  0  0  3 V2000
  150.3519  135.6247  154.9143 C   0  0  0  0  0  0  0  0  0  0  0  0
  148.8748  135.2568  155.1785 C   0  0  2  0  0  0  0  0  0  0  0  0
  148.7784  134.2133  156.3187 C   0  0  0  0  0  0  0  0  0  0  0  0
  149.1720  134.7641  157.6149 N   0  0  0  0  0  0  0  0  0  0  0  0
  148.4851  135.6456  158.3550 C   0  0  0  0  0  0  0  0  0  0  0  0
  147.4289  136.1181  157.9312 O   0  0  0  0  0  0  0  0  0  0  0  0
  149.0576  135.9111  159.5494 N   0  5  0  0  0  0  0  0  0  0  0  0
  148.3162  135.8854  160.6689 C   0  0  0  0  0  0  0  0  0  0  0  0
  148.3900  136.8309  161.6127 N   0  0  0  0  0  0  0  0  0  0  0  0
  147.5275  136.6096  162.6880 C   0  0  0  0  0  0  0  0  0  0  0  0
  146.7761  135.4720  162.5572 C   0  0  0  0  0  0  0  0  0  0  0  0
  147.1290  134.6411  161.0689 S   0  0  0  0  0  0  0  0  0  0  0  0
  148.1779  134.7808  153.9477 N   0  3  0  0  0  0  0  0  0  0  0  0
  148.4118  133.3618  153.6090 C   0  0  0  0  0  0  0  0  0  0  0  0
  147.3645  133.0359  152.5476 C   0  0  0  0  0  0  0  0  0  0  0  0
  146.1776  133.9424  152.8850 C   0  0  0  0  0  0  0  0  0  0  0  0
  146.7078  134.9476  153.9164 C   0  0  0  0  0  0  0  0  0  0  0  0
  150.8590  135.8862  155.8433 H   0  0  0  0  0  0  0  0  0  0  0  0
  150.4478  136.4860  154.2535 H   0  0  0  0  0  0  0  0  0  0  0  0
  150.8992  134.7963  154.4630 H   0  0  0  0  0  0  0  0  0  0  0  0
  148.3742  136.1670  155.5121 H   0  0  0  0  0  0  0  0  0  0  0  0
  147.7457  133.8761  156.4115 H   0  0  0  0  0  0  0  0  0  0  0  0
  149.3545  133.3166  156.0878 H   0  0  0  0  0  0  0  0  0  0  0  0
  150.0371  134.4198  158.0062 H   0  0  0  0  0  0  0  0  0  0  0  0
  147.5139  137.3150  163.5055 H   0  0  0  0  0  0  0  0  0  0  0  0
  146.0398  135.0751  163.2394 H   0  0  0  0  0  0  0  0  0  0  0  0
  149.4235  133.1693  153.2546 H   0  0  0  0  0  0  0  0  0  0  0  0
  148.2443  132.7422  154.4915 H   0  0  0  0  0  0  0  0  0  0  0  0
  147.7523  133.2925  151.5608 H   0  0  0  0  0  0  0  0  0  0  0  0
  147.0988  131.9783  152.5352 H   0  0  0  0  0  0  0  0  0  0  0  0
  145.8141  134.4478  151.9891 H   0  0  0  0  0  0  0  0  0  0  0  0
  145.3471  133.3699  153.2998 H   0  0  0  0  0  0  0  0  0  0  0  0
  146.2902  134.7077  154.8956 H   0  0  0  0  0  0  0  0  0  0  0  0
  146.4288  135.9726  153.6699 H   0  0  0  0  0  0  0  0  0  0  0  0
  148.5391  135.3239  153.1754 H   0  0  0  0  0  0  0  0  0  0  0  0
  1  2  1  0  0  0  0
  1 18  1  0  0  0  0
  1 19  1  0  0  0  0
  1 20  1  0  0  0  0
  2  3  1  0  0  0  0
  2 13  1  0  0  0  0
  2 21  1  0  0  0  0
  3  4  1  0  0  0  0
  3 22  1  0  0  0  0
  3 23  1  0  0  0  0
  4  5  1  0  0  0  0
  4 24  1  0  0  0  0
  5  6  2  0  0  0  0
  5  7  1  0  0  0  0
  7  8  1  0  0  0  0
  8 12  1  0  0  0  0
  8  9  2  0  0  0  0
  9 10  1  0  0  0  0
 10 11  2  0  0  0  0
 10 25  1  0  0  0  0
 11 12  1  0  0  0  0
 11 26  1  0  0  0  0
 13 17  1  0  0  0  0
 13 14  1  0  0  0  0
 13 35  1  0  0  0  0
 14 15  1  0  0  0  0
 14 27  1  0  0  0  0
 14 28  1  0  0  0  0
 15 16  1  0  0  0  0
 15 29  1  0  0  0  0
 15 30  1  0  0  0  0
 16 17  1  0  0  0  0
 16 31  1  0  0  0  0
 16 32  1  0  0  0  0
 17 33  1  0  0  0  0
 17 34  1  0  0  0  0
M  CHG  1   7  -1
M  CHG  1  13   1
M  END
> <s_m_source_file>
AV-unprocessed.smi

> <i_m_source_file_index>
1816

> <i_lp_mmshare_version>
43012

> <i_f3d_flags>
0

> <s_epik_input>
W0NIMl0xW0NIMl1bQ0gyXVtDSDJdTjFbQ0BIXShbQ0gzXSlbQ0gyXVtOSF1DKD1PKVtOSF1jMm5bY0hdW2NIXXMy

> <s_epik_cmdline>
J2VwaWtfcHl0aG9uJywgJy1waCcsICc3LjAnLCAnLXRuJywgJzgnLCAnLW1hJywgJzIwMCcsICctbWV0YWxfYmluZGluZycsICctaW1hZScsICc8aW5maWxlLm1hZT4nLCAnLW9tYWUnLCAnPG91dGZpbGUubWFlPic=

> <r_lp_tautomer_probability>
0.999

> <r_epik_Ionization_Penalty>
6.21769

> <r_epik_Ionization_Penalty_Charging>
5.38662

> <r_epik_Ionization_Penalty_Neutral>
0.831074

> <r_epik_State_Penalty>
5.38626

> <r_epik_Charging_Adjusted_Penalty>
10.7729

> <i_epik_Tot_Q>
0

> <i_epik_Tot_abs_Q>
2

> <r_epik_Metal_State_Penalty>
1.41347

> <b_epik_Metal_Only>
1

> <s_lp_Force_Field>
OPLS_2005

> <r_lp_Energy>
25.8125

> <b_lp_Chiralities_Consistent>
1

> <s_lp_Variant>
AV-unprocessed.smi:1816-3

> <Gold.Version>
5.8.1

> <Gold.Id.Protein>
6NUR|6NUR_protein|mol2

> <Gold.PLP.Fitness>
40.6470

> <Gold.PLP.PLP>
-28.1135

> <Gold.PLP.part.hbond>
-3.0372

> <Gold.PLP.part.metal>
0.0000

> <Gold.PLP.part.buried>
-3.4558

> <Gold.PLP.part.nonpolar>
-22.7108

> <Gold.PLP.part.repulsive>
0.4203

> <Gold.PLP.ligand.clash>
0.0000

> <Gold.PLP.ligand.torsion>
1.3146

> <Gold.PLP.Chemscore.Hbond>
5.0000

> <Gold.PLP.Chemscore.CHOScore>
0.0000

> <Gold.PLP.Chemscore.Metal>
0.0000

> <Gold.Chemscore.Hbonds>
donor molecule, donor type, donor heavy atom, donor atom, acceptor molecule, acceptor atom, score
      L1  H    13    35       P1  7948  2.00
      P1  H  6896  6908       L1     7  1.85
      P1  H  6931  6943       L1     9  1.00

> <Gold.PLP.Chemscore.Internal.Correction>
0.1628

> <Gold.Rescore>
     Score         DG    S(hbond)    S(metal)    S(lipo)     H(rot)  DE(clash)    DE(int)     intcor
     14.72     -16.18       2.41        0.00      57.01       1.57       0.14       1.32       ----

> <Gold.Chemscore.Fitness>
14.7181

> <Gold.Chemscore.DG>
-16.1752

> <Gold.Chemscore.ZeroCoef>
-5.4800

> <Gold.Chemscore.Hbond>
2.4094

> <Gold.Chemscore.Metal>
0.0000

> <Gold.Chemscore.Lipo>
57.0064

> <Gold.Chemscore.Internal_Hbond>
0.0000

> <Gold.Chemscore.DEClash>
0.1403

> <Gold.Chemscore.DEInternal>
1.3168

> <Gold.Chemscore.Rot>
1.5710

> <Gold.Chemscore.Internal.Correction>
   9.000000E+99

> <Gold.Chemscore.Hbonds>
donor molecule, donor type, donor heavy atom, donor atom, acceptor molecule, acceptor atom, score
      L1  H    13    35       P1  7948  0.92
      P1  H  6896  6908       L1     7  0.53
      P1  H  6931  6943       L1     9  0.44

> <Gold.Chemscore.Hbond.Weighted>
-8.0474

> <Gold.Chemscore.Metal.Weighted>
-0.0000

> <Gold.Chemscore.Lipo.Weighted>
-6.6697

> <Gold.Chemscore.Internal_Hbond.Weighted>
0.0000

> <Gold.Chemscore.DEClash.Weighted>
0.1403

> <Gold.Chemscore.DEInternal.Weighted>
1.3168

> <Gold.Chemscore.Rot.Weighted>
4.0219

> <Gold.Chemscore.Internal.Correction.Weighted>
   9.000000E+99

> <Gold.Protein.RotatedTorsions>
[ 6907 6896 6895 6894 ] final -171.05 input  -60.11 | X-H torsion
[ 7974 7965 7964 7962 ] final   60.92 input  175.53 | X-H torsion
[ 8008 7997 7996 7995 ] final   18.71 input   59.86 | X-H torsion
[ 10167 10162 10161 10158 ] final  -57.76 input  -65.29 | X-H torsion
[ 10718 10713 10712 10709 ] final -115.27 input   66.30 | X-H torsion
[ 10763 10752 10751 10750 ] final   16.29 input  -60.55 | X-H torsion
[ 11005 11000 10999 10996 ] final  -82.13 input  -57.11 | X-H torsion

> <Gold.Protein.ActiveResidues>
 VAL166  LYS551  ARG553  GLY616  TRP617  ASP618  TYR619  PRO620  LYS621  CYS622 
 ASP623  PHE694  ASN695  SER759  ASP760  ASP761  ALA762  ILE779  LEU786  VAL792 
 PHE793  MET794  SER795  GLU796  ALA797  LYS798  CYS799  TRP800  GLU811  SER814 

> <Gold.Protein.RotatedAtoms>
  151.5176  133.3472  159.2895 H   0  0  0  0  0  0  0  0  0  0  0  0  # atno 6907 bound_to 6896
  150.8672  134.8041  159.7139 H   0  0  0  0  0  0  0  0  0  0  0  0  # atno 6908 bound_to 6896
  152.4673  134.5055  159.9789 H   0  0  0  0  0  0  0  0  0  0  0  0  # atno 6909 bound_to 6896
  145.8906  139.3508  143.0651 H   0  0  0  0  0  0  0  0  0  0  0  0  # atno 7974 bound_to 7965
  154.9101  140.3013  155.5271 H   0  0  0  0  0  0  0  0  0  0  0  0  # atno 8008 bound_to 7997
  156.3015  140.2391  156.4074 H   0  0  0  0  0  0  0  0  0  0  0  0  # atno 8009 bound_to 7997
  154.8434  140.0412  157.1545 H   0  0  0  0  0  0  0  0  0  0  0  0  # atno 8010 bound_to 7997
  140.6238  143.2430  151.5414 H   0  0  0  0  0  0  0  0  0  0  0  0  # atno 10167 bound_to 10162
  156.0884  130.6071  150.8884 H   0  0  0  0  0  0  0  0  0  0  0  0  # atno 10718 bound_to 10713
  153.1444  135.6766  153.8977 H   0  0  0  0  0  0  0  0  0  0  0  0  # atno 10763 bound_to 10752
  153.8423  135.3104  155.3428 H   0  0  0  0  0  0  0  0  0  0  0  0  # atno 10764 bound_to 10752
  154.7814  135.4886  153.9936 H   0  0  0  0  0  0  0  0  0  0  0  0  # atno 10765 bound_to 10752
  141.1664  133.7230  156.8526 H   0  0  0  0  0  0  0  0  0  0  0  0  # atno 11005 bound_to 11000
  145.8913  140.9302  143.0551 LP  0  0  0  0  0  0  0  0  0  0  0  0  # atno 17320 bound_to 7965
  144.6730  140.0909  143.7465 LP  0  0  0  0  0  0  0  0  0  0  0  0  # atno 17321 bound_to 7965
  139.5462  144.2515  152.1446 LP  0  0  0  0  0  0  0  0  0  0  0  0  # atno 17342 bound_to 10162
  140.1742  144.4907  150.6563 LP  0  0  0  0  0  0  0  0  0  0  0  0  # atno 17343 bound_to 10162
  157.6026  131.0940  150.8934 LP  0  0  0  0  0  0  0  0  0  0  0  0  # atno 17370 bound_to 10713
  156.9088  130.5273  149.5281 LP  0  0  0  0  0  0  0  0  0  0  0  0  # atno 17371 bound_to 10713
  140.1905  134.8969  157.3054 LP  0  0  0  0  0  0  0  0  0  0  0  0  # atno 17394 bound_to 11000
  140.2296  134.3925  155.7528 LP  0  0  0  0  0  0  0  0  0  0  0  0  # atno 17395 bound_to 11000

$$$$
