AV-unprocessed.smi:1899|AV-procd|sdf|7708|dock7
  -GOLD-   22720 9443D 1   1.00000     0.00000
 Structure written by MMmdl.
 33 34  0  0  0  0  0  0  0  0  1 V2000
  151.3933  140.7232  156.6235 O   0  0  0  0  0  0  0  0  0  0  0  0
  150.8221  141.8011  156.7910 C   0  0  0  0  0  0  0  0  0  0  0  0
  149.9238  142.2981  155.9272 N   0  0  0  0  0  0  0  0  0  0  0  0
  149.4667  141.6319  154.7115 C   0  0  0  0  0  0  0  0  0  0  0  0
  148.7770  140.2847  155.0017 C   0  0  0  0  0  0  0  0  0  0  0  0
  149.7047  139.1702  154.9566 N   0  0  0  0  0  0  0  0  0  0  0  0
  150.3956  138.6989  153.8483 C   0  0  0  0  0  0  0  0  0  0  0  0
  151.1468  137.6291  154.2800 C   0  0  0  0  0  0  0  0  0  0  0  0
  150.9349  137.4256  155.6418 N   0  0  0  0  0  0  0  0  0  0  0  0
  150.0718  138.3771  155.9729 C   0  0  0  0  0  0  0  0  0  0  0  0
  151.1121  142.6451  158.0387 C   0  0  1  0  0  0  0  0  0  0  0  0
  152.1223  141.9315  158.9663 C   0  0  0  0  0  0  0  0  0  0  0  0
  152.6360  142.8431  160.0668 C   0  0  0  0  0  0  0  0  0  0  0  0
  152.4987  144.1799  160.0443 C   0  0  0  0  0  0  0  0  0  0  0  0
  151.8170  144.9310  158.9143 C   0  0  0  0  0  0  0  0  0  0  0  0
  151.6210  144.0519  157.6647 C   0  0  0  0  0  0  0  0  0  0  0  0
  149.5053  143.1919  156.1414 H   0  0  0  0  0  0  0  0  0  0  0  0
  148.7771  142.2993  154.1939 H   0  0  0  0  0  0  0  0  0  0  0  0
  150.3119  141.4815  154.0381 H   0  0  0  0  0  0  0  0  0  0  0  0
  148.3209  140.3080  155.9919 H   0  0  0  0  0  0  0  0  0  0  0  0
  147.9683  140.0991  154.2935 H   0  0  0  0  0  0  0  0  0  0  0  0
  150.2969  139.1498  152.8718 H   0  0  0  0  0  0  0  0  0  0  0  0
  151.8177  136.9948  153.7195 H   0  0  0  0  0  0  0  0  0  0  0  0
  149.6919  138.4963  156.9771 H   0  0  0  0  0  0  0  0  0  0  0  0
  150.1780  142.7703  158.5900 H   0  0  0  0  0  0  0  0  0  0  0  0
  151.6491  141.0638  159.4273 H   0  0  0  0  0  0  0  0  0  0  0  0
  152.9836  141.5627  158.4074 H   0  0  0  0  0  0  0  0  0  0  0  0
  153.1454  142.3698  160.8934 H   0  0  0  0  0  0  0  0  0  0  0  0
  152.8758  144.7724  160.8649 H   0  0  0  0  0  0  0  0  0  0  0  0
  150.8536  145.2874  159.2796 H   0  0  0  0  0  0  0  0  0  0  0  0
  152.4064  145.8122  158.6595 H   0  0  0  0  0  0  0  0  0  0  0  0
  152.5728  143.9668  157.1375 H   0  0  0  0  0  0  0  0  0  0  0  0
  150.9320  144.5430  156.9760 H   0  0  0  0  0  0  0  0  0  0  0  0
  1  2  2  0  0  0  0
  2  3  1  0  0  0  0
  2 11  1  0  0  0  0
  3  4  1  0  0  0  0
  3 17  1  0  0  0  0
  4  5  1  0  0  0  0
  4 18  1  0  0  0  0
  4 19  1  0  0  0  0
  5  6  1  0  0  0  0
  5 20  1  0  0  0  0
  5 21  1  0  0  0  0
  6 10  1  0  0  0  0
  6  7  1  0  0  0  0
  7  8  2  0  0  0  0
  7 22  1  0  0  0  0
  8  9  1  0  0  0  0
  8 23  1  0  0  0  0
  9 10  2  0  0  0  0
 10 24  1  0  0  0  0
 11 16  1  0  0  0  0
 11 12  1  0  0  0  0
 11 25  1  0  0  0  0
 12 13  1  0  0  0  0
 12 26  1  0  0  0  0
 12 27  1  0  0  0  0
 13 14  2  0  0  0  0
 13 28  1  0  0  0  0
 14 15  1  0  0  0  0
 14 29  1  0  0  0  0
 15 16  1  0  0  0  0
 15 30  1  0  0  0  0
 15 31  1  0  0  0  0
 16 32  1  0  0  0  0
 16 33  1  0  0  0  0
M  END
> <s_m_source_file>
AV-unprocessed.smi

> <i_m_source_file_index>
1899

> <i_lp_mmshare_version>
43012

> <i_f3d_flags>
0

> <s_epik_input>
W0NIMl0xW0NIMl1bQ0hdPVtDSF1bQ0gyXVtDQEhdMUMoPU8pW05IXVtDSDJdW0NIMl1uMltjSF1bY0hdbltjSF0y

> <s_epik_cmdline>
J2VwaWtfcHl0aG9uJywgJy1waCcsICc3LjAnLCAnLXRuJywgJzgnLCAnLW1hJywgJzIwMCcsICctbWV0YWxfYmluZGluZycsICctaW1hZScsICc8aW5maWxlLm1hZT4nLCAnLW9tYWUnLCAnPG91dGZpbGUubWFlPic=

> <r_lp_tautomer_probability>
1

> <r_epik_Ionization_Penalty>
0.598506

> <r_epik_Ionization_Penalty_Charging>
0.598506

> <r_epik_Ionization_Penalty_Neutral>
1.57027e-08

> <r_epik_State_Penalty>
0.612686

> <r_epik_Charging_Adjusted_Penalty>
1.21119

> <i_epik_Tot_Q>
0

> <i_epik_Tot_abs_Q>
0

> <r_epik_Metal_State_Penalty>
0.300712

> <b_epik_Metal_Only>
0

> <s_lp_Force_Field>
OPLS_2005

> <r_lp_Energy>
10.0214

> <b_lp_Chiralities_Consistent>
1

> <s_lp_Variant>
AV-unprocessed.smi:1899-4

> <Gold.Version>
5.8.1

> <Gold.Id.Protein>
6NUR|6NUR_protein|mol2

> <Gold.PLP.Fitness>
43.9816

> <Gold.PLP.PLP>
-35.8763

> <Gold.PLP.part.hbond>
-1.0000

> <Gold.PLP.part.metal>
0.0000

> <Gold.PLP.part.buried>
-1.6820

> <Gold.PLP.part.nonpolar>
-32.1641

> <Gold.PLP.part.repulsive>
0.2016

> <Gold.PLP.ligand.clash>
0.0000

> <Gold.PLP.ligand.torsion>
0.2456

> <Gold.PLP.Chemscore.Hbond>
1.0000

> <Gold.PLP.Chemscore.CHOScore>
1.8572

> <Gold.PLP.Chemscore.Metal>
0.0000

> <Gold.Chemscore.Hbonds>
donor molecule, donor type, donor heavy atom, donor atom, acceptor molecule, acceptor atom, score
      L1  H     3    17       P1  8028  1.00
      L1  C     7    22       P1  7957  1.00
      L1  C     8    23       P1  7949  0.85

> <Gold.PLP.Chemscore.Internal.Correction>
0.0251

> <Gold.Rescore>
     Score         DG    S(hbond)    S(metal)    S(lipo)     H(rot)  DE(clash)    DE(int)     intcor
     15.03     -15.41       0.99        0.00      96.08       1.80       0.00       0.37       ----

> <Gold.Chemscore.Fitness>
15.0349

> <Gold.Chemscore.DG>
-15.4083

> <Gold.Chemscore.ZeroCoef>
-5.4800

> <Gold.Chemscore.Hbond>
0.9903

> <Gold.Chemscore.Metal>
0.0000

> <Gold.Chemscore.Lipo>
96.0770

> <Gold.Chemscore.Internal_Hbond>
0.0000

> <Gold.Chemscore.DEClash>
0.0038

> <Gold.Chemscore.DEInternal>
0.3696

> <Gold.Chemscore.Rot>
1.8048

> <Gold.Chemscore.Internal.Correction>
   9.000000E+99

> <Gold.Chemscore.Hbonds>
donor molecule, donor type, donor heavy atom, donor atom, acceptor molecule, acceptor atom, score
      L1  H     3    17       P1  8028  0.95

> <Gold.Chemscore.Hbond.Weighted>
-3.3076

> <Gold.Chemscore.Metal.Weighted>
-0.0000

> <Gold.Chemscore.Lipo.Weighted>
-11.2410

> <Gold.Chemscore.Internal_Hbond.Weighted>
0.0000

> <Gold.Chemscore.DEClash.Weighted>
0.0038

> <Gold.Chemscore.DEInternal.Weighted>
0.3696

> <Gold.Chemscore.Rot.Weighted>
4.6203

> <Gold.Chemscore.Internal.Correction.Weighted>
   9.000000E+99

> <Gold.Protein.RotatedTorsions>
[ 6907 6896 6895 6894 ] final  -94.97 input  -60.11 | X-H torsion
[ 7974 7965 7964 7962 ] final  -76.63 input  175.53 | X-H torsion
[ 8008 7997 7996 7995 ] final -124.21 input   59.86 | X-H torsion
[ 10167 10162 10161 10158 ] final -116.32 input  -65.29 | X-H torsion
[ 10718 10713 10712 10709 ] final -165.13 input   66.30 | X-H torsion
[ 10763 10752 10751 10750 ] final  140.39 input  -60.55 | X-H torsion
[ 11005 11000 10999 10996 ] final  -34.27 input  -57.11 | X-H torsion

> <Gold.Protein.ActiveResidues>
 VAL166  LYS551  ARG553  GLY616  TRP617  ASP618  TYR619  PRO620  LYS621  CYS622 
 ASP623  PHE694  ASN695  SER759  ASP760  ASP761  ALA762  ILE779  LEU786  VAL792 
 PHE793  MET794  SER795  GLU796  ALA797  LYS798  CYS799  TRP800  GLU811  SER814 

> <Gold.Protein.RotatedAtoms>
  150.6953  134.1730  159.4219 H   0  0  0  0  0  0  0  0  0  0  0  0  # atno 6907 bound_to 6896
  151.9707  135.0076  160.0562 H   0  0  0  0  0  0  0  0  0  0  0  0  # atno 6908 bound_to 6896
  152.1844  133.4694  159.5012 H   0  0  0  0  0  0  0  0  0  0  0  0  # atno 6909 bound_to 6896
  145.6103  140.9388  143.1193 H   0  0  0  0  0  0  0  0  0  0  0  0  # atno 7974 bound_to 7965
  155.1932  140.0414  157.2904 H   0  0  0  0  0  0  0  0  0  0  0  0  # atno 8008 bound_to 7997
  154.6124  140.2480  155.7623 H   0  0  0  0  0  0  0  0  0  0  0  0  # atno 8009 bound_to 7997
  156.2387  140.2912  156.0393 H   0  0  0  0  0  0  0  0  0  0  0  0  # atno 8010 bound_to 7997
  140.0805  143.4792  152.1928 H   0  0  0  0  0  0  0  0  0  0  0  0  # atno 10167 bound_to 10162
  156.6490  130.9000  151.3010 H   0  0  0  0  0  0  0  0  0  0  0  0  # atno 10718 bound_to 10713
  153.9219  135.2999  155.3447 H   0  0  0  0  0  0  0  0  0  0  0  0  # atno 10763 bound_to 10752
  154.7571  135.4952  153.9398 H   0  0  0  0  0  0  0  0  0  0  0  0  # atno 10764 bound_to 10752
  153.1137  135.6765  153.9558 H   0  0  0  0  0  0  0  0  0  0  0  0  # atno 10765 bound_to 10752
  140.9703  133.7113  156.1513 H   0  0  0  0  0  0  0  0  0  0  0  0  # atno 11005 bound_to 11000
  144.7273  139.7836  143.7360 LP  0  0  0  0  0  0  0  0  0  0  0  0  # atno 17320 bound_to 7965
  146.1509  139.4592  143.0049 LP  0  0  0  0  0  0  0  0  0  0  0  0  # atno 17321 bound_to 7965
  139.5782  144.7498  151.3709 LP  0  0  0  0  0  0  0  0  0  0  0  0  # atno 17342 bound_to 10162
  140.7080  143.7464  150.7516 LP  0  0  0  0  0  0  0  0  0  0  0  0  # atno 17343 bound_to 10162
  157.7147  130.9482  150.1212 LP  0  0  0  0  0  0  0  0  0  0  0  0  # atno 17370 bound_to 10713
  156.2099  130.3666  149.8683 LP  0  0  0  0  0  0  0  0  0  0  0  0  # atno 17371 bound_to 10713
  140.7339  134.4224  157.5563 LP  0  0  0  0  0  0  0  0  0  0  0  0  # atno 17394 bound_to 11000
  139.8910  134.8791  156.2343 LP  0  0  0  0  0  0  0  0  0  0  0  0  # atno 17395 bound_to 11000

$$$$
