#       Name:                AV-unprocessed.smi:671
#       Creating user name   scv26
#       Creation time:       Fri Mar 27 00:24:24 2020


#       File generated by GOLD software.
#

@<TRIPOS>MOLECULE
AV-unprocessed.smi:671
    52    53     1
SMALL
NO_CHARGES


@<TRIPOS>ATOM
      1 ****         4.2210   0.6167   5.4291 C.3            1 S1                 0.0000
      2 ****         4.1909  -0.8716   5.5240 C.2            1 S1                 0.0000
      3 ****         4.5833  -1.5791   6.6173 N.pl3          1 S1                 1.0000
      4 ****         4.4416  -2.8936   6.3946 N.pl3          1 S1                 0.0000
      5 ****         4.8064  -3.8335   7.4550 C.3            1 S1                 0.0000
      6 ****         3.9463  -3.1080   5.1427 C.2            1 S1                 0.0000
      7 ****         3.6600  -4.4540   4.5619 C.3            1 S1                 0.0000
      8 ****         3.7840  -1.8312   4.5898 C.2            1 S1                 0.0000
      9 ****         3.2586  -1.5385   3.2120 C.3            1 S1                 0.0000
     10 ****         1.7288  -1.7169   3.0902 C.3            1 S1                 0.0000
     11 ****         0.9461  -0.7306   3.9715 C.3            1 S1                 0.0000
     12 ****         1.3093  -1.5384   1.6985 N.am           1 S1                 0.0000
     13 ****         1.3559  -2.4276   0.6896 C.2            1 S1                 0.0000
     14 ****         1.7963  -3.5640   0.8494 O.2            1 S1                 0.0000
     15 ****         0.8950  -1.9680  -0.4868 N.am           1 S1                 0.0000
     16 ****         0.8231  -2.7311  -1.7333 C.3            1 S1                 0.0000
     17 ****        -0.4368  -2.3273  -2.5115 C.3            1 S1                 0.0000
     18 ****         0.0376  -1.2877  -3.5225 C.3            1 S1                 0.0000
     19 ****         1.4272  -1.7683  -3.9317 C.3            1 S1                 0.0000
     20 ****         2.0159  -2.4767  -2.6981 C.3            1 S1                 0.0000
     21 ****         3.2222  -1.7195  -2.1095 C.3            1 S1                 0.0000
     22 ****         4.9477   0.9297   4.6790 H              1 S1                 0.0000
     23 ****         4.4977   1.0581   6.3870 H              1 S1                 0.0000
     24 ****         3.2399   0.9966   5.1435 H              1 S1                 0.0000
     25 ****         5.1590  -4.7648   7.0115 H              1 S1                 0.0000
     26 ****         3.9294  -4.0315   8.0714 H              1 S1                 0.0000
     27 ****         5.6000  -3.4084   8.0709 H              1 S1                 0.0000
     28 ****         3.3885  -4.3701   3.5108 H              1 S1                 0.0000
     29 ****         2.8346  -4.9257   5.0952 H              1 S1                 0.0000
     30 ****         4.5382  -5.0952   4.6366 H              1 S1                 0.0000
     31 ****         3.5278  -0.5247   2.9130 H              1 S1                 0.0000
     32 ****         3.7633  -2.1878   2.4960 H              1 S1                 0.0000
     33 ****         1.4568  -2.7221   3.4160 H              1 S1                 0.0000
     34 ****         1.1828  -0.8620   5.0275 H              1 S1                 0.0000
     35 ****        -0.1290  -0.8759   3.8612 H              1 S1                 0.0000
     36 ****         1.1696   0.3033   3.7058 H              1 S1                 0.0000
     37 ****         0.9519  -0.6228   1.4659 H              1 S1                 0.0000
     38 ****         0.5651  -1.0150  -0.5224 H              1 S1                 0.0000
     39 ****         0.7580  -3.7947  -1.4960 H              1 S1                 0.0000
     40 ****        -0.8238  -3.1955  -3.0471 H              1 S1                 0.0000
     41 ****        -1.2416  -1.9567  -1.8748 H              1 S1                 0.0000
     42 ****        -0.6391  -1.1883  -4.3717 H              1 S1                 0.0000
     43 ****         0.1161  -0.3119  -3.0426 H              1 S1                 0.0000
     44 ****         1.3336  -2.4845  -4.7492 H              1 S1                 0.0000
     45 ****         2.0496  -0.9490  -4.2936 H              1 S1                 0.0000
     46 ****         2.3877  -3.4479  -3.0280 H              1 S1                 0.0000
     47 ****         2.9471  -0.7179  -1.7771 H              1 S1                 0.0000
     48 ****         4.0116  -1.6118  -2.8537 H              1 S1                 0.0000
     49 ****         3.6495  -2.2541  -1.2609 H              1 S1                 0.0000
     50 ****         4.9396  -1.2327   7.4993 H              1 S1                 0.0000
     51 ****         2.1320  -3.8484   1.7473 LP             1 S1                 0.0000
     52 ****         1.8188  -4.2040   0.0814 LP             1 S1                 0.0000
@<TRIPOS>BOND
    1    1    2 1     
    2    1   22 1     
    3    1   23 1     
    4    1   24 1     
    5    2    8 1     
    6    2    3 2     
    7    3    4 1     
    8    3   50 1     
    9    4    5 1     
   10    4    6 1     
   11    5   25 1     
   12    5   26 1     
   13    5   27 1     
   14    6    7 1     
   15    6    8 2     
   16    7   28 1     
   17    7   29 1     
   18    7   30 1     
   19    8    9 1     
   20    9   10 1     
   21    9   31 1     
   22    9   32 1     
   23   10   11 1     
   24   10   12 1     
   25   10   33 1     
   26   11   34 1     
   27   11   35 1     
   28   11   36 1     
   29   12   13 am    
   30   12   37 1     
   31   13   14 2     
   32   13   15 am    
   33   15   16 1     
   34   15   38 1     
   35   16   20 1     
   36   16   17 1     
   37   16   39 1     
   38   17   18 1     
   39   17   40 1     
   40   17   41 1     
   41   18   19 1     
   42   18   42 1     
   43   18   43 1     
   44   19   20 1     
   45   19   44 1     
   46   19   45 1     
   47   20   21 1     
   48   20   46 1     
   49   21   47 1     
   50   21   48 1     
   51   21   49 1     
   52   14   51 1     
   53   14   52 1     
@<TRIPOS>SUBSTRUCTURE
      1 S1             1
@<TRIPOS>SET
LONE_PAIRS      STATIC     ATOMS    <user>   **** ""
2 51 52
DONOR_HYDROGENS      STATIC     ATOMS    <user>   **** ""
3 50 37 38
ATOM$BLUE        STATIC     ATOMS    COLORGROUP SYSTEM
2 51 52
ATOM$RED        STATIC     ATOMS    COLORGROUP SYSTEM
3 50 37 38
