AV-unprocessed.smi:34|AV-procd|sdf|225|dock5
  -GOLD-   2262015543D 1   1.00000     0.00000
 Structure written by MMmdl.
 55 59  0  0  0  0  0  0  0  0  1 V2000
  154.0997  139.9875  160.3089 O   0  0  0  0  0  0  0  0  0  0  0  0
  153.2024  140.6507  159.7880 C   0  0  0  0  0  0  0  0  0  0  0  0
  152.5089  140.2076  158.5910 N   0  0  0  0  0  0  0  0  0  0  0  0
  152.6540  139.0385  157.9240 C   0  0  0  0  0  0  0  0  0  0  0  0
  153.8690  138.5581  157.5502 N   0  0  0  0  0  0  0  0  0  0  0  0
  153.9608  137.3984  156.8935 C   0  0  0  0  0  0  0  0  0  0  0  0
  152.9813  136.5741  156.5182 N   0  0  0  0  0  0  0  0  0  0  0  0
  151.7568  137.0482  156.8885 C   0  0  0  0  0  0  0  0  0  0  0  0
  151.5135  138.2631  157.5882 C   0  0  0  0  0  0  0  0  0  0  0  0
  150.1493  138.4209  157.7960 N   0  0  0  0  0  0  0  0  0  0  0  0
  149.6216  137.3575  157.2520 C   0  0  0  0  0  0  0  0  0  0  0  0
  150.5157  136.4791  156.6804 N   0  0  0  0  0  0  0  0  0  0  0  0
  150.2095  135.1833  155.9918 C   0  0  2  0  0  0  0  0  0  0  0  0
  149.2602  135.4410  155.0017 O   0  0  0  0  0  0  0  0  0  0  0  0
  148.2081  134.4877  155.0768 C   0  0  2  0  0  0  0  0  0  0  0  0
  146.9070  135.1028  154.5481 C   0  0  0  0  0  0  0  0  0  0  0  0
  146.5621  134.4984  153.3124 O   0  0  0  0  0  0  0  0  0  0  0  0
  145.2705  134.4188  152.9382 C   0  0  0  0  0  0  0  0  0  0  0  0
  144.3547  135.0054  153.5187 O   0  0  0  0  0  0  0  0  0  0  0  0
  145.0643  133.5462  151.7465 C   0  0  0  0  0  0  0  0  0  0  0  0
  146.1898  133.0339  151.0595 C   0  0  0  0  0  0  0  0  0  0  0  0
  146.0264  132.2083  149.9304 C   0  0  0  0  0  0  0  0  0  0  0  0
  144.7355  131.8850  149.4737 C   0  0  0  0  0  0  0  0  0  0  0  0
  143.6077  132.3891  150.1476 C   0  0  0  0  0  0  0  0  0  0  0  0
  143.7690  133.2147  151.2773 C   0  0  0  0  0  0  0  0  0  0  0  0
  148.1615  134.0910  156.5512 C   0  0  1  0  0  0  0  0  0  0  0  0
  147.6353  132.8768  156.7170 F   0  0  0  0  0  0  0  0  0  0  0  0
  149.6265  134.1191  156.9480 C   0  0  2  0  0  0  0  0  0  0  0  0
  149.7780  134.4048  158.3271 O   0  0  0  0  0  0  0  0  0  0  0  0
  152.8187  142.0054  160.3090 C   0  0  0  0  0  0  0  0  0  0  0  0
  152.2603  142.9661  159.4360 C   0  0  0  0  0  0  0  0  0  0  0  0
  151.9129  144.2454  159.9121 C   0  0  0  0  0  0  0  0  0  0  0  0
  152.1264  144.5773  161.2631 C   0  0  0  0  0  0  0  0  0  0  0  0
  152.6928  143.6305  162.1373 C   0  0  0  0  0  0  0  0  0  0  0  0
  153.0420  142.3513  161.6623 C   0  0  0  0  0  0  0  0  0  0  0  0
  151.8165  140.8429  158.2222 H   0  0  0  0  0  0  0  0  0  0  0  0
  154.9612  137.0861  156.6325 H   0  0  0  0  0  0  0  0  0  0  0  0
  148.5552  137.1844  157.2516 H   0  0  0  0  0  0  0  0  0  0  0  0
  151.1580  134.8799  155.5470 H   0  0  0  0  0  0  0  0  0  0  0  0
  148.4994  133.6296  154.4683 H   0  0  0  0  0  0  0  0  0  0  0  0
  146.1030  134.9701  155.2734 H   0  0  0  0  0  0  0  0  0  0  0  0
  147.0379  136.1751  154.3977 H   0  0  0  0  0  0  0  0  0  0  0  0
  147.1911  133.2683  151.3914 H   0  0  0  0  0  0  0  0  0  0  0  0
  146.8935  131.8230  149.4141 H   0  0  0  0  0  0  0  0  0  0  0  0
  144.6104  131.2517  148.6079 H   0  0  0  0  0  0  0  0  0  0  0  0
  142.6161  132.1429  149.7975 H   0  0  0  0  0  0  0  0  0  0  0  0
  142.8821  133.5856  151.7701 H   0  0  0  0  0  0  0  0  0  0  0  0
  147.5732  134.8019  157.1327 H   0  0  0  0  0  0  0  0  0  0  0  0
  150.0991  133.1647  156.7117 H   0  0  0  0  0  0  0  0  0  0  0  0
  149.1535  135.0722  158.5665 H   0  0  0  0  0  0  0  0  0  0  0  0
  152.0908  142.7278  158.3958 H   0  0  0  0  0  0  0  0  0  0  0  0
  151.4834  144.9729  159.2392 H   0  0  0  0  0  0  0  0  0  0  0  0
  151.8597  145.5584  161.6275 H   0  0  0  0  0  0  0  0  0  0  0  0
  152.8624  143.8864  163.1729 H   0  0  0  0  0  0  0  0  0  0  0  0
  153.4852  141.6442  162.3482 H   0  0  0  0  0  0  0  0  0  0  0  0
  1  2  2  0  0  0  0
  2  3  1  0  0  0  0
  2 30  1  0  0  0  0
  3  4  1  0  0  0  0
  3 36  1  0  0  0  0
  4  9  1  0  0  0  0
  4  5  2  0  0  0  0
  5  6  1  0  0  0  0
  6  7  2  0  0  0  0
  6 37  1  0  0  0  0
  7  8  1  0  0  0  0
  8 12  1  0  0  0  0
  8  9  2  0  0  0  0
  9 10  1  0  0  0  0
 10 11  2  0  0  0  0
 11 12  1  0  0  0  0
 11 38  1  0  0  0  0
 12 13  1  0  0  0  0
 13 28  1  0  0  0  0
 13 14  1  0  0  0  0
 13 39  1  0  0  0  0
 14 15  1  0  0  0  0
 15 16  1  0  0  0  0
 15 26  1  0  0  0  0
 15 40  1  0  0  0  0
 16 17  1  0  0  0  0
 16 41  1  0  0  0  0
 16 42  1  0  0  0  0
 17 18  1  0  0  0  0
 18 19  2  0  0  0  0
 18 20  1  0  0  0  0
 20 25  1  0  0  0  0
 20 21  2  0  0  0  0
 21 22  1  0  0  0  0
 21 43  1  0  0  0  0
 22 23  2  0  0  0  0
 22 44  1  0  0  0  0
 23 24  1  0  0  0  0
 23 45  1  0  0  0  0
 24 25  2  0  0  0  0
 24 46  1  0  0  0  0
 25 47  1  0  0  0  0
 26 27  1  0  0  0  0
 26 28  1  0  0  0  0
 26 48  1  0  0  0  0
 28 29  1  0  0  0  0
 28 49  1  0  0  0  0
 29 50  1  0  0  0  0
 30 35  1  0  0  0  0
 30 31  2  0  0  0  0
 31 32  1  0  0  0  0
 31 51  1  0  0  0  0
 32 33  2  0  0  0  0
 32 52  1  0  0  0  0
 33 34  1  0  0  0  0
 33 53  1  0  0  0  0
 34 35  2  0  0  0  0
 34 54  1  0  0  0  0
 35 55  1  0  0  0  0
M  END
> <s_m_source_file>
AV-unprocessed.smi

> <i_m_source_file_index>
34

> <i_lp_mmshare_version>
43012

> <i_f3d_flags>
0

> <s_epik_input>
W2NIXTFbY0hdW2NIXVtjSF1bY0hdYzFDKD1PKVtOSF1jKG5bY0hdbjIpYyhjMjMpbltjSF1uM1tDQEBIXTRPW0NASF0oW0NAQEhdKEYpW0NASF00W09IXSlbQ0gyXU9DKD1PKWM1W2NIXVtjSF1bY0hdW2NIXVtjSF01

> <s_epik_cmdline>
J2VwaWtfcHl0aG9uJywgJy1waCcsICc3LjAnLCAnLXRuJywgJzgnLCAnLW1hJywgJzIwMCcsICctbWV0YWxfYmluZGluZycsICctaW1hZScsICc8aW5maWxlLm1hZT4nLCAnLW9tYWUnLCAnPG91dGZpbGUubWFlPic=

> <r_lp_tautomer_probability>
1

> <r_epik_Ionization_Penalty>
0.00257489

> <r_epik_Ionization_Penalty_Charging>
0

> <r_epik_Ionization_Penalty_Neutral>
0.00257489

> <r_epik_State_Penalty>
0.00519398

> <r_epik_Charging_Adjusted_Penalty>
0.00519398

> <i_epik_Tot_Q>
0

> <i_epik_Tot_abs_Q>
0

> <r_epik_Metal_State_Penalty>
0.335891

> <b_epik_Metal_Only>
0

> <s_epik_Chemistry_Notes>
This compound has an ester and may undergo hydrolysis at high or low pH. This compound contains an acetal/aminal-like group ( X-CH(R)-Y where X, Y are N, S, or O) that may be acid/base labile, releasing an aldehyde.

> <s_lp_Force_Field>
OPLS_2005

> <r_lp_Energy>
52.3036

> <b_lp_Chiralities_Consistent>
1

> <s_lp_Variant>
AV-unprocessed.smi:34-11

> <Gold.Version>
5.8.1

> <Gold.Id.Protein>
6NUR|6NUR_protein|mol2

> <Gold.PLP.Fitness>
57.4078

> <Gold.PLP.PLP>
-51.9013

> <Gold.PLP.part.hbond>
-2.8002

> <Gold.PLP.part.metal>
0.0000

> <Gold.PLP.part.buried>
-6.7678

> <Gold.PLP.part.nonpolar>
-43.5576

> <Gold.PLP.part.repulsive>
1.2448

> <Gold.PLP.ligand.clash>
0.0000

> <Gold.PLP.ligand.torsion>
1.7738

> <Gold.PLP.Chemscore.Hbond>
2.9920

> <Gold.PLP.Chemscore.CHOScore>
0.0000

> <Gold.PLP.Chemscore.Metal>
0.0000

> <Gold.Chemscore.Hbonds>
donor molecule, donor type, donor heavy atom, donor atom, acceptor molecule, acceptor atom, score
      P1  H  6896  6908       L1    29  0.70
      P1  H  7997  8008       L1     5  0.98
      P1  H 10752 10763       L1     7  0.99

> <Gold.PLP.Chemscore.Internal.Correction>
0.0779

> <Gold.Rescore>
     Score         DG    S(hbond)    S(metal)    S(lipo)     H(rot)  DE(clash)    DE(int)     intcor
     20.84     -22.74       2.45        0.00     137.05       2.72       0.24       1.66       ----

> <Gold.Chemscore.Fitness>
20.8393

> <Gold.Chemscore.DG>
-22.7430

> <Gold.Chemscore.ZeroCoef>
-5.4800

> <Gold.Chemscore.Hbond>
2.4535

> <Gold.Chemscore.Metal>
0.0000

> <Gold.Chemscore.Lipo>
137.0549

> <Gold.Chemscore.Internal_Hbond>
0.0000

> <Gold.Chemscore.DEClash>
0.2441

> <Gold.Chemscore.DEInternal>
1.6596

> <Gold.Chemscore.Rot>
2.7215

> <Gold.Chemscore.Internal.Correction>
   9.000000E+99

> <Gold.Chemscore.Hbonds>
donor molecule, donor type, donor heavy atom, donor atom, acceptor molecule, acceptor atom, score
      P1  H  6896  6908       L1    29  0.64
      P1  H  7997  8008       L1     5  0.32
      P1  H 10752 10763       L1     7  0.81

> <Gold.Chemscore.Hbond.Weighted>
-8.1946

> <Gold.Chemscore.Metal.Weighted>
-0.0000

> <Gold.Chemscore.Lipo.Weighted>
-16.0354

> <Gold.Chemscore.Internal_Hbond.Weighted>
0.0000

> <Gold.Chemscore.DEClash.Weighted>
0.2441

> <Gold.Chemscore.DEInternal.Weighted>
1.6596

> <Gold.Chemscore.Rot.Weighted>
6.9670

> <Gold.Chemscore.Internal.Correction.Weighted>
   9.000000E+99

> <Gold.Protein.RotatedTorsions>
[ 6907 6896 6895 6894 ] final  131.75 input  -60.11 | X-H torsion
[ 7974 7965 7964 7962 ] final   64.20 input  175.53 | X-H torsion
[ 8008 7997 7996 7995 ] final  -92.30 input   59.86 | X-H torsion
[ 10167 10162 10161 10158 ] final  152.90 input  -65.29 | X-H torsion
[ 10718 10713 10712 10709 ] final   -6.96 input   66.30 | X-H torsion
[ 10763 10752 10751 10750 ] final  113.84 input  -60.55 | X-H torsion
[ 11005 11000 10999 10996 ] final -130.53 input  -57.11 | X-H torsion

> <Gold.Protein.ActiveResidues>
 VAL166  LYS551  ARG553  GLY616  TRP617  ASP618  TYR619  PRO620  LYS621  CYS622 
 ASP623  PHE694  ASN695  SER759  ASP760  ASP761  ALA762  ILE779  LEU786  VAL792 
 PHE793  MET794  SER795  GLU796  ALA797  LYS798  CYS799  TRP800  GLU811  SER814 

> <Gold.Protein.RotatedAtoms>
  152.3394  133.6049  159.5865 H   0  0  0  0  0  0  0  0  0  0  0  0  # atno 6907 bound_to 6896
  150.7470  133.9745  159.3565 H   0  0  0  0  0  0  0  0  0  0  0  0  # atno 6908 bound_to 6896
  151.7611  135.0810  160.0396 H   0  0  0  0  0  0  0  0  0  0  0  0  # atno 6909 bound_to 6896
  145.8530  139.3266  143.0864 H   0  0  0  0  0  0  0  0  0  0  0  0  # atno 7974 bound_to 7965
  154.7214  140.0510  157.0642 H   0  0  0  0  0  0  0  0  0  0  0  0  # atno 8008 bound_to 7997
  155.0423  140.3170  155.4701 H   0  0  0  0  0  0  0  0  0  0  0  0  # atno 8009 bound_to 7997
  156.2817  140.2130  156.5547 H   0  0  0  0  0  0  0  0  0  0  0  0  # atno 8010 bound_to 7997
  139.4830  144.5319  151.7708 H   0  0  0  0  0  0  0  0  0  0  0  0  # atno 10167 bound_to 10162
  156.7242  130.5160  149.5861 H   0  0  0  0  0  0  0  0  0  0  0  0  # atno 10718 bound_to 10713
  153.4984  135.3643  155.2527 H   0  0  0  0  0  0  0  0  0  0  0  0  # atno 10763 bound_to 10752
  154.8749  135.3994  154.3507 H   0  0  0  0  0  0  0  0  0  0  0  0  # atno 10764 bound_to 10752
  153.4138  135.7078  153.6406 H   0  0  0  0  0  0  0  0  0  0  0  0  # atno 10765 bound_to 10752
  140.9337  134.1285  157.4212 H   0  0  0  0  0  0  0  0  0  0  0  0  # atno 11005 bound_to 11000
  145.9336  140.9031  143.0343 LP  0  0  0  0  0  0  0  0  0  0  0  0  # atno 17320 bound_to 7965
  144.6728  140.1452  143.7434 LP  0  0  0  0  0  0  0  0  0  0  0  0  # atno 17321 bound_to 7965
  140.4846  144.1399  150.5939 LP  0  0  0  0  0  0  0  0  0  0  0  0  # atno 17342 bound_to 10162
  140.4239  143.2599  151.9681 LP  0  0  0  0  0  0  0  0  0  0  0  0  # atno 17343 bound_to 10162
  156.1573  130.6351  151.0674 LP  0  0  0  0  0  0  0  0  0  0  0  0  # atno 17370 bound_to 10713
  157.6885  131.0817  150.7173 LP  0  0  0  0  0  0  0  0  0  0  0  0  # atno 17371 bound_to 10713
  139.8802  135.0014  156.6064 LP  0  0  0  0  0  0  0  0  0  0  0  0  # atno 17394 bound_to 11000
  140.7827  133.8646  155.8581 LP  0  0  0  0  0  0  0  0  0  0  0  0  # atno 17395 bound_to 11000

$$$$
