#       Name:                AV-unprocessed.smi:681
#       Creating user name   scv26
#       Creation time:       Fri Mar 27 00:29:25 2020


#       File generated by GOLD software.
#

@<TRIPOS>MOLECULE
AV-unprocessed.smi:681
    45    46     1
SMALL
NO_CHARGES


@<TRIPOS>ATOM
      1 ****        -5.0514   2.2104  -0.4055 C.3            1 S1                 0.0000
      2 ****        -4.4279   1.1550   0.4419 C.2            1 S1                 0.0000
      3 ****        -4.2690   1.2842   1.7912 N.2            1 S1                 0.0000
      4 ****        -3.6831   0.1250   2.0716 C.2            1 S1                 0.0000
      5 ****        -3.2607  -0.2954   3.4414 C.3            1 S1                 0.0000
      6 ****        -3.5015  -0.6424   0.9868 N.pl3          1 S1                 0.0000
      7 ****        -2.8994  -1.9576   0.8360 C.3            1 S1                 0.0000
      8 ****        -1.3786  -1.8571   0.7120 C.2            1 S1                 0.0000
      9 ****        -0.6647  -2.1024   1.6841 O.2            1 S1                 0.0000
     10 ****        -0.8986  -1.4919  -0.4869 N.am           1 S1                 0.0000
     11 ****         0.5126  -1.3172  -0.8062 C.3            1 S1                 0.0000
     12 ****         1.0140   0.0736  -0.3810 C.3            1 S1                 0.0000
     13 ****         2.4939   0.2761  -0.6608 C.2            1 S1                 0.0000
     14 ****         3.3911   0.4376   0.3314 C.2            1 S1                 0.0000
     15 ****         4.8820   0.6262   0.1119 C.3            1 S1                 0.0000
     16 ****         5.3120   0.2738  -1.3218 C.3            1 S1                 0.0000
     17 ****         4.3250   0.8388  -2.3507 C.3            1 S1                 0.0000
     18 ****         2.9062   0.2845  -2.1289 C.3            1 S1                 0.0000
     19 ****        -3.9864   0.0187  -0.0916 N.2            1 S1                 0.0000
     20 ****        -5.4079   3.0384   0.2080 H              1 S1                 0.0000
     21 ****        -5.8979   1.8015  -0.9576 H              1 S1                 0.0000
     22 ****        -4.3242   2.5983  -1.1190 H              1 S1                 0.0000
     23 ****        -3.5702   0.4449   4.1798 H              1 S1                 0.0000
     24 ****        -2.1763  -0.3959   3.4851 H              1 S1                 0.0000
     25 ****        -3.7153  -1.2516   3.7004 H              1 S1                 0.0000
     26 ****        -3.1647  -2.5733   1.6961 H              1 S1                 0.0000
     27 ****        -3.3148  -2.4492  -0.0453 H              1 S1                 0.0000
     28 ****        -1.5612  -1.3050  -1.2260 H              1 S1                 0.0000
     29 ****         1.1063  -2.1003  -0.3308 H              1 S1                 0.0000
     30 ****         0.6281  -1.4499  -1.8820 H              1 S1                 0.0000
     31 ****         0.4500   0.8504  -0.8986 H              1 S1                 0.0000
     32 ****         0.8282   0.2199   0.6841 H              1 S1                 0.0000
     33 ****         3.0597   0.4458   1.3596 H              1 S1                 0.0000
     34 ****         5.1261   1.6654   0.3339 H              1 S1                 0.0000
     35 ****         5.4312   0.0112   0.8254 H              1 S1                 0.0000
     36 ****         6.3181   0.6487  -1.5123 H              1 S1                 0.0000
     37 ****         5.3603  -0.8105  -1.4313 H              1 S1                 0.0000
     38 ****         4.3079   1.9265  -2.2700 H              1 S1                 0.0000
     39 ****         4.6595   0.6101  -3.3631 H              1 S1                 0.0000
     40 ****         2.8499  -0.7375  -2.5045 H              1 S1                 0.0000
     41 ****         2.1921   0.8731  -2.7058 H              1 S1                 0.0000
     42 ****        -4.5220   2.0381   2.3975 LP             1 S1                 0.0000
     43 ****        -1.0792  -2.3674   2.5547 LP             1 S1                 0.0000
     44 ****         0.3299  -2.0368   1.6033 LP             1 S1                 0.0000
     45 ****        -4.0073  -0.2736  -1.0477 LP             1 S1                 0.0000
@<TRIPOS>BOND
    1    1    2 1     
    2    1   20 1     
    3    1   21 1     
    4    1   22 1     
    5    2   19 2     
    6    2    3 1     
    7    3    4 2     
    8    4    5 1     
    9    4    6 1     
   10    5   23 1     
   11    5   24 1     
   12    5   25 1     
   13    6    7 1     
   14    6   19 1     
   15    7    8 1     
   16    7   26 1     
   17    7   27 1     
   18    8    9 2     
   19    8   10 am    
   20   10   11 1     
   21   10   28 1     
   22   11   12 1     
   23   11   29 1     
   24   11   30 1     
   25   12   13 1     
   26   12   31 1     
   27   12   32 1     
   28   13   18 1     
   29   13   14 2     
   30   14   15 1     
   31   14   33 1     
   32   15   16 1     
   33   15   34 1     
   34   15   35 1     
   35   16   17 1     
   36   16   36 1     
   37   16   37 1     
   38   17   18 1     
   39   17   38 1     
   40   17   39 1     
   41   18   40 1     
   42   18   41 1     
   43    3   42 1     
   44    9   43 1     
   45    9   44 1     
   46   19   45 1     
@<TRIPOS>SUBSTRUCTURE
      1 S1             1
@<TRIPOS>SET
LONE_PAIRS      STATIC     ATOMS    <user>   **** ""
4 42 43 44 45
DONOR_HYDROGENS      STATIC     ATOMS    <user>   **** ""
1 28
ATOM$BLUE        STATIC     ATOMS    COLORGROUP SYSTEM
4 42 43 44 45
ATOM$RED        STATIC     ATOMS    COLORGROUP SYSTEM
1 28
