AV-unprocessed.smi:166|AV-procd|sdf|1391|dock8
  -GOLD-   2262019133D 1   1.00000     0.00000
 Structure written by MMmdl.
 54 58  0  0  0  0  0  0  0  0  1 V2000
  148.5396  134.2339  153.7810 O   0  0  0  0  0  0  0  0  0  0  0  0
  149.0493  134.6667  155.0309 C   0  0  2  0  0  0  0  0  0  0  0  0
  148.9565  136.2085  155.1185 C   0  0  0  0  0  0  0  0  0  0  0  0
  149.8071  136.7896  156.1458 N   0  0  0  0  0  0  0  0  0  0  0  0
  149.5112  136.9356  157.4828 C   0  0  0  0  0  0  0  0  0  0  0  0
  150.4485  137.4879  158.2037 N   0  0  0  0  0  0  0  0  0  0  0  0
  151.4718  137.7348  157.2966 C   0  0  0  0  0  0  0  0  0  0  0  0
  152.7714  138.3076  157.3917 C   0  0  0  0  0  0  0  0  0  0  0  0
  153.3209  138.7837  158.5283 N   0  0  0  0  0  0  0  0  0  0  0  0
  153.6953  137.7309  159.4674 C   0  0  0  0  0  0  0  0  0  0  0  0
  154.5274  138.3087  160.6234 C   0  0  0  0  0  0  0  0  0  0  0  0
  153.7862  139.4728  161.2995 C   0  0  0  0  0  0  0  0  0  0  0  0
  153.4034  140.5449  160.2640 C   0  0  2  0  0  0  0  0  0  0  0  0
  152.6414  141.5375  160.9386 O   0  0  0  0  0  0  0  0  0  0  0  0
  153.1995  142.8417  160.8899 C   0  0  0  0  0  0  0  0  0  0  0  0
  152.7988  143.4934  159.5841 C   0  0  0  0  0  0  0  0  0  0  0  0
  152.3571  144.9390  159.5583 C   0  0  0  0  0  0  0  0  0  0  0  0
  151.3547  143.8427  159.3038 C   0  0  0  0  0  0  0  0  0  0  0  0
  152.5948  139.9077  159.1145 C   0  0  0  0  0  0  0  0  0  0  0  0
  153.5238  138.3734  156.2667 N   0  0  0  0  0  0  0  0  0  0  0  0
  153.0357  137.9142  155.1102 C   0  0  0  0  0  0  0  0  0  0  0  0
  151.8448  137.3620  154.8664 N   0  0  0  0  0  0  0  0  0  0  0  0
  151.0881  137.2928  155.9997 C   0  0  0  0  0  0  0  0  0  0  0  0
  150.4809  134.1589  155.1645 C   0  0  0  0  0  0  0  0  0  0  0  0
  150.3039  132.8073  155.8422 C   0  0  0  0  0  0  0  0  0  0  0  0
  149.2675  133.0641  156.7734 O   0  0  0  0  0  0  0  0  0  0  0  0
  148.3053  133.9098  156.1524 C   0  0  0  0  0  0  0  0  0  0  0  0
  148.5945  134.9517  153.1686 H   0  0  0  0  0  0  0  0  0  0  0  0
  149.2255  136.6566  154.1608 H   0  0  0  0  0  0  0  0  0  0  0  0
  147.9275  136.5110  155.3173 H   0  0  0  0  0  0  0  0  0  0  0  0
  148.5722  136.6173  157.9116 H   0  0  0  0  0  0  0  0  0  0  0  0
  152.7948  137.2563  159.8598 H   0  0  0  0  0  0  0  0  0  0  0  0
  154.2657  136.9574  158.9507 H   0  0  0  0  0  0  0  0  0  0  0  0
  154.7468  137.5288  161.3529 H   0  0  0  0  0  0  0  0  0  0  0  0
  155.4879  138.6586  160.2427 H   0  0  0  0  0  0  0  0  0  0  0  0
  152.8871  139.0958  161.7891 H   0  0  0  0  0  0  0  0  0  0  0  0
  154.4080  139.9096  162.0815 H   0  0  0  0  0  0  0  0  0  0  0  0
  154.3204  140.9874  159.8699 H   0  0  0  0  0  0  0  0  0  0  0  0
  152.8466  143.4450  161.7277 H   0  0  0  0  0  0  0  0  0  0  0  0
  154.2876  142.8036  160.9375 H   0  0  0  0  0  0  0  0  0  0  0  0
  153.3931  143.1698  158.7314 H   0  0  0  0  0  0  0  0  0  0  0  0
  152.2931  145.4674  160.5076 H   0  0  0  0  0  0  0  0  0  0  0  0
  152.6681  145.5434  158.7085 H   0  0  0  0  0  0  0  0  0  0  0  0
  150.9970  143.7127  158.2844 H   0  0  0  0  0  0  0  0  0  0  0  0
  150.6229  143.6405  160.0836 H   0  0  0  0  0  0  0  0  0  0  0  0
  152.3904  140.6433  158.3361 H   0  0  0  0  0  0  0  0  0  0  0  0
  151.6317  139.5659  159.4947 H   0  0  0  0  0  0  0  0  0  0  0  0
  153.6942  138.0004  154.2584 H   0  0  0  0  0  0  0  0  0  0  0  0
  151.0168  134.0961  154.2165 H   0  0  0  0  0  0  0  0  0  0  0  0
  151.0536  134.8117  155.8250 H   0  0  0  0  0  0  0  0  0  0  0  0
  149.9801  132.0479  155.1288 H   0  0  0  0  0  0  0  0  0  0  0  0
  151.2118  132.4583  156.3343 H   0  0  0  0  0  0  0  0  0  0  0  0
  147.8928  134.5763  156.9090 H   0  0  0  0  0  0  0  0  0  0  0  0
  147.4824  133.3066  155.7649 H   0  0  0  0  0  0  0  0  0  0  0  0
  1  2  1  0  0  0  0
  1 28  1  0  0  0  0
  2 27  1  0  0  0  0
  2  3  1  0  0  0  0
  2 24  1  0  0  0  0
  3  4  1  0  0  0  0
  3 29  1  0  0  0  0
  3 30  1  0  0  0  0
  4 23  1  0  0  0  0
  4  5  1  0  0  0  0
  5  6  2  0  0  0  0
  5 31  1  0  0  0  0
  6  7  1  0  0  0  0
  7 23  2  0  0  0  0
  7  8  1  0  0  0  0
  8  9  1  0  0  0  0
  8 20  2  0  0  0  0
  9 19  1  0  0  0  0
  9 10  1  0  0  0  0
 10 11  1  0  0  0  0
 10 32  1  0  0  0  0
 10 33  1  0  0  0  0
 11 12  1  0  0  0  0
 11 34  1  0  0  0  0
 11 35  1  0  0  0  0
 12 13  1  0  0  0  0
 12 36  1  0  0  0  0
 12 37  1  0  0  0  0
 13 14  1  0  0  0  0
 13 19  1  0  0  0  0
 13 38  1  0  0  0  0
 14 15  1  0  0  0  0
 15 16  1  0  0  0  0
 15 39  1  0  0  0  0
 15 40  1  0  0  0  0
 16 18  1  0  0  0  0
 16 17  1  0  0  0  0
 16 41  1  0  0  0  0
 17 18  1  0  0  0  0
 17 42  1  0  0  0  0
 17 43  1  0  0  0  0
 18 44  1  0  0  0  0
 18 45  1  0  0  0  0
 19 46  1  0  0  0  0
 19 47  1  0  0  0  0
 20 21  1  0  0  0  0
 21 22  2  0  0  0  0
 21 48  1  0  0  0  0
 22 23  1  0  0  0  0
 24 25  1  0  0  0  0
 24 49  1  0  0  0  0
 24 50  1  0  0  0  0
 25 26  1  0  0  0  0
 25 51  1  0  0  0  0
 25 52  1  0  0  0  0
 26 27  1  0  0  0  0
 27 53  1  0  0  0  0
 27 54  1  0  0  0  0
M  END
> <s_m_source_file>
AV-unprocessed.smi

> <i_m_source_file_index>
166

> <i_lp_mmshare_version>
43012

> <i_f3d_flags>
0

> <s_epik_input>
W0NIMl0xT1tDSDJdW0NIMl1bQ0BAXTEoW09IXSlbQ0gyXW4oW2NIXW4yKWMoYzIzKW5bY0hdbmMzTjRbQ0gyXVtDSDJdW0NIMl1bQ0BIXShbQ0gyXTQpT1tDSDJdW0NIXTVbQ0gyXVtDSDJdNQ==

> <s_epik_cmdline>
J2VwaWtfcHl0aG9uJywgJy1waCcsICc3LjAnLCAnLXRuJywgJzgnLCAnLW1hJywgJzIwMCcsICctbWV0YWxfYmluZGluZycsICctaW1hZScsICc8aW5maWxlLm1hZT4nLCAnLW9tYWUnLCAnPG91dGZpbGUubWFlPic=

> <r_lp_tautomer_probability>
1

> <r_epik_Ionization_Penalty>
0.00342552

> <r_epik_Ionization_Penalty_Charging>
0

> <r_epik_Ionization_Penalty_Neutral>
0.00342552

> <r_epik_State_Penalty>
0.0022204

> <r_epik_Charging_Adjusted_Penalty>
0.0022204

> <i_epik_Tot_Q>
0

> <i_epik_Tot_abs_Q>
0

> <r_epik_Metal_State_Penalty>
-0

> <b_epik_Metal_Only>
0

> <s_lp_Force_Field>
OPLS_2005

> <r_lp_Energy>
47.9091

> <b_lp_Chiralities_Consistent>
1

> <s_lp_Variant>
AV-unprocessed.smi:166-4

> <Gold.Version>
5.8.1

> <Gold.Id.Protein>
6NUR|6NUR_protein|mol2

> <Gold.PLP.Fitness>
44.6197

> <Gold.PLP.PLP>
-40.7890

> <Gold.PLP.part.hbond>
-3.0000

> <Gold.PLP.part.metal>
0.0000

> <Gold.PLP.part.buried>
-7.8027

> <Gold.PLP.part.nonpolar>
-30.2045

> <Gold.PLP.part.repulsive>
0.1641

> <Gold.PLP.ligand.clash>
0.0000

> <Gold.PLP.ligand.torsion>
1.8899

> <Gold.PLP.Chemscore.Hbond>
2.2629

> <Gold.PLP.Chemscore.CHOScore>
0.0000

> <Gold.PLP.Chemscore.Metal>
0.0000

> <Gold.Chemscore.Hbonds>
donor molecule, donor type, donor heavy atom, donor atom, acceptor molecule, acceptor atom, score
      L1  H     1    28       P1  7948  1.00
      P1  H  7997  8008       L1     9  0.08
      P1  H  7997  8009       L1    20  0.01
      P1  H 10752 10765       L1    22  0.02

> <Gold.PLP.Chemscore.Internal.Correction>
0.8218

> <Gold.Rescore>
     Score         DG    S(hbond)    S(metal)    S(lipo)     H(rot)  DE(clash)    DE(int)     intcor
     14.08     -16.19       1.48        0.00     107.91       2.68       0.06       2.05       ----

> <Gold.Chemscore.Fitness>
14.0778

> <Gold.Chemscore.DG>
-16.1858

> <Gold.Chemscore.ZeroCoef>
-5.4800

> <Gold.Chemscore.Hbond>
1.4808

> <Gold.Chemscore.Metal>
0.0000

> <Gold.Chemscore.Lipo>
107.9069

> <Gold.Chemscore.Internal_Hbond>
0.0000

> <Gold.Chemscore.DEClash>
0.0567

> <Gold.Chemscore.DEInternal>
2.0512

> <Gold.Chemscore.Rot>
2.6817

> <Gold.Chemscore.Internal.Correction>
   9.000000E+99

> <Gold.Chemscore.Hbonds>
donor molecule, donor type, donor heavy atom, donor atom, acceptor molecule, acceptor atom, score
      L1  H     1    28       P1  7948  0.60
      P1  H  7997  8009       L1    20  0.01

> <Gold.Chemscore.Hbond.Weighted>
-4.9457

> <Gold.Chemscore.Metal.Weighted>
-0.0000

> <Gold.Chemscore.Lipo.Weighted>
-12.6251

> <Gold.Chemscore.Internal_Hbond.Weighted>
0.0000

> <Gold.Chemscore.DEClash.Weighted>
0.0567

> <Gold.Chemscore.DEInternal.Weighted>
2.0512

> <Gold.Chemscore.Rot.Weighted>
6.8651

> <Gold.Chemscore.Internal.Correction.Weighted>
   9.000000E+99

> <Gold.Protein.RotatedTorsions>
[ 6907 6896 6895 6894 ] final  159.53 input  -60.11 | X-H torsion
[ 7974 7965 7964 7962 ] final   22.22 input  175.53 | X-H torsion
[ 8008 7997 7996 7995 ] final -107.29 input   59.86 | X-H torsion
[ 10167 10162 10161 10158 ] final   62.87 input  -65.29 | X-H torsion
[ 10718 10713 10712 10709 ] final   69.58 input   66.30 | X-H torsion
[ 10763 10752 10751 10750 ] final -159.58 input  -60.55 | X-H torsion
[ 11005 11000 10999 10996 ] final  -28.98 input  -57.11 | X-H torsion

> <Gold.Protein.ActiveResidues>
 VAL166  LYS551  ARG553  GLY616  TRP617  ASP618  TYR619  PRO620  LYS621  CYS622 
 ASP623  PHE694  ASN695  SER759  ASP760  ASP761  ALA762  ILE779  LEU786  VAL792 
 PHE793  MET794  SER795  GLU796  ALA797  LYS798  CYS799  TRP800  GLU811  SER814 

> <Gold.Protein.RotatedAtoms>
  151.9843  133.3768  159.4119 H   0  0  0  0  0  0  0  0  0  0  0  0  # atno 6907 bound_to 6896
  150.6930  134.4005  159.5126 H   0  0  0  0  0  0  0  0  0  0  0  0  # atno 6908 bound_to 6896
  152.1729  134.8819  160.0583 H   0  0  0  0  0  0  0  0  0  0  0  0  # atno 6909 bound_to 6896
  146.2038  139.7916  142.8741 H   0  0  0  0  0  0  0  0  0  0  0  0  # atno 7974 bound_to 7965
  154.9272  140.0406  157.2029 H   0  0  0  0  0  0  0  0  0  0  0  0  # atno 8008 bound_to 7997
  154.8196  140.2881  155.5774 H   0  0  0  0  0  0  0  0  0  0  0  0  # atno 8009 bound_to 7997
  156.2979  140.2521  156.3101 H   0  0  0  0  0  0  0  0  0  0  0  0  # atno 8010 bound_to 7997
  140.1392  144.4569  150.6820 H   0  0  0  0  0  0  0  0  0  0  0  0  # atno 10167 bound_to 10162
  157.6353  130.9433  150.0532 H   0  0  0  0  0  0  0  0  0  0  0  0  # atno 10718 bound_to 10713
  154.7462  135.3081  154.8640 H   0  0  0  0  0  0  0  0  0  0  0  0  # atno 10763 bound_to 10752
  153.9440  135.6771  153.4748 H   0  0  0  0  0  0  0  0  0  0  0  0  # atno 10764 bound_to 10752
  153.1059  135.4889  154.8876 H   0  0  0  0  0  0  0  0  0  0  0  0  # atno 10765 bound_to 10752
  140.9256  133.7371  156.0863 H   0  0  0  0  0  0  0  0  0  0  0  0  # atno 11005 bound_to 11000
  145.3391  141.0284  143.3402 LP  0  0  0  0  0  0  0  0  0  0  0  0  # atno 17320 bound_to 7965
  144.8744  139.4991  143.6752 LP  0  0  0  0  0  0  0  0  0  0  0  0  # atno 17321 bound_to 7965
  140.6770  143.2309  151.5481 LP  0  0  0  0  0  0  0  0  0  0  0  0  # atno 17342 bound_to 10162
  139.5480  144.2469  152.1479 LP  0  0  0  0  0  0  0  0  0  0  0  0  # atno 17343 bound_to 10162
  156.1588  130.3643  149.9330 LP  0  0  0  0  0  0  0  0  0  0  0  0  # atno 17370 bound_to 10713
  156.7333  130.9051  151.3627 LP  0  0  0  0  0  0  0  0  0  0  0  0  # atno 17371 bound_to 10713
  140.7930  134.3595  157.5459 LP  0  0  0  0  0  0  0  0  0  0  0  0  # atno 17394 bound_to 11000
  139.8785  134.9152  156.3125 LP  0  0  0  0  0  0  0  0  0  0  0  0  # atno 17395 bound_to 11000

$$$$
