AV-unprocessed.smi:227|AV-procd|sdf|1738|dock2
  -GOLD-   2262020243D 1   1.00000     0.00000
 Structure written by MMmdl.
 54 58  0  0  0  0  0  0  0  0  1 V2000
  151.2446  140.6973  155.5670 O   0  0  0  0  0  0  0  0  0  0  0  0
  150.4155  141.0397  156.6588 C   0  0  0  0  0  0  0  0  0  0  0  0
  151.2185  141.0968  157.9811 C   0  0  1  0  0  0  0  0  0  0  0  0
  152.2218  139.9098  158.0157 C   0  0  0  0  0  0  0  0  0  0  0  0
  151.6166  138.5947  157.9036 N   0  0  0  0  0  0  0  0  0  0  0  0
  151.2076  137.7860  158.9390 C   0  0  0  0  0  0  0  0  0  0  0  0
  150.6978  136.6405  158.5788 N   0  0  0  0  0  0  0  0  0  0  0  0
  150.7735  136.6491  157.1904 C   0  0  0  0  0  0  0  0  0  0  0  0
  150.4032  135.7319  156.1638 C   0  0  0  0  0  0  0  0  0  0  0  0
  149.8156  134.5267  156.3998 N   0  0  0  0  0  0  0  0  0  0  0  0
  148.3704  134.4279  156.5245 C   0  0  1  0  0  0  0  0  0  0  0  0
  147.8588  134.5744  155.0780 C   0  0  0  0  0  0  0  0  0  0  0  0
  148.9732  133.8661  154.2920 C   0  0  0  0  0  0  0  0  0  0  0  0
  149.9236  133.4413  155.4328 C   0  0  2  0  0  0  0  0  0  0  0  0
  149.2910  132.2486  156.1837 C   0  0  1  0  0  0  0  0  0  0  0  0
  150.2836  131.4927  157.0857 C   0  0  0  0  0  0  0  0  0  0  0  0
  150.8753  132.3767  158.0140 O   0  0  0  0  0  0  0  0  0  0  0  0
  148.1870  132.9713  156.9822 C   0  0  0  0  0  0  0  0  0  0  0  0
  150.6863  136.0880  154.8823 N   0  0  0  0  0  0  0  0  0  0  0  0
  151.2599  137.2640  154.6142 C   0  0  0  0  0  0  0  0  0  0  0  0
  151.6361  138.2203  155.4637 N   0  0  0  0  0  0  0  0  0  0  0  0
  151.3731  137.8653  156.7532 C   0  0  0  0  0  0  0  0  0  0  0  0
  151.9041  142.4830  158.1768 C   0  0  1  0  0  0  0  0  0  0  0  0
  150.9616  143.6781  158.1730 C   0  0  0  0  0  0  0  0  0  0  0  0
  151.8031  144.7591  158.8336 C   0  0  0  0  0  0  0  0  0  0  0  0
  152.5031  144.0760  159.8599 O   0  0  0  0  0  0  0  0  0  0  0  0
  152.6106  142.6946  159.5284 C   0  0  0  0  0  0  0  0  0  0  0  0
  151.5802  139.8248  155.7049 H   0  0  0  0  0  0  0  0  0  0  0  0
  149.9276  141.9941  156.4581 H   0  0  0  0  0  0  0  0  0  0  0  0
  149.6339  140.2823  156.6958 H   0  0  0  0  0  0  0  0  0  0  0  0
  150.5004  140.9693  158.7923 H   0  0  0  0  0  0  0  0  0  0  0  0
  152.9413  139.9926  157.2009 H   0  0  0  0  0  0  0  0  0  0  0  0
  152.8035  139.9448  158.9378 H   0  0  0  0  0  0  0  0  0  0  0  0
  151.2874  138.0784  159.9758 H   0  0  0  0  0  0  0  0  0  0  0  0
  147.9054  135.1291  157.2150 H   0  0  0  0  0  0  0  0  0  0  0  0
  146.8789  134.1189  154.9300 H   0  0  0  0  0  0  0  0  0  0  0  0
  147.7925  135.6246  154.7903 H   0  0  0  0  0  0  0  0  0  0  0  0
  148.6098  133.0208  153.7067 H   0  0  0  0  0  0  0  0  0  0  0  0
  149.4611  134.5608  153.6074 H   0  0  0  0  0  0  0  0  0  0  0  0
  150.9374  133.2338  155.0883 H   0  0  0  0  0  0  0  0  0  0  0  0
  148.8470  131.5401  155.4826 H   0  0  0  0  0  0  0  0  0  0  0  0
  149.7898  130.6821  157.6226 H   0  0  0  0  0  0  0  0  0  0  0  0
  151.0766  131.0468  156.4844 H   0  0  0  0  0  0  0  0  0  0  0  0
  151.7566  132.5652  157.7294 H   0  0  0  0  0  0  0  0  0  0  0  0
  148.3542  132.8876  158.0570 H   0  0  0  0  0  0  0  0  0  0  0  0
  147.1894  132.5864  156.7682 H   0  0  0  0  0  0  0  0  0  0  0  0
  151.4410  137.4682  153.5693 H   0  0  0  0  0  0  0  0  0  0  0  0
  152.6315  142.6353  157.3777 H   0  0  0  0  0  0  0  0  0  0  0  0
  150.6360  143.9683  157.1736 H   0  0  0  0  0  0  0  0  0  0  0  0
  150.0775  143.4718  158.7781 H   0  0  0  0  0  0  0  0  0  0  0  0
  152.5230  145.1712  158.1252 H   0  0  0  0  0  0  0  0  0  0  0  0
  151.2043  145.5788  159.2309 H   0  0  0  0  0  0  0  0  0  0  0  0
  152.1309  142.1221  160.3228 H   0  0  0  0  0  0  0  0  0  0  0  0
  153.6604  142.4072  159.4915 H   0  0  0  0  0  0  0  0  0  0  0  0
  1  2  1  0  0  0  0
  1 28  1  0  0  0  0
  2  3  1  0  0  0  0
  2 29  1  0  0  0  0
  2 30  1  0  0  0  0
  3  4  1  0  0  0  0
  3 23  1  0  0  0  0
  3 31  1  0  0  0  0
  4  5  1  0  0  0  0
  4 32  1  0  0  0  0
  4 33  1  0  0  0  0
  5 22  1  0  0  0  0
  5  6  1  0  0  0  0
  6  7  2  0  0  0  0
  6 34  1  0  0  0  0
  7  8  1  0  0  0  0
  8 22  2  0  0  0  0
  8  9  1  0  0  0  0
  9 10  1  0  0  0  0
  9 19  2  0  0  0  0
 10 14  1  0  0  0  0
 10 11  1  0  0  0  0
 11 18  1  0  0  0  0
 11 12  1  0  0  0  0
 11 35  1  0  0  0  0
 12 13  1  0  0  0  0
 12 36  1  0  0  0  0
 12 37  1  0  0  0  0
 13 14  1  0  0  0  0
 13 38  1  0  0  0  0
 13 39  1  0  0  0  0
 14 15  1  0  0  0  0
 14 40  1  0  0  0  0
 15 16  1  0  0  0  0
 15 18  1  0  0  0  0
 15 41  1  0  0  0  0
 16 17  1  0  0  0  0
 16 42  1  0  0  0  0
 16 43  1  0  0  0  0
 17 44  1  0  0  0  0
 18 45  1  0  0  0  0
 18 46  1  0  0  0  0
 19 20  1  0  0  0  0
 20 21  2  0  0  0  0
 20 47  1  0  0  0  0
 21 22  1  0  0  0  0
 23 27  1  0  0  0  0
 23 24  1  0  0  0  0
 23 48  1  0  0  0  0
 24 25  1  0  0  0  0
 24 49  1  0  0  0  0
 24 50  1  0  0  0  0
 25 26  1  0  0  0  0
 25 51  1  0  0  0  0
 25 52  1  0  0  0  0
 26 27  1  0  0  0  0
 27 53  1  0  0  0  0
 27 54  1  0  0  0  0
M  END
> <s_m_source_file>
AV-unprocessed.smi

> <i_m_source_file_index>
227

> <i_lp_mmshare_version>
43012

> <i_f3d_flags>
0

> <s_epik_input>
W0NIMl0xT1tDSDJdW0NIMl1bQ0BIXTFbQ0BIXShbQ0gyXVtPSF0pW0NIMl1uKFtjSF1uMiljKGMyMyluW2NIXW5jM04oW0NASF00NSlbQ0BASF0oW0NIMl1bQ0gyXTQpW0NASF0oW0NIMl01KVtDSDJdW09IXQ==

> <s_epik_cmdline>
J2VwaWtfcHl0aG9uJywgJy1waCcsICc3LjAnLCAnLXRuJywgJzgnLCAnLW1hJywgJzIwMCcsICctbWV0YWxfYmluZGluZycsICctaW1hZScsICc8aW5maWxlLm1hZT4nLCAnLW9tYWUnLCAnPG91dGZpbGUubWFlPic=

> <r_lp_tautomer_probability>
1

> <r_epik_Ionization_Penalty>
0.0055791

> <r_epik_Ionization_Penalty_Charging>
0

> <r_epik_Ionization_Penalty_Neutral>
0.0055791

> <r_epik_State_Penalty>
0.00401299

> <r_epik_Charging_Adjusted_Penalty>
0.00401299

> <i_epik_Tot_Q>
0

> <i_epik_Tot_abs_Q>
0

> <r_epik_Metal_State_Penalty>
-0

> <b_epik_Metal_Only>
0

> <s_lp_Force_Field>
OPLS_2005

> <r_lp_Energy>
89.2194

> <b_lp_Chiralities_Consistent>
1

> <s_lp_Variant>
AV-unprocessed.smi:227-12

> <Gold.Version>
5.8.1

> <Gold.Id.Protein>
6NUR|6NUR_protein|mol2

> <Gold.PLP.Fitness>
46.2940

> <Gold.PLP.PLP>
-38.2720

> <Gold.PLP.part.hbond>
-4.0000

> <Gold.PLP.part.metal>
0.0000

> <Gold.PLP.part.buried>
-5.7838

> <Gold.PLP.part.nonpolar>
-29.5298

> <Gold.PLP.part.repulsive>
0.2153

> <Gold.PLP.ligand.clash>
0.0000

> <Gold.PLP.ligand.torsion>
1.3058

> <Gold.PLP.Chemscore.Hbond>
2.5840

> <Gold.PLP.Chemscore.CHOScore>
0.9017

> <Gold.PLP.Chemscore.Metal>
0.0000

> <Gold.Chemscore.Hbonds>
donor molecule, donor type, donor heavy atom, donor atom, acceptor molecule, acceptor atom, score
      P1  H  6896  6907       L1    17  0.35
      P1  H  6896  6908       L1     7  0.91
      P1  H  7989  7998       L1     1  0.62
      L1  C    20    47       P1  7949  0.91

> <Gold.PLP.Chemscore.Internal.Correction>
0.1766

> <Gold.Rescore>
     Score         DG    S(hbond)    S(metal)    S(lipo)     H(rot)  DE(clash)    DE(int)     intcor
      8.62     -12.30       1.58        0.00      92.02       3.61       0.02       3.66       ----

> <Gold.Chemscore.Fitness>
8.6173

> <Gold.Chemscore.DG>
-12.2961

> <Gold.Chemscore.ZeroCoef>
-5.4800

> <Gold.Chemscore.Hbond>
1.5822

> <Gold.Chemscore.Metal>
0.0000

> <Gold.Chemscore.Lipo>
92.0155

> <Gold.Chemscore.Internal_Hbond>
0.0000

> <Gold.Chemscore.DEClash>
0.0178

> <Gold.Chemscore.DEInternal>
3.6610

> <Gold.Chemscore.Rot>
3.6071

> <Gold.Chemscore.Internal.Correction>
   9.000000E+99

> <Gold.Chemscore.Hbonds>
donor molecule, donor type, donor heavy atom, donor atom, acceptor molecule, acceptor atom, score
      P1  H  6896  6907       L1    17  0.01
      P1  H  6896  6908       L1     7  0.72
      P1  H  7989  7998       L1     1  0.13

> <Gold.Chemscore.Hbond.Weighted>
-5.2844

> <Gold.Chemscore.Metal.Weighted>
-0.0000

> <Gold.Chemscore.Lipo.Weighted>
-10.7658

> <Gold.Chemscore.Internal_Hbond.Weighted>
0.0000

> <Gold.Chemscore.DEClash.Weighted>
0.0178

> <Gold.Chemscore.DEInternal.Weighted>
3.6610

> <Gold.Chemscore.Rot.Weighted>
9.2342

> <Gold.Chemscore.Internal.Correction.Weighted>
   9.000000E+99

> <Gold.Protein.RotatedTorsions>
[ 6907 6896 6895 6894 ] final -146.44 input  -60.11 | X-H torsion
[ 7974 7965 7964 7962 ] final  169.09 input  175.53 | X-H torsion
[ 8008 7997 7996 7995 ] final  160.74 input   59.86 | X-H torsion
[ 10167 10162 10161 10158 ] final -106.36 input  -65.29 | X-H torsion
[ 10718 10713 10712 10709 ] final   97.37 input   66.30 | X-H torsion
[ 10763 10752 10751 10750 ] final -127.12 input  -60.55 | X-H torsion
[ 11005 11000 10999 10996 ] final   72.23 input  -57.11 | X-H torsion

> <Gold.Protein.ActiveResidues>
 VAL166  LYS551  ARG553  GLY616  TRP617  ASP618  TYR619  PRO620  LYS621  CYS622 
 ASP623  PHE694  ASN695  SER759  ASP760  ASP761  ALA762  ILE779  LEU786  VAL792 
 PHE793  MET794  SER795  GLU796  ALA797  LYS798  CYS799  TRP800  GLU811  SER814 

> <Gold.Protein.RotatedAtoms>
  151.1416  133.4967  159.2596 H   0  0  0  0  0  0  0  0  0  0  0  0  # atno 6907 bound_to 6896
  151.1648  135.0290  159.8736 H   0  0  0  0  0  0  0  0  0  0  0  0  # atno 6908 bound_to 6896
  152.5462  134.1286  159.8483 H   0  0  0  0  0  0  0  0  0  0  0  0  # atno 6909 bound_to 6896
  144.7367  139.9003  143.6409 H   0  0  0  0  0  0  0  0  0  0  0  0  # atno 7974 bound_to 7965
  156.2151  140.1796  156.7607 H   0  0  0  0  0  0  0  0  0  0  0  0  # atno 8008 bound_to 7997
  154.5780  140.0671  156.9091 H   0  0  0  0  0  0  0  0  0  0  0  0  # atno 8009 bound_to 7997
  155.2554  140.3332  155.4280 H   0  0  0  0  0  0  0  0  0  0  0  0  # atno 8010 bound_to 7997
  140.1886  143.3909  152.1224 H   0  0  0  0  0  0  0  0  0  0  0  0  # atno 10167 bound_to 10162
  157.6913  131.0607  150.4634 H   0  0  0  0  0  0  0  0  0  0  0  0  # atno 10718 bound_to 10713
  154.8750  135.3973  154.3541 H   0  0  0  0  0  0  0  0  0  0  0  0  # atno 10763 bound_to 10752
  153.4323  135.7025  153.6228 H   0  0  0  0  0  0  0  0  0  0  0  0  # atno 10764 bound_to 10752
  153.4845  135.3762  155.2429 H   0  0  0  0  0  0  0  0  0  0  0  0  # atno 10765 bound_to 10752
  139.9501  134.7242  156.0882 H   0  0  0  0  0  0  0  0  0  0  0  0  # atno 11005 bound_to 11000
  146.1077  139.4078  143.0307 LP  0  0  0  0  0  0  0  0  0  0  0  0  # atno 17320 bound_to 7965
  145.7488  140.9980  143.1261 LP  0  0  0  0  0  0  0  0  0  0  0  0  # atno 17321 bound_to 7965
  139.5265  144.7109  151.5210 LP  0  0  0  0  0  0  0  0  0  0  0  0  # atno 17342 bound_to 10162
  140.6471  143.8772  150.6748 LP  0  0  0  0  0  0  0  0  0  0  0  0  # atno 17343 bound_to 10162
  156.4976  130.4110  149.6371 LP  0  0  0  0  0  0  0  0  0  0  0  0  # atno 17370 bound_to 10713
  156.3358  130.7356  151.2293 LP  0  0  0  0  0  0  0  0  0  0  0  0  # atno 17371 bound_to 10713
  141.1162  133.6627  156.3100 LP  0  0  0  0  0  0  0  0  0  0  0  0  # atno 17394 bound_to 11000
  140.5739  134.5813  157.5464 LP  0  0  0  0  0  0  0  0  0  0  0  0  # atno 17395 bound_to 11000

$$$$
