AV-unprocessed.smi:1381|AV-procd|sdf|5607|dock2
  -GOLD-   22720 5213D 1   1.00000     0.00000
 Structure written by MMmdl.
 43 44  0  0  0  0  0  0  0  0  2 V2000
  146.1531  129.5269  151.5658 C   0  0  0  0  0  0  0  0  0  0  0  0
  146.1134  131.0000  151.3445 C   0  0  0  0  0  0  0  0  0  0  0  0
  146.5959  132.0614  152.0576 C   0  0  0  0  0  0  0  0  0  0  0  0
  146.2044  133.1782  151.2725 C   0  0  0  0  0  0  0  0  0  0  0  0
  146.5246  134.4999  151.6752 N   0  0  0  0  0  0  0  0  0  0  0  0
  145.6728  135.5143  151.9023 C   0  0  0  0  0  0  0  0  0  0  0  0
  144.4471  135.4494  151.8031 O   0  0  0  0  0  0  0  0  0  0  0  0
  146.3248  136.6325  152.2524 N   0  0  0  0  0  0  0  0  0  0  0  0
  145.6847  137.9062  152.5604 C   0  0  0  0  0  0  0  0  0  0  0  0
  146.7093  139.0565  152.6008 C   0  0  0  0  0  0  0  0  0  0  0  0
  146.3356  140.1156  153.5704 N   0  3  1  0  0  0  0  0  0  0  0  0
  146.0060  139.5661  154.9057 C   0  0  0  0  0  0  0  0  0  0  0  0
  145.5220  140.6850  155.8452 C   0  0  1  0  0  0  0  0  0  0  0  0
  145.2566  140.1692  157.2639 C   0  0  0  0  0  0  0  0  0  0  0  0
  146.5192  141.6999  155.9274 O   0  0  0  0  0  0  0  0  0  0  0  0
  146.8873  142.2830  154.6774 C   0  0  2  0  0  0  0  0  0  0  0  0
  145.7813  143.1899  154.1090 C   0  0  0  0  0  0  0  0  0  0  0  0
  147.3516  141.1897  153.6948 C   0  0  0  0  0  0  0  0  0  0  0  0
  145.5423  132.8305  150.1798 N   0  0  0  0  0  0  0  0  0  0  0  0
  145.4799  131.4327  150.2207 O   0  0  0  0  0  0  0  0  0  0  0  0
  146.8390  129.2725  152.3739 H   0  0  0  0  0  0  0  0  0  0  0  0
  146.4846  129.0089  150.6658 H   0  0  0  0  0  0  0  0  0  0  0  0
  145.1651  129.1496  151.8291 H   0  0  0  0  0  0  0  0  0  0  0  0
  147.1414  132.0380  152.9894 H   0  0  0  0  0  0  0  0  0  0  0  0
  147.5075  134.6940  151.7972 H   0  0  0  0  0  0  0  0  0  0  0  0
  147.3323  136.6004  152.3107 H   0  0  0  0  0  0  0  0  0  0  0  0
  144.8982  138.0950  151.8291 H   0  0  0  0  0  0  0  0  0  0  0  0
  145.1925  137.8121  153.5287 H   0  0  0  0  0  0  0  0  0  0  0  0
  147.6753  138.6366  152.8848 H   0  0  0  0  0  0  0  0  0  0  0  0
  146.8458  139.5000  151.6132 H   0  0  0  0  0  0  0  0  0  0  0  0
  145.2266  138.8090  154.8105 H   0  0  0  0  0  0  0  0  0  0  0  0
  146.8846  139.0711  155.3232 H   0  0  0  0  0  0  0  0  0  0  0  0
  144.5941  141.1091  155.4615 H   0  0  0  0  0  0  0  0  0  0  0  0
  144.4943  139.3896  157.2632 H   0  0  0  0  0  0  0  0  0  0  0  0
  144.9074  140.9738  157.9115 H   0  0  0  0  0  0  0  0  0  0  0  0
  146.1606  139.7531  157.7093 H   0  0  0  0  0  0  0  0  0  0  0  0
  147.7433  142.9255  154.8861 H   0  0  0  0  0  0  0  0  0  0  0  0
  146.1370  143.7274  153.2297 H   0  0  0  0  0  0  0  0  0  0  0  0
  145.4716  143.9326  154.8446 H   0  0  0  0  0  0  0  0  0  0  0  0
  144.8972  142.6282  153.8082 H   0  0  0  0  0  0  0  0  0  0  0  0
  148.2866  140.7538  154.0505 H   0  0  0  0  0  0  0  0  0  0  0  0
  147.5654  141.6381  152.7251 H   0  0  0  0  0  0  0  0  0  0  0  0
  145.4897  140.5433  153.2216 H   0  0  0  0  0  0  0  0  0  0  0  0
  1  2  1  0  0  0  0
  1 21  1  0  0  0  0
  1 22  1  0  0  0  0
  1 23  1  0  0  0  0
  2 20  1  0  0  0  0
  2  3  2  0  0  0  0
  3  4  1  0  0  0  0
  3 24  1  0  0  0  0
  4  5  1  0  0  0  0
  4 19  2  0  0  0  0
  5  6  1  0  0  0  0
  5 25  1  0  0  0  0
  6  7  2  0  0  0  0
  6  8  1  0  0  0  0
  8  9  1  0  0  0  0
  8 26  1  0  0  0  0
  9 10  1  0  0  0  0
  9 27  1  0  0  0  0
  9 28  1  0  0  0  0
 10 11  1  0  0  0  0
 10 29  1  0  0  0  0
 10 30  1  0  0  0  0
 11 18  1  0  0  0  0
 11 12  1  0  0  0  0
 11 43  1  0  0  0  0
 12 13  1  0  0  0  0
 12 31  1  0  0  0  0
 12 32  1  0  0  0  0
 13 14  1  0  0  0  0
 13 15  1  0  0  0  0
 13 33  1  0  0  0  0
 14 34  1  0  0  0  0
 14 35  1  0  0  0  0
 14 36  1  0  0  0  0
 15 16  1  0  0  0  0
 16 17  1  0  0  0  0
 16 18  1  0  0  0  0
 16 37  1  0  0  0  0
 17 38  1  0  0  0  0
 17 39  1  0  0  0  0
 17 40  1  0  0  0  0
 18 41  1  0  0  0  0
 18 42  1  0  0  0  0
 19 20  1  0  0  0  0
M  CHG  1  11   1
M  END
> <s_m_source_file>
AV-unprocessed.smi

> <i_m_source_file_index>
1381

> <i_lp_mmshare_version>
43012

> <i_f3d_flags>
0

> <s_epik_input>
W0NIM11jMVtjSF1jKG5vMSlbTkhdQyg9TylbTkhdW0NIMl1bQ0gyXU4yW0NIMl1bQ0BASF0oW0NIM10pT1tDQEBIXShbQ0gzXSlbQ0gyXTI=

> <s_epik_cmdline>
J2VwaWtfcHl0aG9uJywgJy1waCcsICc3LjAnLCAnLXRuJywgJzgnLCAnLW1hJywgJzIwMCcsICctbWV0YWxfYmluZGluZycsICctaW1hZScsICc8aW5maWxlLm1hZT4nLCAnLW9tYWUnLCAnPG91dGZpbGUubWFlPic=

> <r_epik_Ionization_Penalty>
0.707076

> <r_epik_Ionization_Penalty_Charging>
0.707039

> <r_epik_Ionization_Penalty_Neutral>
3.6548e-05

> <r_epik_State_Penalty>
0.730276

> <r_epik_Charging_Adjusted_Penalty>
1.43732

> <i_epik_Tot_Q>
1

> <i_epik_Tot_abs_Q>
1

> <r_epik_Metal_State_Penalty>
0.743132

> <b_epik_Metal_Only>
0

> <s_lp_Force_Field>
OPLS_2005

> <r_lp_Energy>
14.2109

> <b_lp_Chiralities_Consistent>
1

> <s_lp_Variant>
AV-unprocessed.smi:1381-6

> <Gold.Version>
5.8.1

> <Gold.Id.Protein>
6NUR|6NUR_protein|mol2

> <Gold.PLP.Fitness>
40.0926

> <Gold.PLP.PLP>
-29.9754

> <Gold.PLP.part.hbond>
-3.0000

> <Gold.PLP.part.metal>
0.0000

> <Gold.PLP.part.buried>
-4.4409

> <Gold.PLP.part.nonpolar>
-23.4459

> <Gold.PLP.part.repulsive>
0.5373

> <Gold.PLP.ligand.clash>
0.0000

> <Gold.PLP.ligand.torsion>
0.8488

> <Gold.PLP.Chemscore.Hbond>
3.9280

> <Gold.PLP.Chemscore.CHOScore>
0.0000

> <Gold.PLP.Chemscore.Metal>
0.0000

> <Gold.Chemscore.Hbonds>
donor molecule, donor type, donor heavy atom, donor atom, acceptor molecule, acceptor atom, score
      L1  H     5    25       P1  7948  0.83
      L1  H     8    26       P1  7948  1.00
      L1  H    11    43       P1 10175  2.00

> <Gold.PLP.Chemscore.Internal.Correction>
0.0309

> <Gold.Rescore>
     Score         DG    S(hbond)    S(metal)    S(lipo)     H(rot)  DE(clash)    DE(int)     intcor
     16.35     -17.67       2.56        0.00      66.24       1.61       0.46       0.86       ----

> <Gold.Chemscore.Fitness>
16.3464

> <Gold.Chemscore.DG>
-17.6681

> <Gold.Chemscore.ZeroCoef>
-5.4800

> <Gold.Chemscore.Hbond>
2.5613

> <Gold.Chemscore.Metal>
0.0000

> <Gold.Chemscore.Lipo>
66.2397

> <Gold.Chemscore.Internal_Hbond>
0.0000

> <Gold.Chemscore.DEClash>
0.4646

> <Gold.Chemscore.DEInternal>
0.8571

> <Gold.Chemscore.Rot>
1.6081

> <Gold.Chemscore.Internal.Correction>
   9.000000E+99

> <Gold.Chemscore.Hbonds>
donor molecule, donor type, donor heavy atom, donor atom, acceptor molecule, acceptor atom, score
      L1  H     5    25       P1  7948  0.43
      L1  H     8    26       P1  7948  0.99
      L1  H    11    43       P1 10175  0.87

> <Gold.Chemscore.Hbond.Weighted>
-8.5548

> <Gold.Chemscore.Metal.Weighted>
-0.0000

> <Gold.Chemscore.Lipo.Weighted>
-7.7500

> <Gold.Chemscore.Internal_Hbond.Weighted>
0.0000

> <Gold.Chemscore.DEClash.Weighted>
0.4646

> <Gold.Chemscore.DEInternal.Weighted>
0.8571

> <Gold.Chemscore.Rot.Weighted>
4.1167

> <Gold.Chemscore.Internal.Correction.Weighted>
   9.000000E+99

> <Gold.Protein.RotatedTorsions>
[ 6907 6896 6895 6894 ] final  132.13 input  -60.11 | X-H torsion
[ 7974 7965 7964 7962 ] final -150.61 input  175.53 | X-H torsion
[ 8008 7997 7996 7995 ] final  104.46 input   59.86 | X-H torsion
[ 10167 10162 10161 10158 ] final -115.48 input  -65.29 | X-H torsion
[ 10718 10713 10712 10709 ] final -149.73 input   66.30 | X-H torsion
[ 10763 10752 10751 10750 ] final  -57.56 input  -60.55 | X-H torsion
[ 11005 11000 10999 10996 ] final  176.06 input  -57.11 | X-H torsion

> <Gold.Protein.ActiveResidues>
 VAL166  LYS551  ARG553  GLY616  TRP617  ASP618  TYR619  PRO620  LYS621  CYS622 
 ASP623  PHE694  ASN695  SER759  ASP760  ASP761  ALA762  ILE779  LEU786  VAL792 
 PHE793  MET794  SER795  GLU796  ALA797  LYS798  CYS799  TRP800  GLU811  SER814 

> <Gold.Protein.RotatedAtoms>
  152.3355  133.6007  159.5839 H   0  0  0  0  0  0  0  0  0  0  0  0  # atno 6907 bound_to 6896
  150.7448  133.9802  159.3583 H   0  0  0  0  0  0  0  0  0  0  0  0  # atno 6908 bound_to 6896
  151.7673  135.0796  160.0405 H   0  0  0  0  0  0  0  0  0  0  0  0  # atno 6909 bound_to 6896
  144.7898  140.4909  143.5781 H   0  0  0  0  0  0  0  0  0  0  0  0  # atno 7974 bound_to 7965
  156.1575  140.3147  155.8750 H   0  0  0  0  0  0  0  0  0  0  0  0  # atno 8008 bound_to 7997
  155.3849  140.0490  157.3059 H   0  0  0  0  0  0  0  0  0  0  0  0  # atno 8009 bound_to 7997
  154.5115  140.2166  155.9159 H   0  0  0  0  0  0  0  0  0  0  0  0  # atno 8010 bound_to 7997
  140.0896  143.4712  152.1877 H   0  0  0  0  0  0  0  0  0  0  0  0  # atno 10167 bound_to 10162
  156.4370  130.8103  151.2332 H   0  0  0  0  0  0  0  0  0  0  0  0  # atno 10718 bound_to 10713
  154.2244  135.6372  153.5155 H   0  0  0  0  0  0  0  0  0  0  0  0  # atno 10763 bound_to 10752
  152.9962  135.5504  154.6079 H   0  0  0  0  0  0  0  0  0  0  0  0  # atno 10764 bound_to 10752
  154.5547  135.2904  155.0949 H   0  0  0  0  0  0  0  0  0  0  0  0  # atno 10765 bound_to 10752
  140.3690  134.7046  157.4380 H   0  0  0  0  0  0  0  0  0  0  0  0  # atno 11005 bound_to 11000
  145.5825  139.1490  143.3227 LP  0  0  0  0  0  0  0  0  0  0  0  0  # atno 17320 bound_to 7965
  146.2145  140.5955  142.9045 LP  0  0  0  0  0  0  0  0  0  0  0  0  # atno 17321 bound_to 7965
  139.5732  144.7474  151.3835 LP  0  0  0  0  0  0  0  0  0  0  0  0  # atno 17342 bound_to 10162
  140.7035  143.7572  150.7443 LP  0  0  0  0  0  0  0  0  0  0  0  0  # atno 17343 bound_to 10162
  157.7507  131.0180  150.3609 LP  0  0  0  0  0  0  0  0  0  0  0  0  # atno 17370 bound_to 10713
  156.3959  130.3906  149.6995 LP  0  0  0  0  0  0  0  0  0  0  0  0  # atno 17371 bound_to 10713
  140.0567  134.6054  155.8797 LP  0  0  0  0  0  0  0  0  0  0  0  0  # atno 17394 bound_to 11000
  141.1960  133.6590  156.5673 LP  0  0  0  0  0  0  0  0  0  0  0  0  # atno 17395 bound_to 11000

$$$$
