AV-unprocessed.smi:209|AV-procd|sdf|1608|dock4
  -GOLD-   2262019523D 1   1.00000     0.00000
 Structure written by MMmdl.
 48 52  0  0  0  0  0  0  0  0  1 V2000
  151.4831  144.3801  159.2193 O   0  0  0  0  0  0  0  0  0  0  0  0
  151.2000  143.3819  158.5606 C   0  0  0  0  0  0  0  0  0  0  0  0
  150.4599  143.3412  157.4461 N   0  0  0  0  0  0  0  0  0  0  0  0
  150.3948  142.0031  156.8663 C   0  0  0  0  0  0  0  0  0  0  0  0
  151.5924  141.3135  157.5380 C   0  0  1  0  0  0  0  0  0  0  0  0
  151.6250  141.9679  158.9113 C   0  0  1  0  0  0  0  0  0  0  0  0
  152.9761  141.6915  159.5728 C   0  0  0  0  0  0  0  0  0  0  0  0
  153.0998  140.1539  159.6934 C   0  0  0  0  0  0  0  0  0  0  0  0
  152.8350  139.4191  158.3507 C   0  0  0  0  0  0  0  0  0  0  0  0
  151.5942  139.8634  157.6971 N   0  0  0  0  0  0  0  0  0  0  0  0
  151.3062  139.1908  156.5609 C   0  0  0  0  0  0  0  0  0  0  0  0
  151.2282  139.8492  155.3744 N   0  0  0  0  0  0  0  0  0  0  0  0
  150.9289  139.1773  154.2582 C   0  0  0  0  0  0  0  0  0  0  0  0
  150.6727  137.8751  154.1102 N   0  0  0  0  0  0  0  0  0  0  0  0
  150.7465  137.2160  155.3026 C   0  0  0  0  0  0  0  0  0  0  0  0
  151.0538  137.7947  156.5650 C   0  0  0  0  0  0  0  0  0  0  0  0
  151.0342  136.8218  157.5551 N   0  0  0  0  0  0  0  0  0  0  0  0
  150.7366  135.7251  156.9128 C   0  0  0  0  0  0  0  0  0  0  0  0
  150.5385  135.8710  155.5575 N   0  0  0  0  0  0  0  0  0  0  0  0
  150.2009  134.8224  154.6067 C   0  0  0  0  0  0  0  0  0  0  0  0
  148.9766  133.9816  155.0143 C   0  0  0  0  0  0  0  0  0  0  0  0
  147.7448  134.9072  155.0833 C   0  0  0  0  0  0  0  0  0  0  0  0
  147.3416  135.3677  153.8087 O   0  0  0  0  0  0  0  0  0  0  0  0
  148.8015  132.6736  154.2291 C   0  0  0  0  0  0  0  0  0  0  0  0
  148.7386  131.8855  155.4381 O   0  0  0  0  0  0  0  0  0  0  0  0
  149.1729  133.0308  156.2041 C   0  0  0  0  0  0  0  0  0  0  0  0
  152.4942  141.5944  156.9883 H   0  0  0  0  0  0  0  0  0  0  0  0
  150.8306  141.5597  159.5400 H   0  0  0  0  0  0  0  0  0  0  0  0
  150.0521  144.1518  157.0030 H   0  0  0  0  0  0  0  0  0  0  0  0
  149.4481  141.5345  157.1401 H   0  0  0  0  0  0  0  0  0  0  0  0
  150.4798  142.0216  155.7794 H   0  0  0  0  0  0  0  0  0  0  0  0
  153.7919  142.0977  158.9733 H   0  0  0  0  0  0  0  0  0  0  0  0
  153.0319  142.1590  160.5563 H   0  0  0  0  0  0  0  0  0  0  0  0
  154.0850  139.8868  160.0757 H   0  0  0  0  0  0  0  0  0  0  0  0
  152.3809  139.7997  160.4335 H   0  0  0  0  0  0  0  0  0  0  0  0
  153.6795  139.5924  157.6822 H   0  0  0  0  0  0  0  0  0  0  0  0
  152.7893  138.3432  158.5243 H   0  0  0  0  0  0  0  0  0  0  0  0
  150.8882  139.7679  153.3547 H   0  0  0  0  0  0  0  0  0  0  0  0
  150.6541  134.7733  157.4163 H   0  0  0  0  0  0  0  0  0  0  0  0
  150.0415  135.2796  153.6293 H   0  0  0  0  0  0  0  0  0  0  0  0
  151.0804  134.1872  154.4932 H   0  0  0  0  0  0  0  0  0  0  0  0
  146.8904  134.3935  155.5242 H   0  0  0  0  0  0  0  0  0  0  0  0
  147.9479  135.7775  155.7081 H   0  0  0  0  0  0  0  0  0  0  0  0
  148.1056  135.6710  153.3427 H   0  0  0  0  0  0  0  0  0  0  0  0
  147.8836  132.6176  153.6429 H   0  0  0  0  0  0  0  0  0  0  0  0
  149.6641  132.4042  153.6178 H   0  0  0  0  0  0  0  0  0  0  0  0
  150.2097  132.9246  156.5254 H   0  0  0  0  0  0  0  0  0  0  0  0
  148.5231  133.2379  157.0551 H   0  0  0  0  0  0  0  0  0  0  0  0
  1  2  2  0  0  0  0
  2  6  1  0  0  0  0
  2  3  1  0  0  0  0
  3  4  1  0  0  0  0
  3 29  1  0  0  0  0
  4  5  1  0  0  0  0
  4 30  1  0  0  0  0
  4 31  1  0  0  0  0
  5 27  1  0  0  0  0
  5 10  1  0  0  0  0
  5  6  1  0  0  0  0
  6 28  1  0  0  0  0
  6  7  1  0  0  0  0
  7  8  1  0  0  0  0
  7 32  1  0  0  0  0
  7 33  1  0  0  0  0
  8  9  1  0  0  0  0
  8 34  1  0  0  0  0
  8 35  1  0  0  0  0
  9 10  1  0  0  0  0
  9 36  1  0  0  0  0
  9 37  1  0  0  0  0
 10 11  1  0  0  0  0
 11 16  1  0  0  0  0
 11 12  2  0  0  0  0
 12 13  1  0  0  0  0
 13 14  2  0  0  0  0
 13 38  1  0  0  0  0
 14 15  1  0  0  0  0
 15 19  1  0  0  0  0
 15 16  2  0  0  0  0
 16 17  1  0  0  0  0
 17 18  2  0  0  0  0
 18 19  1  0  0  0  0
 18 39  1  0  0  0  0
 19 20  1  0  0  0  0
 20 21  1  0  0  0  0
 20 40  1  0  0  0  0
 20 41  1  0  0  0  0
 21 26  1  0  0  0  0
 21 22  1  0  0  0  0
 21 24  1  0  0  0  0
 22 23  1  0  0  0  0
 22 42  1  0  0  0  0
 22 43  1  0  0  0  0
 23 44  1  0  0  0  0
 24 25  1  0  0  0  0
 24 45  1  0  0  0  0
 24 46  1  0  0  0  0
 25 26  1  0  0  0  0
 26 47  1  0  0  0  0
 26 48  1  0  0  0  0
M  END
> <s_m_source_file>
AV-unprocessed.smi

> <i_m_source_file_index>
209

> <i_lp_mmshare_version>
43012

> <i_f3d_flags>
0

> <s_epik_input>
W0NIMl0xW05IXUMoPU8pW0NAQEhdKFtDQEBIXTEyKVtDSDJdW0NIMl1bQ0gyXU4yYyhuW2NIXW4zKWMoYzM0KW5bY0hdbjRbQ0gyXUM1KFtDSDJdW09IXSlbQ0gyXU9bQ0gyXTU=

> <s_epik_cmdline>
J2VwaWtfcHl0aG9uJywgJy1waCcsICc3LjAnLCAnLXRuJywgJzgnLCAnLW1hJywgJzIwMCcsICctbWV0YWxfYmluZGluZycsICctaW1hZScsICc8aW5maWxlLm1hZT4nLCAnLW9tYWUnLCAnPG91dGZpbGUubWFlPic=

> <r_lp_tautomer_probability>
1

> <r_epik_Ionization_Penalty>
0.00113306

> <r_epik_Ionization_Penalty_Charging>
0

> <r_epik_Ionization_Penalty_Neutral>
0.00113306

> <r_epik_State_Penalty>
0.000624042

> <r_epik_Charging_Adjusted_Penalty>
0.000624042

> <i_epik_Tot_Q>
0

> <i_epik_Tot_abs_Q>
0

> <r_epik_Metal_State_Penalty>
-0

> <b_epik_Metal_Only>
0

> <s_lp_Force_Field>
OPLS_2005

> <r_lp_Energy>
56.9818

> <b_lp_Chiralities_Consistent>
1

> <s_lp_Variant>
AV-unprocessed.smi:209-2

> <Gold.Version>
5.8.1

> <Gold.Id.Protein>
6NUR|6NUR_protein|mol2

> <Gold.PLP.Fitness>
42.7246

> <Gold.PLP.PLP>
-34.1647

> <Gold.PLP.part.hbond>
-2.6597

> <Gold.PLP.part.metal>
0.0000

> <Gold.PLP.part.buried>
-5.6574

> <Gold.PLP.part.nonpolar>
-26.2734

> <Gold.PLP.part.repulsive>
0.3687

> <Gold.PLP.ligand.clash>
0.0193

> <Gold.PLP.ligand.torsion>
0.3728

> <Gold.PLP.Chemscore.Hbond>
1.9760

> <Gold.PLP.Chemscore.CHOScore>
1.0000

> <Gold.PLP.Chemscore.Metal>
0.0000

> <Gold.Chemscore.Hbonds>
donor molecule, donor type, donor heavy atom, donor atom, acceptor molecule, acceptor atom, score
      L1  H     3    29       P1  8028  0.91
      L1  H    23    44       P1  7948  1.00
      L1  C    13    38       P1  7957  0.98

> <Gold.PLP.Chemscore.Internal.Correction>
0.3967

> <Gold.Rescore>
     Score         DG    S(hbond)    S(metal)    S(lipo)     H(rot)  DE(clash)    DE(int)     intcor
     11.28     -13.24       1.85        0.00      71.70       2.66       0.12       1.85       ----

> <Gold.Chemscore.Fitness>
11.2760

> <Gold.Chemscore.DG>
-13.2399

> <Gold.Chemscore.ZeroCoef>
-5.4800

> <Gold.Chemscore.Hbond>
1.8520

> <Gold.Chemscore.Metal>
0.0000

> <Gold.Chemscore.Lipo>
71.7003

> <Gold.Chemscore.Internal_Hbond>
0.0000

> <Gold.Chemscore.DEClash>
0.1187

> <Gold.Chemscore.DEInternal>
1.8452

> <Gold.Chemscore.Rot>
2.6620

> <Gold.Chemscore.Internal.Correction>
   9.000000E+99

> <Gold.Chemscore.Hbonds>
donor molecule, donor type, donor heavy atom, donor atom, acceptor molecule, acceptor atom, score
      L1  H     3    29       P1  8028  0.79
      L1  H    23    44       P1  7948  0.97

> <Gold.Chemscore.Hbond.Weighted>
-6.1858

> <Gold.Chemscore.Metal.Weighted>
-0.0000

> <Gold.Chemscore.Lipo.Weighted>
-8.3889

> <Gold.Chemscore.Internal_Hbond.Weighted>
0.0000

> <Gold.Chemscore.DEClash.Weighted>
0.1187

> <Gold.Chemscore.DEInternal.Weighted>
1.8452

> <Gold.Chemscore.Rot.Weighted>
6.8148

> <Gold.Chemscore.Internal.Correction.Weighted>
   9.000000E+99

> <Gold.Protein.RotatedTorsions>
[ 6907 6896 6895 6894 ] final   79.24 input  -60.11 | X-H torsion
[ 7974 7965 7964 7962 ] final  131.41 input  175.53 | X-H torsion
[ 8008 7997 7996 7995 ] final  132.49 input   59.86 | X-H torsion
[ 10167 10162 10161 10158 ] final  -60.70 input  -65.29 | X-H torsion
[ 10718 10713 10712 10709 ] final -121.37 input   66.30 | X-H torsion
[ 10763 10752 10751 10750 ] final -142.18 input  -60.55 | X-H torsion
[ 11005 11000 10999 10996 ] final   24.52 input  -57.11 | X-H torsion

> <Gold.Protein.ActiveResidues>
 VAL166  LYS551  ARG553  GLY616  TRP617  ASP618  TYR619  PRO620  LYS621  CYS622 
 ASP623  PHE694  ASN695  SER759  ASP760  ASP761  ALA762  ILE779  LEU786  VAL792 
 PHE793  MET794  SER795  GLU796  ALA797  LYS798  CYS799  TRP800  GLU811  SER814 

> <Gold.Protein.RotatedAtoms>
  152.5191  134.3541  159.9261 H   0  0  0  0  0  0  0  0  0  0  0  0  # atno 6907 bound_to 6896
  151.3492  133.3925  159.2686 H   0  0  0  0  0  0  0  0  0  0  0  0  # atno 6908 bound_to 6896
  150.9741  134.9127  159.7863 H   0  0  0  0  0  0  0  0  0  0  0  0  # atno 6909 bound_to 6896
  145.0076  139.4251  143.5261 H   0  0  0  0  0  0  0  0  0  0  0  0  # atno 7974 bound_to 7965
  156.2983  140.2545  156.3098 H   0  0  0  0  0  0  0  0  0  0  0  0  # atno 8008 bound_to 7997
  154.9337  140.0398  157.2080 H   0  0  0  0  0  0  0  0  0  0  0  0  # atno 8009 bound_to 7997
  154.8193  140.2857  155.5802 H   0  0  0  0  0  0  0  0  0  0  0  0  # atno 8010 bound_to 7997
  140.6054  143.2372  151.5833 H   0  0  0  0  0  0  0  0  0  0  0  0  # atno 10167 bound_to 10162
  156.1332  130.6411  150.9655 H   0  0  0  0  0  0  0  0  0  0  0  0  # atno 10718 bound_to 10713
  154.8518  135.3503  154.5987 H   0  0  0  0  0  0  0  0  0  0  0  0  # atno 10763 bound_to 10752
  153.6596  135.6990  153.5186 H   0  0  0  0  0  0  0  0  0  0  0  0  # atno 10764 bound_to 10752
  153.2828  135.4258  155.1052 H   0  0  0  0  0  0  0  0  0  0  0  0  # atno 10765 bound_to 10752
  140.3578  134.2159  155.7674 H   0  0  0  0  0  0  0  0  0  0  0  0  # atno 11005 bound_to 11000
  146.3464  139.9501  142.8730 LP  0  0  0  0  0  0  0  0  0  0  0  0  # atno 17320 bound_to 7965
  145.2067  140.9878  143.4124 LP  0  0  0  0  0  0  0  0  0  0  0  0  # atno 17321 bound_to 7965
  139.5321  144.2886  152.1171 LP  0  0  0  0  0  0  0  0  0  0  0  0  # atno 17342 bound_to 10162
  140.2075  144.4596  150.6402 LP  0  0  0  0  0  0  0  0  0  0  0  0  # atno 17343 bound_to 10162
  157.6508  131.0897  150.8055 LP  0  0  0  0  0  0  0  0  0  0  0  0  # atno 17370 bound_to 10713
  156.8138  130.4961  149.5352 LP  0  0  0  0  0  0  0  0  0  0  0  0  # atno 17371 bound_to 10713
  141.1993  133.8014  157.0542 LP  0  0  0  0  0  0  0  0  0  0  0  0  # atno 17394 bound_to 11000
  140.0651  134.9733  157.1372 LP  0  0  0  0  0  0  0  0  0  0  0  0  # atno 17395 bound_to 11000

$$$$
