AV-unprocessed.smi:570|AV-procd|sdf|2962|dock5
  -GOLD-   2262023463D 1   1.00000     0.00000
 Structure written by MMmdl.
 39 40  0  0  0  0  0  0  0  0  2 V2000
  147.7326  141.3104  154.7922 C   0  0  0  0  0  0  0  0  0  0  0  0
  148.9474  141.1858  155.5100 O   0  0  0  0  0  0  0  0  0  0  0  0
  149.6245  139.9672  155.2315 C   0  0  0  0  0  0  0  0  0  0  0  0
  151.0319  139.9579  155.8641 C   0  0  0  0  0  0  0  0  0  0  0  0
  151.8226  138.6446  155.6891 C   0  0  0  0  0  0  0  0  0  0  0  0
  153.1260  138.7651  156.3356 N   0  5  0  0  0  0  0  0  0  0  0  0
  153.6717  137.8086  157.1428 C   0  0  0  0  0  0  0  0  0  0  0  0
  153.9485  136.6331  156.8781 O   0  0  0  0  0  0  0  0  0  0  0  0
  153.9556  138.3212  158.5379 C   0  0  0  0  0  0  0  0  0  0  0  0
  153.5882  139.5956  158.8292 N   0  0  0  0  0  0  0  0  0  0  0  0
  153.8384  140.0849  160.0475 C   0  0  0  0  0  0  0  0  0  0  0  0
  153.4386  141.4016  160.3113 N   0  0  0  0  0  0  0  0  0  0  0  0
  153.8071  142.0917  161.5497 C   0  0  0  0  0  0  0  0  0  0  0  0
  152.7173  143.0965  161.9603 C   0  0  0  0  0  0  0  0  0  0  0  0
  152.4667  143.9992  160.8904 O   0  0  0  0  0  0  0  0  0  0  0  0
  151.9869  143.3196  159.7366 C   0  0  0  0  0  0  0  0  0  0  0  0
  153.0455  142.3206  159.2400 C   0  0  0  0  0  0  0  0  0  0  0  0
  154.4419  139.4093  161.0317 N   0  0  0  0  0  0  0  0  0  0  0  0
  154.8173  138.1395  160.7763 C   0  0  0  0  0  0  0  0  0  0  0  0
  154.5965  137.5272  159.5277 C   0  0  0  0  0  0  0  0  0  0  0  0
  155.0762  135.8798  159.2971 Cl  0  0  0  0  0  0  0  0  0  0  0  0
  147.2571  142.2595  155.0395 H   0  0  0  0  0  0  0  0  0  0  0  0
  147.0386  140.5092  155.0488 H   0  0  0  0  0  0  0  0  0  0  0  0
  147.9072  141.2920  153.7157 H   0  0  0  0  0  0  0  0  0  0  0  0
  149.0466  139.1457  155.6577 H   0  0  0  0  0  0  0  0  0  0  0  0
  149.6688  139.7882  154.1547 H   0  0  0  0  0  0  0  0  0  0  0  0
  151.6074  140.7920  155.4600 H   0  0  0  0  0  0  0  0  0  0  0  0
  150.9246  140.1571  156.9313 H   0  0  0  0  0  0  0  0  0  0  0  0
  151.2426  137.8226  156.1103 H   0  0  0  0  0  0  0  0  0  0  0  0
  151.9174  138.4289  154.6242 H   0  0  0  0  0  0  0  0  0  0  0  0
  153.9633  141.4000  162.3766 H   0  0  0  0  0  0  0  0  0  0  0  0
  154.7528  142.6106  161.3899 H   0  0  0  0  0  0  0  0  0  0  0  0
  151.7974  142.5802  162.2399 H   0  0  0  0  0  0  0  0  0  0  0  0
  153.0409  143.6639  162.8330 H   0  0  0  0  0  0  0  0  0  0  0  0
  151.0486  142.8104  159.9626 H   0  0  0  0  0  0  0  0  0  0  0  0
  151.7711  144.0517  158.9586 H   0  0  0  0  0  0  0  0  0  0  0  0
  153.9320  142.8531  158.8939 H   0  0  0  0  0  0  0  0  0  0  0  0
  152.6354  141.7938  158.3783 H   0  0  0  0  0  0  0  0  0  0  0  0
  155.2942  137.6030  161.5832 H   0  0  0  0  0  0  0  0  0  0  0  0
  1  2  1  0  0  0  0
  1 22  1  0  0  0  0
  1 23  1  0  0  0  0
  1 24  1  0  0  0  0
  2  3  1  0  0  0  0
  3  4  1  0  0  0  0
  3 25  1  0  0  0  0
  3 26  1  0  0  0  0
  4  5  1  0  0  0  0
  4 27  1  0  0  0  0
  4 28  1  0  0  0  0
  5  6  1  0  0  0  0
  5 29  1  0  0  0  0
  5 30  1  0  0  0  0
  6  7  1  0  0  0  0
  7  8  2  0  0  0  0
  7  9  1  0  0  0  0
  9 20  1  0  0  0  0
  9 10  2  0  0  0  0
 10 11  1  0  0  0  0
 11 12  1  0  0  0  0
 11 18  2  0  0  0  0
 12 17  1  0  0  0  0
 12 13  1  0  0  0  0
 13 14  1  0  0  0  0
 13 31  1  0  0  0  0
 13 32  1  0  0  0  0
 14 15  1  0  0  0  0
 14 33  1  0  0  0  0
 14 34  1  0  0  0  0
 15 16  1  0  0  0  0
 16 17  1  0  0  0  0
 16 35  1  0  0  0  0
 16 36  1  0  0  0  0
 17 37  1  0  0  0  0
 17 38  1  0  0  0  0
 18 19  1  0  0  0  0
 19 20  2  0  0  0  0
 19 39  1  0  0  0  0
 20 21  1  0  0  0  0
M  CHG  1   6  -1
M  END
> <s_m_source_file>
AV-unprocessed.smi

> <i_m_source_file_index>
570

> <i_lp_mmshare_version>
43012

> <i_f3d_flags>
0

> <s_epik_input>
W0NIM11PW0NIMl1bQ0gyXVtDSDJdW05IXUMoPU8pYzFuYyhuW2NIXWMxQ2wpTjJbQ0gyXVtDSDJdT1tDSDJdW0NIMl0y

> <s_epik_cmdline>
J2VwaWtfcHl0aG9uJywgJy1waCcsICc3LjAnLCAnLXRuJywgJzgnLCAnLW1hJywgJzIwMCcsICctbWV0YWxfYmluZGluZycsICctaW1hZScsICc8aW5maWxlLm1hZT4nLCAnLW9tYWUnLCAnPG91dGZpbGUubWFlPic=

> <r_lp_tautomer_probability>
1

> <r_epik_Ionization_Penalty>
6.0123

> <r_epik_Ionization_Penalty_Charging>
6.01228

> <r_epik_Ionization_Penalty_Neutral>
2.47988e-05

> <r_epik_State_Penalty>
6.01226

> <r_epik_Charging_Adjusted_Penalty>
12.0245

> <i_epik_Tot_Q>
-1

> <i_epik_Tot_abs_Q>
1

> <r_epik_Metal_State_Penalty>
1.96418

> <b_epik_Metal_Only>
1

> <s_lp_Force_Field>
OPLS_2005

> <r_lp_Energy>
20.8632

> <b_lp_Chiralities_Consistent>
1

> <s_lp_Variant>
AV-unprocessed.smi:570-2

> <Gold.Version>
5.8.1

> <Gold.Id.Protein>
6NUR|6NUR_protein|mol2

> <Gold.PLP.Fitness>
48.7884

> <Gold.PLP.PLP>
-41.0333

> <Gold.PLP.part.hbond>
-2.7895

> <Gold.PLP.part.metal>
0.0000

> <Gold.PLP.part.buried>
-2.0536

> <Gold.PLP.part.nonpolar>
-34.7493

> <Gold.PLP.part.repulsive>
0.2213

> <Gold.PLP.ligand.clash>
0.0000

> <Gold.PLP.ligand.torsion>
0.7265

> <Gold.PLP.Chemscore.Hbond>
2.9760

> <Gold.PLP.Chemscore.CHOScore>
0.0000

> <Gold.PLP.Chemscore.Metal>
0.0000

> <Gold.Chemscore.Hbonds>
donor molecule, donor type, donor heavy atom, donor atom, acceptor molecule, acceptor atom, score
      P1  H  7997  8009       L1     6  2.00
      P1  H 10752 10765       L1     8  0.96

> <Gold.PLP.Chemscore.Internal.Correction>
0.2802

> <Gold.Rescore>
     Score         DG    S(hbond)    S(metal)    S(lipo)     H(rot)  DE(clash)    DE(int)     intcor
     15.93     -18.03       1.73        0.00      92.83       1.59       0.01       2.09       ----

> <Gold.Chemscore.Fitness>
15.9255

> <Gold.Chemscore.DG>
-18.0281

> <Gold.Chemscore.ZeroCoef>
-5.4800

> <Gold.Chemscore.Hbond>
1.7275

> <Gold.Chemscore.Metal>
0.0000

> <Gold.Chemscore.Lipo>
92.8311

> <Gold.Chemscore.Internal_Hbond>
0.0000

> <Gold.Chemscore.DEClash>
0.0089

> <Gold.Chemscore.DEInternal>
2.0937

> <Gold.Chemscore.Rot>
1.5949

> <Gold.Chemscore.Internal.Correction>
   9.000000E+99

> <Gold.Chemscore.Hbonds>
donor molecule, donor type, donor heavy atom, donor atom, acceptor molecule, acceptor atom, score
      P1  H  7997  8009       L1     6  0.30
      P1  H 10752 10765       L1     8  0.91

> <Gold.Chemscore.Hbond.Weighted>
-5.7698

> <Gold.Chemscore.Metal.Weighted>
-0.0000

> <Gold.Chemscore.Lipo.Weighted>
-10.8612

> <Gold.Chemscore.Internal_Hbond.Weighted>
0.0000

> <Gold.Chemscore.DEClash.Weighted>
0.0089

> <Gold.Chemscore.DEInternal.Weighted>
2.0937

> <Gold.Chemscore.Rot.Weighted>
4.0830

> <Gold.Chemscore.Internal.Correction.Weighted>
   9.000000E+99

> <Gold.Protein.RotatedTorsions>
[ 6907 6896 6895 6894 ] final -154.83 input  -60.11 | X-H torsion
[ 7974 7965 7964 7962 ] final -168.74 input  175.53 | X-H torsion
[ 8008 7997 7996 7995 ] final -169.93 input   59.86 | X-H torsion
[ 10167 10162 10161 10158 ] final -105.45 input  -65.29 | X-H torsion
[ 10718 10713 10712 10709 ] final -110.39 input   66.30 | X-H torsion
[ 10763 10752 10751 10750 ] final -104.78 input  -60.55 | X-H torsion
[ 11005 11000 10999 10996 ] final -152.48 input  -57.11 | X-H torsion

> <Gold.Protein.ActiveResidues>
 VAL166  LYS551  ARG553  GLY616  TRP617  ASP618  TYR619  PRO620  LYS621  CYS622 
 ASP623  PHE694  ASN695  SER759  ASP760  ASP761  ALA762  ILE779  LEU786  VAL792 
 PHE793  MET794  SER795  GLU796  ALA797  LYS798  CYS799  TRP800  GLU811  SER814 

> <Gold.Protein.RotatedAtoms>
  151.2633  133.4291  159.2617 H   0  0  0  0  0  0  0  0  0  0  0  0  # atno 6907 bound_to 6896
  151.0511  134.9674  159.8222 H   0  0  0  0  0  0  0  0  0  0  0  0  # atno 6908 bound_to 6896
  152.5383  134.2587  159.8979 H   0  0  0  0  0  0  0  0  0  0  0  0  # atno 6909 bound_to 6896
  144.7197  140.2326  143.6302 H   0  0  0  0  0  0  0  0  0  0  0  0  # atno 7974 bound_to 7965
  155.9115  140.1058  157.1276 H   0  0  0  0  0  0  0  0  0  0  0  0  # atno 8008 bound_to 7997
  154.4040  140.1273  156.4628 H   0  0  0  0  0  0  0  0  0  0  0  0  # atno 8009 bound_to 7997
  155.7304  140.3468  155.5059 H   0  0  0  0  0  0  0  0  0  0  0  0  # atno 8010 bound_to 7997
  140.1984  143.3837  152.1149 H   0  0  0  0  0  0  0  0  0  0  0  0  # atno 10167 bound_to 10162
  156.0588  130.5813  150.8231 H   0  0  0  0  0  0  0  0  0  0  0  0  # atno 10718 bound_to 10713
  154.7902  135.4773  154.0035 H   0  0  0  0  0  0  0  0  0  0  0  0  # atno 10763 bound_to 10752
  153.1619  135.6810  153.8737 H   0  0  0  0  0  0  0  0  0  0  0  0  # atno 10764 bound_to 10752
  153.8347  135.3187  155.3399 H   0  0  0  0  0  0  0  0  0  0  0  0  # atno 10765 bound_to 10752
  140.7184  134.3754  157.5187 H   0  0  0  0  0  0  0  0  0  0  0  0  # atno 11005 bound_to 11000
  145.8396  139.2124  143.1835 LP  0  0  0  0  0  0  0  0  0  0  0  0  # atno 17320 bound_to 7965
  146.0358  140.8214  142.9853 LP  0  0  0  0  0  0  0  0  0  0  0  0  # atno 17321 bound_to 7965
  139.5227  144.7062  151.5346 LP  0  0  0  0  0  0  0  0  0  0  0  0  # atno 17342 bound_to 10162
  140.6407  143.8894  150.6689 LP  0  0  0  0  0  0  0  0  0  0  0  0  # atno 17343 bound_to 10162
  157.5581  131.0945  150.9599 LP  0  0  0  0  0  0  0  0  0  0  0  0  # atno 17370 bound_to 10713
  156.9843  130.5539  149.5298 LP  0  0  0  0  0  0  0  0  0  0  0  0  # atno 17371 bound_to 10713
  139.8854  134.8938  156.2645 LP  0  0  0  0  0  0  0  0  0  0  0  0  # atno 17394 bound_to 11000
  141.0024  133.7143  156.0982 LP  0  0  0  0  0  0  0  0  0  0  0  0  # atno 17395 bound_to 11000

$$$$
