#       Name:                AV-unprocessed.smi:30
#       Creating user name   scv26
#       Creation time:       Thu Mar 26 15:46:31 2020


#       File generated by GOLD software.
#

@<TRIPOS>MOLECULE
AV-unprocessed.smi:30
    64    67     1
SMALL
NO_CHARGES


@<TRIPOS>ATOM
      1 ****        -1.2982   0.0771  -0.3470 O.2            1 S1                 0.0000
      2 ****        -1.6308  -0.9406   0.2619 C.2            1 S1                 0.0000
      3 ****        -3.1109  -1.3436   0.3599 C.3            1 S1                 0.0000
      4 ****        -4.0036  -0.5530  -0.5161 N.am           1 S1                 0.0000
      5 ****        -4.1908  -0.9802  -1.8547 C.2            1 S1                 0.0000
      6 ****        -3.6336  -1.9909  -2.2856 O.2            1 S1                 0.0000
      7 ****        -5.0668  -0.1434  -2.6672 C.2            1 S1                 0.0000
      8 ****        -5.2953  -0.4680  -3.9511 F              1 S1                 0.0000
      9 ****        -5.6512   0.9565  -2.1499 C.2            1 S1                 0.0000
     10 ****        -5.4649   1.3572  -0.8401 N.am           1 S1                 0.0000
     11 ****        -6.1305   2.6046  -0.3073 C.3            1 S1                 0.0000
     12 ****        -5.2584   3.8344  -0.5878 C.3            1 S1                 0.0000
     13 ****        -5.9176   4.4187  -1.8191 C.3            1 S1                 0.0000
     14 ****        -7.3808   4.0682  -1.5788 C.3            1 S1                 0.0000
     15 ****        -7.3501   2.7826  -0.9686 O.3            1 S1                 0.0000
     16 ****        -4.6129   0.6135   0.0051 C.2            1 S1                 0.0000
     17 ****        -4.3979   0.9781   1.1629 O.2            1 S1                 0.0000
     18 ****        -0.7768  -1.7551   0.9083 N.am           1 S1                 0.0000
     19 ****         0.6413  -1.6865   0.9760 C.ar           1 S1                 0.0000
     20 ****         1.2688  -2.3296   2.0612 C.ar           1 S1                 0.0000
     21 ****         2.6718  -2.3300   2.1777 C.ar           1 S1                 0.0000
     22 ****         3.4772  -1.7001   1.2079 C.ar           1 S1                 0.0000
     23 ****         4.8421  -1.7554   1.3942 O.3            1 S1                 0.0000
     24 ****         5.6814  -1.1723   0.4051 C.3            1 S1                 0.0000
     25 ****         7.1502  -1.3229   0.7526 C.ar           1 S1                 0.0000
     26 ****         7.5967  -1.0762   2.0683 C.ar           1 S1                 0.0000
     27 ****         8.9633  -1.1973   2.3874 C.ar           1 S1                 0.0000
     28 ****         9.8902  -1.5599   1.3910 C.ar           1 S1                 0.0000
     29 ****         9.4499  -1.7995   0.0750 C.ar           1 S1                 0.0000
     30 ****         8.0833  -1.6783  -0.2446 C.ar           1 S1                 0.0000
     31 ****         2.8466  -1.0626   0.1106 C.ar           1 S1                 0.0000
     32 ****         1.4430  -1.0597  -0.0069 C.ar           1 S1                 0.0000
     33 ****        -3.1987  -2.4077   0.1333 H              1 S1                 0.0000
     34 ****        -3.4172  -1.2722   1.4046 H              1 S1                 0.0000
     35 ****        -6.2856   1.5440  -2.7969 H              1 S1                 0.0000
     36 ****        -6.3185   2.4329   0.7536 H              1 S1                 0.0000
     37 ****        -5.3462   4.5216   0.2546 H              1 S1                 0.0000
     38 ****        -4.2075   3.5770  -0.7260 H              1 S1                 0.0000
     39 ****        -5.7475   5.4900  -1.9281 H              1 S1                 0.0000
     40 ****        -5.5511   3.9205  -2.7175 H              1 S1                 0.0000
     41 ****        -7.8338   4.7776  -0.8850 H              1 S1                 0.0000
     42 ****        -7.9702   4.0632  -2.4956 H              1 S1                 0.0000
     43 ****        -1.1999  -2.4909   1.4548 H              1 S1                 0.0000
     44 ****         0.6746  -2.8262   2.8144 H              1 S1                 0.0000
     45 ****         3.1353  -2.8248   3.0185 H              1 S1                 0.0000
     46 ****         5.4922  -1.6417  -0.5618 H              1 S1                 0.0000
     47 ****         5.4677  -0.1067   0.3104 H              1 S1                 0.0000
     48 ****         6.8923  -0.7928   2.8366 H              1 S1                 0.0000
     49 ****         9.3006  -1.0096   3.3961 H              1 S1                 0.0000
     50 ****        10.9381  -1.6516   1.6352 H              1 S1                 0.0000
     51 ****        10.1606  -2.0747  -0.6901 H              1 S1                 0.0000
     52 ****         7.7555  -1.8600  -1.2577 H              1 S1                 0.0000
     53 ****         3.4185  -0.5720  -0.6619 H              1 S1                 0.0000
     54 ****         1.0047  -0.5843  -0.8706 H              1 S1                 0.0000
     55 ****        -1.9934   0.6488  -0.7827 LP             1 S1                 0.0000
     56 ****        -0.3329   0.3317  -0.4057 LP             1 S1                 0.0000
     57 ****        -3.0366  -2.5260  -1.6879 LP             1 S1                 0.0000
     58 ****        -3.7782  -2.2761  -3.2331 LP             1 S1                 0.0000
     59 ****        -8.0992   2.7090  -0.3103 LP             1 S1                 0.0000
     60 ****        -7.4533   2.0785  -1.6712 LP             1 S1                 0.0000
     61 ****        -3.7853   0.4474   1.7486 LP             1 S1                 0.0000
     62 ****        -4.8360   1.8046   1.5163 LP             1 S1                 0.0000
     63 ****         5.0927  -2.7210   1.4634 LP             1 S1                 0.0000
     64 ****         5.0417  -1.2964   2.2599 LP             1 S1                 0.0000
@<TRIPOS>BOND
    1    1    2 2     
    2    2    3 1     
    3    2   18 am    
    4    3    4 1     
    5    3   33 1     
    6    3   34 1     
    7    4   16 am    
    8    4    5 am    
    9    5    6 2     
   10    5    7 1     
   11    7    8 1     
   12    7    9 2     
   13    9   10 1     
   14    9   35 1     
   15   10   11 1     
   16   10   16 am    
   17   11   15 1     
   18   11   12 1     
   19   11   36 1     
   20   12   13 1     
   21   12   37 1     
   22   12   38 1     
   23   13   14 1     
   24   13   39 1     
   25   13   40 1     
   26   14   15 1     
   27   14   41 1     
   28   14   42 1     
   29   16   17 2     
   30   18   19 1     
   31   18   43 1     
   32   19   32 ar    
   33   19   20 ar    
   34   20   21 ar    
   35   20   44 1     
   36   21   22 ar    
   37   21   45 1     
   38   22   23 1     
   39   22   31 ar    
   40   23   24 1     
   41   24   25 1     
   42   24   46 1     
   43   24   47 1     
   44   25   30 ar    
   45   25   26 ar    
   46   26   27 ar    
   47   26   48 1     
   48   27   28 ar    
   49   27   49 1     
   50   28   29 ar    
   51   28   50 1     
   52   29   30 ar    
   53   29   51 1     
   54   30   52 1     
   55   31   32 ar    
   56   31   53 1     
   57   32   54 1     
   58    1   55 1     
   59    1   56 1     
   60    6   57 1     
   61    6   58 1     
   62   15   59 1     
   63   15   60 1     
   64   17   61 1     
   65   17   62 1     
   66   23   63 1     
   67   23   64 1     
@<TRIPOS>SUBSTRUCTURE
      1 S1             1
@<TRIPOS>SET
LONE_PAIRS      STATIC     ATOMS    <user>   **** ""
10 55 56 57 58 59 60 61 62 63 64
DONOR_HYDROGENS      STATIC     ATOMS    <user>   **** ""
1 43
ATOM$BLUE        STATIC     ATOMS    COLORGROUP SYSTEM
10 55 56 57 58 59 60 61 62 63 64
ATOM$RED        STATIC     ATOMS    COLORGROUP SYSTEM
1 43
