#       Name:                AV-unprocessed.smi:109
#       Creating user name   scv26
#       Creation time:       Thu Mar 26 18:13:09 2020


#       File generated by GOLD software.
#

@<TRIPOS>MOLECULE
AV-unprocessed.smi:109
    71    74     1
SMALL
NO_CHARGES


@<TRIPOS>ATOM
      1 ****        -2.4316   2.1770  -4.0046 O.3            1 S1                 0.0000
      2 ****        -1.8866   1.8350  -2.7485 C.3            1 S1                 0.0000
      3 ****        -3.0137   1.6812  -1.7126 C.3            1 S1                 0.0000
      4 ****        -2.5226   1.3776  -0.2749 C.3            1 S1                 0.0000
      5 ****        -1.7948   0.1063  -0.2640 N.pl3          1 S1                 0.0000
      6 ****        -0.4441   0.0443  -0.2663 C.ar           1 S1                 0.0000
      7 ****         0.3195   1.1669  -0.3029 N.ar           1 S1                 0.0000
      8 ****         1.6517   1.0700  -0.3162 C.ar           1 S1                 0.0000
      9 ****         2.4074  -0.0297  -0.2980 N.ar           1 S1                 0.0000
     10 ****         1.6474  -1.1622  -0.2551 C.ar           1 S1                 0.0000
     11 ****         0.2251  -1.2064  -0.2380 C.ar           1 S1                 0.0000
     12 ****        -0.2049  -2.5258  -0.1997 N.2            1 S1                 0.0000
     13 ****         0.9023  -3.2180  -0.1966 C.2            1 S1                 0.0000
     14 ****         2.0645  -2.4794  -0.2302 N.pl3          1 S1                 0.0000
     15 ****         3.4692  -3.0057  -0.2389 C.3            1 S1                 0.0000
     16 ****         4.2804  -2.1759   0.5416 O.3            1 S1                 0.0000
     17 ****         5.3332  -1.6158  -0.2435 C.3            1 S1                 0.0000
     18 ****         6.5787  -1.4142   0.6323 C.3            1 S1                 0.0000
     19 ****         6.4682  -0.2064   1.3541 O.3            1 S1                 0.0000
     20 ****         5.5208  -2.6551  -1.3495 C.3            1 S1                 0.0000
     21 ****         6.1976  -2.1532  -2.4864 O.3            1 S1                 0.0000
     22 ****         4.0889  -3.0753  -1.6482 C.3            1 S1                 0.0000
     23 ****         3.4533  -2.2256  -2.5915 O.3            1 S1                 0.0000
     24 ****        -3.6703   1.3205   0.7746 C.3            1 S1                 0.0000
     25 ****        -4.5296   2.6095   0.8147 C.3            1 S1                 0.0000
     26 ****        -5.6297   2.5514   1.8878 C.3            1 S1                 0.0000
     27 ****        -5.0468   2.2666   3.2769 C.3            1 S1                 0.0000
     28 ****        -4.2202   0.9758   3.2588 C.3            1 S1                 0.0000
     29 ****        -3.1138   1.0416   2.1949 C.3            1 S1                 0.0000
     30 ****         3.4011  -3.9830   0.2408 H              1 S1                 0.0000
     31 ****         5.0066  -0.6726  -0.6845 H              1 S1                 0.0000
     32 ****         6.0729  -3.5107  -0.9566 H              1 S1                 0.0000
     33 ****         4.0396  -4.0988  -2.0215 H              1 S1                 0.0000
     34 ****        -3.0012   1.4773  -4.2857 H              1 S1                 0.0000
     35 ****        -1.3205   0.9102  -2.8592 H              1 S1                 0.0000
     36 ****        -1.1878   2.6142  -2.4429 H              1 S1                 0.0000
     37 ****        -3.5729   2.6150  -1.7221 H              1 S1                 0.0000
     38 ****        -3.7072   0.9035  -2.0355 H              1 S1                 0.0000
     39 ****        -1.8684   2.1942   0.0297 H              1 S1                 0.0000
     40 ****        -2.3734  -0.7209  -0.2305 H              1 S1                 0.0000
     41 ****         2.1885   2.0066  -0.3476 H              1 S1                 0.0000
     42 ****         0.9014  -4.2980  -0.1723 H              1 S1                 0.0000
     43 ****         6.7263  -2.2529   1.3132 H              1 S1                 0.0000
     44 ****         7.4700  -1.3419   0.0085 H              1 S1                 0.0000
     45 ****         5.6973  -0.2529   1.8991 H              1 S1                 0.0000
     46 ****         5.6791  -1.4561  -2.8586 H              1 S1                 0.0000
     47 ****         3.4023  -1.3566  -2.2222 H              1 S1                 0.0000
     48 ****        -4.3305   0.4943   0.5053 H              1 S1                 0.0000
     49 ****        -3.8893   3.4739   0.9945 H              1 S1                 0.0000
     50 ****        -5.0204   2.7788  -0.1422 H              1 S1                 0.0000
     51 ****        -6.1817   3.4915   1.9039 H              1 S1                 0.0000
     52 ****        -6.3506   1.7751   1.6289 H              1 S1                 0.0000
     53 ****        -4.4190   3.1013   3.5913 H              1 S1                 0.0000
     54 ****        -5.8497   2.1866   4.0102 H              1 S1                 0.0000
     55 ****        -3.7803   0.8034   4.2414 H              1 S1                 0.0000
     56 ****        -4.8718   0.1246   3.0574 H              1 S1                 0.0000
     57 ****        -2.5638   0.1007   2.2184 H              1 S1                 0.0000
     58 ****        -2.3976   1.8185   2.4660 H              1 S1                 0.0000
     59 ****        -1.6949   2.2998  -4.6695 LP             1 S1                 0.0000
     60 ****        -2.9541   3.0259  -3.9255 LP             1 S1                 0.0000
     61 ****        -0.1160   2.0669  -0.3199 LP             1 S1                 0.0000
     62 ****         3.4073  -0.0245  -0.3138 LP             1 S1                 0.0000
     63 ****        -1.1446  -2.8670  -0.1792 LP             1 S1                 0.0000
     64 ****         4.6764  -2.7114   1.2875 LP             1 S1                 0.0000
     65 ****         3.7246  -1.4362   0.9210 LP             1 S1                 0.0000
     66 ****         6.3860   0.5607   0.7179 LP             1 S1                 0.0000
     67 ****         7.2787  -0.0797   1.9260 LP             1 S1                 0.0000
     68 ****         6.3147  -2.8834  -3.1594 LP             1 S1                 0.0000
     69 ****         7.0941  -1.8008  -2.2175 LP             1 S1                 0.0000
     70 ****         2.5329  -2.5649  -2.7856 LP             1 S1                 0.0000
     71 ****         3.9854  -2.2025  -3.4378 LP             1 S1                 0.0000
@<TRIPOS>BOND
    1    1    2 1     
    2    1   34 1     
    3    2    3 1     
    4    2   35 1     
    5    2   36 1     
    6    3    4 1     
    7    3   37 1     
    8    3   38 1     
    9    4    5 1     
   10    4   24 1     
   11    4   39 1     
   12    5    6 1     
   13    5   40 1     
   14    6   11 ar    
   15    6    7 ar    
   16    7    8 ar    
   17    8    9 ar    
   18    8   41 1     
   19    9   10 ar    
   20   10   14 1     
   21   10   11 ar    
   22   11   12 1     
   23   12   13 2     
   24   13   14 1     
   25   13   42 1     
   26   14   15 1     
   27   15   30 1     
   28   15   22 1     
   29   15   16 1     
   30   16   17 1     
   31   17   31 1     
   32   17   18 1     
   33   17   20 1     
   34   18   19 1     
   35   18   43 1     
   36   18   44 1     
   37   19   45 1     
   38   20   32 1     
   39   20   21 1     
   40   20   22 1     
   41   21   46 1     
   42   22   33 1     
   43   22   23 1     
   44   23   47 1     
   45   24   29 1     
   46   24   25 1     
   47   24   48 1     
   48   25   26 1     
   49   25   49 1     
   50   25   50 1     
   51   26   27 1     
   52   26   51 1     
   53   26   52 1     
   54   27   28 1     
   55   27   53 1     
   56   27   54 1     
   57   28   29 1     
   58   28   55 1     
   59   28   56 1     
   60   29   57 1     
   61   29   58 1     
   62    1   59 1     
   63    1   60 1     
   64    7   61 1     
   65    9   62 1     
   66   12   63 1     
   67   16   64 1     
   68   16   65 1     
   69   19   66 1     
   70   19   67 1     
   71   21   68 1     
   72   21   69 1     
   73   23   70 1     
   74   23   71 1     
@<TRIPOS>SUBSTRUCTURE
      1 S1             1
@<TRIPOS>SET
LONE_PAIRS      STATIC     ATOMS    <user>   **** ""
13 59 60 61 62 63 64 65 66 67 68 69 70 71
DONOR_HYDROGENS      STATIC     ATOMS    <user>   **** ""
5 34 40 45 46 47
ATOM$BLUE        STATIC     ATOMS    COLORGROUP SYSTEM
13 59 60 61 62 63 64 65 66 67 68 69 70 71
ATOM$RED        STATIC     ATOMS    COLORGROUP SYSTEM
5 34 40 45 46 47
