#       Name:                AV-unprocessed.smi:3312
#       Creating user name   scv26
#       Creation time:       Fri Mar 27 19:07:15 2020


#       File generated by GOLD software.
#

@<TRIPOS>MOLECULE
AV-unprocessed.smi:3312
    44    45     1
SMALL
NO_CHARGES


@<TRIPOS>ATOM
      1 ****        -4.4271   4.3347  -1.0365 C.3            1 S1                 0.0000
      2 ****        -3.8566   3.2305  -0.1938 C.2            1 S1                 0.0000
      3 ****        -3.3299   3.3196   1.1262 C.2            1 S1                 0.0000
      4 ****        -2.9019   2.1564   1.5889 N.2            1 S1                 0.0000
      5 ****        -3.1359   1.2868   0.5836 N.pl3          1 S1                 0.0000
      6 ****        -2.7833  -0.1134   0.7413 C.3            1 S1                 0.0000
      7 ****        -1.2646  -0.3527   0.6852 C.3            1 S1                 0.0000
      8 ****        -0.7510  -0.0269  -0.6423 N.3            1 S1                 0.0000
      9 ****         0.7085  -0.1971  -0.7476 C.3            1 S1                 0.0000
     10 ****         1.2097  -1.6562  -0.7552 C.2            1 S1                 0.0000
     11 ****         0.3915  -2.5707  -0.8699 O.2            1 S1                 0.0000
     12 ****         2.5398  -1.8939  -0.6520 N.am           1 S1                 0.0000
     13 ****         3.1109  -3.2413  -0.5653 C.3            1 S1                 0.0000
     14 ****         3.8030  -3.3860   0.8025 C.3            1 S1                 0.0000
     15 ****         4.7976  -2.3748   0.9498 O.3            1 S1                 0.0000
     16 ****         4.2748  -1.0530   0.8370 C.3            1 S1                 0.0000
     17 ****         3.5961  -0.8839  -0.5337 C.3            1 S1                 0.0000
     18 ****        -3.7152   1.9073  -0.5028 C.2            1 S1                 0.0000
     19 ****        -4.7747   5.1698  -0.4279 H              1 S1                 0.0000
     20 ****        -5.2771   3.9935  -1.6279 H              1 S1                 0.0000
     21 ****        -3.6878   4.7301  -1.7333 H              1 S1                 0.0000
     22 ****        -3.2466   4.1911   1.7588 H              1 S1                 0.0000
     23 ****        -3.1766  -0.4570   1.6989 H              1 S1                 0.0000
     24 ****        -3.2912  -0.6948  -0.0294 H              1 S1                 0.0000
     25 ****        -0.7617   0.2551   1.4388 H              1 S1                 0.0000
     26 ****        -1.0615  -1.3945   0.9314 H              1 S1                 0.0000
     27 ****        -1.0222   0.9202  -0.8648 H              1 S1                 0.0000
     28 ****         1.0350   0.2676  -1.6784 H              1 S1                 0.0000
     29 ****         1.1782   0.3579   0.0653 H              1 S1                 0.0000
     30 ****         2.3666  -4.0296  -0.6840 H              1 S1                 0.0000
     31 ****         3.8330  -3.3824  -1.3708 H              1 S1                 0.0000
     32 ****         3.0770  -3.3151   1.6141 H              1 S1                 0.0000
     33 ****         4.2788  -4.3634   0.8838 H              1 S1                 0.0000
     34 ****         3.5705  -0.8582   1.6474 H              1 S1                 0.0000
     35 ****         5.0923  -0.3402   0.9446 H              1 S1                 0.0000
     36 ****         4.3257  -1.0372  -1.3301 H              1 S1                 0.0000
     37 ****         3.2476   0.1402  -0.6533 H              1 S1                 0.0000
     38 ****        -3.9731   1.3616  -1.3985 H              1 S1                 0.0000
     39 ****        -2.4962   1.9646   2.4826 LP             1 S1                 0.0000
     40 ****        -1.1465  -0.6665  -1.3014 LP             1 S1                 0.0000
     41 ****        -0.5826  -2.3621  -0.9564 LP             1 S1                 0.0000
     42 ****         0.7018  -3.5213  -0.8764 LP             1 S1                 0.0000
     43 ****         5.4903  -2.5044   0.2403 LP             1 S1                 0.0000
     44 ****         5.2206  -2.4736   1.8505 LP             1 S1                 0.0000
@<TRIPOS>BOND
    1    1    2 1     
    2    1   19 1     
    3    1   20 1     
    4    1   21 1     
    5    2   18 2     
    6    2    3 1     
    7    3    4 2     
    8    3   22 1     
    9    4    5 1     
   10    5    6 1     
   11    5   18 1     
   12    6    7 1     
   13    6   23 1     
   14    6   24 1     
   15    7    8 1     
   16    7   25 1     
   17    7   26 1     
   18    8    9 1     
   19    8   27 1     
   20    9   10 1     
   21    9   28 1     
   22    9   29 1     
   23   10   11 2     
   24   10   12 am    
   25   12   17 1     
   26   12   13 1     
   27   13   14 1     
   28   13   30 1     
   29   13   31 1     
   30   14   15 1     
   31   14   32 1     
   32   14   33 1     
   33   15   16 1     
   34   16   17 1     
   35   16   34 1     
   36   16   35 1     
   37   17   36 1     
   38   17   37 1     
   39   18   38 1     
   40    4   39 1     
   41    8   40 1     
   42   11   41 1     
   43   11   42 1     
   44   15   43 1     
   45   15   44 1     
@<TRIPOS>SUBSTRUCTURE
      1 S1             1
@<TRIPOS>SET
LONE_PAIRS      STATIC     ATOMS    <user>   **** ""
6 39 40 41 42 43 44
DONOR_HYDROGENS      STATIC     ATOMS    <user>   **** ""
1 27
ATOM$BLUE        STATIC     ATOMS    COLORGROUP SYSTEM
6 39 40 41 42 43 44
ATOM$RED        STATIC     ATOMS    COLORGROUP SYSTEM
1 27
