AV-unprocessed.smi:2341|AV-procd|sdf|9353|dock8
  -GOLD-   2272012573D 1   1.00000     0.00000
 Structure written by MMmdl.
 52 54  0  0  0  0  0  0  0  0  2 V2000
  150.9583  142.2662  156.6054 C   0  0  0  0  0  0  0  0  0  0  0  0
  150.2666  141.2498  155.7214 C   0  0  0  0  0  0  0  0  0  0  0  0
  149.0834  141.5688  155.0283 C   0  0  0  0  0  0  0  0  0  0  0  0
  148.4829  140.5827  154.2219 C   0  0  0  0  0  0  0  0  0  0  0  0
  149.0771  139.3041  154.1276 C   0  0  0  0  0  0  0  0  0  0  0  0
  148.3929  138.3829  153.2902 N   0  0  0  0  0  0  0  0  0  0  0  0
  147.0668  138.2514  153.1090 C   0  0  0  0  0  0  0  0  0  0  0  0
  146.2000  138.9266  153.6651 O   0  0  0  0  0  0  0  0  0  0  0  0
  146.7899  137.2748  152.2321 N   0  0  0  0  0  0  0  0  0  0  0  0
  145.4484  136.8877  151.8051 C   0  0  2  0  0  0  0  0  0  0  0  0
  144.6662  136.2391  152.9647 C   0  0  0  0  0  0  0  0  0  0  0  0
  143.3090  135.6816  152.4886 C   0  0  0  0  0  0  0  0  0  0  0  0
  143.4552  134.7279  151.3502 N   0  3  2  0  0  0  0  0  0  0  0  0
  143.9856  133.3741  151.7316 C   0  0  0  0  0  0  0  0  0  0  0  0
  145.4371  133.4171  152.2828 C   0  0  0  0  0  0  0  0  0  0  0  0
  145.9857  132.0206  152.6157 C   0  0  0  0  0  0  0  0  0  0  0  0
  145.9227  131.0909  151.3995 C   0  0  0  0  0  0  0  0  0  0  0  0
  144.4898  131.0081  150.8630 C   0  0  0  0  0  0  0  0  0  0  0  0
  143.9386  132.4019  150.5233 C   0  0  0  0  0  0  0  0  0  0  0  0
  144.1393  135.4137  150.2163 C   0  0  0  0  0  0  0  0  0  0  0  0
  145.5388  135.9165  150.6160 C   0  0  0  0  0  0  0  0  0  0  0  0
  150.2174  139.0067  154.7993 N   0  0  0  0  0  0  0  0  0  0  0  0
  150.7924  139.9522  155.5717 C   0  0  0  0  0  0  0  0  0  0  0  0
  150.4809  143.2439  156.5341 H   0  0  0  0  0  0  0  0  0  0  0  0
  152.0029  142.3747  156.3120 H   0  0  0  0  0  0  0  0  0  0  0  0
  150.9249  141.9441  157.6464 H   0  0  0  0  0  0  0  0  0  0  0  0
  148.6397  142.5502  155.1102 H   0  0  0  0  0  0  0  0  0  0  0  0
  147.5747  140.8111  153.6828 H   0  0  0  0  0  0  0  0  0  0  0  0
  148.9829  137.7540  152.7662 H   0  0  0  0  0  0  0  0  0  0  0  0
  147.5632  136.7704  151.8235 H   0  0  0  0  0  0  0  0  0  0  0  0
  144.9104  137.7778  151.4725 H   0  0  0  0  0  0  0  0  0  0  0  0
  145.2593  135.4455  153.4194 H   0  0  0  0  0  0  0  0  0  0  0  0
  144.4961  136.9735  153.7530 H   0  0  0  0  0  0  0  0  0  0  0  0
  142.7677  135.2443  153.3243 H   0  0  0  0  0  0  0  0  0  0  0  0
  142.6862  136.5123  152.1534 H   0  0  0  0  0  0  0  0  0  0  0  0
  143.3574  132.9670  152.5236 H   0  0  0  0  0  0  0  0  0  0  0  0
  146.0947  133.9016  151.5594 H   0  0  0  0  0  0  0  0  0  0  0  0
  145.4892  134.0027  153.2001 H   0  0  0  0  0  0  0  0  0  0  0  0
  147.0147  132.1007  152.9676 H   0  0  0  0  0  0  0  0  0  0  0  0
  145.4118  131.5887  153.4368 H   0  0  0  0  0  0  0  0  0  0  0  0
  146.5896  131.4582  150.6183 H   0  0  0  0  0  0  0  0  0  0  0  0
  146.2787  130.0963  151.6701 H   0  0  0  0  0  0  0  0  0  0  0  0
  144.4632  130.3723  149.9774 H   0  0  0  0  0  0  0  0  0  0  0  0
  143.8475  130.5308  151.6046 H   0  0  0  0  0  0  0  0  0  0  0  0
  142.9220  132.2664  150.1591 H   0  0  0  0  0  0  0  0  0  0  0  0
  144.5079  132.8218  149.6926 H   0  0  0  0  0  0  0  0  0  0  0  0
  144.1789  134.7940  149.3222 H   0  0  0  0  0  0  0  0  0  0  0  0
  143.5295  136.2700  149.9239 H   0  0  0  0  0  0  0  0  0  0  0  0
  146.0049  136.4158  149.7657 H   0  0  0  0  0  0  0  0  0  0  0  0
  146.1820  135.0717  150.8659 H   0  0  0  0  0  0  0  0  0  0  0  0
  151.6979  139.6630  156.0849 H   0  0  0  0  0  0  0  0  0  0  0  0
  142.5182  134.5477  151.0185 H   0  0  0  0  0  0  0  0  0  0  0  0
  1  2  1  0  0  0  0
  1 24  1  0  0  0  0
  1 25  1  0  0  0  0
  1 26  1  0  0  0  0
  2 23  1  0  0  0  0
  2  3  2  0  0  0  0
  3  4  1  0  0  0  0
  3 27  1  0  0  0  0
  4  5  2  0  0  0  0
  4 28  1  0  0  0  0
  5  6  1  0  0  0  0
  5 22  1  0  0  0  0
  6  7  1  0  0  0  0
  6 29  1  0  0  0  0
  7  8  2  0  0  0  0
  7  9  1  0  0  0  0
  9 10  1  0  0  0  0
  9 30  1  0  0  0  0
 10 21  1  0  0  0  0
 10 11  1  0  0  0  0
 10 31  1  0  0  0  0
 11 12  1  0  0  0  0
 11 32  1  0  0  0  0
 11 33  1  0  0  0  0
 12 13  1  0  0  0  0
 12 34  1  0  0  0  0
 12 35  1  0  0  0  0
 13 14  1  0  0  0  0
 13 20  1  0  0  0  0
 13 52  1  0  0  0  0
 14 19  1  0  0  0  0
 14 15  1  0  0  0  0
 14 36  1  0  0  0  0
 15 16  1  0  0  0  0
 15 37  1  0  0  0  0
 15 38  1  0  0  0  0
 16 17  1  0  0  0  0
 16 39  1  0  0  0  0
 16 40  1  0  0  0  0
 17 18  1  0  0  0  0
 17 41  1  0  0  0  0
 17 42  1  0  0  0  0
 18 19  1  0  0  0  0
 18 43  1  0  0  0  0
 18 44  1  0  0  0  0
 19 45  1  0  0  0  0
 19 46  1  0  0  0  0
 20 21  1  0  0  0  0
 20 47  1  0  0  0  0
 20 48  1  0  0  0  0
 21 49  1  0  0  0  0
 21 50  1  0  0  0  0
 22 23  2  0  0  0  0
 23 51  1  0  0  0  0
M  CHG  1  13   1
M  END
> <s_m_source_file>
AV-unprocessed.smi

> <i_m_source_file_index>
2341

> <i_lp_mmshare_version>
43012

> <i_f3d_flags>
0

> <s_epik_input>
W0NIM11jMVtjSF1bY0hdYyhuW2NIXTEpW05IXUMoPU8pW05IXVtDSF0yW0NIMl1bQ0gyXU4oW0NIMl1bQ0gyXTIpW0NIXTNbQ0gyXVtDSDJdW0NIMl1bQ0gyXVtDSDJdMw==

> <s_epik_cmdline>
J2VwaWtfcHl0aG9uJywgJy1waCcsICc3LjAnLCAnLXRuJywgJzgnLCAnLW1hJywgJzIwMCcsICctbWV0YWxfYmluZGluZycsICctaW1hZScsICc8aW5maWxlLm1hZT4nLCAnLW9tYWUnLCAnPG91dGZpbGUubWFlPic=

> <r_epik_Ionization_Penalty>
0.00176486

> <r_epik_Ionization_Penalty_Charging>
0.00171891

> <r_epik_Ionization_Penalty_Neutral>
4.59494e-05

> <r_epik_State_Penalty>
0.00116222

> <r_epik_Charging_Adjusted_Penalty>
0.00288114

> <i_epik_Tot_Q>
1

> <i_epik_Tot_abs_Q>
1

> <r_epik_Metal_State_Penalty>
-0

> <b_epik_Metal_Only>
0

> <s_lp_Force_Field>
OPLS_2005

> <r_lp_Energy>
32.471

> <b_lp_Chiralities_Consistent>
1

> <s_lp_Variant>
AV-unprocessed.smi:2341-2

> <Gold.Version>
5.8.1

> <Gold.Id.Protein>
6NUR|6NUR_protein|mol2

> <Gold.PLP.Fitness>
48.0888

> <Gold.PLP.PLP>
-39.8977

> <Gold.PLP.part.hbond>
-3.5561

> <Gold.PLP.part.metal>
0.0000

> <Gold.PLP.part.buried>
0.6947

> <Gold.PLP.part.nonpolar>
-38.0061

> <Gold.PLP.part.repulsive>
0.4422

> <Gold.PLP.ligand.clash>
0.0000

> <Gold.PLP.ligand.torsion>
0.3573

> <Gold.PLP.Chemscore.Hbond>
2.9503

> <Gold.PLP.Chemscore.CHOScore>
0.0000

> <Gold.PLP.Chemscore.Metal>
0.0000

> <Gold.Chemscore.Hbonds>
donor molecule, donor type, donor heavy atom, donor atom, acceptor molecule, acceptor atom, score
      L1  H     6    29       P1  7948  0.88
      L1  H     9    30       P1  7948  0.84
      L1  H    13    52       P1 10186  1.10

> <Gold.PLP.Chemscore.Internal.Correction>
0.0550

> <Gold.Rescore>
     Score         DG    S(hbond)    S(metal)    S(lipo)     H(rot)  DE(clash)    DE(int)     intcor
     17.05     -20.86       1.92        0.00     102.90       1.19       0.15       3.67       ----

> <Gold.Chemscore.Fitness>
17.0485

> <Gold.Chemscore.DG>
-20.8644

> <Gold.Chemscore.ZeroCoef>
-5.4800

> <Gold.Chemscore.Hbond>
1.9150

> <Gold.Chemscore.Metal>
0.0000

> <Gold.Chemscore.Lipo>
102.9007

> <Gold.Chemscore.Internal_Hbond>
0.0000

> <Gold.Chemscore.DEClash>
0.1454

> <Gold.Chemscore.DEInternal>
3.6705

> <Gold.Chemscore.Rot>
1.1918

> <Gold.Chemscore.Internal.Correction>
   9.000000E+99

> <Gold.Chemscore.Hbonds>
donor molecule, donor type, donor heavy atom, donor atom, acceptor molecule, acceptor atom, score
      L1  H     6    29       P1  7948  0.86
      L1  H     9    30       P1  7948  0.80
      L1  H    13    52       P1 10186  0.05

> <Gold.Chemscore.Hbond.Weighted>
-6.3961

> <Gold.Chemscore.Metal.Weighted>
-0.0000

> <Gold.Chemscore.Lipo.Weighted>
-12.0394

> <Gold.Chemscore.Internal_Hbond.Weighted>
0.0000

> <Gold.Chemscore.DEClash.Weighted>
0.1454

> <Gold.Chemscore.DEInternal.Weighted>
3.6705

> <Gold.Chemscore.Rot.Weighted>
3.0511

> <Gold.Chemscore.Internal.Correction.Weighted>
   9.000000E+99

> <Gold.Protein.RotatedTorsions>
[ 6907 6896 6895 6894 ] final  136.72 input  -60.11 | X-H torsion
[ 7974 7965 7964 7962 ] final  -28.97 input  175.53 | X-H torsion
[ 8008 7997 7996 7995 ] final   79.98 input   59.86 | X-H torsion
[ 10167 10162 10161 10158 ] final   35.22 input  -65.29 | X-H torsion
[ 10718 10713 10712 10709 ] final  -17.65 input   66.30 | X-H torsion
[ 10763 10752 10751 10750 ] final -115.15 input  -60.55 | X-H torsion
[ 11005 11000 10999 10996 ] final  -61.48 input  -57.11 | X-H torsion

> <Gold.Protein.ActiveResidues>
 VAL166  LYS551  ARG553  GLY616  TRP617  ASP618  TYR619  PRO620  LYS621  CYS622 
 ASP623  PHE694  ASN695  SER759  ASP760  ASP761  ALA762  ILE779  LEU786  VAL792 
 PHE793  MET794  SER795  GLU796  ALA797  LYS798  CYS799  TRP800  GLU811  SER814 

> <Gold.Protein.RotatedAtoms>
  152.2862  133.5517  159.5528 H   0  0  0  0  0  0  0  0  0  0  0  0  # atno 6907 bound_to 6896
  150.7216  134.0493  159.3802 H   0  0  0  0  0  0  0  0  0  0  0  0  # atno 6908 bound_to 6896
  151.8402  135.0593  160.0498 H   0  0  0  0  0  0  0  0  0  0  0  0  # atno 6909 bound_to 6896
  146.1250  140.5351  142.8718 H   0  0  0  0  0  0  0  0  0  0  0  0  # atno 7974 bound_to 7965
  155.8771  140.3446  155.5862 H   0  0  0  0  0  0  0  0  0  0  0  0  # atno 8008 bound_to 7997
  155.7761  140.0852  157.2102 H   0  0  0  0  0  0  0  0  0  0  0  0  # atno 8009 bound_to 7997
  154.4021  140.1509  156.2986 H   0  0  0  0  0  0  0  0  0  0  0  0  # atno 8010 bound_to 7997
  140.4242  144.1416  150.6151 H   0  0  0  0  0  0  0  0  0  0  0  0  # atno 10167 bound_to 10162
  156.5706  130.4748  149.6364 H   0  0  0  0  0  0  0  0  0  0  0  0  # atno 10718 bound_to 10713
  154.8469  135.4392  154.1618 H   0  0  0  0  0  0  0  0  0  0  0  0  # atno 10763 bound_to 10752
  153.2753  135.6949  153.7446 H   0  0  0  0  0  0  0  0  0  0  0  0  # atno 10764 bound_to 10752
  153.6671  135.3425  155.3118 H   0  0  0  0  0  0  0  0  0  0  0  0  # atno 10765 bound_to 10752
  141.1326  133.6630  156.5382 H   0  0  0  0  0  0  0  0  0  0  0  0  # atno 11005 bound_to 11000
  144.7634  140.5474  143.6720 LP  0  0  0  0  0  0  0  0  0  0  0  0  # atno 17320 bound_to 7965
  145.5384  139.1475  143.3460 LP  0  0  0  0  0  0  0  0  0  0  0  0  # atno 17321 bound_to 7965
  140.4499  143.2491  151.9361 LP  0  0  0  0  0  0  0  0  0  0  0  0  # atno 17342 bound_to 10162
  139.4783  144.5572  151.8295 LP  0  0  0  0  0  0  0  0  0  0  0  0  # atno 17343 bound_to 10162
  156.2718  130.7021  151.1820 LP  0  0  0  0  0  0  0  0  0  0  0  0  # atno 17370 bound_to 10713
  157.7349  131.0577  150.5500 LP  0  0  0  0  0  0  0  0  0  0  0  0  # atno 17371 bound_to 10713
  140.4161  134.7229  157.4864 LP  0  0  0  0  0  0  0  0  0  0  0  0  # atno 17394 bound_to 11000
  140.0393  134.6291  155.9002 LP  0  0  0  0  0  0  0  0  0  0  0  0  # atno 17395 bound_to 11000

$$$$
