AV-unprocessed.smi:109|AV-procd|sdf|1061|dock8
  -GOLD-   2262018133D 1   1.00000     0.00000
 Structure written by MMmdl.
 58 61  0  0  0  0  0  0  0  0  1 V2000
  153.3089  139.0740  155.5465 O   0  0  0  0  0  0  0  0  0  0  0  0
  152.1837  139.3485  156.3531 C   0  0  0  0  0  0  0  0  0  0  0  0
  151.3050  140.4146  155.6761 C   0  0  0  0  0  0  0  0  0  0  0  0
  150.4829  141.2746  156.6665 C   0  0  2  0  0  0  0  0  0  0  0  0
  149.4819  142.0430  155.9221 N   0  0  0  0  0  0  0  0  0  0  0  0
  148.6482  141.4683  155.0261 C   0  0  0  0  0  0  0  0  0  0  0  0
  148.0341  142.1951  154.0569 N   0  0  0  0  0  0  0  0  0  0  0  0
  147.2163  141.5954  153.1871 C   0  0  0  0  0  0  0  0  0  0  0  0
  146.8803  140.3061  153.1114 N   0  0  0  0  0  0  0  0  0  0  0  0
  147.4912  139.5706  154.0845 C   0  0  0  0  0  0  0  0  0  0  0  0
  148.3844  140.0749  155.0705 C   0  0  0  0  0  0  0  0  0  0  0  0
  148.8110  139.0398  155.8921 N   0  0  0  0  0  0  0  0  0  0  0  0
  148.1986  137.9880  155.4187 C   0  0  0  0  0  0  0  0  0  0  0  0
  147.3874  138.2162  154.3294 N   0  0  0  0  0  0  0  0  0  0  0  0
  146.5619  137.2173  153.5866 C   0  0  1  0  0  0  0  0  0  0  0  0
  145.5236  136.8130  154.4201 O   0  0  0  0  0  0  0  0  0  0  0  0
  144.3452  136.5314  153.6616 C   0  0  1  0  0  0  0  0  0  0  0  0
  143.1764  137.3332  154.2592 C   0  0  0  0  0  0  0  0  0  0  0  0
  143.5240  138.6976  154.3616 O   0  0  0  0  0  0  0  0  0  0  0  0
  144.6715  136.9507  152.2144 C   0  0  2  0  0  0  0  0  0  0  0  0
  144.9227  135.7827  151.4499 O   0  0  0  0  0  0  0  0  0  0  0  0
  145.9069  137.8358  152.3566 C   0  0  2  0  0  0  0  0  0  0  0  0
  146.7273  137.7986  151.2039 O   0  0  0  0  0  0  0  0  0  0  0  0
  151.3476  142.2435  157.5230 C   0  0  0  0  0  0  0  0  0  0  0  0
  152.2552  141.5123  158.5443 C   0  0  0  0  0  0  0  0  0  0  0  0
  153.0669  142.4863  159.4141 C   0  0  0  0  0  0  0  0  0  0  0  0
  152.1560  143.4819  160.1420 C   0  0  0  0  0  0  0  0  0  0  0  0
  151.2740  144.2365  159.1405 C   0  0  0  0  0  0  0  0  0  0  0  0
  150.4560  143.2622  158.2786 C   0  0  0  0  0  0  0  0  0  0  0  0
  147.2226  136.3780  153.3634 H   0  0  0  0  0  0  0  0  0  0  0  0
  144.1205  135.4642  153.7118 H   0  0  0  0  0  0  0  0  0  0  0  0
  143.8522  137.4888  151.7365 H   0  0  0  0  0  0  0  0  0  0  0  0
  145.6023  138.8598  152.5745 H   0  0  0  0  0  0  0  0  0  0  0  0
  153.1586  138.2616  155.0879 H   0  0  0  0  0  0  0  0  0  0  0  0
  151.6339  138.4198  156.5055 H   0  0  0  0  0  0  0  0  0  0  0  0
  152.5230  139.6931  157.3303 H   0  0  0  0  0  0  0  0  0  0  0  0
  151.9740  141.0516  155.0999 H   0  0  0  0  0  0  0  0  0  0  0  0
  150.6358  139.9393  154.9575 H   0  0  0  0  0  0  0  0  0  0  0  0
  150.0063  140.5892  157.3664 H   0  0  0  0  0  0  0  0  0  0  0  0
  149.5134  143.0422  156.0655 H   0  0  0  0  0  0  0  0  0  0  0  0
  146.7674  142.2402  152.4460 H   0  0  0  0  0  0  0  0  0  0  0  0
  148.3242  137.0075  155.8549 H   0  0  0  0  0  0  0  0  0  0  0  0
  142.2649  137.2157  153.6751 H   0  0  0  0  0  0  0  0  0  0  0  0
  142.9572  136.9823  155.2680 H   0  0  0  0  0  0  0  0  0  0  0  0
  143.5587  139.0648  153.4915 H   0  0  0  0  0  0  0  0  0  0  0  0
  145.1489  136.0419  150.5700 H   0  0  0  0  0  0  0  0  0  0  0  0
  147.3640  137.1088  151.3123 H   0  0  0  0  0  0  0  0  0  0  0  0
  151.9976  142.8023  156.8476 H   0  0  0  0  0  0  0  0  0  0  0  0
  151.6471  140.8710  159.1837 H   0  0  0  0  0  0  0  0  0  0  0  0
  152.9660  140.8627  158.0358 H   0  0  0  0  0  0  0  0  0  0  0  0
  153.6605  141.9290  160.1391 H   0  0  0  0  0  0  0  0  0  0  0  0
  153.7757  143.0300  158.7882 H   0  0  0  0  0  0  0  0  0  0  0  0
  151.5285  142.9504  160.8586 H   0  0  0  0  0  0  0  0  0  0  0  0
  152.7568  144.1868  160.7173 H   0  0  0  0  0  0  0  0  0  0  0  0
  150.6047  144.9130  159.6726 H   0  0  0  0  0  0  0  0  0  0  0  0
  151.8970  144.8597  158.4977 H   0  0  0  0  0  0  0  0  0  0  0  0
  149.8571  143.8456  157.5792 H   0  0  0  0  0  0  0  0  0  0  0  0
  149.7470  142.7275  158.9122 H   0  0  0  0  0  0  0  0  0  0  0  0
  1  2  1  0  0  0  0
  1 34  1  0  0  0  0
  2  3  1  0  0  0  0
  2 35  1  0  0  0  0
  2 36  1  0  0  0  0
  3  4  1  0  0  0  0
  3 37  1  0  0  0  0
  3 38  1  0  0  0  0
  4  5  1  0  0  0  0
  4 24  1  0  0  0  0
  4 39  1  0  0  0  0
  5  6  1  0  0  0  0
  5 40  1  0  0  0  0
  6 11  1  0  0  0  0
  6  7  2  0  0  0  0
  7  8  1  0  0  0  0
  8  9  2  0  0  0  0
  8 41  1  0  0  0  0
  9 10  1  0  0  0  0
 10 14  1  0  0  0  0
 10 11  2  0  0  0  0
 11 12  1  0  0  0  0
 12 13  2  0  0  0  0
 13 14  1  0  0  0  0
 13 42  1  0  0  0  0
 14 15  1  0  0  0  0
 15 30  1  0  0  0  0
 15 22  1  0  0  0  0
 15 16  1  0  0  0  0
 16 17  1  0  0  0  0
 17 31  1  0  0  0  0
 17 18  1  0  0  0  0
 17 20  1  0  0  0  0
 18 19  1  0  0  0  0
 18 43  1  0  0  0  0
 18 44  1  0  0  0  0
 19 45  1  0  0  0  0
 20 32  1  0  0  0  0
 20 21  1  0  0  0  0
 20 22  1  0  0  0  0
 21 46  1  0  0  0  0
 22 33  1  0  0  0  0
 22 23  1  0  0  0  0
 23 47  1  0  0  0  0
 24 29  1  0  0  0  0
 24 25  1  0  0  0  0
 24 48  1  0  0  0  0
 25 26  1  0  0  0  0
 25 49  1  0  0  0  0
 25 50  1  0  0  0  0
 26 27  1  0  0  0  0
 26 51  1  0  0  0  0
 26 52  1  0  0  0  0
 27 28  1  0  0  0  0
 27 53  1  0  0  0  0
 27 54  1  0  0  0  0
 28 29  1  0  0  0  0
 28 55  1  0  0  0  0
 28 56  1  0  0  0  0
 29 57  1  0  0  0  0
 29 58  1  0  0  0  0
M  END
> <s_m_source_file>
AV-unprocessed.smi

> <i_m_source_file_index>
109

> <i_lp_mmshare_version>
43012

> <i_f3d_flags>
0

> <s_epik_input>
W0NIMl0xW0NIMl1bQ0gyXVtDSDJdW0NIMl1bQ0hdMVtDQEhdKFtDSDJdW0NIMl1bT0hdKVtOSF1jKG5bY0hdbjIpYyhjMjMpbltjSF1uM1tDQEBIXTRPW0NASF0oW0NIMl1bT0hdKVtDQEBIXShbT0hdKVtDQEhdNFtPSF0=

> <s_epik_cmdline>
J2VwaWtfcHl0aG9uJywgJy1waCcsICc3LjAnLCAnLXRuJywgJzgnLCAnLW1hJywgJzIwMCcsICctbWV0YWxfYmluZGluZycsICctaW1hZScsICc8aW5maWxlLm1hZT4nLCAnLW9tYWUnLCAnPG91dGZpbGUubWFlPic=

> <r_lp_tautomer_probability>
1

> <r_epik_Ionization_Penalty>
0.000793976

> <r_epik_Ionization_Penalty_Charging>
0

> <r_epik_Ionization_Penalty_Neutral>
0.000793976

> <r_epik_State_Penalty>
-0

> <r_epik_Charging_Adjusted_Penalty>
0

> <i_epik_Tot_Q>
0

> <i_epik_Tot_abs_Q>
0

> <r_epik_Metal_State_Penalty>
-0

> <b_epik_Metal_Only>
0

> <s_epik_Chemistry_Notes>
This compound contains an acetal/aminal-like group ( X-CH(R)-Y where X, Y are N, S, or O) that may be acid/base labile, releasing an aldehyde.

> <s_lp_Force_Field>
OPLS_2005

> <r_lp_Energy>
56.6401

> <b_lp_Chiralities_Consistent>
1

> <s_lp_Variant>
AV-unprocessed.smi:109-31

> <Gold.Version>
5.8.1

> <Gold.Id.Protein>
6NUR|6NUR_protein|mol2

> <Gold.PLP.Fitness>
53.0422

> <Gold.PLP.PLP>
-42.1621

> <Gold.PLP.part.hbond>
-6.1328

> <Gold.PLP.part.metal>
0.0000

> <Gold.PLP.part.buried>
-6.5432

> <Gold.PLP.part.nonpolar>
-31.2230

> <Gold.PLP.part.repulsive>
0.7457

> <Gold.PLP.ligand.clash>
0.0000

> <Gold.PLP.ligand.torsion>
0.6407

> <Gold.PLP.Chemscore.Hbond>
3.9840

> <Gold.PLP.Chemscore.CHOScore>
0.0000

> <Gold.PLP.Chemscore.Metal>
0.0000

> <Gold.Chemscore.Hbonds>
donor molecule, donor type, donor heavy atom, donor atom, acceptor molecule, acceptor atom, score
      L1  H     5    40       P1  8028  0.99
      L1  H    19    45       P1 10175  0.98
      L1  H    23    47       P1  7948  1.00
      P1  H  7997  8009       L1     1  1.00

> <Gold.PLP.Chemscore.Internal.Correction>
0.2096

> <Gold.Rescore>
     Score         DG    S(hbond)    S(metal)    S(lipo)     H(rot)  DE(clash)    DE(int)     intcor
      8.12     -15.30       3.78        0.00      95.75       5.47       1.30       5.89       ----

> <Gold.Chemscore.Fitness>
8.1204

> <Gold.Chemscore.DG>
-15.3044

> <Gold.Chemscore.ZeroCoef>
-5.4800

> <Gold.Chemscore.Hbond>
3.7770

> <Gold.Chemscore.Metal>
0.0000

> <Gold.Chemscore.Lipo>
95.7494

> <Gold.Chemscore.Internal_Hbond>
0.0000

> <Gold.Chemscore.DEClash>
1.2987

> <Gold.Chemscore.DEInternal>
5.8853

> <Gold.Chemscore.Rot>
5.4662

> <Gold.Chemscore.Internal.Correction>
   9.000000E+99

> <Gold.Chemscore.Hbonds>
donor molecule, donor type, donor heavy atom, donor atom, acceptor molecule, acceptor atom, score
      L1  H     5    40       P1  8028  0.94
      L1  H    19    45       P1 10175  0.93
      L1  H    23    47       P1  7948  1.00
      P1  H  7997  8009       L1     1  0.34

> <Gold.Chemscore.Hbond.Weighted>
-12.6152

> <Gold.Chemscore.Metal.Weighted>
-0.0000

> <Gold.Chemscore.Lipo.Weighted>
-11.2027

> <Gold.Chemscore.Internal_Hbond.Weighted>
0.0000

> <Gold.Chemscore.DEClash.Weighted>
1.2987

> <Gold.Chemscore.DEInternal.Weighted>
5.8853

> <Gold.Chemscore.Rot.Weighted>
13.9935

> <Gold.Chemscore.Internal.Correction.Weighted>
   9.000000E+99

> <Gold.Protein.RotatedTorsions>
[ 6907 6896 6895 6894 ] final  -76.12 input  -60.11 | X-H torsion
[ 7974 7965 7964 7962 ] final -100.54 input  175.53 | X-H torsion
[ 8008 7997 7996 7995 ] final -148.27 input   59.86 | X-H torsion
[ 10167 10162 10161 10158 ] final   86.74 input  -65.29 | X-H torsion
[ 10718 10713 10712 10709 ] final  135.88 input   66.30 | X-H torsion
[ 10763 10752 10751 10750 ] final   62.52 input  -60.55 | X-H torsion
[ 11005 11000 10999 10996 ] final  -84.82 input  -57.11 | X-H torsion

> <Gold.Protein.ActiveResidues>
 VAL166  LYS551  ARG553  GLY616  TRP617  ASP618  TYR619  PRO620  LYS621  CYS622 
 ASP623  PHE694  ASN695  SER759  ASP760  ASP761  ALA762  ILE779  LEU786  VAL792 
 PHE793  MET794  SER795  GLU796  ALA797  LYS798  CYS799  TRP800  GLU811  SER814 

> <Gold.Protein.RotatedAtoms>
  150.7037  134.4620  159.5384 H   0  0  0  0  0  0  0  0  0  0  0  0  # atno 6907 bound_to 6896
  152.2293  134.8335  160.0485 H   0  0  0  0  0  0  0  0  0  0  0  0  # atno 6908 bound_to 6896
  151.9157  133.3537  159.3916 H   0  0  0  0  0  0  0  0  0  0  0  0  # atno 6909 bound_to 6896
  145.2932  140.9358  143.2866 H   0  0  0  0  0  0  0  0  0  0  0  0  # atno 7974 bound_to 7965
  155.5889  140.0650  157.2764 H   0  0  0  0  0  0  0  0  0  0  0  0  # atno 8008 bound_to 7997
  154.4311  140.1838  156.1101 H   0  0  0  0  0  0  0  0  0  0  0  0  # atno 8009 bound_to 7997
  156.0247  140.3313  155.7080 H   0  0  0  0  0  0  0  0  0  0  0  0  # atno 8010 bound_to 7997
  139.8844  144.6421  150.8807 H   0  0  0  0  0  0  0  0  0  0  0  0  # atno 10167 bound_to 10162
  157.4525  131.1067  151.0017 H   0  0  0  0  0  0  0  0  0  0  0  0  # atno 10718 bound_to 10713
  152.9985  135.5462  154.6206 H   0  0  0  0  0  0  0  0  0  0  0  0  # atno 10763 bound_to 10752
  154.5506  135.2826  155.1014 H   0  0  0  0  0  0  0  0  0  0  0  0  # atno 10764 bound_to 10752
  154.2255  135.6443  153.5211 H   0  0  0  0  0  0  0  0  0  0  0  0  # atno 10765 bound_to 10752
  141.1647  133.7366  156.8924 H   0  0  0  0  0  0  0  0  0  0  0  0  # atno 11005 bound_to 11000
  144.9155  139.4475  143.6566 LP  0  0  0  0  0  0  0  0  0  0  0  0  # atno 17320 bound_to 7965
  146.3178  139.7987  142.8970 LP  0  0  0  0  0  0  0  0  0  0  0  0  # atno 17321 bound_to 7965
  140.7738  143.3560  151.1921 LP  0  0  0  0  0  0  0  0  0  0  0  0  # atno 17342 bound_to 10162
  139.7166  143.9290  152.2969 LP  0  0  0  0  0  0  0  0  0  0  0  0  # atno 17343 bound_to 10162
  157.0842  130.5915  149.5426 LP  0  0  0  0  0  0  0  0  0  0  0  0  # atno 17370 bound_to 10713
  155.9993  130.5069  150.7602 LP  0  0  0  0  0  0  0  0  0  0  0  0  # atno 17371 bound_to 10713
  140.1639  134.9146  157.2749 LP  0  0  0  0  0  0  0  0  0  0  0  0  # atno 17394 bound_to 11000
  140.2579  134.3605  155.7417 LP  0  0  0  0  0  0  0  0  0  0  0  0  # atno 17395 bound_to 11000

$$$$
