AV-unprocessed.smi:1200|AV-procd|sdf|5026|dock1
  -GOLD-   22720 4 43D 1   1.00000     0.00000
 Structure written by MMmdl.
 42 43  0  0  0  0  0  0  0  0  3 V2000
  143.5912  146.1168  155.3892 C   0  0  0  0  0  0  0  0  0  0  0  0
  143.4284  144.6842  155.1700 N   0  5  0  0  0  0  0  0  0  0  0  0
  144.0840  143.7360  155.8914 C   0  0  0  0  0  0  0  0  0  0  0  0
  144.8285  143.8407  156.8721 O   0  0  0  0  0  0  0  0  0  0  0  0
  143.7865  142.3303  155.3568 C   0  0  0  0  0  0  0  0  0  0  0  0
  145.0248  141.7186  154.8139 N   0  3  2  0  0  0  0  0  0  0  0  0
  145.8064  141.0071  155.8563 C   0  0  0  0  0  0  0  0  0  0  0  0
  147.0013  140.2550  155.2423 C   0  0  0  0  0  0  0  0  0  0  0  0
  147.9096  141.1836  154.4178 C   0  0  2  0  0  0  0  0  0  0  0  0
  148.6634  142.0774  155.2967 N   0  0  0  0  0  0  0  0  0  0  0  0
  149.6057  141.6927  156.1696 C   0  0  0  0  0  0  0  0  0  0  0  0
  149.9564  140.5223  156.3160 O   0  0  0  0  0  0  0  0  0  0  0  0
  150.1132  142.7469  156.8312 N   0  0  0  0  0  0  0  0  0  0  0  0
  151.1156  142.7639  157.8389 C   0  0  0  0  0  0  0  0  0  0  0  0
  151.8387  141.6243  158.2673 C   0  0  0  0  0  0  0  0  0  0  0  0
  152.7972  141.7715  159.2885 C   0  0  0  0  0  0  0  0  0  0  0  0
  152.9928  143.0486  159.8493 C   0  0  0  0  0  0  0  0  0  0  0  0
  152.3015  144.1404  159.4608 N   0  0  0  0  0  0  0  0  0  0  0  0
  151.3842  143.9915  158.4814 C   0  0  0  0  0  0  0  0  0  0  0  0
  147.0634  141.9666  153.3947 C   0  0  0  0  0  0  0  0  0  0  0  0
  145.8705  142.6793  154.0556 C   0  0  0  0  0  0  0  0  0  0  0  0
  142.9987  146.7040  154.6879 H   0  0  0  0  0  0  0  0  0  0  0  0
  144.6249  146.4426  155.2691 H   0  0  0  0  0  0  0  0  0  0  0  0
  143.2778  146.4213  156.3881 H   0  0  0  0  0  0  0  0  0  0  0  0
  143.3323  141.6759  156.1044 H   0  0  0  0  0  0  0  0  0  0  0  0
  143.0484  142.4471  154.5622 H   0  0  0  0  0  0  0  0  0  0  0  0
  146.1488  141.7213  156.6067 H   0  0  0  0  0  0  0  0  0  0  0  0
  145.1647  140.2913  156.3713 H   0  0  0  0  0  0  0  0  0  0  0  0
  147.5760  139.7600  156.0261 H   0  0  0  0  0  0  0  0  0  0  0  0
  146.6245  139.4606  154.5966 H   0  0  0  0  0  0  0  0  0  0  0  0
  148.6246  140.5601  153.8777 H   0  0  0  0  0  0  0  0  0  0  0  0
  148.4432  143.0610  155.2430 H   0  0  0  0  0  0  0  0  0  0  0  0
  149.7771  143.6543  156.5438 H   0  0  0  0  0  0  0  0  0  0  0  0
  151.6720  140.6445  157.8485 H   0  0  0  0  0  0  0  0  0  0  0  0
  153.3666  140.9229  159.6370 H   0  0  0  0  0  0  0  0  0  0  0  0
  153.7195  143.1954  160.6344 H   0  0  0  0  0  0  0  0  0  0  0  0
  150.8496  144.8863  158.1976 H   0  0  0  0  0  0  0  0  0  0  0  0
  147.6799  142.6882  152.8576 H   0  0  0  0  0  0  0  0  0  0  0  0
  146.6870  141.2745  152.6402 H   0  0  0  0  0  0  0  0  0  0  0  0
  145.2811  143.1708  153.2811 H   0  0  0  0  0  0  0  0  0  0  0  0
  146.2222  143.4656  154.7253 H   0  0  0  0  0  0  0  0  0  0  0  0
  144.7163  141.0152  154.1576 H   0  0  0  0  0  0  0  0  0  0  0  0
  1  2  1  0  0  0  0
  1 22  1  0  0  0  0
  1 23  1  0  0  0  0
  1 24  1  0  0  0  0
  2  3  1  0  0  0  0
  3  4  2  0  0  0  0
  3  5  1  0  0  0  0
  5  6  1  0  0  0  0
  5 25  1  0  0  0  0
  5 26  1  0  0  0  0
  6 21  1  0  0  0  0
  6  7  1  0  0  0  0
  6 42  1  0  0  0  0
  7  8  1  0  0  0  0
  7 27  1  0  0  0  0
  7 28  1  0  0  0  0
  8  9  1  0  0  0  0
  8 29  1  0  0  0  0
  8 30  1  0  0  0  0
  9 10  1  0  0  0  0
  9 20  1  0  0  0  0
  9 31  1  0  0  0  0
 10 11  1  0  0  0  0
 10 32  1  0  0  0  0
 11 12  2  0  0  0  0
 11 13  1  0  0  0  0
 13 14  1  0  0  0  0
 13 33  1  0  0  0  0
 14 19  1  0  0  0  0
 14 15  2  0  0  0  0
 15 16  1  0  0  0  0
 15 34  1  0  0  0  0
 16 17  2  0  0  0  0
 16 35  1  0  0  0  0
 17 18  1  0  0  0  0
 17 36  1  0  0  0  0
 18 19  2  0  0  0  0
 19 37  1  0  0  0  0
 20 21  1  0  0  0  0
 20 38  1  0  0  0  0
 20 39  1  0  0  0  0
 21 40  1  0  0  0  0
 21 41  1  0  0  0  0
M  CHG  1   2  -1
M  CHG  1   6   1
M  END
> <s_m_source_file>
AV-unprocessed.smi

> <i_m_source_file_index>
1200

> <i_lp_mmshare_version>
43012

> <i_f3d_flags>
0

> <s_epik_input>
W0NIM11bTkhdQyg9TylbQ0gyXU4xW0NIMl1bQ0gyXVtDSF0oW0NIMl1bQ0gyXTEpW05IXUMoPU8pW05IXWMyW2NIXVtjSF1bY0hdbltjSF0y

> <s_epik_cmdline>
J2VwaWtfcHl0aG9uJywgJy1waCcsICc3LjAnLCAnLXRuJywgJzgnLCAnLW1hJywgJzIwMCcsICctbWV0YWxfYmluZGluZycsICctaW1hZScsICc8aW5maWxlLm1hZT4nLCAnLW9tYWUnLCAnPG91dGZpbGUubWFlPic=

> <r_epik_Ionization_Penalty>
6.14345

> <r_epik_Ionization_Penalty_Charging>
6.13946

> <r_epik_Ionization_Penalty_Neutral>
0.00398477

> <r_epik_State_Penalty>
6.94483

> <r_epik_Charging_Adjusted_Penalty>
13.0843

> <i_epik_Tot_Q>
0

> <i_epik_Tot_abs_Q>
2

> <r_epik_Metal_State_Penalty>
2.87819

> <b_epik_Metal_Only>
1

> <s_lp_Force_Field>
OPLS_2005

> <r_lp_Energy>
15.1129

> <b_lp_Chiralities_Consistent>
1

> <s_lp_Variant>
AV-unprocessed.smi:1200-5

> <Gold.Version>
5.8.1

> <Gold.Id.Protein>
6NUR|6NUR_protein|mol2

> <Gold.PLP.Fitness>
45.6679

> <Gold.PLP.PLP>
-34.2906

> <Gold.PLP.part.hbond>
-3.0000

> <Gold.PLP.part.metal>
0.0000

> <Gold.PLP.part.buried>
-7.0387

> <Gold.PLP.part.nonpolar>
-26.3199

> <Gold.PLP.part.repulsive>
0.4139

> <Gold.PLP.ligand.clash>
0.0000

> <Gold.PLP.ligand.torsion>
0.3511

> <Gold.PLP.Chemscore.Hbond>
4.0000

> <Gold.PLP.Chemscore.CHOScore>
0.0000

> <Gold.PLP.Chemscore.Metal>
0.0000

> <Gold.Chemscore.Hbonds>
donor molecule, donor type, donor heavy atom, donor atom, acceptor molecule, acceptor atom, score
      L1  H     6    42       P1 10175  1.98
      L1  H    10    32       P1  8028  0.99
      L1  H    13    33       P1  8028  1.00

> <Gold.PLP.Chemscore.Internal.Correction>
0.0796

> <Gold.Rescore>
     Score         DG    S(hbond)    S(metal)    S(lipo)     H(rot)  DE(clash)    DE(int)     intcor
     17.74     -19.54       2.65        0.00      80.19       1.63       0.29       1.50       ----

> <Gold.Chemscore.Fitness>
17.7404

> <Gold.Chemscore.DG>
-19.5397

> <Gold.Chemscore.ZeroCoef>
-5.4800

> <Gold.Chemscore.Hbond>
2.6515

> <Gold.Chemscore.Metal>
0.0000

> <Gold.Chemscore.Lipo>
80.1890

> <Gold.Chemscore.Internal_Hbond>
0.0000

> <Gold.Chemscore.DEClash>
0.2946

> <Gold.Chemscore.DEInternal>
1.5047

> <Gold.Chemscore.Rot>
1.6323

> <Gold.Chemscore.Internal.Correction>
   9.000000E+99

> <Gold.Chemscore.Hbonds>
donor molecule, donor type, donor heavy atom, donor atom, acceptor molecule, acceptor atom, score
      L1  H     6    42       P1 10175  0.77
      L1  H    10    32       P1  8028  0.93
      L1  H    13    33       P1  8028  0.99

> <Gold.Chemscore.Hbond.Weighted>
-8.8561

> <Gold.Chemscore.Metal.Weighted>
-0.0000

> <Gold.Chemscore.Lipo.Weighted>
-9.3821

> <Gold.Chemscore.Internal_Hbond.Weighted>
0.0000

> <Gold.Chemscore.DEClash.Weighted>
0.2946

> <Gold.Chemscore.DEInternal.Weighted>
1.5047

> <Gold.Chemscore.Rot.Weighted>
4.1786

> <Gold.Chemscore.Internal.Correction.Weighted>
   9.000000E+99

> <Gold.Protein.RotatedTorsions>
[ 6907 6896 6895 6894 ] final  -74.65 input  -60.11 | X-H torsion
[ 7974 7965 7964 7962 ] final  112.43 input  175.53 | X-H torsion
[ 8008 7997 7996 7995 ] final  -39.45 input   59.86 | X-H torsion
[ 10167 10162 10161 10158 ] final   46.97 input  -65.29 | X-H torsion
[ 10718 10713 10712 10709 ] final   58.54 input   66.30 | X-H torsion
[ 10763 10752 10751 10750 ] final  -49.51 input  -60.55 | X-H torsion
[ 11005 11000 10999 10996 ] final  -10.58 input  -57.11 | X-H torsion

> <Gold.Protein.ActiveResidues>
 VAL166  LYS551  ARG553  GLY616  TRP617  ASP618  TYR619  PRO620  LYS621  CYS622 
 ASP623  PHE694  ASN695  SER759  ASP760  ASP761  ALA762  ILE779  LEU786  VAL792 
 PHE793  MET794  SER795  GLU796  ALA797  LYS798  CYS799  TRP800  GLU811  SER814 

> <Gold.Protein.RotatedAtoms>
  150.7086  134.4838  159.5482 H   0  0  0  0  0  0  0  0  0  0  0  0  # atno 6907 bound_to 6896
  152.2469  134.8169  160.0461 H   0  0  0  0  0  0  0  0  0  0  0  0  # atno 6908 bound_to 6896
  151.8930  133.3485  159.3841 H   0  0  0  0  0  0  0  0  0  0  0  0  # atno 6909 bound_to 6896
  145.2297  139.2825  143.4175 H   0  0  0  0  0  0  0  0  0  0  0  0  # atno 7974 bound_to 7965
  154.4023  140.1551  156.2865 H   0  0  0  0  0  0  0  0  0  0  0  0  # atno 8008 bound_to 7997
  155.8823  140.3443  155.5875 H   0  0  0  0  0  0  0  0  0  0  0  0  # atno 8009 bound_to 7997
  155.7653  140.0823  157.2126 H   0  0  0  0  0  0  0  0  0  0  0  0  # atno 8010 bound_to 7997
  140.3085  144.2849  150.6204 H   0  0  0  0  0  0  0  0  0  0  0  0  # atno 10167 bound_to 10162
  157.5604  130.8831  149.9102 H   0  0  0  0  0  0  0  0  0  0  0  0  # atno 10718 bound_to 10713
  154.0953  135.6571  153.4859 H   0  0  0  0  0  0  0  0  0  0  0  0  # atno 10763 bound_to 10752
  153.0307  135.5212  154.7340 H   0  0  0  0  0  0  0  0  0  0  0  0  # atno 10764 bound_to 10752
  154.6476  135.2997  154.9996 H   0  0  0  0  0  0  0  0  0  0  0  0  # atno 10765 bound_to 10752
  140.7462  133.8629  155.9007 H   0  0  0  0  0  0  0  0  0  0  0  0  # atno 11005 bound_to 11000
  146.3356  140.2628  142.8602 LP  0  0  0  0  0  0  0  0  0  0  0  0  # atno 17320 bound_to 7965
  144.9688  140.8348  143.5468 LP  0  0  0  0  0  0  0  0  0  0  0  0  # atno 17321 bound_to 7965
  140.5589  143.2195  151.7799 LP  0  0  0  0  0  0  0  0  0  0  0  0  # atno 17342 bound_to 10162
  139.4899  144.4375  151.9802 LP  0  0  0  0  0  0  0  0  0  0  0  0  # atno 17343 bound_to 10162
  156.0658  130.3692  150.0883 LP  0  0  0  0  0  0  0  0  0  0  0  0  # atno 17370 bound_to 10713
  156.9047  130.9632  151.3571 LP  0  0  0  0  0  0  0  0  0  0  0  0  # atno 17371 bound_to 10713
  140.9792  134.1428  157.4509 LP  0  0  0  0  0  0  0  0  0  0  0  0  # atno 17394 bound_to 11000
  139.8796  135.0005  156.6012 LP  0  0  0  0  0  0  0  0  0  0  0  0  # atno 17395 bound_to 11000

$$$$
