AV-unprocessed.smi:21|AV-procd|sdf|144|dock3
  -GOLD-   2262015353D 1   1.00000     0.00000
 Structure written by MMmdl.
 62 65  0  0  0  0  0  0  0  0  2 V2000
  145.0236  135.7911  151.4379 C   0  0  0  0  0  0  0  0  0  0  0  0
  146.0913  135.2084  152.1689 O   0  0  0  0  0  0  0  0  0  0  0  0
  145.8741  135.1735  153.5737 C   0  0  2  0  0  0  0  0  0  0  0  0
  145.7233  136.5773  154.1614 C   0  0  0  0  0  0  0  0  0  0  0  0
  147.1615  137.0835  154.3763 C   0  0  2  0  0  0  0  0  0  0  0  0
  147.6377  138.0810  153.2988 C   0  0  0  0  0  0  0  0  0  0  0  0
  147.9622  139.4046  153.8383 N   0  0  0  0  0  0  0  0  0  0  0  0
  146.9497  140.4527  153.7846 C   0  0  0  0  0  0  0  0  0  0  0  0
  149.1607  139.6301  154.4541 C   0  0  0  0  0  0  0  0  0  0  0  0
  150.2214  138.8526  154.1026 N   0  0  0  0  0  0  0  0  0  0  0  0
  151.4177  139.0200  154.6709 C   0  0  0  0  0  0  0  0  0  0  0  0
  151.7780  139.8959  155.6074 N   0  0  0  0  0  0  0  0  0  0  0  0
  150.7284  140.6849  155.9715 C   0  0  0  0  0  0  0  0  0  0  0  0
  149.4000  140.6244  155.4550 C   0  0  0  0  0  0  0  0  0  0  0  0
  148.6204  141.5889  156.0885 N   0  0  0  0  0  0  0  0  0  0  0  0
  149.4343  142.1800  156.9189 C   0  0  0  0  0  0  0  0  0  0  0  0
  150.7225  141.7010  156.9097 N   0  0  0  0  0  0  0  0  0  0  0  0
  151.8314  142.1601  157.7270 C   0  0  0  0  0  0  0  0  0  0  0  0
  151.8714  141.5300  159.1447 C   0  0  1  0  0  0  0  0  0  0  0  0
  152.5091  140.1169  159.1410 C   0  0  0  0  0  0  0  0  0  0  0  0
  153.9149  140.1720  159.0128 O   0  0  0  0  0  0  0  0  0  0  0  0
  152.6074  142.4674  160.1373 C   0  0  2  0  0  0  0  0  0  0  0  0
  153.0909  141.7894  161.4204 C   0  0  0  0  0  0  0  0  0  0  0  0
  152.8696  142.8267  162.5252 C   0  0  0  0  0  0  0  0  0  0  0  0
  152.4715  144.0105  161.8529 O   0  0  0  0  0  0  0  0  0  0  0  0
  151.7597  143.6141  160.6948 C   0  0  0  0  0  0  0  0  0  0  0  0
  148.0239  135.8772  154.3501 N   0  3  1  0  0  0  0  0  0  0  0  0
  149.0144  135.8054  155.4454 C   0  0  0  0  0  0  0  0  0  0  0  0
  147.1581  134.6851  154.2384 C   0  0  0  0  0  0  0  0  0  0  0  0
  145.0333  134.5218  153.8176 H   0  0  0  0  0  0  0  0  0  0  0  0
  147.2184  137.5529  155.3596 H   0  0  0  0  0  0  0  0  0  0  0  0
  145.2568  135.7663  150.3735 H   0  0  0  0  0  0  0  0  0  0  0  0
  144.8591  136.8318  151.7166 H   0  0  0  0  0  0  0  0  0  0  0  0
  144.0956  135.2384  151.5887 H   0  0  0  0  0  0  0  0  0  0  0  0
  145.1064  137.2404  153.5579 H   0  0  0  0  0  0  0  0  0  0  0  0
  145.2322  136.4964  155.1321 H   0  0  0  0  0  0  0  0  0  0  0  0
  148.5066  137.6810  152.7750 H   0  0  0  0  0  0  0  0  0  0  0  0
  146.8689  138.1807  152.5317 H   0  0  0  0  0  0  0  0  0  0  0  0
  147.3548  141.3569  153.3294 H   0  0  0  0  0  0  0  0  0  0  0  0
  146.5891  140.6922  154.7851 H   0  0  0  0  0  0  0  0  0  0  0  0
  146.0896  140.1440  153.1901 H   0  0  0  0  0  0  0  0  0  0  0  0
  152.1975  138.3570  154.3264 H   0  0  0  0  0  0  0  0  0  0  0  0
  149.1164  142.9889  157.5606 H   0  0  0  0  0  0  0  0  0  0  0  0
  152.7617  141.9521  157.1967 H   0  0  0  0  0  0  0  0  0  0  0  0
  151.7502  143.2450  157.7889 H   0  0  0  0  0  0  0  0  0  0  0  0
  150.8445  141.4349  159.5016 H   0  0  0  0  0  0  0  0  0  0  0  0
  152.2457  139.5700  160.0469 H   0  0  0  0  0  0  0  0  0  0  0  0
  152.1486  139.5213  158.3033 H   0  0  0  0  0  0  0  0  0  0  0  0
  154.2347  140.9031  159.5191 H   0  0  0  0  0  0  0  0  0  0  0  0
  153.4732  142.9075  159.6392 H   0  0  0  0  0  0  0  0  0  0  0  0
  152.5211  140.8861  161.6432 H   0  0  0  0  0  0  0  0  0  0  0  0
  154.1411  141.5070  161.3409 H   0  0  0  0  0  0  0  0  0  0  0  0
  152.0693  142.5082  163.1948 H   0  0  0  0  0  0  0  0  0  0  0  0
  153.7645  143.0002  163.1232 H   0  0  0  0  0  0  0  0  0  0  0  0
  151.6585  144.4460  159.9974 H   0  0  0  0  0  0  0  0  0  0  0  0
  150.7615  143.2730  160.9757 H   0  0  0  0  0  0  0  0  0  0  0  0
  148.5238  135.7657  156.4189 H   0  0  0  0  0  0  0  0  0  0  0  0
  149.6660  136.6795  155.4254 H   0  0  0  0  0  0  0  0  0  0  0  0
  149.6374  134.9170  155.3382 H   0  0  0  0  0  0  0  0  0  0  0  0
  146.9248  134.3111  155.2369 H   0  0  0  0  0  0  0  0  0  0  0  0
  147.6450  133.8805  153.6862 H   0  0  0  0  0  0  0  0  0  0  0  0
  148.5393  135.9276  153.4829 H   0  0  0  0  0  0  0  0  0  0  0  0
  1  2  1  0  0  0  0
  1 32  1  0  0  0  0
  1 33  1  0  0  0  0
  1 34  1  0  0  0  0
  2  3  1  0  0  0  0
  3 30  1  0  0  0  0
  3 29  1  0  0  0  0
  3  4  1  0  0  0  0
  4  5  1  0  0  0  0
  4 35  1  0  0  0  0
  4 36  1  0  0  0  0
  5 31  1  0  0  0  0
  5  6  1  0  0  0  0
  5 27  1  0  0  0  0
  6  7  1  0  0  0  0
  6 37  1  0  0  0  0
  6 38  1  0  0  0  0
  7  8  1  0  0  0  0
  7  9  1  0  0  0  0
  8 39  1  0  0  0  0
  8 40  1  0  0  0  0
  8 41  1  0  0  0  0
  9 14  1  0  0  0  0
  9 10  2  0  0  0  0
 10 11  1  0  0  0  0
 11 12  2  0  0  0  0
 11 42  1  0  0  0  0
 12 13  1  0  0  0  0
 13 17  1  0  0  0  0
 13 14  2  0  0  0  0
 14 15  1  0  0  0  0
 15 16  2  0  0  0  0
 16 17  1  0  0  0  0
 16 43  1  0  0  0  0
 17 18  1  0  0  0  0
 18 19  1  0  0  0  0
 18 44  1  0  0  0  0
 18 45  1  0  0  0  0
 19 20  1  0  0  0  0
 19 22  1  0  0  0  0
 19 46  1  0  0  0  0
 20 21  1  0  0  0  0
 20 47  1  0  0  0  0
 20 48  1  0  0  0  0
 21 49  1  0  0  0  0
 22 26  1  0  0  0  0
 22 23  1  0  0  0  0
 22 50  1  0  0  0  0
 23 24  1  0  0  0  0
 23 51  1  0  0  0  0
 23 52  1  0  0  0  0
 24 25  1  0  0  0  0
 24 53  1  0  0  0  0
 24 54  1  0  0  0  0
 25 26  1  0  0  0  0
 26 55  1  0  0  0  0
 26 56  1  0  0  0  0
 27 28  1  0  0  0  0
 27 29  1  0  0  0  0
 27 62  1  0  0  0  0
 28 57  1  0  0  0  0
 28 58  1  0  0  0  0
 28 59  1  0  0  0  0
 29 60  1  0  0  0  0
 29 61  1  0  0  0  0
M  CHG  1  27   1
M  END
> <s_m_source_file>
AV-unprocessed.smi

> <i_m_source_file_index>
21

> <i_lp_mmshare_version>
43012

> <i_f3d_flags>
0

> <s_epik_input>
W0NIM11PW0NASF0xW0NIMl1bQ0BIXShOKFtDSDNdKVtDSDJdMSlbQ0gyXU4oW0NIM10pYyhuW2NIXW4yKWMoYzIzKW5bY0hdbjNbQ0gyXVtDQEhdKFtDSDJdW09IXSlbQ0BASF00W0NIMl1bQ0gyXU9bQ0gyXTQ=

> <s_epik_cmdline>
J2VwaWtfcHl0aG9uJywgJy1waCcsICc3LjAnLCAnLXRuJywgJzgnLCAnLW1hJywgJzIwMCcsICctbWV0YWxfYmluZGluZycsICctaW1hZScsICc8aW5maWxlLm1hZT4nLCAnLW9tYWUnLCAnPG91dGZpbGUubWFlPic=

> <r_lp_tautomer_probability>
1

> <r_epik_Ionization_Penalty>
0.0157465

> <r_epik_Ionization_Penalty_Charging>
0.015354

> <r_epik_Ionization_Penalty_Neutral>
0.000392529

> <r_epik_State_Penalty>
0.0120612

> <r_epik_Charging_Adjusted_Penalty>
0.0274152

> <i_epik_Tot_Q>
1

> <i_epik_Tot_abs_Q>
1

> <r_epik_Metal_State_Penalty>
0.0121253

> <b_epik_Metal_Only>
0

> <s_lp_Force_Field>
OPLS_2005

> <r_lp_Energy>
59.4837

> <b_lp_Chiralities_Consistent>
1

> <s_lp_Variant>
AV-unprocessed.smi:21-24

> <Gold.Version>
5.8.1

> <Gold.Id.Protein>
6NUR|6NUR_protein|mol2

> <Gold.PLP.Fitness>
46.8353

> <Gold.PLP.PLP>
-41.3704

> <Gold.PLP.part.hbond>
-2.4543

> <Gold.PLP.part.metal>
0.0000

> <Gold.PLP.part.buried>
0.7304

> <Gold.PLP.part.nonpolar>
-39.9438

> <Gold.PLP.part.repulsive>
1.0613

> <Gold.PLP.ligand.clash>
0.0000

> <Gold.PLP.ligand.torsion>
2.4531

> <Gold.PLP.Chemscore.Hbond>
2.9440

> <Gold.PLP.Chemscore.CHOScore>
0.3202

> <Gold.PLP.Chemscore.Metal>
0.0000

> <Gold.Chemscore.Hbonds>
donor molecule, donor type, donor heavy atom, donor atom, acceptor molecule, acceptor atom, score
      L1  H    27    62       P1  7948  2.00
      P1  H  7997  8009       L1    21  0.91
      L1  C    16    43       P1  8028  0.29

> <Gold.PLP.Chemscore.Internal.Correction>
0.5785

> <Gold.Rescore>
     Score         DG    S(hbond)    S(metal)    S(lipo)     H(rot)  DE(clash)    DE(int)     intcor
      9.34     -15.74       1.83        0.00     102.73       3.08       3.22       3.18       ----

> <Gold.Chemscore.Fitness>
9.3417

> <Gold.Chemscore.DG>
-15.7391

> <Gold.Chemscore.ZeroCoef>
-5.4800

> <Gold.Chemscore.Hbond>
1.8303

> <Gold.Chemscore.Metal>
0.0000

> <Gold.Chemscore.Lipo>
102.7349

> <Gold.Chemscore.Internal_Hbond>
0.0000

> <Gold.Chemscore.DEClash>
3.2171

> <Gold.Chemscore.DEInternal>
3.1804

> <Gold.Chemscore.Rot>
3.0758

> <Gold.Chemscore.Internal.Correction>
   9.000000E+99

> <Gold.Chemscore.Hbonds>
donor molecule, donor type, donor heavy atom, donor atom, acceptor molecule, acceptor atom, score
      L1  H    27    62       P1  7948  1.00
      P1  H  7997  8009       L1    21  0.58

> <Gold.Chemscore.Hbond.Weighted>
-6.1133

> <Gold.Chemscore.Metal.Weighted>
-0.0000

> <Gold.Chemscore.Lipo.Weighted>
-12.0200

> <Gold.Chemscore.Internal_Hbond.Weighted>
0.0000

> <Gold.Chemscore.DEClash.Weighted>
3.2171

> <Gold.Chemscore.DEInternal.Weighted>
3.1804

> <Gold.Chemscore.Rot.Weighted>
7.8741

> <Gold.Chemscore.Internal.Correction.Weighted>
   9.000000E+99

> <Gold.Protein.RotatedTorsions>
[ 6907 6896 6895 6894 ] final -109.70 input  -60.11 | X-H torsion
[ 7974 7965 7964 7962 ] final  178.76 input  175.53 | X-H torsion
[ 8008 7997 7996 7995 ] final  125.84 input   59.86 | X-H torsion
[ 10167 10162 10161 10158 ] final   69.20 input  -65.29 | X-H torsion
[ 10718 10713 10712 10709 ] final  115.95 input   66.30 | X-H torsion
[ 10763 10752 10751 10750 ] final -140.90 input  -60.55 | X-H torsion
[ 11005 11000 10999 10996 ] final -101.77 input  -57.11 | X-H torsion

> <Gold.Protein.ActiveResidues>
 VAL166  LYS551  ARG553  GLY616  TRP617  ASP618  TYR619  PRO620  LYS621  CYS622 
 ASP623  PHE694  ASN695  SER759  ASP760  ASP761  ALA762  ILE779  LEU786  VAL792 
 PHE793  MET794  SER795  GLU796  ALA797  LYS798  CYS799  TRP800  GLU811  SER814 

> <Gold.Protein.RotatedAtoms>
  150.7578  133.9491  159.3479 H   0  0  0  0  0  0  0  0  0  0  0  0  # atno 6907 bound_to 6896
  151.7406  135.0853  160.0324 H   0  0  0  0  0  0  0  0  0  0  0  0  # atno 6908 bound_to 6896
  152.3531  133.6166  159.5995 H   0  0  0  0  0  0  0  0  0  0  0  0  # atno 6909 bound_to 6896
  144.7152  140.0445  143.6436 H   0  0  0  0  0  0  0  0  0  0  0  0  # atno 7974 bound_to 7965
  156.2846  140.2707  156.2015 H   0  0  0  0  0  0  0  0  0  0  0  0  # atno 8008 bound_to 7997
  155.0356  140.0386  157.2508 H   0  0  0  0  0  0  0  0  0  0  0  0  # atno 8009 bound_to 7997
  154.7317  140.2708  155.6455 H   0  0  0  0  0  0  0  0  0  0  0  0  # atno 8010 bound_to 7997
  140.0704  144.5157  150.7231 H   0  0  0  0  0  0  0  0  0  0  0  0  # atno 10167 bound_to 10162
  157.6191  131.1019  150.7402 H   0  0  0  0  0  0  0  0  0  0  0  0  # atno 10718 bound_to 10713
  154.8563  135.3540  154.5781 H   0  0  0  0  0  0  0  0  0  0  0  0  # atno 10763 bound_to 10752
  153.6393  135.6999  153.5252 H   0  0  0  0  0  0  0  0  0  0  0  0  # atno 10764 bound_to 10752
  153.2984  135.4213  155.1190 H   0  0  0  0  0  0  0  0  0  0  0  0  # atno 10765 bound_to 10752
  141.1217  133.8505  157.1275 H   0  0  0  0  0  0  0  0  0  0  0  0  # atno 11005 bound_to 11000
  145.9995  139.3080  143.0936 LP  0  0  0  0  0  0  0  0  0  0  0  0  # atno 17320 bound_to 7965
  145.8809  140.9363  143.0602 LP  0  0  0  0  0  0  0  0  0  0  0  0  # atno 17321 bound_to 7965
  140.7128  143.2519  151.4528 LP  0  0  0  0  0  0  0  0  0  0  0  0  # atno 17342 bound_to 10162
  139.5839  144.1647  152.2004 LP  0  0  0  0  0  0  0  0  0  0  0  0  # atno 17343 bound_to 10162
  156.7763  130.4845  149.5409 LP  0  0  0  0  0  0  0  0  0  0  0  0  # atno 17370 bound_to 10713
  156.1327  130.6189  151.0356 LP  0  0  0  0  0  0  0  0  0  0  0  0  # atno 17371 bound_to 10713
  140.0180  134.9959  157.0533 LP  0  0  0  0  0  0  0  0  0  0  0  0  # atno 17394 bound_to 11000
  140.4488  134.1604  155.7179 LP  0  0  0  0  0  0  0  0  0  0  0  0  # atno 17395 bound_to 11000

$$$$
