AV-unprocessed.smi:2711|AV-procd|sdf|10473|dock1
  -GOLD-   2272014513D 1   1.00000     0.00000
 Structure written by MMmdl.
 33 34  0  0  0  0  0  0  0  0  2 V2000
  146.6299  134.0656  162.5510 C   0  0  0  0  0  0  0  0  0  0  0  0
  147.2006  135.1201  161.6645 C   0  0  0  0  0  0  0  0  0  0  0  0
  147.3077  136.4622  161.9227 C   0  0  0  0  0  0  0  0  0  0  0  0
  147.8920  137.1890  160.8842 N   0  0  0  0  0  0  0  0  0  0  0  0
  148.2426  136.4328  159.8386 C   0  0  0  0  0  0  0  0  0  0  0  0
  148.8123  136.9349  158.7308 N   0  5  0  0  0  0  0  0  0  0  0  0
  150.0878  137.3833  158.7686 C   0  0  0  0  0  0  0  0  0  0  0  0
  151.0817  136.7341  159.1030 O   0  0  0  0  0  0  0  0  0  0  0  0
  150.2201  138.6652  158.3964 N   0  0  0  0  0  0  0  0  0  0  0  0
  151.4724  139.4176  158.3395 C   0  0  0  0  0  0  0  0  0  0  0  0
  151.2898  140.8835  157.9038 C   0  0  0  0  0  0  0  0  0  0  0  0
  150.5880  141.1543  156.9277 O   0  0  0  0  0  0  0  0  0  0  0  0
  151.9016  141.8422  158.6298 N   0  0  0  0  0  0  0  0  0  0  0  0
  151.8510  143.2792  158.3633 C   0  0  0  0  0  0  0  0  0  0  0  0
  152.8935  143.9080  159.2884 C   0  0  0  0  0  0  0  0  0  0  0  0
  153.0082  142.9236  160.4439 C   0  0  0  0  0  0  0  0  0  0  0  0
  152.7236  141.5638  159.8059 C   0  0  0  0  0  0  0  0  0  0  0  0
  147.8405  134.7323  160.0901 S   0  0  0  0  0  0  0  0  0  0  0  0
  147.3491  133.7764  163.3173 H   0  0  0  0  0  0  0  0  0  0  0  0
  146.3658  133.1739  161.9821 H   0  0  0  0  0  0  0  0  0  0  0  0
  145.7293  134.4237  163.0498 H   0  0  0  0  0  0  0  0  0  0  0  0
  146.9945  136.9844  162.8146 H   0  0  0  0  0  0  0  0  0  0  0  0
  149.3813  139.1557  158.1237 H   0  0  0  0  0  0  0  0  0  0  0  0
  151.9171  139.4034  159.3346 H   0  0  0  0  0  0  0  0  0  0  0  0
  152.1721  138.9088  157.6747 H   0  0  0  0  0  0  0  0  0  0  0  0
  152.0603  143.5160  157.3192 H   0  0  0  0  0  0  0  0  0  0  0  0
  150.8543  143.6509  158.6055 H   0  0  0  0  0  0  0  0  0  0  0  0
  153.8509  143.9732  158.7694 H   0  0  0  0  0  0  0  0  0  0  0  0
  152.6202  144.9126  159.6128 H   0  0  0  0  0  0  0  0  0  0  0  0
  153.9780  142.9634  160.9406 H   0  0  0  0  0  0  0  0  0  0  0  0
  152.2421  143.1456  161.1883 H   0  0  0  0  0  0  0  0  0  0  0  0
  152.2235  140.8935  160.5067 H   0  0  0  0  0  0  0  0  0  0  0  0
  153.6517  141.0883  159.4850 H   0  0  0  0  0  0  0  0  0  0  0  0
  1  2  1  0  0  0  0
  1 19  1  0  0  0  0
  1 20  1  0  0  0  0
  1 21  1  0  0  0  0
  2 18  1  0  0  0  0
  2  3  2  0  0  0  0
  3  4  1  0  0  0  0
  3 22  1  0  0  0  0
  4  5  2  0  0  0  0
  5  6  1  0  0  0  0
  5 18  1  0  0  0  0
  6  7  1  0  0  0  0
  7  8  2  0  0  0  0
  7  9  1  0  0  0  0
  9 10  1  0  0  0  0
  9 23  1  0  0  0  0
 10 11  1  0  0  0  0
 10 24  1  0  0  0  0
 10 25  1  0  0  0  0
 11 12  2  0  0  0  0
 11 13  1  0  0  0  0
 13 17  1  0  0  0  0
 13 14  1  0  0  0  0
 14 15  1  0  0  0  0
 14 26  1  0  0  0  0
 14 27  1  0  0  0  0
 15 16  1  0  0  0  0
 15 28  1  0  0  0  0
 15 29  1  0  0  0  0
 16 17  1  0  0  0  0
 16 30  1  0  0  0  0
 16 31  1  0  0  0  0
 17 32  1  0  0  0  0
 17 33  1  0  0  0  0
M  CHG  1   6  -1
M  END
> <s_m_source_file>
AV-unprocessed.smi

> <i_m_source_file_index>
2711

> <i_lp_mmshare_version>
43012

> <i_f3d_flags>
0

> <s_epik_input>
W0NIM11jMVtjSF1uYyhzMSlbTkhdQyg9TylbTkhdW0NIMl1DKD1PKU4yW0NIMl1bQ0gyXVtDSDJdW0NIMl0y

> <s_epik_cmdline>
J2VwaWtfcHl0aG9uJywgJy1waCcsICc3LjAnLCAnLXRuJywgJzgnLCAnLW1hJywgJzIwMCcsICctbWV0YWxfYmluZGluZycsICctaW1hZScsICc8aW5maWxlLm1hZT4nLCAnLW9tYWUnLCAnPG91dGZpbGUubWFlPic=

> <r_lp_tautomer_probability>
1

> <r_epik_Ionization_Penalty>
6.8506

> <r_epik_Ionization_Penalty_Charging>
5.74941

> <r_epik_Ionization_Penalty_Neutral>
1.10119

> <r_epik_State_Penalty>
5.74937

> <r_epik_Charging_Adjusted_Penalty>
11.4988

> <i_epik_Tot_Q>
-1

> <i_epik_Tot_abs_Q>
1

> <r_epik_Metal_State_Penalty>
1.72493

> <b_epik_Metal_Only>
1

> <s_lp_Force_Field>
OPLS_2005

> <r_lp_Energy>
20.4432

> <b_lp_Chiralities_Consistent>
1

> <s_lp_Variant>
AV-unprocessed.smi:2711-2

> <Gold.Version>
5.8.1

> <Gold.Id.Protein>
6NUR|6NUR_protein|mol2

> <Gold.PLP.Fitness>
43.8029

> <Gold.PLP.PLP>
-38.2384

> <Gold.PLP.part.hbond>
-3.0000

> <Gold.PLP.part.metal>
0.0000

> <Gold.PLP.part.buried>
-5.3144

> <Gold.PLP.part.nonpolar>
-30.6755

> <Gold.PLP.part.repulsive>
0.1937

> <Gold.PLP.ligand.clash>
0.0000

> <Gold.PLP.ligand.torsion>
1.3452

> <Gold.PLP.Chemscore.Hbond>
2.7369

> <Gold.PLP.Chemscore.CHOScore>
0.0000

> <Gold.PLP.Chemscore.Metal>
0.0000

> <Gold.Chemscore.Hbonds>
donor molecule, donor type, donor heavy atom, donor atom, acceptor molecule, acceptor atom, score
      P1  H  6896  6907       L1     8  1.00
      P1  H  6931  6943       L1     4  0.84
      P1  H  6934  6947       L1     4  0.80

> <Gold.PLP.Chemscore.Internal.Correction>
0.0442

> <Gold.Rescore>
     Score         DG    S(hbond)    S(metal)    S(lipo)     H(rot)  DE(clash)    DE(int)     intcor
     18.22     -19.65       2.33        0.00      83.25       1.31       0.04       1.40       ----

> <Gold.Chemscore.Fitness>
18.2181

> <Gold.Chemscore.DG>
-19.6527

> <Gold.Chemscore.ZeroCoef>
-5.4800

> <Gold.Chemscore.Hbond>
2.3277

> <Gold.Chemscore.Metal>
0.0000

> <Gold.Chemscore.Lipo>
83.2503

> <Gold.Chemscore.Internal_Hbond>
0.0000

> <Gold.Chemscore.DEClash>
0.0383

> <Gold.Chemscore.DEInternal>
1.3963

> <Gold.Chemscore.Rot>
1.3056

> <Gold.Chemscore.Internal.Correction>
   9.000000E+99

> <Gold.Chemscore.Hbonds>
donor molecule, donor type, donor heavy atom, donor atom, acceptor molecule, acceptor atom, score
      P1  H  6896  6907       L1     8  0.97
      P1  H  6931  6943       L1     4  0.19
      P1  H  6934  6947       L1     4  0.55

> <Gold.Chemscore.Hbond.Weighted>
-7.7746

> <Gold.Chemscore.Metal.Weighted>
-0.0000

> <Gold.Chemscore.Lipo.Weighted>
-9.7403

> <Gold.Chemscore.Internal_Hbond.Weighted>
0.0000

> <Gold.Chemscore.DEClash.Weighted>
0.0383

> <Gold.Chemscore.DEInternal.Weighted>
1.3963

> <Gold.Chemscore.Rot.Weighted>
3.3422

> <Gold.Chemscore.Internal.Correction.Weighted>
   9.000000E+99

> <Gold.Protein.RotatedTorsions>
[ 6907 6896 6895 6894 ] final  -27.35 input  -60.11 | X-H torsion
[ 7974 7965 7964 7962 ] final   -4.20 input  175.53 | X-H torsion
[ 8008 7997 7996 7995 ] final  121.64 input   59.86 | X-H torsion
[ 10167 10162 10161 10158 ] final    4.19 input  -65.29 | X-H torsion
[ 10718 10713 10712 10709 ] final  -67.73 input   66.30 | X-H torsion
[ 10763 10752 10751 10750 ] final -169.91 input  -60.55 | X-H torsion
[ 11005 11000 10999 10996 ] final   57.21 input  -57.11 | X-H torsion

> <Gold.Protein.ActiveResidues>
 VAL166  LYS551  ARG553  GLY616  TRP617  ASP618  TYR619  PRO620  LYS621  CYS622 
 ASP623  PHE694  ASN695  SER759  ASP760  ASP761  ALA762  ILE779  LEU786  VAL792 
 PHE793  MET794  SER795  GLU796  ALA797  LYS798  CYS799  TRP800  GLU811  SER814 

> <Gold.Protein.RotatedAtoms>
  151.1481  135.0213  159.8655 H   0  0  0  0  0  0  0  0  0  0  0  0  # atno 6907 bound_to 6896
  152.5453  134.1420  159.8493 H   0  0  0  0  0  0  0  0  0  0  0  0  # atno 6908 bound_to 6896
  151.1503  133.4866  159.2628 H   0  0  0  0  0  0  0  0  0  0  0  0  # atno 6909 bound_to 6896
  146.2376  140.1836  142.8332 H   0  0  0  0  0  0  0  0  0  0  0  0  # atno 7974 bound_to 7965
  156.2695  140.2804  156.1341 H   0  0  0  0  0  0  0  0  0  0  0  0  # atno 8008 bound_to 7997
  155.1023  140.0390  157.2718 H   0  0  0  0  0  0  0  0  0  0  0  0  # atno 8009 bound_to 7997
  154.6806  140.2608  155.6918 H   0  0  0  0  0  0  0  0  0  0  0  0  # atno 8010 bound_to 7997
  140.6547  143.7456  150.7634 H   0  0  0  0  0  0  0  0  0  0  0  0  # atno 10167 bound_to 10162
  156.0542  130.4283  150.1898 H   0  0  0  0  0  0  0  0  0  0  0  0  # atno 10718 bound_to 10713
  154.6472  135.2906  155.0032 H   0  0  0  0  0  0  0  0  0  0  0  0  # atno 10763 bound_to 10752
  154.1137  135.6558  153.4894 H   0  0  0  0  0  0  0  0  0  0  0  0  # atno 10764 bound_to 10752
  153.0357  135.5271  154.7364 H   0  0  0  0  0  0  0  0  0  0  0  0  # atno 10765 bound_to 10752
  140.0470  134.5792  155.9311 H   0  0  0  0  0  0  0  0  0  0  0  0  # atno 11005 bound_to 11000
  144.9914  140.8551  143.5337 LP  0  0  0  0  0  0  0  0  0  0  0  0  # atno 17320 bound_to 7965
  145.1842  139.2335  143.5276 LP  0  0  0  0  0  0  0  0  0  0  0  0  # atno 17321 bound_to 7965
  140.1114  143.4696  152.2368 LP  0  0  0  0  0  0  0  0  0  0  0  0  # atno 17342 bound_to 10162
  139.5768  144.7491  151.3744 LP  0  0  0  0  0  0  0  0  0  0  0  0  # atno 17343 bound_to 10162
  156.9976  130.9912  151.3399 LP  0  0  0  0  0  0  0  0  0  0  0  0  # atno 17370 bound_to 10713
  157.5496  130.8174  149.8129 LP  0  0  0  0  0  0  0  0  0  0  0  0  # atno 17371 bound_to 10713
  141.1912  133.6571  156.5444 LP  0  0  0  0  0  0  0  0  0  0  0  0  # atno 17394 bound_to 11000
  140.3978  134.7383  157.4761 LP  0  0  0  0  0  0  0  0  0  0  0  0  # atno 17395 bound_to 11000

$$$$
