#       Name:                AV-unprocessed.smi:560
#       Creating user name   scv26
#       Creation time:       Thu Mar 26 23:42:34 2020


#       File generated by GOLD software.
#

@<TRIPOS>MOLECULE
AV-unprocessed.smi:560
    47    48     1
SMALL
NO_CHARGES


@<TRIPOS>ATOM
      1 ****        -2.4226  -3.4146   1.4504 C.3            1 S1                 0.0000
      2 ****        -1.8724  -2.4715   0.3610 C.3            1 S1                 0.0000
      3 ****        -0.3739  -2.1725   0.5308 C.2            1 S1                 0.0000
      4 ****         0.3441  -2.9082   1.2088 O.2            1 S1                 0.0000
      5 ****         0.0861  -1.0760  -0.0933 N.am           1 S1                 0.0000
      6 ****         1.4749  -0.6187  -0.0891 C.3            1 S1                 0.0000
      7 ****         1.8509   0.0707   1.2377 C.3            1 S1                 0.0000
      8 ****         1.1578   1.4352   1.3923 C.3            1 S1                 0.0000
      9 ****         1.4641   2.3233   0.2393 N.4            1 S1                 1.0000
     10 ****         0.9361   3.7017   0.4093 C.3            1 S1                 0.0000
     11 ****         1.7752   4.5502   1.3705 C.2            1 S1                 0.0000
     12 ****         1.1807   5.6176   1.9083 N.am           1 S1                 0.0000
     13 ****         2.9445   4.2588   1.6149 O.2            1 S1                 0.0000
     14 ****         1.0471   1.7105  -1.0479 C.3            1 S1                 0.0000
     15 ****         1.7253   0.3444  -1.2627 C.3            1 S1                 0.0000
     16 ****        -2.1425  -2.9691  -0.9834 N.pl3          1 S1                 0.0000
     17 ****        -2.6633  -2.2750  -2.0568 C.2            1 S1                 0.0000
     18 ****        -2.7049  -3.1315  -3.1193 C.2            1 S1                 0.0000
     19 ****        -2.1723  -4.3428  -2.5976 C.2            1 S1                 0.0000
     20 ****        -1.8290  -4.2408  -1.3243 N.2            1 S1                 0.0000
     21 ****        -2.2660  -2.9986   2.4462 H              1 S1                 0.0000
     22 ****        -1.9453  -4.3952   1.4242 H              1 S1                 0.0000
     23 ****        -3.4949  -3.5672   1.3261 H              1 S1                 0.0000
     24 ****        -2.4012  -1.5226   0.4636 H              1 S1                 0.0000
     25 ****        -0.5715  -0.5351  -0.6355 H              1 S1                 0.0000
     26 ****         2.1148  -1.4925  -0.2262 H              1 S1                 0.0000
     27 ****         1.6112  -0.5689   2.0877 H              1 S1                 0.0000
     28 ****         2.9314   0.2171   1.2694 H              1 S1                 0.0000
     29 ****         0.0780   1.3033   1.4773 H              1 S1                 0.0000
     30 ****         1.4897   1.8978   2.3222 H              1 S1                 0.0000
     31 ****         0.9449   4.2195  -0.5507 H              1 S1                 0.0000
     32 ****        -0.1042   3.6660   0.7370 H              1 S1                 0.0000
     33 ****         1.6840   6.2110   2.5520 H              1 S1                 0.0000
     34 ****         0.2212   5.8279   1.6715 H              1 S1                 0.0000
     35 ****        -0.0388   1.6052  -1.0670 H              1 S1                 0.0000
     36 ****         1.3142   2.3718  -1.8728 H              1 S1                 0.0000
     37 ****         2.7998   0.4965  -1.3751 H              1 S1                 0.0000
     38 ****         1.3842  -0.1016  -2.1979 H              1 S1                 0.0000
     39 ****        -2.9585  -1.2393  -1.9768 H              1 S1                 0.0000
     40 ****        -3.0586  -2.9239  -4.1182 H              1 S1                 0.0000
     41 ****        -2.0213  -5.2850  -3.1033 H              1 S1                 0.0000
     42 ****         2.4697   2.4143   0.1975 H              1 S1                 0.0000
     43 ****        -0.0460  -3.7122   1.6576 LP             1 S1                 0.0000
     44 ****         1.3172  -2.7016   1.3106 LP             1 S1                 0.0000
     45 ****         3.3608   3.4581   1.1841 LP             1 S1                 0.0000
     46 ****         3.4791   4.8225   2.2445 LP             1 S1                 0.0000
     47 ****        -1.4267  -4.9473  -0.7421 LP             1 S1                 0.0000
@<TRIPOS>BOND
    1    1    2 1     
    2    1   21 1     
    3    1   22 1     
    4    1   23 1     
    5    2    3 1     
    6    2   16 1     
    7    2   24 1     
    8    3    4 2     
    9    3    5 am    
   10    5    6 1     
   11    5   25 1     
   12    6   15 1     
   13    6    7 1     
   14    6   26 1     
   15    7    8 1     
   16    7   27 1     
   17    7   28 1     
   18    8    9 1     
   19    8   29 1     
   20    8   30 1     
   21    9   10 1     
   22    9   14 1     
   23    9   42 1     
   24   10   11 1     
   25   10   31 1     
   26   10   32 1     
   27   11   12 am    
   28   11   13 2     
   29   12   33 1     
   30   12   34 1     
   31   14   15 1     
   32   14   35 1     
   33   14   36 1     
   34   15   37 1     
   35   15   38 1     
   36   16   20 1     
   37   16   17 1     
   38   17   18 2     
   39   17   39 1     
   40   18   19 1     
   41   18   40 1     
   42   19   20 2     
   43   19   41 1     
   44    4   43 1     
   45    4   44 1     
   46   13   45 1     
   47   13   46 1     
   48   20   47 1     
@<TRIPOS>SUBSTRUCTURE
      1 S1             1
@<TRIPOS>SET
LONE_PAIRS      STATIC     ATOMS    <user>   **** ""
5 43 44 45 46 47
DONOR_HYDROGENS      STATIC     ATOMS    <user>   **** ""
4 25 42 33 34
ATOM$BLUE        STATIC     ATOMS    COLORGROUP SYSTEM
5 43 44 45 46 47
ATOM$RED        STATIC     ATOMS    COLORGROUP SYSTEM
4 25 42 33 34
