AV-unprocessed.smi:1150|AV-procd|sdf|4894|dock4
  -GOLD-   22720 3473D 1   1.00000     0.00000
 Structure written by MMmdl.
 50 51  0  0  0  0  0  0  0  0  1 V2000
  152.4953  138.8592  154.7881 C   0  0  0  0  0  0  0  0  0  0  0  0
  151.4868  138.6433  155.9287 C   0  0  0  0  0  0  0  0  0  0  0  0
  150.5095  139.8231  156.1486 C   0  0  1  0  0  0  0  0  0  0  0  0
  151.2790  140.9867  156.5921 N   0  0  0  0  0  0  0  0  0  0  0  0
  150.9119  141.8695  157.5356 C   0  0  0  0  0  0  0  0  0  0  0  0
  149.8179  141.8552  158.0990 O   0  0  0  0  0  0  0  0  0  0  0  0
  151.9520  142.9237  157.9124 C   0  0  0  0  0  0  0  0  0  0  0  0
  152.3829  142.7099  159.3424 C   0  0  0  0  0  0  0  0  0  0  0  0
  152.9083  141.5150  159.9168 C   0  0  0  0  0  0  0  0  0  0  0  0
  153.1543  140.1928  159.2481 C   0  0  0  0  0  0  0  0  0  0  0  0
  153.2110  141.6603  161.1959 N   0  0  0  0  0  0  0  0  0  0  0  0
  152.8967  142.9395  161.4809 N   0  0  0  0  0  0  0  0  0  0  0  0
  153.1103  143.4393  162.8251 C   0  0  0  0  0  0  0  0  0  0  0  0
  152.3907  143.6036  160.3805 C   0  0  0  0  0  0  0  0  0  0  0  0
  151.9760  145.0386  160.4398 C   0  0  0  0  0  0  0  0  0  0  0  0
  149.6703  140.1803  154.8877 C   0  0  0  0  0  0  0  0  0  0  0  0
  148.7512  141.4069  155.1221 C   0  0  0  0  0  0  0  0  0  0  0  0
  147.9140  141.7598  153.8825 C   0  0  0  0  0  0  0  0  0  0  0  0
  147.0774  140.5620  153.4170 C   0  0  0  0  0  0  0  0  0  0  0  0
  147.9743  139.3465  153.1525 C   0  0  0  0  0  0  0  0  0  0  0  0
  148.8148  138.9893  154.3893 C   0  0  0  0  0  0  0  0  0  0  0  0
  153.2093  138.0367  154.7443 H   0  0  0  0  0  0  0  0  0  0  0  0
  153.0595  139.7810  154.9315 H   0  0  0  0  0  0  0  0  0  0  0  0
  152.0045  138.9139  153.8160 H   0  0  0  0  0  0  0  0  0  0  0  0
  150.9236  137.7291  155.7371 H   0  0  0  0  0  0  0  0  0  0  0  0
  152.0616  138.4639  156.8360 H   0  0  0  0  0  0  0  0  0  0  0  0
  149.8145  139.5246  156.9355 H   0  0  0  0  0  0  0  0  0  0  0  0
  152.1989  141.0936  156.1902 H   0  0  0  0  0  0  0  0  0  0  0  0
  152.7914  142.8597  157.2197 H   0  0  0  0  0  0  0  0  0  0  0  0
  151.5233  143.9165  157.7719 H   0  0  0  0  0  0  0  0  0  0  0  0
  154.0746  140.2198  158.6646 H   0  0  0  0  0  0  0  0  0  0  0  0
  152.3398  139.9374  158.5705 H   0  0  0  0  0  0  0  0  0  0  0  0
  153.2431  139.3839  159.9740 H   0  0  0  0  0  0  0  0  0  0  0  0
  153.6109  144.4069  162.7851 H   0  0  0  0  0  0  0  0  0  0  0  0
  153.7312  142.7490  163.3980 H   0  0  0  0  0  0  0  0  0  0  0  0
  152.1502  143.5545  163.3280 H   0  0  0  0  0  0  0  0  0  0  0  0
  151.6104  145.3882  159.4749 H   0  0  0  0  0  0  0  0  0  0  0  0
  152.8159  145.6724  160.7244 H   0  0  0  0  0  0  0  0  0  0  0  0
  151.1797  145.1812  161.1706 H   0  0  0  0  0  0  0  0  0  0  0  0
  150.3668  140.4426  154.0894 H   0  0  0  0  0  0  0  0  0  0  0  0
  148.0870  141.2098  155.9648 H   0  0  0  0  0  0  0  0  0  0  0  0
  149.3374  142.2845  155.3942 H   0  0  0  0  0  0  0  0  0  0  0  0
  147.2605  142.6041  154.1042 H   0  0  0  0  0  0  0  0  0  0  0  0
  148.5731  142.0824  153.0754 H   0  0  0  0  0  0  0  0  0  0  0  0
  146.3359  140.3138  154.1777 H   0  0  0  0  0  0  0  0  0  0  0  0
  146.5229  140.8212  152.5147 H   0  0  0  0  0  0  0  0  0  0  0  0
  147.3633  138.4918  152.8605 H   0  0  0  0  0  0  0  0  0  0  0  0
  148.6348  139.5559  152.3100 H   0  0  0  0  0  0  0  0  0  0  0  0
  149.4466  138.1418  154.1279 H   0  0  0  0  0  0  0  0  0  0  0  0
  148.1564  138.6494  155.1900 H   0  0  0  0  0  0  0  0  0  0  0  0
  1  2  1  0  0  0  0
  1 22  1  0  0  0  0
  1 23  1  0  0  0  0
  1 24  1  0  0  0  0
  2  3  1  0  0  0  0
  2 25  1  0  0  0  0
  2 26  1  0  0  0  0
  3  4  1  0  0  0  0
  3 16  1  0  0  0  0
  3 27  1  0  0  0  0
  4  5  1  0  0  0  0
  4 28  1  0  0  0  0
  5  6  2  0  0  0  0
  5  7  1  0  0  0  0
  7  8  1  0  0  0  0
  7 29  1  0  0  0  0
  7 30  1  0  0  0  0
  8 14  2  0  0  0  0
  8  9  1  0  0  0  0
  9 10  1  0  0  0  0
  9 11  2  0  0  0  0
 10 31  1  0  0  0  0
 10 32  1  0  0  0  0
 10 33  1  0  0  0  0
 11 12  1  0  0  0  0
 12 13  1  0  0  0  0
 12 14  1  0  0  0  0
 13 34  1  0  0  0  0
 13 35  1  0  0  0  0
 13 36  1  0  0  0  0
 14 15  1  0  0  0  0
 15 37  1  0  0  0  0
 15 38  1  0  0  0  0
 15 39  1  0  0  0  0
 16 21  1  0  0  0  0
 16 17  1  0  0  0  0
 16 40  1  0  0  0  0
 17 18  1  0  0  0  0
 17 41  1  0  0  0  0
 17 42  1  0  0  0  0
 18 19  1  0  0  0  0
 18 43  1  0  0  0  0
 18 44  1  0  0  0  0
 19 20  1  0  0  0  0
 19 45  1  0  0  0  0
 19 46  1  0  0  0  0
 20 21  1  0  0  0  0
 20 47  1  0  0  0  0
 20 48  1  0  0  0  0
 21 49  1  0  0  0  0
 21 50  1  0  0  0  0
M  END
> <s_m_source_file>
AV-unprocessed.smi

> <i_m_source_file_index>
1150

> <i_lp_mmshare_version>
43012

> <i_f3d_flags>
0

> <s_epik_input>
W0NIMl0xW0NIMl1bQ0gyXVtDSDJdW0NIMl1bQ0hdMVtDQEhdKFtDSDJdW0NIM10pW05IXUMoPU8pW0NIMl1jMmMoW0NIM10pbm4oW0NIM10pYzJbQ0gzXQ==

> <s_epik_cmdline>
J2VwaWtfcHl0aG9uJywgJy1waCcsICc3LjAnLCAnLXRuJywgJzgnLCAnLW1hJywgJzIwMCcsICctbWV0YWxfYmluZGluZycsICctaW1hZScsICc8aW5maWxlLm1hZT4nLCAnLW9tYWUnLCAnPG91dGZpbGUubWFlPic=

> <r_lp_tautomer_probability>
1

> <r_epik_Ionization_Penalty>
0.00328092

> <r_epik_Ionization_Penalty_Charging>
0

> <r_epik_Ionization_Penalty_Neutral>
0.00328092

> <r_epik_State_Penalty>
0.00231765

> <r_epik_Charging_Adjusted_Penalty>
0.00231765

> <i_epik_Tot_Q>
0

> <i_epik_Tot_abs_Q>
0

> <r_epik_Metal_State_Penalty>
-0

> <b_epik_Metal_Only>
0

> <s_lp_Force_Field>
OPLS_2005

> <r_lp_Energy>
7.94886

> <b_lp_Chiralities_Consistent>
1

> <s_lp_Variant>
AV-unprocessed.smi:1150-2

> <Gold.Version>
5.8.1

> <Gold.Id.Protein>
6NUR|6NUR_protein|mol2

> <Gold.PLP.Fitness>
46.4597

> <Gold.PLP.PLP>
-47.1809

> <Gold.PLP.part.hbond>
0.0000

> <Gold.PLP.part.metal>
0.0000

> <Gold.PLP.part.buried>
-2.5914

> <Gold.PLP.part.nonpolar>
-44.1966

> <Gold.PLP.part.repulsive>
0.1955

> <Gold.PLP.ligand.clash>
0.0000

> <Gold.PLP.ligand.torsion>
0.3883

> <Gold.PLP.Chemscore.Hbond>
0.0000

> <Gold.PLP.Chemscore.CHOScore>
0.0000

> <Gold.PLP.Chemscore.Metal>
0.0000

> <Gold.PLP.Chemscore.Internal.Correction>
0.0555

> <Gold.Rescore>
     Score         DG    S(hbond)    S(metal)    S(lipo)     H(rot)  DE(clash)    DE(int)     intcor
     16.16     -17.98       0.00        0.00     137.82       1.42       1.48       0.33       ----

> <Gold.Chemscore.Fitness>
16.1634

> <Gold.Chemscore.DG>
-17.9764

> <Gold.Chemscore.ZeroCoef>
-5.4800

> <Gold.Chemscore.Hbond>
0.0000

> <Gold.Chemscore.Metal>
0.0000

> <Gold.Chemscore.Lipo>
137.8206

> <Gold.Chemscore.Internal_Hbond>
0.0000

> <Gold.Chemscore.DEClash>
1.4811

> <Gold.Chemscore.DEInternal>
0.3319

> <Gold.Chemscore.Rot>
1.4174

> <Gold.Chemscore.Internal.Correction>
   9.000000E+99

> <Gold.Chemscore.Hbond.Weighted>
-0.0000

> <Gold.Chemscore.Metal.Weighted>
-0.0000

> <Gold.Chemscore.Lipo.Weighted>
-16.1250

> <Gold.Chemscore.Internal_Hbond.Weighted>
0.0000

> <Gold.Chemscore.DEClash.Weighted>
1.4811

> <Gold.Chemscore.DEInternal.Weighted>
0.3319

> <Gold.Chemscore.Rot.Weighted>
3.6286

> <Gold.Chemscore.Internal.Correction.Weighted>
   9.000000E+99

> <Gold.Protein.RotatedTorsions>
[ 6907 6896 6895 6894 ] final  107.55 input  -60.11 | X-H torsion
[ 7974 7965 7964 7962 ] final  151.56 input  175.53 | X-H torsion
[ 8008 7997 7996 7995 ] final   65.55 input   59.86 | X-H torsion
[ 10167 10162 10161 10158 ] final  -70.56 input  -65.29 | X-H torsion
[ 10718 10713 10712 10709 ] final  119.54 input   66.30 | X-H torsion
[ 10763 10752 10751 10750 ] final  -58.24 input  -60.55 | X-H torsion
[ 11005 11000 10999 10996 ] final  138.31 input  -57.11 | X-H torsion

> <Gold.Protein.ActiveResidues>
 VAL166  LYS551  ARG553  GLY616  TRP617  ASP618  TYR619  PRO620  LYS621  CYS622 
 ASP623  PHE694  ASN695  SER759  ASP760  ASP761  ALA762  ILE779  LEU786  VAL792 
 PHE793  MET794  SER795  GLU796  ALA797  LYS798  CYS799  TRP800  GLU811  SER814 

> <Gold.Protein.RotatedAtoms>
  152.5149  133.9217  159.7537 H   0  0  0  0  0  0  0  0  0  0  0  0  # atno 6907 bound_to 6896
  150.9588  133.6460  159.2765 H   0  0  0  0  0  0  0  0  0  0  0  0  # atno 6908 bound_to 6896
  151.3712  135.0928  159.9519 H   0  0  0  0  0  0  0  0  0  0  0  0  # atno 6909 bound_to 6896
  144.8283  139.6554  143.6070 H   0  0  0  0  0  0  0  0  0  0  0  0  # atno 7974 bound_to 7965
  155.6635  140.3497  155.4791 H   0  0  0  0  0  0  0  0  0  0  0  0  # atno 8008 bound_to 7997
  155.9748  140.1163  157.0802 H   0  0  0  0  0  0  0  0  0  0  0  0  # atno 8009 bound_to 7997
  154.4176  140.1150  156.5342 H   0  0  0  0  0  0  0  0  0  0  0  0  # atno 8010 bound_to 7997
  140.5342  143.2319  151.7207 H   0  0  0  0  0  0  0  0  0  0  0  0  # atno 10167 bound_to 10162
  157.5954  131.1058  150.7911 H   0  0  0  0  0  0  0  0  0  0  0  0  # atno 10718 bound_to 10713
  154.2350  135.6354  153.5188 H   0  0  0  0  0  0  0  0  0  0  0  0  # atno 10763 bound_to 10752
  152.9941  135.5528  154.5971 H   0  0  0  0  0  0  0  0  0  0  0  0  # atno 10764 bound_to 10752
  154.5463  135.2898  155.1024 H   0  0  0  0  0  0  0  0  0  0  0  0  # atno 10765 bound_to 10752
  140.0175  134.9412  157.0405 H   0  0  0  0  0  0  0  0  0  0  0  0  # atno 11005 bound_to 11000
  146.2588  139.6362  142.9376 LP  0  0  0  0  0  0  0  0  0  0  0  0  # atno 17320 bound_to 7965
  145.4951  141.0438  143.2571 LP  0  0  0  0  0  0  0  0  0  0  0  0  # atno 17321 bound_to 7965
  139.4965  144.4068  152.0124 LP  0  0  0  0  0  0  0  0  0  0  0  0  # atno 17342 bound_to 10162
  140.3172  144.3470  150.6018 LP  0  0  0  0  0  0  0  0  0  0  0  0  # atno 17343 bound_to 10162
  156.8323  130.5020  149.5330 LP  0  0  0  0  0  0  0  0  0  0  0  0  # atno 17370 bound_to 10713
  156.1016  130.5973  150.9903 LP  0  0  0  0  0  0  0  0  0  0  0  0  # atno 17371 bound_to 10713
  140.4446  134.1646  155.7176 LP  0  0  0  0  0  0  0  0  0  0  0  0  # atno 17394 bound_to 11000
  141.1752  133.8528  157.1444 LP  0  0  0  0  0  0  0  0  0  0  0  0  # atno 17395 bound_to 11000

$$$$
