AV-unprocessed.smi:2915|AV-procd|sdf|11187|dock2
  -GOLD-   2272016 83D 1   1.00000     0.00000
 Structure written by MMmdl.
 41 42  0  0  0  0  0  0  0  0  1 V2000
  154.2957  141.1320  161.5945 C   0  0  0  0  0  0  0  0  0  0  0  0
  153.3243  142.0216  160.8977 C   0  0  0  0  0  0  0  0  0  0  0  0
  153.0288  141.9205  159.5992 N   0  0  0  0  0  0  0  0  0  0  0  0
  152.0831  142.8655  159.1869 C   0  0  0  0  0  0  0  0  0  0  0  0
  151.6256  142.8960  157.7552 C   0  0  0  0  0  0  0  0  0  0  0  0
  151.3196  141.4943  157.2110 C   0  0  0  0  0  0  0  0  0  0  0  0
  152.2125  140.6609  157.0477 O   0  0  0  0  0  0  0  0  0  0  0  0
  150.0298  141.2543  156.9292 N   0  0  0  0  0  0  0  0  0  0  0  0
  149.4841  140.0139  156.3762 C   0  0  0  0  0  0  0  0  0  0  0  0
  149.2907  140.0525  154.8336 C   0  0  0  0  0  0  0  0  0  0  0  0
  150.5122  139.3304  154.1961 C   0  0  0  0  0  0  0  0  0  0  0  0
  150.6756  137.8270  154.5065 C   0  0  0  0  0  0  0  0  0  0  0  0
  151.8269  137.3348  153.8559 O   0  0  0  0  0  0  0  0  0  0  0  0
  147.9520  139.3769  154.4259 C   0  0  0  0  0  0  0  0  0  0  0  0
  147.2790  140.3213  153.4292 C   0  0  0  0  0  0  0  0  0  0  0  0
  147.7200  141.7084  153.8816 C   0  0  0  0  0  0  0  0  0  0  0  0
  149.1715  141.5161  154.3249 C   0  0  0  0  0  0  0  0  0  0  0  0
  151.6753  143.6987  160.1996 C   0  0  0  0  0  0  0  0  0  0  0  0
  152.4526  143.3156  161.7104 S   0  0  0  0  0  0  0  0  0  0  0  0
  154.6164  140.3229  160.9375 H   0  0  0  0  0  0  0  0  0  0  0  0
  153.8336  140.6990  162.4817 H   0  0  0  0  0  0  0  0  0  0  0  0
  155.1718  141.7046  161.8990 H   0  0  0  0  0  0  0  0  0  0  0  0
  150.7293  143.5095  157.6579 H   0  0  0  0  0  0  0  0  0  0  0  0
  152.3856  143.3587  157.1239 H   0  0  0  0  0  0  0  0  0  0  0  0
  149.3691  141.9991  157.0969 H   0  0  0  0  0  0  0  0  0  0  0  0
  150.1095  139.1625  156.6502 H   0  0  0  0  0  0  0  0  0  0  0  0
  148.5233  139.8411  156.8624 H   0  0  0  0  0  0  0  0  0  0  0  0
  150.4675  139.4597  153.1134 H   0  0  0  0  0  0  0  0  0  0  0  0
  151.4243  139.8378  154.5140 H   0  0  0  0  0  0  0  0  0  0  0  0
  150.7902  137.6494  155.5750 H   0  0  0  0  0  0  0  0  0  0  0  0
  149.8194  137.2432  154.1724 H   0  0  0  0  0  0  0  0  0  0  0  0
  151.6470  137.2736  152.9301 H   0  0  0  0  0  0  0  0  0  0  0  0
  148.0800  138.3738  154.0191 H   0  0  0  0  0  0  0  0  0  0  0  0
  147.2895  139.2603  155.2833 H   0  0  0  0  0  0  0  0  0  0  0  0
  147.6483  140.1268  152.4217 H   0  0  0  0  0  0  0  0  0  0  0  0
  146.1943  140.2109  153.4137 H   0  0  0  0  0  0  0  0  0  0  0  0
  147.6172  142.4591  153.0976 H   0  0  0  0  0  0  0  0  0  0  0  0
  147.1143  142.0282  154.7308 H   0  0  0  0  0  0  0  0  0  0  0  0
  149.4620  142.2558  155.0710 H   0  0  0  0  0  0  0  0  0  0  0  0
  149.8248  141.6950  153.4725 H   0  0  0  0  0  0  0  0  0  0  0  0
  150.9616  144.5076  160.1491 H   0  0  0  0  0  0  0  0  0  0  0  0
  1  2  1  0  0  0  0
  1 20  1  0  0  0  0
  1 21  1  0  0  0  0
  1 22  1  0  0  0  0
  2 19  1  0  0  0  0
  2  3  2  0  0  0  0
  3  4  1  0  0  0  0
  4  5  1  0  0  0  0
  4 18  2  0  0  0  0
  5  6  1  0  0  0  0
  5 23  1  0  0  0  0
  5 24  1  0  0  0  0
  6  7  2  0  0  0  0
  6  8  1  0  0  0  0
  8  9  1  0  0  0  0
  8 25  1  0  0  0  0
  9 10  1  0  0  0  0
  9 26  1  0  0  0  0
  9 27  1  0  0  0  0
 10 17  1  0  0  0  0
 10 11  1  0  0  0  0
 10 14  1  0  0  0  0
 11 12  1  0  0  0  0
 11 28  1  0  0  0  0
 11 29  1  0  0  0  0
 12 13  1  0  0  0  0
 12 30  1  0  0  0  0
 12 31  1  0  0  0  0
 13 32  1  0  0  0  0
 14 15  1  0  0  0  0
 14 33  1  0  0  0  0
 14 34  1  0  0  0  0
 15 16  1  0  0  0  0
 15 35  1  0  0  0  0
 15 36  1  0  0  0  0
 16 17  1  0  0  0  0
 16 37  1  0  0  0  0
 16 38  1  0  0  0  0
 17 39  1  0  0  0  0
 17 40  1  0  0  0  0
 18 19  1  0  0  0  0
 18 41  1  0  0  0  0
M  END
> <s_m_source_file>
AV-unprocessed.smi

> <i_m_source_file_index>
2915

> <i_lp_mmshare_version>
43012

> <i_f3d_flags>
0

> <s_epik_input>
W0NIM11jMW5jKFtjSF1zMSlbQ0gyXUMoPU8pW05IXVtDSDJdQzIoW0NIMl1bQ0gyXVtPSF0pW0NIMl1bQ0gyXVtDSDJdW0NIMl0y

> <s_epik_cmdline>
J2VwaWtfcHl0aG9uJywgJy1waCcsICc3LjAnLCAnLXRuJywgJzgnLCAnLW1hJywgJzIwMCcsICctbWV0YWxfYmluZGluZycsICctaW1hZScsICc8aW5maWxlLm1hZT4nLCAnLW9tYWUnLCAnPG91dGZpbGUubWFlPic=

> <r_lp_tautomer_probability>
1

> <r_epik_Ionization_Penalty>
5.95244e-05

> <r_epik_Ionization_Penalty_Charging>
0

> <r_epik_Ionization_Penalty_Neutral>
5.95244e-05

> <r_epik_State_Penalty>
-0

> <r_epik_Charging_Adjusted_Penalty>
0

> <i_epik_Tot_Q>
0

> <i_epik_Tot_abs_Q>
0

> <r_epik_Metal_State_Penalty>
-0

> <b_epik_Metal_Only>
0

> <s_lp_Force_Field>
OPLS_2005

> <r_lp_Energy>
27.9647

> <b_lp_Chiralities_Consistent>
1

> <s_lp_Variant>
AV-unprocessed.smi:2915-1

> <Gold.Version>
5.8.1

> <Gold.Id.Protein>
6NUR|6NUR_protein|mol2

> <Gold.PLP.Fitness>
46.7880

> <Gold.PLP.PLP>
-42.1200

> <Gold.PLP.part.hbond>
-2.5879

> <Gold.PLP.part.metal>
0.0000

> <Gold.PLP.part.buried>
-2.8379

> <Gold.PLP.part.nonpolar>
-34.7702

> <Gold.PLP.part.repulsive>
0.0284

> <Gold.PLP.ligand.clash>
0.0000

> <Gold.PLP.ligand.torsion>
1.2371

> <Gold.PLP.Chemscore.Hbond>
2.3289

> <Gold.PLP.Chemscore.CHOScore>
0.0000

> <Gold.PLP.Chemscore.Metal>
0.0000

> <Gold.Chemscore.Hbonds>
donor molecule, donor type, donor heavy atom, donor atom, acceptor molecule, acceptor atom, score
      L1  H    13    32       P1  7949  0.86
      P1  H  7997  8009       L1     7  0.37
      P1  H 10752 10764       L1    13  0.89

> <Gold.PLP.Chemscore.Internal.Correction>
0.1555

> <Gold.Rescore>
     Score         DG    S(hbond)    S(metal)    S(lipo)     H(rot)  DE(clash)    DE(int)     intcor
     17.34     -19.36       1.94        0.00     116.69       2.45       0.57       1.45       ----

> <Gold.Chemscore.Fitness>
17.3439

> <Gold.Chemscore.DG>
-19.3635

> <Gold.Chemscore.ZeroCoef>
-5.4800

> <Gold.Chemscore.Hbond>
1.9446

> <Gold.Chemscore.Metal>
0.0000

> <Gold.Chemscore.Lipo>
116.6899

> <Gold.Chemscore.Internal_Hbond>
0.0000

> <Gold.Chemscore.DEClash>
0.5654

> <Gold.Chemscore.DEInternal>
1.4543

> <Gold.Chemscore.Rot>
2.4469

> <Gold.Chemscore.Internal.Correction>
   9.000000E+99

> <Gold.Chemscore.Hbonds>
donor molecule, donor type, donor heavy atom, donor atom, acceptor molecule, acceptor atom, score
      L1  H    13    32       P1  7949  0.80
      P1  H  7997  8009       L1     7  0.36
      P1  H 10752 10764       L1    13  0.45

> <Gold.Chemscore.Hbond.Weighted>
-6.4948

> <Gold.Chemscore.Metal.Weighted>
-0.0000

> <Gold.Chemscore.Lipo.Weighted>
-13.6527

> <Gold.Chemscore.Internal_Hbond.Weighted>
0.0000

> <Gold.Chemscore.DEClash.Weighted>
0.5654

> <Gold.Chemscore.DEInternal.Weighted>
1.4543

> <Gold.Chemscore.Rot.Weighted>
6.2640

> <Gold.Chemscore.Internal.Correction.Weighted>
   9.000000E+99

> <Gold.Protein.RotatedTorsions>
[ 6907 6896 6895 6894 ] final -162.49 input  -60.11 | X-H torsion
[ 7974 7965 7964 7962 ] final  -21.74 input  175.53 | X-H torsion
[ 8008 7997 7996 7995 ] final -172.78 input   59.86 | X-H torsion
[ 10167 10162 10161 10158 ] final   27.25 input  -65.29 | X-H torsion
[ 10718 10713 10712 10709 ] final -108.47 input   66.30 | X-H torsion
[ 10763 10752 10751 10750 ] final  -74.82 input  -60.55 | X-H torsion
[ 11005 11000 10999 10996 ] final  -45.11 input  -57.11 | X-H torsion

> <Gold.Protein.ActiveResidues>
 VAL166  LYS551  ARG553  GLY616  TRP617  ASP618  TYR619  PRO620  LYS621  CYS622 
 ASP623  PHE694  ASN695  SER759  ASP760  ASP761  ALA762  ILE779  LEU786  VAL792 
 PHE793  MET794  SER795  GLU796  ALA797  LYS798  CYS799  TRP800  GLU811  SER814 

> <Gold.Protein.RotatedAtoms>
  151.3811  133.3821  159.2709 H   0  0  0  0  0  0  0  0  0  0  0  0  # atno 6907 bound_to 6896
  150.9577  134.8970  159.7722 H   0  0  0  0  0  0  0  0  0  0  0  0  # atno 6908 bound_to 6896
  152.5137  134.3769  159.9390 H   0  0  0  0  0  0  0  0  0  0  0  0  # atno 6909 bound_to 6896
  146.1716  140.4383  142.8530 H   0  0  0  0  0  0  0  0  0  0  0  0  # atno 7974 bound_to 7965
  155.9490  140.1123  157.0992 H   0  0  0  0  0  0  0  0  0  0  0  0  # atno 8008 bound_to 7997
  154.4105  140.1204  156.5094 H   0  0  0  0  0  0  0  0  0  0  0  0  # atno 8009 bound_to 7997
  155.6866  140.3473  155.4879 H   0  0  0  0  0  0  0  0  0  0  0  0  # atno 8010 bound_to 7997
  140.4954  144.0399  150.6312 H   0  0  0  0  0  0  0  0  0  0  0  0  # atno 10167 bound_to 10162
  156.0487  130.5715  150.7966 H   0  0  0  0  0  0  0  0  0  0  0  0  # atno 10718 bound_to 10713
  154.4782  135.5852  153.6370 H   0  0  0  0  0  0  0  0  0  0  0  0  # atno 10763 bound_to 10752
  152.9844  135.6083  154.3280 H   0  0  0  0  0  0  0  0  0  0  0  0  # atno 10764 bound_to 10752
  154.3169  135.2844  155.2518 H   0  0  0  0  0  0  0  0  0  0  0  0  # atno 10765 bound_to 10752
  141.0494  133.6748  156.2968 H   0  0  0  0  0  0  0  0  0  0  0  0  # atno 11005 bound_to 11000
  144.8171  140.6487  143.6377 LP  0  0  0  0  0  0  0  0  0  0  0  0  # atno 17320 bound_to 7965
  145.4325  139.1547  143.4014 LP  0  0  0  0  0  0  0  0  0  0  0  0  # atno 17321 bound_to 7965
  140.3681  143.2870  152.0309 LP  0  0  0  0  0  0  0  0  0  0  0  0  # atno 17342 bound_to 10162
  139.4860  144.6251  151.7179 LP  0  0  0  0  0  0  0  0  0  0  0  0  # atno 17343 bound_to 10162
  157.5391  131.0940  150.9852 LP  0  0  0  0  0  0  0  0  0  0  0  0  # atno 17370 bound_to 10713
  157.0139  130.5647  149.5324 LP  0  0  0  0  0  0  0  0  0  0  0  0  # atno 17371 bound_to 10713
  140.6083  134.5484  157.5529 LP  0  0  0  0  0  0  0  0  0  0  0  0  # atno 17394 bound_to 11000
  139.9338  134.7913  156.0857 LP  0  0  0  0  0  0  0  0  0  0  0  0  # atno 17395 bound_to 11000

$$$$
