AV-unprocessed.smi:213|AV-procd|sdf|1647|dock10
  -GOLD-   2262020 23D 1   1.00000     0.00000
 Structure written by MMmdl.
 58 61  0  0  0  0  0  0  0  0  1 V2000
  149.1872  134.2501  154.0249 C   0  0  0  0  0  0  0  0  0  0  0  0
  150.3714  134.5619  154.9568 C   0  0  2  0  0  0  0  0  0  0  0  0
  150.8582  133.3109  155.7221 C   0  0  0  0  0  0  0  0  0  0  0  0
  150.9760  132.0906  154.9229 N   0  0  0  0  0  0  0  0  0  0  0  0
  149.6928  131.4027  154.8270 C   0  0  0  0  0  0  0  0  0  0  0  0
  149.7902  130.1178  153.9867 C   0  0  0  0  0  0  0  0  0  0  0  0
  150.7789  129.2588  154.5442 O   0  0  0  0  0  0  0  0  0  0  0  0
  152.0609  129.8737  154.6180 C   0  0  0  0  0  0  0  0  0  0  0  0
  151.9714  131.1614  155.4556 C   0  0  0  0  0  0  0  0  0  0  0  0
  150.0362  135.6448  155.8857 N   0  0  0  0  0  0  0  0  0  0  0  0
  149.1844  135.4080  157.0492 C   0  0  0  0  0  0  0  0  0  0  0  0
  150.5931  136.8759  155.7357 C   0  0  0  0  0  0  0  0  0  0  0  0
  151.4532  137.0711  154.7008 N   0  0  0  0  0  0  0  0  0  0  0  0
  152.0216  138.2641  154.5056 C   0  0  0  0  0  0  0  0  0  0  0  0
  151.8777  139.3826  155.2172 N   0  0  0  0  0  0  0  0  0  0  0  0
  151.0303  139.1934  156.2684 C   0  0  0  0  0  0  0  0  0  0  0  0
  150.3508  137.9856  156.5999 C   0  0  0  0  0  0  0  0  0  0  0  0
  149.5926  138.1797  157.7506 N   0  0  0  0  0  0  0  0  0  0  0  0
  149.8013  139.4267  158.0711 C   0  0  0  0  0  0  0  0  0  0  0  0
  150.6541  140.1090  157.2356 N   0  0  0  0  0  0  0  0  0  0  0  0
  151.0665  141.4956  157.3649 C   0  0  0  0  0  0  0  0  0  0  0  0
  151.8314  141.7607  158.6767 C   0  0  1  0  0  0  0  0  0  0  0  0
  152.9347  140.8824  158.7980 O   0  0  0  0  0  0  0  0  0  0  0  0
  152.2829  143.2292  158.8199 C   0  0  1  0  0  0  0  0  0  0  0  0
  151.2166  144.3011  158.5744 C   0  0  0  0  0  0  0  0  0  0  0  0
  151.7949  145.4720  159.3373 C   0  0  0  0  0  0  0  0  0  0  0  0
  152.3953  144.7803  160.5587 C   0  0  0  0  0  0  0  0  0  0  0  0
  152.8289  143.4997  160.1088 O   0  0  0  0  0  0  0  0  0  0  0  0
  149.4668  133.5160  153.2691 H   0  0  0  0  0  0  0  0  0  0  0  0
  148.8541  135.1455  153.4998 H   0  0  0  0  0  0  0  0  0  0  0  0
  148.3345  133.8492  154.5727 H   0  0  0  0  0  0  0  0  0  0  0  0
  151.2010  134.8962  154.3394 H   0  0  0  0  0  0  0  0  0  0  0  0
  151.8209  133.5264  156.1887 H   0  0  0  0  0  0  0  0  0  0  0  0
  150.1660  133.1268  156.5448 H   0  0  0  0  0  0  0  0  0  0  0  0
  149.3301  131.1538  155.8257 H   0  0  0  0  0  0  0  0  0  0  0  0
  148.9496  132.0656  154.3824 H   0  0  0  0  0  0  0  0  0  0  0  0
  148.8319  129.5987  153.9747 H   0  0  0  0  0  0  0  0  0  0  0  0
  150.0422  130.3511  152.9508 H   0  0  0  0  0  0  0  0  0  0  0  0
  152.7659  129.1756  155.0700 H   0  0  0  0  0  0  0  0  0  0  0  0
  152.4260  130.0918  153.6131 H   0  0  0  0  0  0  0  0  0  0  0  0
  152.9562  131.6261  155.4776 H   0  0  0  0  0  0  0  0  0  0  0  0
  151.7235  130.9040  156.4866 H   0  0  0  0  0  0  0  0  0  0  0  0
  148.5338  136.2634  157.2356 H   0  0  0  0  0  0  0  0  0  0  0  0
  149.7936  135.2376  157.9374 H   0  0  0  0  0  0  0  0  0  0  0  0
  148.5487  134.5351  156.9043 H   0  0  0  0  0  0  0  0  0  0  0  0
  152.6866  138.3322  153.6574 H   0  0  0  0  0  0  0  0  0  0  0  0
  149.3407  139.8845  158.9344 H   0  0  0  0  0  0  0  0  0  0  0  0
  151.6787  141.7599  156.5017 H   0  0  0  0  0  0  0  0  0  0  0  0
  150.1746  142.1213  157.3168 H   0  0  0  0  0  0  0  0  0  0  0  0
  151.1678  141.5364  159.5129 H   0  0  0  0  0  0  0  0  0  0  0  0
  153.4876  140.9874  158.0391 H   0  0  0  0  0  0  0  0  0  0  0  0
  153.0961  143.4048  158.1135 H   0  0  0  0  0  0  0  0  0  0  0  0
  151.0622  144.5134  157.5162 H   0  0  0  0  0  0  0  0  0  0  0  0
  150.2560  144.0245  159.0102 H   0  0  0  0  0  0  0  0  0  0  0  0
  152.5805  145.9513  158.7512 H   0  0  0  0  0  0  0  0  0  0  0  0
  151.0519  146.2266  159.5969 H   0  0  0  0  0  0  0  0  0  0  0  0
  153.2154  145.3476  160.9993 H   0  0  0  0  0  0  0  0  0  0  0  0
  151.6332  144.6362  161.3255 H   0  0  0  0  0  0  0  0  0  0  0  0
  1  2  1  0  0  0  0
  1 29  1  0  0  0  0
  1 30  1  0  0  0  0
  1 31  1  0  0  0  0
  2  3  1  0  0  0  0
  2 10  1  0  0  0  0
  2 32  1  0  0  0  0
  3  4  1  0  0  0  0
  3 33  1  0  0  0  0
  3 34  1  0  0  0  0
  4  9  1  0  0  0  0
  4  5  1  0  0  0  0
  5  6  1  0  0  0  0
  5 35  1  0  0  0  0
  5 36  1  0  0  0  0
  6  7  1  0  0  0  0
  6 37  1  0  0  0  0
  6 38  1  0  0  0  0
  7  8  1  0  0  0  0
  8  9  1  0  0  0  0
  8 39  1  0  0  0  0
  8 40  1  0  0  0  0
  9 41  1  0  0  0  0
  9 42  1  0  0  0  0
 10 11  1  0  0  0  0
 10 12  1  0  0  0  0
 11 43  1  0  0  0  0
 11 44  1  0  0  0  0
 11 45  1  0  0  0  0
 12 17  1  0  0  0  0
 12 13  2  0  0  0  0
 13 14  1  0  0  0  0
 14 15  2  0  0  0  0
 14 46  1  0  0  0  0
 15 16  1  0  0  0  0
 16 20  1  0  0  0  0
 16 17  2  0  0  0  0
 17 18  1  0  0  0  0
 18 19  2  0  0  0  0
 19 20  1  0  0  0  0
 19 47  1  0  0  0  0
 20 21  1  0  0  0  0
 21 22  1  0  0  0  0
 21 48  1  0  0  0  0
 21 49  1  0  0  0  0
 22 23  1  0  0  0  0
 22 24  1  0  0  0  0
 22 50  1  0  0  0  0
 23 51  1  0  0  0  0
 24 28  1  0  0  0  0
 24 25  1  0  0  0  0
 24 52  1  0  0  0  0
 25 26  1  0  0  0  0
 25 53  1  0  0  0  0
 25 54  1  0  0  0  0
 26 27  1  0  0  0  0
 26 55  1  0  0  0  0
 26 56  1  0  0  0  0
 27 28  1  0  0  0  0
 27 57  1  0  0  0  0
 27 58  1  0  0  0  0
M  END
> <s_m_source_file>
AV-unprocessed.smi

> <i_m_source_file_index>
213

> <i_lp_mmshare_version>
43012

> <i_f3d_flags>
0

> <s_epik_input>
W0NIMl0xW0NIMl1PW0NIMl1bQ0gyXU4xW0NIMl1bQ0BASF0oW0NIM10pTihbQ0gzXSljKG5bY0hdbjIpYyhjMjMpbltjSF1uM1tDSDJdW0NASF0oW09IXSlbQ0BASF00W0NIMl1bQ0gyXVtDSDJdTzQ=

> <s_epik_cmdline>
J2VwaWtfcHl0aG9uJywgJy1waCcsICc3LjAnLCAnLXRuJywgJzgnLCAnLW1hJywgJzIwMCcsICctbWV0YWxfYmluZGluZycsICctaW1hZScsICc8aW5maWxlLm1hZT4nLCAnLW9tYWUnLCAnPG91dGZpbGUubWFlPic=

> <r_lp_tautomer_probability>
1

> <r_epik_Ionization_Penalty>
0.423322

> <r_epik_Ionization_Penalty_Charging>
0

> <r_epik_Ionization_Penalty_Neutral>
0.423322

> <r_epik_State_Penalty>
0.569486

> <r_epik_Charging_Adjusted_Penalty>
0.569486

> <i_epik_Tot_Q>
0

> <i_epik_Tot_abs_Q>
0

> <r_epik_Metal_State_Penalty>
0.568671

> <b_epik_Metal_Only>
0

> <s_lp_Force_Field>
OPLS_2005

> <r_lp_Energy>
53.6453

> <b_lp_Chiralities_Consistent>
1

> <s_lp_Variant>
AV-unprocessed.smi:213-15

> <Gold.Version>
5.8.1

> <Gold.Id.Protein>
6NUR|6NUR_protein|mol2

> <Gold.PLP.Fitness>
46.4852

> <Gold.PLP.PLP>
-44.7143

> <Gold.PLP.part.hbond>
-1.0000

> <Gold.PLP.part.metal>
0.0000

> <Gold.PLP.part.buried>
-6.0979

> <Gold.PLP.part.nonpolar>
-37.6315

> <Gold.PLP.part.repulsive>
0.1960

> <Gold.PLP.ligand.clash>
0.0000

> <Gold.PLP.ligand.torsion>
0.7056

> <Gold.PLP.Chemscore.Hbond>
1.0000

> <Gold.PLP.Chemscore.CHOScore>
0.0000

> <Gold.PLP.Chemscore.Metal>
0.0000

> <Gold.Chemscore.Hbonds>
donor molecule, donor type, donor heavy atom, donor atom, acceptor molecule, acceptor atom, score
      P1  H  7989  7998       L1    15  0.37
      P1  H 10752 10763       L1    13  0.89

> <Gold.PLP.Chemscore.Internal.Correction>
0.1821

> <Gold.Rescore>
     Score         DG    S(hbond)    S(metal)    S(lipo)     H(rot)  DE(clash)    DE(int)     intcor
     11.99     -15.37       1.27        0.00     108.01       2.74       1.25       2.13       ----

> <Gold.Chemscore.Fitness>
11.9869

> <Gold.Chemscore.DG>
-15.3661

> <Gold.Chemscore.ZeroCoef>
-5.4800

> <Gold.Chemscore.Hbond>
1.2747

> <Gold.Chemscore.Metal>
0.0000

> <Gold.Chemscore.Lipo>
108.0113

> <Gold.Chemscore.Internal_Hbond>
0.0000

> <Gold.Chemscore.DEClash>
1.2462

> <Gold.Chemscore.DEInternal>
2.1330

> <Gold.Chemscore.Rot>
2.7378

> <Gold.Chemscore.Internal.Correction>
   9.000000E+99

> <Gold.Chemscore.Hbonds>
donor molecule, donor type, donor heavy atom, donor atom, acceptor molecule, acceptor atom, score
      P1  H  7989  7998       L1    15  0.08
      P1  H 10752 10763       L1    13  0.49

> <Gold.Chemscore.Hbond.Weighted>
-4.2574

> <Gold.Chemscore.Metal.Weighted>
-0.0000

> <Gold.Chemscore.Lipo.Weighted>
-12.6373

> <Gold.Chemscore.Internal_Hbond.Weighted>
0.0000

> <Gold.Chemscore.DEClash.Weighted>
1.2462

> <Gold.Chemscore.DEInternal.Weighted>
2.1330

> <Gold.Chemscore.Rot.Weighted>
7.0087

> <Gold.Chemscore.Internal.Correction.Weighted>
   9.000000E+99

> <Gold.Protein.RotatedTorsions>
[ 6907 6896 6895 6894 ] final   63.81 input  -60.11 | X-H torsion
[ 7974 7965 7964 7962 ] final -134.27 input  175.53 | X-H torsion
[ 8008 7997 7996 7995 ] final   94.93 input   59.86 | X-H torsion
[ 10167 10162 10161 10158 ] final   52.47 input  -65.29 | X-H torsion
[ 10718 10713 10712 10709 ] final  -60.67 input   66.30 | X-H torsion
[ 10763 10752 10751 10750 ] final   50.04 input  -60.55 | X-H torsion
[ 11005 11000 10999 10996 ] final   -3.20 input  -57.11 | X-H torsion

> <Gold.Protein.ActiveResidues>
 VAL166  LYS551  ARG553  GLY616  TRP617  ASP618  TYR619  PRO620  LYS621  CYS622 
 ASP623  PHE694  ASN695  SER759  ASP760  ASP761  ALA762  ILE779  LEU786  VAL792 
 PHE793  MET794  SER795  GLU796  ALA797  LYS798  CYS799  TRP800  GLU811  SER814 

> <Gold.Protein.RotatedAtoms>
  152.4282  134.5827  159.9952 H   0  0  0  0  0  0  0  0  0  0  0  0  # atno 6907 bound_to 6896
  151.5958  133.3356  159.3045 H   0  0  0  0  0  0  0  0  0  0  0  0  # atno 6908 bound_to 6896
  150.8173  134.7399  159.6806 H   0  0  0  0  0  0  0  0  0  0  0  0  # atno 6909 bound_to 6896
  144.9118  140.6904  143.5020 H   0  0  0  0  0  0  0  0  0  0  0  0  # atno 7974 bound_to 7965
  156.0633  140.3293  155.7487 H   0  0  0  0  0  0  0  0  0  0  0  0  # atno 8008 bound_to 7997
  155.5421  140.0602  157.2885 H   0  0  0  0  0  0  0  0  0  0  0  0  # atno 8009 bound_to 7997
  154.4492  140.1909  156.0589 H   0  0  0  0  0  0  0  0  0  0  0  0  # atno 8010 bound_to 7997
  140.2510  144.3478  150.6348 H   0  0  0  0  0  0  0  0  0  0  0  0  # atno 10167 bound_to 10162
  156.0974  130.4191  150.0886 H   0  0  0  0  0  0  0  0  0  0  0  0  # atno 10718 bound_to 10713
  152.9785  135.5892  154.4188 H   0  0  0  0  0  0  0  0  0  0  0  0  # atno 10763 bound_to 10752
  154.3814  135.2767  155.2211 H   0  0  0  0  0  0  0  0  0  0  0  0  # atno 10764 bound_to 10752
  154.4122  135.6078  153.6014 H   0  0  0  0  0  0  0  0  0  0  0  0  # atno 10765 bound_to 10752
  140.6667  133.9272  155.8469 H   0  0  0  0  0  0  0  0  0  0  0  0  # atno 11005 bound_to 11000
  145.3442  139.1724  143.4469 LP  0  0  0  0  0  0  0  0  0  0  0  0  # atno 17320 bound_to 7965
  146.3162  140.3487  142.8654 LP  0  0  0  0  0  0  0  0  0  0  0  0  # atno 17321 bound_to 7965
  140.6040  143.2167  151.7017 LP  0  0  0  0  0  0  0  0  0  0  0  0  # atno 17342 bound_to 10162
  139.5046  144.3748  152.0435 LP  0  0  0  0  0  0  0  0  0  0  0  0  # atno 17343 bound_to 10162
  156.8882  130.9579  151.3591 LP  0  0  0  0  0  0  0  0  0  0  0  0  # atno 17370 bound_to 10713
  157.6138  130.8603  149.8995 LP  0  0  0  0  0  0  0  0  0  0  0  0  # atno 17371 bound_to 10713
  141.0423  134.0603  157.3886 LP  0  0  0  0  0  0  0  0  0  0  0  0  # atno 17394 bound_to 11000
  139.8995  135.0159  156.7197 LP  0  0  0  0  0  0  0  0  0  0  0  0  # atno 17395 bound_to 11000

$$$$
