AV-unprocessed.smi:1410|AV-procd|sdf|5736|dock4
  -GOLD-   22720 5373D 1   1.00000     0.00000
 Structure written by MMmdl.
 39 40  0  0  0  0  0  0  0  0  3 V2000
  141.9882  141.0069  154.6315 N   0  5  0  0  0  0  0  0  0  0  0  0
  142.6280  141.7003  155.5924 C   0  0  0  0  0  0  0  0  0  0  0  0
  142.3509  142.8135  156.0337 O   0  0  0  0  0  0  0  0  0  0  0  0
  143.8510  140.9545  156.1357 C   0  0  0  0  0  0  0  0  0  0  0  0
  144.9700  141.0167  155.1618 N   0  3  2  0  0  0  0  0  0  0  0  0
  146.1292  140.1659  155.5460 C   0  0  0  0  0  0  0  0  0  0  0  0
  147.2100  140.1696  154.4511 C   0  0  0  0  0  0  0  0  0  0  0  0
  147.6792  141.5974  154.1105 C   0  0  2  0  0  0  0  0  0  0  0  0
  148.4472  142.1906  155.2049 N   0  0  0  0  0  0  0  0  0  0  0  0
  149.5022  141.6243  155.8088 C   0  0  0  0  0  0  0  0  0  0  0  0
  149.9532  140.5242  155.4911 O   0  0  0  0  0  0  0  0  0  0  0  0
  149.9678  142.4035  156.8005 N   0  0  0  0  0  0  0  0  0  0  0  0
  151.0436  142.1568  157.6962 C   0  0  0  0  0  0  0  0  0  0  0  0
  151.4379  140.8170  157.8921 C   0  0  0  0  0  0  0  0  0  0  0  0
  152.4933  140.5430  158.7848 C   0  0  0  0  0  0  0  0  0  0  0  0
  153.1476  141.5000  159.4756 N   0  0  0  0  0  0  0  0  0  0  0  0
  152.7595  142.7806  159.2978 C   0  0  0  0  0  0  0  0  0  0  0  0
  151.7171  143.1631  158.4297 C   0  0  0  0  0  0  0  0  0  0  0  0
  146.4588  142.4709  153.7743 C   0  0  0  0  0  0  0  0  0  0  0  0
  145.3850  142.4142  154.8771 C   0  0  0  0  0  0  0  0  0  0  0  0
  142.5277  140.6724  153.8239 H   0  0  0  0  0  0  0  0  0  0  0  0
  144.1368  141.4538  157.0625 H   0  0  0  0  0  0  0  0  0  0  0  0
  143.6303  139.9179  156.4000 H   0  0  0  0  0  0  0  0  0  0  0  0
  146.5456  140.5188  156.4907 H   0  0  0  0  0  0  0  0  0  0  0  0
  145.8050  139.1387  155.7132 H   0  0  0  0  0  0  0  0  0  0  0  0
  148.0530  139.5489  154.7563 H   0  0  0  0  0  0  0  0  0  0  0  0
  146.8053  139.7026  153.5522 H   0  0  0  0  0  0  0  0  0  0  0  0
  148.3218  141.5579  153.2290 H   0  0  0  0  0  0  0  0  0  0  0  0
  148.1467  143.0971  155.5318 H   0  0  0  0  0  0  0  0  0  0  0  0
  149.4450  143.2476  156.9812 H   0  0  0  0  0  0  0  0  0  0  0  0
  150.9485  140.0105  157.3659 H   0  0  0  0  0  0  0  0  0  0  0  0
  152.8194  139.5265  158.9491 H   0  0  0  0  0  0  0  0  0  0  0  0
  153.2929  143.5254  159.8698 H   0  0  0  0  0  0  0  0  0  0  0  0
  151.4539  144.2065  158.3559 H   0  0  0  0  0  0  0  0  0  0  0  0
  146.7673  143.5031  153.6035 H   0  0  0  0  0  0  0  0  0  0  0  0
  146.0216  142.1272  152.8358 H   0  0  0  0  0  0  0  0  0  0  0  0
  144.5189  142.9955  154.5584 H   0  0  0  0  0  0  0  0  0  0  0  0
  145.7551  142.8768  155.7932 H   0  0  0  0  0  0  0  0  0  0  0  0
  144.6049  140.6435  154.2971 H   0  0  0  0  0  0  0  0  0  0  0  0
  1  2  1  0  0  0  0
  1 21  1  0  0  0  0
  2  3  2  0  0  0  0
  2  4  1  0  0  0  0
  4  5  1  0  0  0  0
  4 22  1  0  0  0  0
  4 23  1  0  0  0  0
  5 20  1  0  0  0  0
  5  6  1  0  0  0  0
  5 39  1  0  0  0  0
  6  7  1  0  0  0  0
  6 24  1  0  0  0  0
  6 25  1  0  0  0  0
  7  8  1  0  0  0  0
  7 26  1  0  0  0  0
  7 27  1  0  0  0  0
  8  9  1  0  0  0  0
  8 19  1  0  0  0  0
  8 28  1  0  0  0  0
  9 10  1  0  0  0  0
  9 29  1  0  0  0  0
 10 11  2  0  0  0  0
 10 12  1  0  0  0  0
 12 13  1  0  0  0  0
 12 30  1  0  0  0  0
 13 18  1  0  0  0  0
 13 14  2  0  0  0  0
 14 15  1  0  0  0  0
 14 31  1  0  0  0  0
 15 16  2  0  0  0  0
 15 32  1  0  0  0  0
 16 17  1  0  0  0  0
 17 18  2  0  0  0  0
 17 33  1  0  0  0  0
 18 34  1  0  0  0  0
 19 20  1  0  0  0  0
 19 35  1  0  0  0  0
 19 36  1  0  0  0  0
 20 37  1  0  0  0  0
 20 38  1  0  0  0  0
M  CHG  1   1  -1
M  CHG  1   5   1
M  END
> <s_m_source_file>
AV-unprocessed.smi

> <i_m_source_file_index>
1410

> <i_lp_mmshare_version>
43012

> <i_f3d_flags>
0

> <s_epik_input>
W05IMl1DKD1PKVtDSDJdTjFbQ0gyXVtDSDJdW0NIXShbQ0gyXVtDSDJdMSlbTkhdQyg9TylbTkhdYzJbY0hdW2NIXW5bY0hdW2NIXTI=

> <s_epik_cmdline>
J2VwaWtfcHl0aG9uJywgJy1waCcsICc3LjAnLCAnLXRuJywgJzgnLCAnLW1hJywgJzIwMCcsICctbWV0YWxfYmluZGluZycsICctaW1hZScsICc8aW5maWxlLm1hZT4nLCAnLW9tYWUnLCAnPG91dGZpbGUubWFlPic=

> <r_epik_Ionization_Penalty>
5.8279

> <r_epik_Ionization_Penalty_Charging>
5.7288

> <r_epik_Ionization_Penalty_Neutral>
0.0990993

> <r_epik_State_Penalty>
6.63321

> <r_epik_Charging_Adjusted_Penalty>
12.362

> <i_epik_Tot_Q>
0

> <i_epik_Tot_abs_Q>
2

> <r_epik_Metal_State_Penalty>
2.69435

> <b_epik_Metal_Only>
1

> <s_lp_Force_Field>
OPLS_2005

> <r_lp_Energy>
12.1382

> <b_lp_Chiralities_Consistent>
1

> <s_lp_Variant>
AV-unprocessed.smi:1410-8

> <Gold.Version>
5.8.1

> <Gold.Id.Protein>
6NUR|6NUR_protein|mol2

> <Gold.PLP.Fitness>
44.1585

> <Gold.PLP.PLP>
-31.2383

> <Gold.PLP.part.hbond>
-5.0000

> <Gold.PLP.part.metal>
0.0000

> <Gold.PLP.part.buried>
-5.2002

> <Gold.PLP.part.nonpolar>
-22.0845

> <Gold.PLP.part.repulsive>
0.3497

> <Gold.PLP.ligand.clash>
0.0000

> <Gold.PLP.ligand.torsion>
0.3579

> <Gold.PLP.Chemscore.Hbond>
4.5360

> <Gold.PLP.Chemscore.CHOScore>
0.0000

> <Gold.PLP.Chemscore.Metal>
0.0000

> <Gold.Chemscore.Hbonds>
donor molecule, donor type, donor heavy atom, donor atom, acceptor molecule, acceptor atom, score
      L1  H     1    21       P1 10175  1.00
      L1  H     5    39       P1 10175  1.98
      L1  H     9    29       P1  8028  0.74
      L1  H    12    30       P1  8028  0.57

> <Gold.PLP.Chemscore.Internal.Correction>
0.0281

> <Gold.Rescore>
     Score         DG    S(hbond)    S(metal)    S(lipo)     H(rot)  DE(clash)    DE(int)     intcor
     17.21     -19.16       3.06        0.00      71.82       1.94       0.27       1.69       ----

> <Gold.Chemscore.Fitness>
17.2080

> <Gold.Chemscore.DG>
-19.1629

> <Gold.Chemscore.ZeroCoef>
-5.4800

> <Gold.Chemscore.Hbond>
3.0648

> <Gold.Chemscore.Metal>
0.0000

> <Gold.Chemscore.Lipo>
71.8193

> <Gold.Chemscore.Internal_Hbond>
0.0000

> <Gold.Chemscore.DEClash>
0.2658

> <Gold.Chemscore.DEInternal>
1.6891

> <Gold.Chemscore.Rot>
1.9361

> <Gold.Chemscore.Internal.Correction>
   9.000000E+99

> <Gold.Chemscore.Hbonds>
donor molecule, donor type, donor heavy atom, donor atom, acceptor molecule, acceptor atom, score
      L1  H     1    21       P1 10175  0.40
      L1  H     5    39       P1 10175  0.92
      L1  H     9    29       P1  8028  0.65
      L1  H    12    30       P1  8028  0.51

> <Gold.Chemscore.Hbond.Weighted>
-10.2364

> <Gold.Chemscore.Metal.Weighted>
-0.0000

> <Gold.Chemscore.Lipo.Weighted>
-8.4029

> <Gold.Chemscore.Internal_Hbond.Weighted>
0.0000

> <Gold.Chemscore.DEClash.Weighted>
0.2658

> <Gold.Chemscore.DEInternal.Weighted>
1.6891

> <Gold.Chemscore.Rot.Weighted>
4.9563

> <Gold.Chemscore.Internal.Correction.Weighted>
   9.000000E+99

> <Gold.Protein.RotatedTorsions>
[ 6907 6896 6895 6894 ] final  -16.53 input  -60.11 | X-H torsion
[ 7974 7965 7964 7962 ] final  112.71 input  175.53 | X-H torsion
[ 8008 7997 7996 7995 ] final   46.52 input   59.86 | X-H torsion
[ 10167 10162 10161 10158 ] final   26.59 input  -65.29 | X-H torsion
[ 10718 10713 10712 10709 ] final -161.59 input   66.30 | X-H torsion
[ 10763 10752 10751 10750 ] final  120.39 input  -60.55 | X-H torsion
[ 11005 11000 10999 10996 ] final   34.75 input  -57.11 | X-H torsion

> <Gold.Protein.ActiveResidues>
 VAL166  LYS551  ARG553  GLY616  TRP617  ASP618  TYR619  PRO620  LYS621  CYS622 
 ASP623  PHE694  ASN695  SER759  ASP760  ASP761  ALA762  ILE779  LEU786  VAL792 
 PHE793  MET794  SER795  GLU796  ALA797  LYS798  CYS799  TRP800  GLU811  SER814 

> <Gold.Protein.RotatedAtoms>
  151.3072  135.0784  159.9259 H   0  0  0  0  0  0  0  0  0  0  0  0  # atno 6907 bound_to 6896
  152.5285  133.9773  159.7800 H   0  0  0  0  0  0  0  0  0  0  0  0  # atno 6908 bound_to 6896
  151.0070  133.5950  159.2718 H   0  0  0  0  0  0  0  0  0  0  0  0  # atno 6909 bound_to 6896
  145.2261  139.2840  143.4193 H   0  0  0  0  0  0  0  0  0  0  0  0  # atno 7974 bound_to 7965
  155.3539  140.3415  155.4239 H   0  0  0  0  0  0  0  0  0  0  0  0  # atno 8008 bound_to 7997
  156.1749  140.1644  156.8415 H   0  0  0  0  0  0  0  0  0  0  0  0  # atno 8009 bound_to 7997
  154.5272  140.0753  156.8262 H   0  0  0  0  0  0  0  0  0  0  0  0  # atno 8010 bound_to 7997
  140.5010  144.0315  150.6333 H   0  0  0  0  0  0  0  0  0  0  0  0  # atno 10167 bound_to 10162
  156.5983  130.8800  151.2907 H   0  0  0  0  0  0  0  0  0  0  0  0  # atno 10718 bound_to 10713
  153.5977  135.3454  155.2934 H   0  0  0  0  0  0  0  0  0  0  0  0  # atno 10763 bound_to 10752
  154.8641  135.4220  154.2446 H   0  0  0  0  0  0  0  0  0  0  0  0  # atno 10764 bound_to 10752
  153.3268  135.7042  153.7053 H   0  0  0  0  0  0  0  0  0  0  0  0  # atno 10765 bound_to 10752
  140.2497  134.3318  155.7895 H   0  0  0  0  0  0  0  0  0  0  0  0  # atno 11005 bound_to 11000
  146.3364  140.2581  142.8601 LP  0  0  0  0  0  0  0  0  0  0  0  0  # atno 17320 bound_to 7965
  144.9720  140.8378  143.5449 LP  0  0  0  0  0  0  0  0  0  0  0  0  # atno 17321 bound_to 7965
  140.3611  143.2907  152.0383 LP  0  0  0  0  0  0  0  0  0  0  0  0  # atno 17342 bound_to 10162
  139.4872  144.6302  151.7085 LP  0  0  0  0  0  0  0  0  0  0  0  0  # atno 17343 bound_to 10162
  157.7286  130.9659  150.1750 LP  0  0  0  0  0  0  0  0  0  0  0  0  # atno 17370 bound_to 10713
  156.2490  130.3698  149.8253 LP  0  0  0  0  0  0  0  0  0  0  0  0  # atno 17371 bound_to 10713
  141.2202  133.7346  156.9017 LP  0  0  0  0  0  0  0  0  0  0  0  0  # atno 17394 bound_to 11000
  140.1570  134.9191  157.2667 LP  0  0  0  0  0  0  0  0  0  0  0  0  # atno 17395 bound_to 11000

$$$$
