AV-unprocessed.smi:3286|AV-procd|sdf|12589|dock3
  -GOLD-   2272018513D 1   1.00000     0.00000
 Structure written by MMmdl.
 43 44  0  0  0  0  0  0  0  0  2 V2000
  153.4624  143.1587  163.3741 C   0  0  0  0  0  0  0  0  0  0  0  0
  153.0871  143.1974  161.9075 C   0  0  0  0  0  0  0  0  0  0  0  0
  152.4928  144.3447  161.3407 C   0  0  0  0  0  0  0  0  0  0  0  0
  152.1638  144.3230  159.9719 C   0  0  0  0  0  0  0  0  0  0  0  0
  152.4400  143.1593  159.2244 C   0  0  0  0  0  0  0  0  0  0  0  0
  152.1108  143.0855  157.7468 C   0  0  0  0  0  0  0  0  0  0  0  0
  151.1170  141.9596  157.4340 C   0  0  0  0  0  0  0  0  0  0  0  0
  150.5323  142.1272  156.0883 N   0  3  0  0  0  0  0  0  0  0  0  0
  149.6293  141.0334  155.6622 C   0  0  1  0  0  0  0  0  0  0  0  0
  149.1656  141.3219  154.2241 C   0  0  0  0  0  0  0  0  0  0  0  0
  150.3382  139.6612  155.8118 C   0  0  0  0  0  0  0  0  0  0  0  0
  151.7859  139.6722  155.2780 C   0  0  0  0  0  0  0  0  0  0  0  0
  152.4237  138.2752  155.3559 C   0  0  0  0  0  0  0  0  0  0  0  0
  151.6313  137.3358  154.6407 O   0  0  0  0  0  0  0  0  0  0  0  0
  150.3254  137.1948  155.1842 C   0  0  0  0  0  0  0  0  0  0  0  0
  149.5742  138.5320  155.0874 C   0  0  0  0  0  0  0  0  0  0  0  0
  153.0360  142.0659  159.8878 C   0  0  0  0  0  0  0  0  0  0  0  0
  153.3563  142.0787  161.1991 N   0  0  0  0  0  0  0  0  0  0  0  0
  153.2083  144.0941  163.8734 H   0  0  0  0  0  0  0  0  0  0  0  0
  154.5341  142.9930  163.4868 H   0  0  0  0  0  0  0  0  0  0  0  0
  152.9344  142.3493  163.8791 H   0  0  0  0  0  0  0  0  0  0  0  0
  152.2923  145.2217  161.9388 H   0  0  0  0  0  0  0  0  0  0  0  0
  151.7093  145.1854  159.5066 H   0  0  0  0  0  0  0  0  0  0  0  0
  151.7034  144.0457  157.4268 H   0  0  0  0  0  0  0  0  0  0  0  0
  153.0343  142.9393  157.1848 H   0  0  0  0  0  0  0  0  0  0  0  0
  151.6204  140.9935  157.4907 H   0  0  0  0  0  0  0  0  0  0  0  0
  150.3151  141.9515  158.1738 H   0  0  0  0  0  0  0  0  0  0  0  0
  150.0121  142.9928  156.0738 H   0  0  0  0  0  0  0  0  0  0  0  0
  148.7415  141.0329  156.2974 H   0  0  0  0  0  0  0  0  0  0  0  0
  148.3893  140.6287  153.9010 H   0  0  0  0  0  0  0  0  0  0  0  0
  149.9935  141.2539  153.5173 H   0  0  0  0  0  0  0  0  0  0  0  0
  148.7431  142.3242  154.1441 H   0  0  0  0  0  0  0  0  0  0  0  0
  150.3785  139.4128  156.8739 H   0  0  0  0  0  0  0  0  0  0  0  0
  151.7980  140.0183  154.2436 H   0  0  0  0  0  0  0  0  0  0  0  0
  152.4038  140.3657  155.8479 H   0  0  0  0  0  0  0  0  0  0  0  0
  153.4226  138.2950  154.9192 H   0  0  0  0  0  0  0  0  0  0  0  0
  152.5374  137.9567  156.3934 H   0  0  0  0  0  0  0  0  0  0  0  0
  149.7932  136.4254  154.6242 H   0  0  0  0  0  0  0  0  0  0  0  0
  150.3828  136.8524  156.2188 H   0  0  0  0  0  0  0  0  0  0  0  0
  148.5763  138.4073  155.5080 H   0  0  0  0  0  0  0  0  0  0  0  0
  149.4385  138.7913  154.0365 H   0  0  0  0  0  0  0  0  0  0  0  0
  153.2660  141.1569  159.3515 H   0  0  0  0  0  0  0  0  0  0  0  0
  151.2842  142.1958  155.4175 H   0  0  0  0  0  0  0  0  0  0  0  0
  1  2  1  0  0  0  0
  1 19  1  0  0  0  0
  1 20  1  0  0  0  0
  1 21  1  0  0  0  0
  2 18  1  0  0  0  0
  2  3  2  0  0  0  0
  3  4  1  0  0  0  0
  3 22  1  0  0  0  0
  4  5  2  0  0  0  0
  4 23  1  0  0  0  0
  5  6  1  0  0  0  0
  5 17  1  0  0  0  0
  6  7  1  0  0  0  0
  6 24  1  0  0  0  0
  6 25  1  0  0  0  0
  7  8  1  0  0  0  0
  7 26  1  0  0  0  0
  7 27  1  0  0  0  0
  8  9  1  0  0  0  0
  8 28  1  0  0  0  0
  8 43  1  0  0  0  0
  9 10  1  0  0  0  0
  9 11  1  0  0  0  0
  9 29  1  0  0  0  0
 10 30  1  0  0  0  0
 10 31  1  0  0  0  0
 10 32  1  0  0  0  0
 11 16  1  0  0  0  0
 11 12  1  0  0  0  0
 11 33  1  0  0  0  0
 12 13  1  0  0  0  0
 12 34  1  0  0  0  0
 12 35  1  0  0  0  0
 13 14  1  0  0  0  0
 13 36  1  0  0  0  0
 13 37  1  0  0  0  0
 14 15  1  0  0  0  0
 15 16  1  0  0  0  0
 15 38  1  0  0  0  0
 15 39  1  0  0  0  0
 16 40  1  0  0  0  0
 16 41  1  0  0  0  0
 17 18  2  0  0  0  0
 17 42  1  0  0  0  0
M  CHG  1   8   1
M  END
> <s_m_source_file>
AV-unprocessed.smi

> <i_m_source_file_index>
3286

> <i_lp_mmshare_version>
43012

> <i_f3d_flags>
0

> <s_epik_input>
W0NIM11jMVtjSF1bY0hdYyhbY0hdbjEpW0NIMl1bQ0gyXVtOSF1bQ0BIXShbQ0gzXSlbQ0hdMltDSDJdW0NIMl1PW0NIMl1bQ0gyXTI=

> <s_epik_cmdline>
J2VwaWtfcHl0aG9uJywgJy1waCcsICc3LjAnLCAnLXRuJywgJzgnLCAnLW1hJywgJzIwMCcsICctbWV0YWxfYmluZGluZycsICctaW1hZScsICc8aW5maWxlLm1hZT4nLCAnLW9tYWUnLCAnPG91dGZpbGUubWFlPic=

> <r_lp_tautomer_probability>
1

> <r_epik_Ionization_Penalty>
0.00336271

> <r_epik_Ionization_Penalty_Charging>
0.000752246

> <r_epik_Ionization_Penalty_Neutral>
0.00261046

> <r_epik_State_Penalty>
-0

> <r_epik_Charging_Adjusted_Penalty>
0.000752246

> <i_epik_Tot_Q>
1

> <i_epik_Tot_abs_Q>
1

> <r_epik_Metal_State_Penalty>
-0

> <b_epik_Metal_Only>
0

> <s_lp_Force_Field>
OPLS_2005

> <r_lp_Energy>
16.504

> <b_lp_Chiralities_Consistent>
1

> <s_lp_Variant>
AV-unprocessed.smi:3286-2

> <Gold.Version>
5.8.1

> <Gold.Id.Protein>
6NUR|6NUR_protein|mol2

> <Gold.PLP.Fitness>
52.0258

> <Gold.PLP.PLP>
-46.5819

> <Gold.PLP.part.hbond>
-1.6179

> <Gold.PLP.part.metal>
0.0000

> <Gold.PLP.part.buried>
-1.7986

> <Gold.PLP.part.nonpolar>
-42.2084

> <Gold.PLP.part.repulsive>
0.2738

> <Gold.PLP.ligand.clash>
0.0000

> <Gold.PLP.ligand.torsion>
0.2923

> <Gold.PLP.Chemscore.Hbond>
1.9825

> <Gold.PLP.Chemscore.CHOScore>
0.0000

> <Gold.PLP.Chemscore.Metal>
0.0000

> <Gold.Chemscore.Hbonds>
donor molecule, donor type, donor heavy atom, donor atom, acceptor molecule, acceptor atom, score
      L1  H     8    28       P1  8028  1.66
      P1  H 10752 10764       L1    14  0.38

> <Gold.PLP.Chemscore.Internal.Correction>
0.0811

> <Gold.Rescore>
     Score         DG    S(hbond)    S(metal)    S(lipo)     H(rot)  DE(clash)    DE(int)     intcor
     18.91     -19.22       0.96        0.00     121.31       1.43       0.02       0.29       ----

> <Gold.Chemscore.Fitness>
18.9146

> <Gold.Chemscore.DG>
-19.2187

> <Gold.Chemscore.ZeroCoef>
-5.4800

> <Gold.Chemscore.Hbond>
0.9613

> <Gold.Chemscore.Metal>
0.0000

> <Gold.Chemscore.Lipo>
121.3069

> <Gold.Chemscore.Internal_Hbond>
0.0000

> <Gold.Chemscore.DEClash>
0.0178

> <Gold.Chemscore.DEInternal>
0.2862

> <Gold.Chemscore.Rot>
1.4317

> <Gold.Chemscore.Internal.Correction>
   9.000000E+99

> <Gold.Chemscore.Hbonds>
donor molecule, donor type, donor heavy atom, donor atom, acceptor molecule, acceptor atom, score
      L1  H     8    28       P1  8028  0.80
      P1  H 10752 10764       L1    14  0.08

> <Gold.Chemscore.Hbond.Weighted>
-3.2108

> <Gold.Chemscore.Metal.Weighted>
-0.0000

> <Gold.Chemscore.Lipo.Weighted>
-14.1929

> <Gold.Chemscore.Internal_Hbond.Weighted>
0.0000

> <Gold.Chemscore.DEClash.Weighted>
0.0178

> <Gold.Chemscore.DEInternal.Weighted>
0.2862

> <Gold.Chemscore.Rot.Weighted>
3.6651

> <Gold.Chemscore.Internal.Correction.Weighted>
   9.000000E+99

> <Gold.Protein.RotatedTorsions>
[ 6907 6896 6895 6894 ] final -169.98 input  -60.11 | X-H torsion
[ 7974 7965 7964 7962 ] final -147.99 input  175.53 | X-H torsion
[ 8008 7997 7996 7995 ] final  -41.22 input   59.86 | X-H torsion
[ 10167 10162 10161 10158 ] final  103.73 input  -65.29 | X-H torsion
[ 10718 10713 10712 10709 ] final  104.42 input   66.30 | X-H torsion
[ 10763 10752 10751 10750 ] final  -48.27 input  -60.55 | X-H torsion
[ 11005 11000 10999 10996 ] final -131.52 input  -57.11 | X-H torsion

> <Gold.Protein.ActiveResidues>
 VAL166  LYS551  ARG553  GLY616  TRP617  ASP618  TYR619  PRO620  LYS621  CYS622 
 ASP623  PHE694  ASN695  SER759  ASP760  ASP761  ALA762  ILE779  LEU786  VAL792 
 PHE793  MET794  SER795  GLU796  ALA797  LYS798  CYS799  TRP800  GLU811  SER814 

> <Gold.Protein.RotatedAtoms>
  151.5004  133.3505  159.2867 H   0  0  0  0  0  0  0  0  0  0  0  0  # atno 6907 bound_to 6896
  150.8777  134.8165  159.7213 H   0  0  0  0  0  0  0  0  0  0  0  0  # atno 6908 bound_to 6896
  152.4742  134.4897  159.9743 H   0  0  0  0  0  0  0  0  0  0  0  0  # atno 6909 bound_to 6896
  144.8058  140.5254  143.5676 H   0  0  0  0  0  0  0  0  0  0  0  0  # atno 7974 bound_to 7965
  154.4006  140.1505  156.3155 H   0  0  0  0  0  0  0  0  0  0  0  0  # atno 8008 bound_to 7997
  155.8577  140.3455  155.5714 H   0  0  0  0  0  0  0  0  0  0  0  0  # atno 8009 bound_to 7997
  155.7915  140.0857  157.1997 H   0  0  0  0  0  0  0  0  0  0  0  0  # atno 8010 bound_to 7997
  139.7238  144.7052  151.0830 H   0  0  0  0  0  0  0  0  0  0  0  0  # atno 10167 bound_to 10162
  157.6741  131.0803  150.5703 H   0  0  0  0  0  0  0  0  0  0  0  0  # atno 10718 bound_to 10713
  154.0751  135.6599  153.4830 H   0  0  0  0  0  0  0  0  0  0  0  0  # atno 10763 bound_to 10752
  153.0376  135.5166  154.7529 H   0  0  0  0  0  0  0  0  0  0  0  0  # atno 10764 bound_to 10752
  154.6606  135.3014  154.9838 H   0  0  0  0  0  0  0  0  0  0  0  0  # atno 10765 bound_to 10752
  140.9251  134.1393  157.4282 H   0  0  0  0  0  0  0  0  0  0  0  0  # atno 11005 bound_to 11000
  145.5443  139.1475  143.3429 LP  0  0  0  0  0  0  0  0  0  0  0  0  # atno 17320 bound_to 7965
  146.2348  140.5582  142.8959 LP  0  0  0  0  0  0  0  0  0  0  0  0  # atno 17321 bound_to 7965
  140.7759  143.5131  150.9627 LP  0  0  0  0  0  0  0  0  0  0  0  0  # atno 17342 bound_to 10162
  139.8819  143.7062  152.3156 LP  0  0  0  0  0  0  0  0  0  0  0  0  # atno 17343 bound_to 10162
  156.6004  130.4353  149.5899 LP  0  0  0  0  0  0  0  0  0  0  0  0  # atno 17370 bound_to 10713
  156.2511  130.6907  151.1645 LP  0  0  0  0  0  0  0  0  0  0  0  0  # atno 17371 bound_to 10713
  139.8784  134.9985  156.5905 LP  0  0  0  0  0  0  0  0  0  0  0  0  # atno 17394 bound_to 11000
  140.7937  133.8562  155.8667 LP  0  0  0  0  0  0  0  0  0  0  0  0  # atno 17395 bound_to 11000

$$$$
