AV-unprocessed.smi:1434|AV-procd|sdf|5850|dock6
  -GOLD-   22720 5513D 1   1.00000     0.00000
 Structure written by MMmdl.
 44 45  0  0  0  0  0  0  0  0  1 V2000
  147.1107  140.3520  154.9122 C   0  0  0  0  0  0  0  0  0  0  0  0
  148.0919  140.6212  153.3823 S   0  0  0  0  0  0  0  0  0  0  0  0
  147.1927  140.5749  152.2197 O   0  0  0  0  0  0  0  0  0  0  0  0
  148.9740  141.7804  153.5865 O   0  0  0  0  0  0  0  0  0  0  0  0
  149.0870  139.2147  153.3220 N   0  0  0  0  0  0  0  0  0  0  0  0
  149.9517  138.9419  154.4689 C   0  0  1  0  0  0  0  0  0  0  0  0
  150.6800  137.5926  154.2937 C   0  0  0  0  0  0  0  0  0  0  0  0
  151.7171  137.3561  155.4110 C   0  0  0  0  0  0  0  0  0  0  0  0
  152.6183  138.5909  155.6064 C   0  0  0  0  0  0  0  0  0  0  0  0
  151.7625  139.7634  155.8506 N   0  0  0  0  0  0  0  0  0  0  0  0
  151.5129  140.3413  157.0517 C   0  0  0  0  0  0  0  0  0  0  0  0
  150.5091  141.0194  157.2750 O   0  0  0  0  0  0  0  0  0  0  0  0
  152.4020  140.0375  158.0143 N   0  0  0  0  0  0  0  0  0  0  0  0
  152.2377  140.3235  159.4384 C   0  0  0  0  0  0  0  0  0  0  0  0
  153.0764  141.5382  159.8902 C   0  0  0  0  0  0  0  0  0  0  0  0
  152.4146  142.8821  159.6254 C   0  0  0  0  0  0  0  0  0  0  0  0
  152.1622  143.7825  160.6833 C   0  0  0  0  0  0  0  0  0  0  0  0
  151.5060  144.9940  160.3927 C   0  0  0  0  0  0  0  0  0  0  0  0
  151.1284  145.2578  159.0625 C   0  0  0  0  0  0  0  0  0  0  0  0
  151.4347  144.2990  158.0765 C   0  0  0  0  0  0  0  0  0  0  0  0
  152.0687  143.1365  158.3434 N   0  0  0  0  0  0  0  0  0  0  0  0
  150.9602  140.0890  154.6667 C   0  0  0  0  0  0  0  0  0  0  0  0
  146.4367  141.1952  155.0616 H   0  0  0  0  0  0  0  0  0  0  0  0
  147.7823  140.2690  155.7664 H   0  0  0  0  0  0  0  0  0  0  0  0
  146.5283  139.4361  154.8159 H   0  0  0  0  0  0  0  0  0  0  0  0
  149.6107  139.1708  152.4482 H   0  0  0  0  0  0  0  0  0  0  0  0
  149.3285  138.8875  155.3622 H   0  0  0  0  0  0  0  0  0  0  0  0
  149.9613  136.7724  154.2711 H   0  0  0  0  0  0  0  0  0  0  0  0
  151.1920  137.5814  153.3305 H   0  0  0  0  0  0  0  0  0  0  0  0
  151.2002  137.1342  156.3448 H   0  0  0  0  0  0  0  0  0  0  0  0
  152.3231  136.4800  155.1788 H   0  0  0  0  0  0  0  0  0  0  0  0
  153.3451  138.4140  156.3997 H   0  0  0  0  0  0  0  0  0  0  0  0
  153.2116  138.7618  154.7070 H   0  0  0  0  0  0  0  0  0  0  0  0
  153.1989  139.4749  157.7542 H   0  0  0  0  0  0  0  0  0  0  0  0
  151.1824  140.5135  159.6333 H   0  0  0  0  0  0  0  0  0  0  0  0
  152.5015  139.4506  160.0378 H   0  0  0  0  0  0  0  0  0  0  0  0
  153.2839  141.4545  160.9576 H   0  0  0  0  0  0  0  0  0  0  0  0
  154.0475  141.5192  159.3940 H   0  0  0  0  0  0  0  0  0  0  0  0
  152.4514  143.5464  161.6966 H   0  0  0  0  0  0  0  0  0  0  0  0
  151.2860  145.7027  161.1775 H   0  0  0  0  0  0  0  0  0  0  0  0
  150.6148  146.1722  158.8047 H   0  0  0  0  0  0  0  0  0  0  0  0
  151.1621  144.4695  157.0457 H   0  0  0  0  0  0  0  0  0  0  0  0
  151.6084  140.1884  153.7946 H   0  0  0  0  0  0  0  0  0  0  0  0
  150.4377  141.0424  154.7603 H   0  0  0  0  0  0  0  0  0  0  0  0
  1  2  1  0  0  0  0
  1 23  1  0  0  0  0
  1 24  1  0  0  0  0
  1 25  1  0  0  0  0
  2  3  2  0  0  0  0
  2  4  2  0  0  0  0
  2  5  1  0  0  0  0
  5  6  1  0  0  0  0
  5 26  1  0  0  0  0
  6 22  1  0  0  0  0
  6  7  1  0  0  0  0
  6 27  1  0  0  0  0
  7  8  1  0  0  0  0
  7 28  1  0  0  0  0
  7 29  1  0  0  0  0
  8  9  1  0  0  0  0
  8 30  1  0  0  0  0
  8 31  1  0  0  0  0
  9 10  1  0  0  0  0
  9 32  1  0  0  0  0
  9 33  1  0  0  0  0
 10 11  1  0  0  0  0
 10 22  1  0  0  0  0
 11 12  2  0  0  0  0
 11 13  1  0  0  0  0
 13 14  1  0  0  0  0
 13 34  1  0  0  0  0
 14 15  1  0  0  0  0
 14 35  1  0  0  0  0
 14 36  1  0  0  0  0
 15 16  1  0  0  0  0
 15 37  1  0  0  0  0
 15 38  1  0  0  0  0
 16 21  1  0  0  0  0
 16 17  2  0  0  0  0
 17 18  1  0  0  0  0
 17 39  1  0  0  0  0
 18 19  2  0  0  0  0
 18 40  1  0  0  0  0
 19 20  1  0  0  0  0
 19 41  1  0  0  0  0
 20 21  2  0  0  0  0
 20 42  1  0  0  0  0
 22 43  1  0  0  0  0
 22 44  1  0  0  0  0
M  END
> <s_m_source_file>
AV-unprocessed.smi

> <i_m_source_file_index>
1434

> <i_lp_mmshare_version>
43012

> <i_f3d_flags>
0

> <s_epik_input>
W0NIM11TKD1PKSg9TylbTkhdW0NAQEhdMVtDSDJdW0NIMl1bQ0gyXU4oW0NIMl0xKUMoPU8pW05IXVtDSDJdW0NIMl1jMltjSF1bY0hdW2NIXVtjSF1uMg==

> <s_epik_cmdline>
J2VwaWtfcHl0aG9uJywgJy1waCcsICc3LjAnLCAnLXRuJywgJzgnLCAnLW1hJywgJzIwMCcsICctbWV0YWxfYmluZGluZycsICctaW1hZScsICc8aW5maWxlLm1hZT4nLCAnLW9tYWUnLCAnPG91dGZpbGUubWFlPic=

> <r_epik_Ionization_Penalty>
0.0449488

> <r_epik_Ionization_Penalty_Charging>
0

> <r_epik_Ionization_Penalty_Neutral>
0.0449488

> <r_epik_State_Penalty>
0.0380669

> <r_epik_Charging_Adjusted_Penalty>
0.0380669

> <i_epik_Tot_Q>
0

> <i_epik_Tot_abs_Q>
0

> <r_epik_Metal_State_Penalty>
0.0441384

> <b_epik_Metal_Only>
0

> <s_lp_Force_Field>
OPLS_2005

> <r_lp_Energy>
20.2695

> <b_lp_Chiralities_Consistent>
1

> <s_lp_Variant>
AV-unprocessed.smi:1434-2

> <Gold.Version>
5.8.1

> <Gold.Id.Protein>
6NUR|6NUR_protein|mol2

> <Gold.PLP.Fitness>
52.5179

> <Gold.PLP.PLP>
-45.5985

> <Gold.PLP.part.hbond>
-2.0000

> <Gold.PLP.part.metal>
0.0000

> <Gold.PLP.part.buried>
-2.9976

> <Gold.PLP.part.nonpolar>
-42.8766

> <Gold.PLP.part.repulsive>
0.6749

> <Gold.PLP.ligand.clash>
0.0000

> <Gold.PLP.ligand.torsion>
0.3944

> <Gold.PLP.Chemscore.Hbond>
1.5200

> <Gold.PLP.Chemscore.CHOScore>
0.9930

> <Gold.PLP.Chemscore.Metal>
0.0000

> <Gold.Chemscore.Hbonds>
donor molecule, donor type, donor heavy atom, donor atom, acceptor molecule, acceptor atom, score
      L1  H     5    26       P1  7957  0.69
      P1  H  8011  8017       L1     4  0.64
      L1  C    20    42       P1  8028  0.72

> <Gold.PLP.Chemscore.Internal.Correction>
0.1693

> <Gold.Rescore>
     Score         DG    S(hbond)    S(metal)    S(lipo)     H(rot)  DE(clash)    DE(int)     intcor
     15.74     -18.66       1.49        0.00     114.55       2.03       1.16       1.75       ----

> <Gold.Chemscore.Fitness>
15.7389

> <Gold.Chemscore.DG>
-18.6563

> <Gold.Chemscore.ZeroCoef>
-5.4800

> <Gold.Chemscore.Hbond>
1.4913

> <Gold.Chemscore.Metal>
0.0000

> <Gold.Chemscore.Lipo>
114.5523

> <Gold.Chemscore.Internal_Hbond>
0.0000

> <Gold.Chemscore.DEClash>
1.1633

> <Gold.Chemscore.DEInternal>
1.7542

> <Gold.Chemscore.Rot>
2.0340

> <Gold.Chemscore.Internal.Correction>
   9.000000E+99

> <Gold.Chemscore.Hbonds>
donor molecule, donor type, donor heavy atom, donor atom, acceptor molecule, acceptor atom, score
      L1  H     5    26       P1  7957  0.61
      P1  H  8011  8017       L1     4  0.63

> <Gold.Chemscore.Hbond.Weighted>
-4.9808

> <Gold.Chemscore.Metal.Weighted>
-0.0000

> <Gold.Chemscore.Lipo.Weighted>
-13.4026

> <Gold.Chemscore.Internal_Hbond.Weighted>
0.0000

> <Gold.Chemscore.DEClash.Weighted>
1.1633

> <Gold.Chemscore.DEInternal.Weighted>
1.7542

> <Gold.Chemscore.Rot.Weighted>
5.2071

> <Gold.Chemscore.Internal.Correction.Weighted>
   9.000000E+99

> <Gold.Protein.RotatedTorsions>
[ 6907 6896 6895 6894 ] final  -86.43 input  -60.11 | X-H torsion
[ 7974 7965 7964 7962 ] final -166.81 input  175.53 | X-H torsion
[ 8008 7997 7996 7995 ] final  -74.32 input   59.86 | X-H torsion
[ 10167 10162 10161 10158 ] final  111.66 input  -65.29 | X-H torsion
[ 10718 10713 10712 10709 ] final  -57.65 input   66.30 | X-H torsion
[ 10763 10752 10751 10750 ] final   48.02 input  -60.55 | X-H torsion
[ 11005 11000 10999 10996 ] final   53.32 input  -57.11 | X-H torsion

> <Gold.Protein.ActiveResidues>
 VAL166  LYS551  ARG553  GLY616  TRP617  ASP618  TYR619  PRO620  LYS621  CYS622 
 ASP623  PHE694  ASN695  SER759  ASP760  ASP761  ALA762  ILE779  LEU786  VAL792 
 PHE793  MET794  SER795  GLU796  ALA797  LYS798  CYS799  TRP800  GLU811  SER814 

> <Gold.Protein.RotatedAtoms>
  150.6867  134.3052  159.4722 H   0  0  0  0  0  0  0  0  0  0  0  0  # atno 6907 bound_to 6896
  152.0944  134.9382  160.0580 H   0  0  0  0  0  0  0  0  0  0  0  0  # atno 6908 bound_to 6896
  152.0686  133.4061  159.4486 H   0  0  0  0  0  0  0  0  0  0  0  0  # atno 6909 bound_to 6896
  144.7237  140.2612  143.6264 H   0  0  0  0  0  0  0  0  0  0  0  0  # atno 7974 bound_to 7965
  154.5321  140.0763  156.8363 H   0  0  0  0  0  0  0  0  0  0  0  0  # atno 8008 bound_to 7997
  155.3353  140.3404  155.4221 H   0  0  0  0  0  0  0  0  0  0  0  0  # atno 8009 bound_to 7997
  156.1792  140.1646  156.8293 H   0  0  0  0  0  0  0  0  0  0  0  0  # atno 8010 bound_to 7997
  139.6594  144.7129  151.1894 H   0  0  0  0  0  0  0  0  0  0  0  0  # atno 10167 bound_to 10162
  156.1194  130.4167  150.0469 H   0  0  0  0  0  0  0  0  0  0  0  0  # atno 10718 bound_to 10713
  152.9795  135.5957  154.3857 H   0  0  0  0  0  0  0  0  0  0  0  0  # atno 10763 bound_to 10752
  154.3517  135.2767  155.2370 H   0  0  0  0  0  0  0  0  0  0  0  0  # atno 10764 bound_to 10752
  154.4406  135.6014  153.6182 H   0  0  0  0  0  0  0  0  0  0  0  0  # atno 10765 bound_to 10752
  140.0777  134.5382  155.8979 H   0  0  0  0  0  0  0  0  0  0  0  0  # atno 11005 bound_to 11000
  145.8134  139.2013  143.1980 LP  0  0  0  0  0  0  0  0  0  0  0  0  # atno 17320 bound_to 7965
  146.0576  140.8004  142.9750 LP  0  0  0  0  0  0  0  0  0  0  0  0  # atno 17321 bound_to 7965
  140.7573  143.6019  150.8691 LP  0  0  0  0  0  0  0  0  0  0  0  0  # atno 17342 bound_to 10162
  139.9675  143.6094  152.2984 LP  0  0  0  0  0  0  0  0  0  0  0  0  # atno 17343 bound_to 10162
  156.8412  130.9426  151.3632 LP  0  0  0  0  0  0  0  0  0  0  0  0  # atno 17370 bound_to 10713
  157.6378  130.8781  149.9391 LP  0  0  0  0  0  0  0  0  0  0  0  0  # atno 17371 bound_to 10713
  141.2035  133.6632  156.6069 LP  0  0  0  0  0  0  0  0  0  0  0  0  # atno 17394 bound_to 11000
  140.3534  134.7749  157.4483 LP  0  0  0  0  0  0  0  0  0  0  0  0  # atno 17395 bound_to 11000

$$$$
