AV-unprocessed.smi:3056|AV-procd|sdf|11653|dock5
  -GOLD-   2272017 53D 1   1.00000     0.00000
 Structure written by MMmdl.
 47 48  0  0  0  0  0  0  0  0  1 V2000
  144.5692  145.6909  153.4464 C   0  0  0  0  0  0  0  0  0  0  0  0
  145.2306  144.4183  153.8904 C   0  0  0  0  0  0  0  0  0  0  0  0
  144.9944  143.6773  155.0829 C   0  0  0  0  0  0  0  0  0  0  0  0
  145.7475  142.5934  155.1727 N   0  0  0  0  0  0  0  0  0  0  0  0
  146.4886  142.5996  154.0437 N   0  0  0  0  0  0  0  0  0  0  0  0
  147.4525  141.5336  153.8007 C   0  0  2  0  0  0  0  0  0  0  0  0
  146.7056  140.1943  153.6546 C   0  0  0  0  0  0  0  0  0  0  0  0
  148.5503  141.4944  154.8972 C   0  0  2  0  0  0  0  0  0  0  0  0
  149.4501  140.2433  154.8082 C   0  0  0  0  0  0  0  0  0  0  0  0
  147.8997  141.5119  156.2090 N   0  0  0  0  0  0  0  0  0  0  0  0
  148.7566  141.9851  157.3125 C   0  0  0  0  0  0  0  0  0  0  0  0
  149.9399  141.0579  157.6588 C   0  0  0  0  0  0  0  0  0  0  0  0
  149.7074  139.8882  157.9701 O   0  0  0  0  0  0  0  0  0  0  0  0
  151.2013  141.5491  157.6121 N   0  0  0  0  0  0  0  0  0  0  0  0
  152.3710  140.7988  158.0745 C   0  0  0  0  0  0  0  0  0  0  0  0
  152.9234  141.5113  159.3224 C   0  0  0  0  0  0  0  0  0  0  0  0
  153.2402  142.8664  159.0059 O   0  0  0  0  0  0  0  0  0  0  0  0
  152.1309  143.6125  158.5034 C   0  0  1  0  0  0  0  0  0  0  0  0
  152.6043  145.0414  158.2166 C   0  0  0  0  0  0  0  0  0  0  0  0
  151.5909  142.9118  157.2411 C   0  0  0  0  0  0  0  0  0  0  0  0
  146.1988  143.6945  153.2547 C   0  0  0  0  0  0  0  0  0  0  0  0
  143.8761  146.0711  154.1970 H   0  0  0  0  0  0  0  0  0  0  0  0
  144.0009  145.5479  152.5272 H   0  0  0  0  0  0  0  0  0  0  0  0
  145.2990  146.4779  153.2553 H   0  0  0  0  0  0  0  0  0  0  0  0
  144.3010  143.8944  155.8819 H   0  0  0  0  0  0  0  0  0  0  0  0
  147.9374  141.7451  152.8451 H   0  0  0  0  0  0  0  0  0  0  0  0
  147.3779  139.3890  153.3588 H   0  0  0  0  0  0  0  0  0  0  0  0
  145.9290  140.2616  152.8921 H   0  0  0  0  0  0  0  0  0  0  0  0
  146.2284  139.8993  154.5897 H   0  0  0  0  0  0  0  0  0  0  0  0
  149.1788  142.3757  154.7676 H   0  0  0  0  0  0  0  0  0  0  0  0
  149.9910  140.2027  153.8629 H   0  0  0  0  0  0  0  0  0  0  0  0
  148.8621  139.3286  154.8900 H   0  0  0  0  0  0  0  0  0  0  0  0
  150.2032  140.2238  155.5953 H   0  0  0  0  0  0  0  0  0  0  0  0
  147.0522  142.0592  156.1543 H   0  0  0  0  0  0  0  0  0  0  0  0
  149.1642  142.9578  157.0364 H   0  0  0  0  0  0  0  0  0  0  0  0
  148.1333  142.1430  158.1914 H   0  0  0  0  0  0  0  0  0  0  0  0
  152.1454  139.7590  158.3138 H   0  0  0  0  0  0  0  0  0  0  0  0
  153.1257  140.7725  157.2872 H   0  0  0  0  0  0  0  0  0  0  0  0
  152.1993  141.4806  160.1383 H   0  0  0  0  0  0  0  0  0  0  0  0
  153.8248  141.0109  159.6761 H   0  0  0  0  0  0  0  0  0  0  0  0
  151.3513  143.6492  159.2667 H   0  0  0  0  0  0  0  0  0  0  0  0
  151.7870  145.6572  157.8405 H   0  0  0  0  0  0  0  0  0  0  0  0
  153.4016  145.0510  157.4731 H   0  0  0  0  0  0  0  0  0  0  0  0
  152.9865  145.5140  159.1217 H   0  0  0  0  0  0  0  0  0  0  0  0
  152.3695  142.8646  156.4780 H   0  0  0  0  0  0  0  0  0  0  0  0
  150.7861  143.4916  156.7921 H   0  0  0  0  0  0  0  0  0  0  0  0
  146.6993  143.8643  152.3125 H   0  0  0  0  0  0  0  0  0  0  0  0
  1  2  1  0  0  0  0
  1 22  1  0  0  0  0
  1 23  1  0  0  0  0
  1 24  1  0  0  0  0
  2 21  2  0  0  0  0
  2  3  1  0  0  0  0
  3  4  2  0  0  0  0
  3 25  1  0  0  0  0
  4  5  1  0  0  0  0
  5  6  1  0  0  0  0
  5 21  1  0  0  0  0
  6  7  1  0  0  0  0
  6  8  1  0  0  0  0
  6 26  1  0  0  0  0
  7 27  1  0  0  0  0
  7 28  1  0  0  0  0
  7 29  1  0  0  0  0
  8  9  1  0  0  0  0
  8 10  1  0  0  0  0
  8 30  1  0  0  0  0
  9 31  1  0  0  0  0
  9 32  1  0  0  0  0
  9 33  1  0  0  0  0
 10 11  1  0  0  0  0
 10 34  1  0  0  0  0
 11 12  1  0  0  0  0
 11 35  1  0  0  0  0
 11 36  1  0  0  0  0
 12 13  2  0  0  0  0
 12 14  1  0  0  0  0
 14 20  1  0  0  0  0
 14 15  1  0  0  0  0
 15 16  1  0  0  0  0
 15 37  1  0  0  0  0
 15 38  1  0  0  0  0
 16 17  1  0  0  0  0
 16 39  1  0  0  0  0
 16 40  1  0  0  0  0
 17 18  1  0  0  0  0
 18 19  1  0  0  0  0
 18 20  1  0  0  0  0
 18 41  1  0  0  0  0
 19 42  1  0  0  0  0
 19 43  1  0  0  0  0
 19 44  1  0  0  0  0
 20 45  1  0  0  0  0
 20 46  1  0  0  0  0
 21 47  1  0  0  0  0
M  END
> <s_m_source_file>
AV-unprocessed.smi

> <i_m_source_file_index>
3056

> <i_lp_mmshare_version>
43012

> <i_f3d_flags>
0

> <s_epik_input>
W0NIM11jMVtjSF1ubihbY0hdMSlbQ0BIXShbQ0gzXSlbQ0BIXShbQ0gzXSlbTkhdW0NIMl1DKD1PKU4yW0NIMl1bQ0gyXU9bQ0BASF0oW0NIM10pW0NIMl0y

> <s_epik_cmdline>
J2VwaWtfcHl0aG9uJywgJy1waCcsICc3LjAnLCAnLXRuJywgJzgnLCAnLW1hJywgJzIwMCcsICctbWV0YWxfYmluZGluZycsICctaW1hZScsICc8aW5maWxlLm1hZT4nLCAnLW9tYWUnLCAnPG91dGZpbGUubWFlPic=

> <r_lp_tautomer_probability>
1

> <r_epik_Ionization_Penalty>
0.667689

> <r_epik_Ionization_Penalty_Charging>
0

> <r_epik_Ionization_Penalty_Neutral>
0.667689

> <r_epik_State_Penalty>
0.684601

> <r_epik_Charging_Adjusted_Penalty>
0.684601

> <i_epik_Tot_Q>
0

> <i_epik_Tot_abs_Q>
0

> <r_epik_Metal_State_Penalty>
0.681448

> <b_epik_Metal_Only>
0

> <s_lp_Force_Field>
OPLS_2005

> <r_lp_Energy>
29.7123

> <b_lp_Chiralities_Consistent>
1

> <s_lp_Variant>
AV-unprocessed.smi:3056-9

> <Gold.Version>
5.8.1

> <Gold.Id.Protein>
6NUR|6NUR_protein|mol2

> <Gold.PLP.Fitness>
45.0390

> <Gold.PLP.PLP>
-45.7295

> <Gold.PLP.part.hbond>
0.0000

> <Gold.PLP.part.metal>
0.0000

> <Gold.PLP.part.buried>
-6.3712

> <Gold.PLP.part.nonpolar>
-39.2381

> <Gold.PLP.part.repulsive>
0.1535

> <Gold.PLP.ligand.clash>
0.0000

> <Gold.PLP.ligand.torsion>
0.3844

> <Gold.PLP.Chemscore.Hbond>
0.0000

> <Gold.PLP.Chemscore.CHOScore>
0.0000

> <Gold.PLP.Chemscore.Metal>
0.0000

> <Gold.PLP.Chemscore.Internal.Correction>
0.0782

> <Gold.Rescore>
     Score         DG    S(hbond)    S(metal)    S(lipo)     H(rot)  DE(clash)    DE(int)     intcor
     12.75     -13.55       0.00        0.00     105.68       1.68       0.09       0.70       ----

> <Gold.Chemscore.Fitness>
12.7524

> <Gold.Chemscore.DG>
-13.5452

> <Gold.Chemscore.ZeroCoef>
-5.4800

> <Gold.Chemscore.Hbond>
0.0000

> <Gold.Chemscore.Metal>
0.0000

> <Gold.Chemscore.Lipo>
105.6775

> <Gold.Chemscore.Internal_Hbond>
0.0000

> <Gold.Chemscore.DEClash>
0.0920

> <Gold.Chemscore.DEInternal>
0.7008

> <Gold.Chemscore.Rot>
1.6793

> <Gold.Chemscore.Internal.Correction>
   9.000000E+99

> <Gold.Chemscore.Hbond.Weighted>
-0.0000

> <Gold.Chemscore.Metal.Weighted>
-0.0000

> <Gold.Chemscore.Lipo.Weighted>
-12.3643

> <Gold.Chemscore.Internal_Hbond.Weighted>
0.0000

> <Gold.Chemscore.DEClash.Weighted>
0.0920

> <Gold.Chemscore.DEInternal.Weighted>
0.7008

> <Gold.Chemscore.Rot.Weighted>
4.2990

> <Gold.Chemscore.Internal.Correction.Weighted>
   9.000000E+99

> <Gold.Protein.RotatedTorsions>
[ 6907 6896 6895 6894 ] final   32.36 input  -60.11 | X-H torsion
[ 7974 7965 7964 7962 ] final   49.97 input  175.53 | X-H torsion
[ 8008 7997 7996 7995 ] final   57.24 input   59.86 | X-H torsion
[ 10167 10162 10161 10158 ] final   15.87 input  -65.29 | X-H torsion
[ 10718 10713 10712 10709 ] final  -69.07 input   66.30 | X-H torsion
[ 10763 10752 10751 10750 ] final  -34.31 input  -60.55 | X-H torsion
[ 11005 11000 10999 10996 ] final   34.30 input  -57.11 | X-H torsion

> <Gold.Protein.ActiveResidues>
 VAL166  LYS551  ARG553  GLY616  TRP617  ASP618  TYR619  PRO620  LYS621  CYS622 
 ASP623  PHE694  ASN695  SER759  ASP760  ASP761  ALA762  ILE779  LEU786  VAL792 
 PHE793  MET794  SER795  GLU796  ALA797  LYS798  CYS799  TRP800  GLU811  SER814 

> <Gold.Protein.RotatedAtoms>
  152.0734  134.9519  160.0574 H   0  0  0  0  0  0  0  0  0  0  0  0  # atno 6907 bound_to 6896
  152.0836  133.4160  159.4520 H   0  0  0  0  0  0  0  0  0  0  0  0  # atno 6908 bound_to 6896
  150.6836  134.2873  159.4695 H   0  0  0  0  0  0  0  0  0  0  0  0  # atno 6909 bound_to 6896
  146.0057  139.4488  142.9987 H   0  0  0  0  0  0  0  0  0  0  0  0  # atno 7974 bound_to 7965
  155.5306  140.3482  155.4425 H   0  0  0  0  0  0  0  0  0  0  0  0  # atno 8008 bound_to 7997
  156.0721  140.1365  156.9843 H   0  0  0  0  0  0  0  0  0  0  0  0  # atno 8009 bound_to 7997
  154.4533  140.0963  156.6659 H   0  0  0  0  0  0  0  0  0  0  0  0  # atno 8010 bound_to 7997
  140.5837  143.8931  150.6812 H   0  0  0  0  0  0  0  0  0  0  0  0  # atno 10167 bound_to 10162
  156.0473  130.4306  150.2094 H   0  0  0  0  0  0  0  0  0  0  0  0  # atno 10718 bound_to 10713
  153.8446  135.6854  153.4799 H   0  0  0  0  0  0  0  0  0  0  0  0  # atno 10763 bound_to 10752
  153.1433  135.4648  154.9526 H   0  0  0  0  0  0  0  0  0  0  0  0  # atno 10764 bound_to 10752
  154.7829  135.3275  154.7897 H   0  0  0  0  0  0  0  0  0  0  0  0  # atno 10765 bound_to 10752
  140.2542  134.3267  155.7879 H   0  0  0  0  0  0  0  0  0  0  0  0  # atno 11005 bound_to 11000
  145.7419  141.0005  143.1296 LP  0  0  0  0  0  0  0  0  0  0  0  0  # atno 17320 bound_to 7965
  144.6935  139.9109  143.7463 LP  0  0  0  0  0  0  0  0  0  0  0  0  # atno 17321 bound_to 7965
  140.2437  143.3645  152.1465 LP  0  0  0  0  0  0  0  0  0  0  0  0  # atno 17342 bound_to 10162
  139.5185  144.7006  151.5504 LP  0  0  0  0  0  0  0  0  0  0  0  0  # atno 17343 bound_to 10162
  157.0182  130.9971  151.3347 LP  0  0  0  0  0  0  0  0  0  0  0  0  # atno 17370 bound_to 10713
  157.5363  130.8091  149.7975 LP  0  0  0  0  0  0  0  0  0  0  0  0  # atno 17371 bound_to 10713
  141.2198  133.7371  156.9085 LP  0  0  0  0  0  0  0  0  0  0  0  0  # atno 17394 bound_to 11000
  140.1528  134.9219  157.2614 LP  0  0  0  0  0  0  0  0  0  0  0  0  # atno 17395 bound_to 11000

$$$$
