AV-unprocessed.smi:283|AV-procd|sdf|2154|dock5
  -GOLD-   2262021493D 1   1.00000     0.00000
 Structure written by MMmdl.
 48 51  0  0  0  0  0  0  0  0  1 V2000
  151.4760  142.9336  157.4091 C   0  0  0  0  0  0  0  0  0  0  0  0
  151.0975  141.7113  158.2562 C   0  0  1  0  0  0  0  0  0  0  0  0
  150.8820  140.5571  157.3861 N   0  0  0  0  0  0  0  0  0  0  0  0
  149.8365  140.5092  156.5307 C   0  0  0  0  0  0  0  0  0  0  0  0
  149.4888  141.6914  155.9694 N   0  0  0  0  0  0  0  0  0  0  0  0
  148.4809  141.7479  155.0951 C   0  0  0  0  0  0  0  0  0  0  0  0
  147.7037  140.7578  154.6550 N   0  0  0  0  0  0  0  0  0  0  0  0
  148.0356  139.5633  155.2247 C   0  0  0  0  0  0  0  0  0  0  0  0
  149.0795  139.3544  156.1721 C   0  0  0  0  0  0  0  0  0  0  0  0
  149.1022  138.0139  156.5387 N   0  0  0  0  0  0  0  0  0  0  0  0
  148.1463  137.4681  155.8395 C   0  0  0  0  0  0  0  0  0  0  0  0
  147.4503  138.3279  155.0217 N   0  0  0  0  0  0  0  0  0  0  0  0
  146.3091  137.9831  154.1118 C   0  0  2  0  0  0  0  0  0  0  0  0
  146.1460  136.5952  154.0747 O   0  0  0  0  0  0  0  0  0  0  0  0
  146.2635  136.1133  152.7370 C   0  0  1  0  0  0  0  0  0  0  0  0
  145.3570  134.8841  152.5644 C   0  0  0  0  0  0  0  0  0  0  0  0
  145.3922  134.4207  151.2314 O   0  0  0  0  0  0  0  0  0  0  0  0
  145.8825  137.3272  151.8848 C   0  0  2  0  0  0  0  0  0  0  0  0
  146.3473  137.2576  150.5503 O   0  0  0  0  0  0  0  0  0  0  0  0
  146.5078  138.4748  152.6650 C   0  0  2  0  0  0  0  0  0  0  0  0
  147.8675  138.6946  152.3200 O   0  0  0  0  0  0  0  0  0  0  0  0
  152.1302  141.4933  159.3661 C   0  0  0  0  0  0  0  0  0  0  0  0
  152.7959  140.2499  159.4764 C   0  0  0  0  0  0  0  0  0  0  0  0
  153.7440  140.0298  160.4929 C   0  0  0  0  0  0  0  0  0  0  0  0
  154.0441  141.0548  161.4076 C   0  0  0  0  0  0  0  0  0  0  0  0
  153.4002  142.3010  161.2985 C   0  0  0  0  0  0  0  0  0  0  0  0
  152.4508  142.5275  160.2819 C   0  0  0  0  0  0  0  0  0  0  0  0
  151.7042  144.0845  160.1868 Cl  0  0  0  0  0  0  0  0  0  0  0  0
  145.4330  138.4244  154.5888 H   0  0  0  0  0  0  0  0  0  0  0  0
  147.3071  135.8436  152.5667 H   0  0  0  0  0  0  0  0  0  0  0  0
  144.7977  137.4455  151.8777 H   0  0  0  0  0  0  0  0  0  0  0  0
  145.9633  139.4081  152.5186 H   0  0  0  0  0  0  0  0  0  0  0  0
  151.5567  143.8288  158.0265 H   0  0  0  0  0  0  0  0  0  0  0  0
  150.7243  143.1306  156.6442 H   0  0  0  0  0  0  0  0  0  0  0  0
  152.4331  142.7885  156.9069 H   0  0  0  0  0  0  0  0  0  0  0  0
  150.1316  141.9309  158.7078 H   0  0  0  0  0  0  0  0  0  0  0  0
  151.3751  139.7222  157.6676 H   0  0  0  0  0  0  0  0  0  0  0  0
  148.2677  142.7253  154.6882 H   0  0  0  0  0  0  0  0  0  0  0  0
  147.9199  136.4138  155.9045 H   0  0  0  0  0  0  0  0  0  0  0  0
  145.7007  134.0759  153.2105 H   0  0  0  0  0  0  0  0  0  0  0  0
  144.3292  135.1094  152.8502 H   0  0  0  0  0  0  0  0  0  0  0  0
  144.5607  134.6109  150.8247 H   0  0  0  0  0  0  0  0  0  0  0  0
  145.6952  137.6507  149.9900 H   0  0  0  0  0  0  0  0  0  0  0  0
  148.3036  137.8574  152.2748 H   0  0  0  0  0  0  0  0  0  0  0  0
  152.5803  139.4521  158.7809 H   0  0  0  0  0  0  0  0  0  0  0  0
  154.2408  139.0737  160.5700 H   0  0  0  0  0  0  0  0  0  0  0  0
  154.7708  140.8877  162.1890 H   0  0  0  0  0  0  0  0  0  0  0  0
  153.6386  143.0884  161.9984 H   0  0  0  0  0  0  0  0  0  0  0  0
  1  2  1  0  0  0  0
  1 33  1  0  0  0  0
  1 34  1  0  0  0  0
  1 35  1  0  0  0  0
  2  3  1  0  0  0  0
  2 22  1  0  0  0  0
  2 36  1  0  0  0  0
  3  4  1  0  0  0  0
  3 37  1  0  0  0  0
  4  9  1  0  0  0  0
  4  5  2  0  0  0  0
  5  6  1  0  0  0  0
  6  7  2  0  0  0  0
  6 38  1  0  0  0  0
  7  8  1  0  0  0  0
  8 12  1  0  0  0  0
  8  9  2  0  0  0  0
  9 10  1  0  0  0  0
 10 11  2  0  0  0  0
 11 12  1  0  0  0  0
 11 39  1  0  0  0  0
 12 13  1  0  0  0  0
 13 29  1  0  0  0  0
 13 20  1  0  0  0  0
 13 14  1  0  0  0  0
 14 15  1  0  0  0  0
 15 30  1  0  0  0  0
 15 16  1  0  0  0  0
 15 18  1  0  0  0  0
 16 17  1  0  0  0  0
 16 40  1  0  0  0  0
 16 41  1  0  0  0  0
 17 42  1  0  0  0  0
 18 31  1  0  0  0  0
 18 19  1  0  0  0  0
 18 20  1  0  0  0  0
 19 43  1  0  0  0  0
 20 32  1  0  0  0  0
 20 21  1  0  0  0  0
 21 44  1  0  0  0  0
 22 27  1  0  0  0  0
 22 23  2  0  0  0  0
 23 24  1  0  0  0  0
 23 45  1  0  0  0  0
 24 25  2  0  0  0  0
 24 46  1  0  0  0  0
 25 26  1  0  0  0  0
 25 47  1  0  0  0  0
 26 27  2  0  0  0  0
 26 48  1  0  0  0  0
 27 28  1  0  0  0  0
M  END
> <s_m_source_file>
AV-unprocessed.smi

> <i_m_source_file_index>
283

> <i_lp_mmshare_version>
43012

> <i_f3d_flags>
0

> <s_epik_input>
Q2xjMVtjSF1bY0hdW2NIXVtjSF1jMVtDQEhdKFtDSDNdKVtOSF1jKG5bY0hdbjIpYyhjMjMpbltjSF1uM1tDQEBIXTRPW0NASF0oW0NIMl1bT0hdKVtDQEBIXShbT0hdKVtDQEhdNFtPSF0=

> <s_epik_cmdline>
J2VwaWtfcHl0aG9uJywgJy1waCcsICc3LjAnLCAnLXRuJywgJzgnLCAnLW1hJywgJzIwMCcsICctbWV0YWxfYmluZGluZycsICctaW1hZScsICc8aW5maWxlLm1hZT4nLCAnLW9tYWUnLCAnPG91dGZpbGUubWFlPic=

> <r_lp_tautomer_probability>
1

> <r_epik_Ionization_Penalty>
0.000266407

> <r_epik_Ionization_Penalty_Charging>
0

> <r_epik_Ionization_Penalty_Neutral>
0.000266407

> <r_epik_State_Penalty>
-0

> <r_epik_Charging_Adjusted_Penalty>
0

> <i_epik_Tot_Q>
0

> <i_epik_Tot_abs_Q>
0

> <r_epik_Metal_State_Penalty>
-0

> <b_epik_Metal_Only>
0

> <s_epik_Chemistry_Notes>
This compound contains an acetal/aminal-like group ( X-CH(R)-Y where X, Y are N, S, or O) that may be acid/base labile, releasing an aldehyde.

> <s_lp_Force_Field>
OPLS_2005

> <r_lp_Energy>
52.4072

> <b_lp_Chiralities_Consistent>
1

> <s_lp_Variant>
AV-unprocessed.smi:283-30

> <Gold.Version>
5.8.1

> <Gold.Id.Protein>
6NUR|6NUR_protein|mol2

> <Gold.PLP.Fitness>
49.7487

> <Gold.PLP.PLP>
-39.1316

> <Gold.PLP.part.hbond>
-4.6329

> <Gold.PLP.part.metal>
0.0000

> <Gold.PLP.part.buried>
-2.1143

> <Gold.PLP.part.nonpolar>
-32.2999

> <Gold.PLP.part.repulsive>
0.5456

> <Gold.PLP.ligand.clash>
0.0000

> <Gold.PLP.ligand.torsion>
0.4995

> <Gold.PLP.Chemscore.Hbond>
2.9040

> <Gold.PLP.Chemscore.CHOScore>
0.9252

> <Gold.PLP.Chemscore.Metal>
0.0000

> <Gold.Chemscore.Hbonds>
donor molecule, donor type, donor heavy atom, donor atom, acceptor molecule, acceptor atom, score
      L1  H    19    43       P1 10171  0.97
      L1  H    21    44       P1  7948  1.00
      P1  H  7954  7966       L1    19  0.91
      L1  C     6    38       P1  8028  0.92

> <Gold.PLP.Chemscore.Internal.Correction>
0.1284

> <Gold.Rescore>
     Score         DG    S(hbond)    S(metal)    S(lipo)     H(rot)  DE(clash)    DE(int)     intcor
     11.74     -15.92       2.67        0.00     102.62       4.10       1.22       2.97       ----

> <Gold.Chemscore.Fitness>
11.7350

> <Gold.Chemscore.DG>
-15.9215

> <Gold.Chemscore.ZeroCoef>
-5.4800

> <Gold.Chemscore.Hbond>
2.6716

> <Gold.Chemscore.Metal>
0.0000

> <Gold.Chemscore.Lipo>
102.6194

> <Gold.Chemscore.Internal_Hbond>
0.0000

> <Gold.Chemscore.DEClash>
1.2184

> <Gold.Chemscore.DEInternal>
2.9681

> <Gold.Chemscore.Rot>
4.0968

> <Gold.Chemscore.Internal.Correction>
   9.000000E+99

> <Gold.Chemscore.Hbonds>
donor molecule, donor type, donor heavy atom, donor atom, acceptor molecule, acceptor atom, score
      L1  H    19    43       P1 10171  0.87
      L1  H    21    44       P1  7948  1.00
      P1  H  7954  7966       L1    19  0.51

> <Gold.Chemscore.Hbond.Weighted>
-8.9230

> <Gold.Chemscore.Metal.Weighted>
-0.0000

> <Gold.Chemscore.Lipo.Weighted>
-12.0065

> <Gold.Chemscore.Internal_Hbond.Weighted>
0.0000

> <Gold.Chemscore.DEClash.Weighted>
1.2184

> <Gold.Chemscore.DEInternal.Weighted>
2.9681

> <Gold.Chemscore.Rot.Weighted>
10.4879

> <Gold.Chemscore.Internal.Correction.Weighted>
   9.000000E+99

> <Gold.Protein.RotatedTorsions>
[ 6907 6896 6895 6894 ] final  -45.61 input  -60.11 | X-H torsion
[ 7974 7965 7964 7962 ] final  -47.21 input  175.53 | X-H torsion
[ 8008 7997 7996 7995 ] final  171.67 input   59.86 | X-H torsion
[ 10167 10162 10161 10158 ] final  -88.61 input  -65.29 | X-H torsion
[ 10718 10713 10712 10709 ] final  -24.65 input   66.30 | X-H torsion
[ 10763 10752 10751 10750 ] final  -25.04 input  -60.55 | X-H torsion
[ 11005 11000 10999 10996 ] final  -72.32 input  -57.11 | X-H torsion

> <Gold.Protein.ActiveResidues>
 VAL166  LYS551  ARG553  GLY616  TRP617  ASP618  TYR619  PRO620  LYS621  CYS622 
 ASP623  PHE694  ASN695  SER759  ASP760  ASP761  ALA762  ILE779  LEU786  VAL792 
 PHE793  MET794  SER795  GLU796  ALA797  LYS798  CYS799  TRP800  GLU811  SER814 

> <Gold.Protein.RotatedAtoms>
  150.9200  134.8618  159.7482 H   0  0  0  0  0  0  0  0  0  0  0  0  # atno 6907 bound_to 6896
  152.4988  134.4231  159.9497 H   0  0  0  0  0  0  0  0  0  0  0  0  # atno 6908 bound_to 6896
  151.4266  133.3643  159.2798 H   0  0  0  0  0  0  0  0  0  0  0  0  # atno 6909 bound_to 6896
  145.9640  140.7451  142.9443 H   0  0  0  0  0  0  0  0  0  0  0  0  # atno 7974 bound_to 7965
  156.1249  140.1506  156.9151 H   0  0  0  0  0  0  0  0  0  0  0  0  # atno 8008 bound_to 7997
  154.4864  140.0864  156.7536 H   0  0  0  0  0  0  0  0  0  0  0  0  # atno 8009 bound_to 7997
  155.4362  140.3429  155.4287 H   0  0  0  0  0  0  0  0  0  0  0  0  # atno 8010 bound_to 7997
  140.3729  143.2785  151.9478 H   0  0  0  0  0  0  0  0  0  0  0  0  # atno 10167 bound_to 10162
  156.4749  130.4532  149.6847 H   0  0  0  0  0  0  0  0  0  0  0  0  # atno 10718 bound_to 10713
  153.6935  135.6960  153.5083 H   0  0  0  0  0  0  0  0  0  0  0  0  # atno 10763 bound_to 10752
  153.2395  135.4310  155.0682 H   0  0  0  0  0  0  0  0  0  0  0  0  # atno 10764 bound_to 10752
  154.8365  135.3504  154.6476 H   0  0  0  0  0  0  0  0  0  0  0  0  # atno 10765 bound_to 10752
  141.1606  133.6843  156.7041 H   0  0  0  0  0  0  0  0  0  0  0  0  # atno 11005 bound_to 11000
  144.6821  140.2638  143.7315 LP  0  0  0  0  0  0  0  0  0  0  0  0  # atno 17320 bound_to 7965
  145.8000  139.1960  143.2053 LP  0  0  0  0  0  0  0  0  0  0  0  0  # atno 17321 bound_to 7965
  139.4802  144.5890  151.7805 LP  0  0  0  0  0  0  0  0  0  0  0  0  # atno 17342 bound_to 10162
  140.5015  144.1162  150.5972 LP  0  0  0  0  0  0  0  0  0  0  0  0  # atno 17343 bound_to 10162
  156.3581  130.7467  151.2435 LP  0  0  0  0  0  0  0  0  0  0  0  0  # atno 17370 bound_to 10713
  157.7488  131.0358  150.4380 LP  0  0  0  0  0  0  0  0  0  0  0  0  # atno 17371 bound_to 10713
  140.2936  134.8220  157.4038 LP  0  0  0  0  0  0  0  0  0  0  0  0  # atno 17394 bound_to 11000
  140.1324  134.5077  155.8095 LP  0  0  0  0  0  0  0  0  0  0  0  0  # atno 17395 bound_to 11000

$$$$
