AV-unprocessed.smi:1748|AV-procd|sdf|7037|dock6
  -GOLD-   22720 8253D 1   1.00000     0.00000
 Structure written by MMmdl.
 40 41  0  0  0  0  0  0  0  0  2 V2000
  145.2864  143.6014  153.7940 C   0  0  0  0  0  0  0  0  0  0  0  0
  145.5939  142.2044  154.1676 N   0  3  2  0  0  0  0  0  0  0  0  0
  145.6586  142.0120  155.6382 C   0  0  0  0  0  0  0  0  0  0  0  0
  145.8503  140.5278  155.9951 C   0  0  0  0  0  0  0  0  0  0  0  0
  147.0816  139.9366  155.2872 C   0  0  0  0  0  0  0  0  0  0  0  0
  147.0197  140.1866  153.7692 C   0  0  1  0  0  0  0  0  0  0  0  0
  145.9598  139.3723  153.1739 N   0  0  0  0  0  0  0  0  0  0  0  0
  145.8726  138.0366  153.2478 C   0  0  0  0  0  0  0  0  0  0  0  0
  146.7107  137.3390  153.8175 O   0  0  0  0  0  0  0  0  0  0  0  0
  144.7764  137.5917  152.6066 N   0  0  0  0  0  0  0  0  0  0  0  0
  144.3016  136.2775  152.4562 C   0  0  0  0  0  0  0  0  0  0  0  0
  144.7890  135.3678  151.5722 C   0  0  0  0  0  0  0  0  0  0  0  0
  144.2567  134.0185  151.4810 C   0  0  0  0  0  0  0  0  0  0  0  0
  144.7561  133.0367  150.4323 C   0  0  0  0  0  0  0  0  0  0  0  0
  146.0871  132.9864  150.4569 F   0  0  0  0  0  0  0  0  0  0  0  0
  144.2891  131.8076  150.6560 F   0  0  0  0  0  0  0  0  0  0  0  0
  144.3781  133.4119  149.2104 F   0  0  0  0  0  0  0  0  0  0  0  0
  143.2456  133.7144  152.3155 C   0  0  0  0  0  0  0  0  0  0  0  0
  142.7529  134.6366  153.2414 N   0  0  0  0  0  0  0  0  0  0  0  0
  143.2114  135.9015  153.3717 C   0  0  0  0  0  0  0  0  0  0  0  0
  142.7217  136.6570  154.2107 O   0  0  0  0  0  0  0  0  0  0  0  0
  146.8127  141.6927  153.4917 C   0  0  0  0  0  0  0  0  0  0  0  0
  142.0037  134.3265  153.8434 H   0  0  0  0  0  0  0  0  0  0  0  0
  146.0792  144.2768  154.1182 H   0  0  0  0  0  0  0  0  0  0  0  0
  144.3512  143.9256  154.2517 H   0  0  0  0  0  0  0  0  0  0  0  0
  145.1765  143.6954  152.7131 H   0  0  0  0  0  0  0  0  0  0  0  0
  146.4776  142.6051  156.0484 H   0  0  0  0  0  0  0  0  0  0  0  0
  144.7398  142.3804  156.0967 H   0  0  0  0  0  0  0  0  0  0  0  0
  145.9541  140.4158  157.0747 H   0  0  0  0  0  0  0  0  0  0  0  0
  144.9575  139.9672  155.7152 H   0  0  0  0  0  0  0  0  0  0  0  0
  147.9838  140.3975  155.6918 H   0  0  0  0  0  0  0  0  0  0  0  0
  147.1636  138.8694  155.4975 H   0  0  0  0  0  0  0  0  0  0  0  0
  147.9706  139.8738  153.3335 H   0  0  0  0  0  0  0  0  0  0  0  0
  145.2244  139.8671  152.6900 H   0  0  0  0  0  0  0  0  0  0  0  0
  144.2176  138.2899  152.1377 H   0  0  0  0  0  0  0  0  0  0  0  0
  145.6089  135.6111  150.9167 H   0  0  0  0  0  0  0  0  0  0  0  0
  142.7391  132.7606  152.3360 H   0  0  0  0  0  0  0  0  0  0  0  0
  146.7395  141.8722  152.4183 H   0  0  0  0  0  0  0  0  0  0  0  0
  147.6800  142.2569  153.8383 H   0  0  0  0  0  0  0  0  0  0  0  0
  144.8231  141.6428  153.8346 H   0  0  0  0  0  0  0  0  0  0  0  0
  1  2  1  0  0  0  0
  1 24  1  0  0  0  0
  1 25  1  0  0  0  0
  1 26  1  0  0  0  0
  2 22  1  0  0  0  0
  2  3  1  0  0  0  0
  2 40  1  0  0  0  0
  3  4  1  0  0  0  0
  3 27  1  0  0  0  0
  3 28  1  0  0  0  0
  4  5  1  0  0  0  0
  4 29  1  0  0  0  0
  4 30  1  0  0  0  0
  5  6  1  0  0  0  0
  5 31  1  0  0  0  0
  5 32  1  0  0  0  0
  6  7  1  0  0  0  0
  6 22  1  0  0  0  0
  6 33  1  0  0  0  0
  7  8  1  0  0  0  0
  7 34  1  0  0  0  0
  8  9  2  0  0  0  0
  8 10  1  0  0  0  0
 10 11  1  0  0  0  0
 10 35  1  0  0  0  0
 11 20  1  0  0  0  0
 11 12  2  0  0  0  0
 12 13  1  0  0  0  0
 12 36  1  0  0  0  0
 13 14  1  0  0  0  0
 13 18  2  0  0  0  0
 14 15  1  0  0  0  0
 14 16  1  0  0  0  0
 14 17  1  0  0  0  0
 18 19  1  0  0  0  0
 18 37  1  0  0  0  0
 19 23  1  0  0  0  0
 19 20  1  0  0  0  0
 20 21  2  0  0  0  0
 22 38  1  0  0  0  0
 22 39  1  0  0  0  0
M  CHG  1   2   1
M  END
> <s_m_source_file>
AV-unprocessed.smi

> <i_m_source_file_index>
1748

> <i_lp_mmshare_version>
43012

> <i_f3d_flags>
0

> <s_epik_input>
W0NIM11OMVtDSDJdW0NIMl1bQ0gyXVtDQEhdKFtDSDJdMSlbTkhdQyg9TylbTkhdYzJbY0hdYyhDKEYpKEYpRilbY0hdW25IXWMyPU8=

> <s_epik_cmdline>
J2VwaWtfcHl0aG9uJywgJy1waCcsICc3LjAnLCAnLXRuJywgJzgnLCAnLW1hJywgJzIwMCcsICctbWV0YWxfYmluZGluZycsICctaW1hZScsICc8aW5maWxlLm1hZT4nLCAnLW9tYWUnLCAnPG91dGZpbGUubWFlPic=

> <r_lp_tautomer_probability>
1

> <r_epik_Ionization_Penalty>
0.00746315

> <r_epik_Ionization_Penalty_Charging>
0.00744398

> <r_epik_Ionization_Penalty_Neutral>
1.91704e-05

> <r_epik_State_Penalty>
-0

> <r_epik_Charging_Adjusted_Penalty>
0.00744398

> <i_epik_Tot_Q>
1

> <i_epik_Tot_abs_Q>
1

> <r_epik_Metal_State_Penalty>
0.379332

> <b_epik_Metal_Only>
0

> <s_lp_Force_Field>
OPLS_2005

> <r_lp_Energy>
33.6429

> <b_lp_Chiralities_Consistent>
1

> <s_lp_Variant>
AV-unprocessed.smi:1748-2

> <Gold.Version>
5.8.1

> <Gold.Id.Protein>
6NUR|6NUR_protein|mol2

> <Gold.PLP.Fitness>
39.8370

> <Gold.PLP.PLP>
-33.4004

> <Gold.PLP.part.hbond>
-3.8557

> <Gold.PLP.part.metal>
0.0000

> <Gold.PLP.part.buried>
-4.7149

> <Gold.PLP.part.nonpolar>
-27.0229

> <Gold.PLP.part.repulsive>
0.2046

> <Gold.PLP.ligand.clash>
0.5552

> <Gold.PLP.ligand.torsion>
1.0901

> <Gold.PLP.Chemscore.Hbond>
2.7139

> <Gold.PLP.Chemscore.CHOScore>
0.3328

> <Gold.PLP.Chemscore.Metal>
0.0000

> <Gold.Chemscore.Hbonds>
donor molecule, donor type, donor heavy atom, donor atom, acceptor molecule, acceptor atom, score
      L1  H     2    40       P1 10175  1.27
      L1  H     7    34       P1 10175  1.00
      L1  H    10    35       P1 10175  0.35
      L1  C    18    37       P1 10957  0.33

> <Gold.PLP.Chemscore.Internal.Correction>
0.0319

> <Gold.Rescore>
     Score         DG    S(hbond)    S(metal)    S(lipo)     H(rot)  DE(clash)    DE(int)     intcor
     13.87     -15.59       1.95        0.00      52.67       1.00       0.87       0.85       ----

> <Gold.Chemscore.Fitness>
13.8734

> <Gold.Chemscore.DG>
-15.5907

> <Gold.Chemscore.ZeroCoef>
-5.4800

> <Gold.Chemscore.Hbond>
1.9484

> <Gold.Chemscore.Metal>
0.0000

> <Gold.Chemscore.Lipo>
52.6745

> <Gold.Chemscore.Internal_Hbond>
0.0000

> <Gold.Chemscore.DEClash>
0.8713

> <Gold.Chemscore.DEInternal>
0.8460

> <Gold.Chemscore.Rot>
1.0000

> <Gold.Chemscore.Internal.Correction>
   9.000000E+99

> <Gold.Chemscore.Hbonds>
donor molecule, donor type, donor heavy atom, donor atom, acceptor molecule, acceptor atom, score
      L1  H     2    40       P1 10175  0.08
      L1  H     7    34       P1 10175  0.99
      L1  H    10    35       P1 10175  0.36

> <Gold.Chemscore.Hbond.Weighted>
-6.5077

> <Gold.Chemscore.Metal.Weighted>
-0.0000

> <Gold.Chemscore.Lipo.Weighted>
-6.1629

> <Gold.Chemscore.Internal_Hbond.Weighted>
0.0000

> <Gold.Chemscore.DEClash.Weighted>
0.8713

> <Gold.Chemscore.DEInternal.Weighted>
0.8460

> <Gold.Chemscore.Rot.Weighted>
2.5600

> <Gold.Chemscore.Internal.Correction.Weighted>
   9.000000E+99

> <Gold.Protein.RotatedTorsions>
[ 6907 6896 6895 6894 ] final  166.72 input  -60.11 | X-H torsion
[ 7974 7965 7964 7962 ] final   92.75 input  175.53 | X-H torsion
[ 8008 7997 7996 7995 ] final   -2.29 input   59.86 | X-H torsion
[ 10167 10162 10161 10158 ] final -122.62 input  -65.29 | X-H torsion
[ 10718 10713 10712 10709 ] final -105.58 input   66.30 | X-H torsion
[ 10763 10752 10751 10750 ] final   89.62 input  -60.55 | X-H torsion
[ 11005 11000 10999 10996 ] final  -98.29 input  -57.11 | X-H torsion

> <Gold.Protein.ActiveResidues>
 VAL166  LYS551  ARG553  GLY616  TRP617  ASP618  TYR619  PRO620  LYS621  CYS622 
 ASP623  PHE694  ASN695  SER759  ASP760  ASP761  ALA762  ILE779  LEU786  VAL792 
 PHE793  MET794  SER795  GLU796  ALA797  LYS798  CYS799  TRP800  GLU811  SER814 

> <Gold.Protein.RotatedAtoms>
  151.8745  133.3482  159.3745 H   0  0  0  0  0  0  0  0  0  0  0  0  # atno 6907 bound_to 6896
  150.7144  134.5080  159.5603 H   0  0  0  0  0  0  0  0  0  0  0  0  # atno 6908 bound_to 6896
  152.2619  134.8025  160.0480 H   0  0  0  0  0  0  0  0  0  0  0  0  # atno 6909 bound_to 6896
  145.4881  139.2277  143.2845 H   0  0  0  0  0  0  0  0  0  0  0  0  # atno 7974 bound_to 7965
  154.6374  140.2538  155.7362 H   0  0  0  0  0  0  0  0  0  0  0  0  # atno 8008 bound_to 7997
  156.2511  140.2894  156.0673 H   0  0  0  0  0  0  0  0  0  0  0  0  # atno 8009 bound_to 7997
  155.1650  140.0385  157.2841 H   0  0  0  0  0  0  0  0  0  0  0  0  # atno 8010 bound_to 7997
  140.0123  143.5429  152.2257 H   0  0  0  0  0  0  0  0  0  0  0  0  # atno 10167 bound_to 10162
  156.0352  130.5571  150.7559 H   0  0  0  0  0  0  0  0  0  0  0  0  # atno 10718 bound_to 10713
  153.1889  135.4464  155.0124 H   0  0  0  0  0  0  0  0  0  0  0  0  # atno 10763 bound_to 10752
  154.8078  135.3281  154.7388 H   0  0  0  0  0  0  0  0  0  0  0  0  # atno 10764 bound_to 10752
  153.7844  135.6975  153.4938 H   0  0  0  0  0  0  0  0  0  0  0  0  # atno 10765 bound_to 10752
  141.1350  133.8234  157.0819 H   0  0  0  0  0  0  0  0  0  0  0  0  # atno 11005 bound_to 11000
  146.2301  140.5673  142.8979 LP  0  0  0  0  0  0  0  0  0  0  0  0  # atno 17320 bound_to 7965
  144.7850  140.5917  143.6580 LP  0  0  0  0  0  0  0  0  0  0  0  0  # atno 17321 bound_to 7965
  139.6196  144.7626  151.2769 LP  0  0  0  0  0  0  0  0  0  0  0  0  # atno 17342 bound_to 10162
  140.7376  143.6672  150.8112 LP  0  0  0  0  0  0  0  0  0  0  0  0  # atno 17343 bound_to 10162
  157.5091  131.0924  151.0220 LP  0  0  0  0  0  0  0  0  0  0  0  0  # atno 17370 bound_to 10713
  157.0580  130.5814  149.5381 LP  0  0  0  0  0  0  0  0  0  0  0  0  # atno 17371 bound_to 10713
  140.0446  134.9837  157.1025 LP  0  0  0  0  0  0  0  0  0  0  0  0  # atno 17394 bound_to 11000
  140.4082  134.2009  155.7163 LP  0  0  0  0  0  0  0  0  0  0  0  0  # atno 17395 bound_to 11000

$$$$
