AV-unprocessed.smi:972|AV-procd|sdf|4296|dock5
  -GOLD-   22720 2203D 1   1.00000     0.00000
 Structure written by MMmdl.
 51 53  0  0  0  0  0  0  0  0  2 V2000
  152.8949  144.5796  158.2068 C   0  0  0  0  0  0  0  0  0  0  0  0
  152.1751  143.7745  159.3148 C   0  0  0  0  0  0  0  0  0  0  0  0
  153.2924  143.1651  160.1941 C   0  0  0  0  0  0  0  0  0  0  0  0
  151.3115  144.7250  160.1638 C   0  0  0  0  0  0  0  0  0  0  0  0
  151.2842  142.6747  158.7110 C   0  0  0  0  0  0  0  0  0  0  0  0
  151.5138  141.4165  159.1088 N   0  0  0  0  0  0  0  0  0  0  0  0
  150.8317  140.4258  158.4957 C   0  0  0  0  0  0  0  0  0  0  0  0
  149.9286  140.6900  157.4377 C   0  0  0  0  0  0  0  0  0  0  0  0
  149.1590  139.7168  156.7432 N   0  0  0  0  0  0  0  0  0  0  0  0
  149.3536  138.3895  156.6601 C   0  0  0  0  0  0  0  0  0  0  0  0
  150.2874  137.7701  157.1681 O   0  0  0  0  0  0  0  0  0  0  0  0
  148.3941  137.8042  155.9286 N   0  0  0  0  0  0  0  0  0  0  0  0
  148.3047  136.3728  155.6521 C   0  0  2  0  0  0  0  0  0  0  0  0
  149.6166  135.8435  155.0423 C   0  0  0  0  0  0  0  0  0  0  0  0
  149.4907  134.3594  154.6589 C   0  0  0  0  0  0  0  0  0  0  0  0
  148.3542  134.1421  153.7298 N   0  3  1  0  0  0  0  0  0  0  0  0
  148.2784  132.7417  153.2595 C   0  0  0  0  0  0  0  0  0  0  0  0
  146.9111  132.3416  152.7559 C   0  0  0  0  0  0  0  0  0  0  0  0
  147.3895  131.8633  154.1088 C   0  0  0  0  0  0  0  0  0  0  0  0
  147.0708  134.6063  154.3131 C   0  0  0  0  0  0  0  0  0  0  0  0
  147.1402  136.0969  154.6864 C   0  0  0  0  0  0  0  0  0  0  0  0
  149.7902  142.0458  157.0787 C   0  0  0  0  0  0  0  0  0  0  0  0
  150.4786  143.0259  157.7001 N   0  0  0  0  0  0  0  0  0  0  0  0
  153.5629  145.3295  158.6316 H   0  0  0  0  0  0  0  0  0  0  0  0
  152.1917  145.1131  157.5663 H   0  0  0  0  0  0  0  0  0  0  0  0
  153.4955  143.9298  157.5695 H   0  0  0  0  0  0  0  0  0  0  0  0
  153.9061  142.4638  159.6273 H   0  0  0  0  0  0  0  0  0  0  0  0
  152.8895  142.6311  161.0555 H   0  0  0  0  0  0  0  0  0  0  0  0
  153.9551  143.9373  160.5863 H   0  0  0  0  0  0  0  0  0  0  0  0
  151.9124  145.5187  160.6089 H   0  0  0  0  0  0  0  0  0  0  0  0
  150.8173  144.1914  160.9766 H   0  0  0  0  0  0  0  0  0  0  0  0
  150.5350  145.1983  159.5618 H   0  0  0  0  0  0  0  0  0  0  0  0
  151.0213  139.4349  158.8759 H   0  0  0  0  0  0  0  0  0  0  0  0
  148.3714  140.0815  156.2274 H   0  0  0  0  0  0  0  0  0  0  0  0
  147.6667  138.3903  155.5456 H   0  0  0  0  0  0  0  0  0  0  0  0
  148.1067  135.8431  156.5862 H   0  0  0  0  0  0  0  0  0  0  0  0
  149.8769  136.4261  154.1573 H   0  0  0  0  0  0  0  0  0  0  0  0
  150.4396  135.9686  155.7469 H   0  0  0  0  0  0  0  0  0  0  0  0
  150.4170  134.0261  154.1892 H   0  0  0  0  0  0  0  0  0  0  0  0
  149.3527  133.7500  155.5535 H   0  0  0  0  0  0  0  0  0  0  0  0
  149.1766  132.3371  152.7961 H   0  0  0  0  0  0  0  0  0  0  0  0
  146.1261  133.0955  152.7384 H   0  0  0  0  0  0  0  0  0  0  0  0
  146.8666  131.6062  151.9550 H   0  0  0  0  0  0  0  0  0  0  0  0
  147.6593  130.8130  154.1988 H   0  0  0  0  0  0  0  0  0  0  0  0
  146.9205  132.2996  154.9892 H   0  0  0  0  0  0  0  0  0  0  0  0
  146.2642  134.4477  153.5963 H   0  0  0  0  0  0  0  0  0  0  0  0
  146.8326  134.0086  155.1947 H   0  0  0  0  0  0  0  0  0  0  0  0
  146.1971  136.4076  155.1382 H   0  0  0  0  0  0  0  0  0  0  0  0
  147.2598  136.6915  153.7791 H   0  0  0  0  0  0  0  0  0  0  0  0
  149.1280  142.3494  156.2811 H   0  0  0  0  0  0  0  0  0  0  0  0
  148.5290  134.7123  152.9145 H   0  0  0  0  0  0  0  0  0  0  0  0
  1  2  1  0  0  0  0
  1 24  1  0  0  0  0
  1 25  1  0  0  0  0
  1 26  1  0  0  0  0
  2  3  1  0  0  0  0
  2  4  1  0  0  0  0
  2  5  1  0  0  0  0
  3 27  1  0  0  0  0
  3 28  1  0  0  0  0
  3 29  1  0  0  0  0
  4 30  1  0  0  0  0
  4 31  1  0  0  0  0
  4 32  1  0  0  0  0
  5 23  1  0  0  0  0
  5  6  2  0  0  0  0
  6  7  1  0  0  0  0
  7  8  2  0  0  0  0
  7 33  1  0  0  0  0
  8  9  1  0  0  0  0
  8 22  1  0  0  0  0
  9 10  1  0  0  0  0
  9 34  1  0  0  0  0
 10 11  2  0  0  0  0
 10 12  1  0  0  0  0
 12 13  1  0  0  0  0
 12 35  1  0  0  0  0
 13 21  1  0  0  0  0
 13 14  1  0  0  0  0
 13 36  1  0  0  0  0
 14 15  1  0  0  0  0
 14 37  1  0  0  0  0
 14 38  1  0  0  0  0
 15 16  1  0  0  0  0
 15 39  1  0  0  0  0
 15 40  1  0  0  0  0
 16 17  1  0  0  0  0
 16 20  1  0  0  0  0
 16 51  1  0  0  0  0
 17 19  1  0  0  0  0
 17 18  1  0  0  0  0
 17 41  1  0  0  0  0
 18 19  1  0  0  0  0
 18 42  1  0  0  0  0
 18 43  1  0  0  0  0
 19 44  1  0  0  0  0
 19 45  1  0  0  0  0
 20 21  1  0  0  0  0
 20 46  1  0  0  0  0
 20 47  1  0  0  0  0
 21 48  1  0  0  0  0
 21 49  1  0  0  0  0
 22 23  2  0  0  0  0
 22 50  1  0  0  0  0
M  CHG  1  16   1
M  END
> <s_m_source_file>
AV-unprocessed.smi

> <i_m_source_file_index>
972

> <i_lp_mmshare_version>
43012

> <i_f3d_flags>
0

> <s_epik_input>
W0NIM11DKFtDSDNdKShbQ0gzXSljMW5bY0hdYyhbY0hdbjEpW05IXUMoPU8pW05IXVtDSF0yW0NIMl1bQ0gyXU4oW0NIMl1bQ0gyXTIpW0NIXTNbQ0gyXVtDSDJdMw==

> <s_epik_cmdline>
J2VwaWtfcHl0aG9uJywgJy1waCcsICc3LjAnLCAnLXRuJywgJzgnLCAnLW1hJywgJzIwMCcsICctbWV0YWxfYmluZGluZycsICctaW1hZScsICc8aW5maWxlLm1hZT4nLCAnLW9tYWUnLCAnPG91dGZpbGUubWFlPic=

> <r_lp_tautomer_probability>
1

> <r_epik_Ionization_Penalty>
0.123264

> <r_epik_Ionization_Penalty_Charging>
0.123242

> <r_epik_Ionization_Penalty_Neutral>
2.24743e-05

> <r_epik_State_Penalty>
0.112739

> <r_epik_Charging_Adjusted_Penalty>
0.235981

> <i_epik_Tot_Q>
1

> <i_epik_Tot_abs_Q>
1

> <r_epik_Metal_State_Penalty>
0.112739

> <b_epik_Metal_Only>
0

> <s_lp_Force_Field>
OPLS_2005

> <r_lp_Energy>
25.9284

> <b_lp_Chiralities_Consistent>
1

> <s_lp_Variant>
AV-unprocessed.smi:972-1

> <Gold.Version>
5.8.1

> <Gold.Id.Protein>
6NUR|6NUR_protein|mol2

> <Gold.PLP.Fitness>
42.2804

> <Gold.PLP.PLP>
-34.4979

> <Gold.PLP.part.hbond>
-1.0000

> <Gold.PLP.part.metal>
0.0000

> <Gold.PLP.part.buried>
-4.3875

> <Gold.PLP.part.nonpolar>
-29.4068

> <Gold.PLP.part.repulsive>
0.3346

> <Gold.PLP.ligand.clash>
0.0000

> <Gold.PLP.ligand.torsion>
1.0174

> <Gold.PLP.Chemscore.Hbond>
2.0000

> <Gold.PLP.Chemscore.CHOScore>
0.8067

> <Gold.PLP.Chemscore.Metal>
0.0000

> <Gold.Chemscore.Hbonds>
donor molecule, donor type, donor heavy atom, donor atom, acceptor molecule, acceptor atom, score
      L1  H    16    51       P1  7948  2.00
      L1  C    22    50       P1  8028  0.83

> <Gold.PLP.Chemscore.Internal.Correction>
1.3973

> <Gold.Rescore>
     Score         DG    S(hbond)    S(metal)    S(lipo)     H(rot)  DE(clash)    DE(int)     intcor
     12.45     -15.63       0.68        0.00      96.09       1.32       0.05       3.13       ----

> <Gold.Chemscore.Fitness>
12.4461

> <Gold.Chemscore.DG>
-15.6293

> <Gold.Chemscore.ZeroCoef>
-5.4800

> <Gold.Chemscore.Hbond>
0.6848

> <Gold.Chemscore.Metal>
0.0000

> <Gold.Chemscore.Lipo>
96.0926

> <Gold.Chemscore.Internal_Hbond>
0.0000

> <Gold.Chemscore.DEClash>
0.0500

> <Gold.Chemscore.DEInternal>
3.1332

> <Gold.Chemscore.Rot>
1.3207

> <Gold.Chemscore.Internal.Correction>
   9.000000E+99

> <Gold.Chemscore.Hbonds>
donor molecule, donor type, donor heavy atom, donor atom, acceptor molecule, acceptor atom, score
      L1  H    16    51       P1  7948  0.35

> <Gold.Chemscore.Hbond.Weighted>
-2.2873

> <Gold.Chemscore.Metal.Weighted>
-0.0000

> <Gold.Chemscore.Lipo.Weighted>
-11.2428

> <Gold.Chemscore.Internal_Hbond.Weighted>
0.0000

> <Gold.Chemscore.DEClash.Weighted>
0.0500

> <Gold.Chemscore.DEInternal.Weighted>
3.1332

> <Gold.Chemscore.Rot.Weighted>
3.3809

> <Gold.Chemscore.Internal.Correction.Weighted>
   9.000000E+99

> <Gold.Protein.RotatedTorsions>
[ 6907 6896 6895 6894 ] final   55.93 input  -60.11 | X-H torsion
[ 7974 7965 7964 7962 ] final -150.81 input  175.53 | X-H torsion
[ 8008 7997 7996 7995 ] final -131.36 input   59.86 | X-H torsion
[ 10167 10162 10161 10158 ] final -172.15 input  -65.29 | X-H torsion
[ 10718 10713 10712 10709 ] final  -71.69 input   66.30 | X-H torsion
[ 10763 10752 10751 10750 ] final  -60.64 input  -60.55 | X-H torsion
[ 11005 11000 10999 10996 ] final   48.19 input  -57.11 | X-H torsion

> <Gold.Protein.ActiveResidues>
 VAL166  LYS551  ARG553  GLY616  TRP617  ASP618  TYR619  PRO620  LYS621  CYS622 
 ASP623  PHE694  ASN695  SER759  ASP760  ASP761  ALA762  ILE779  LEU786  VAL792 
 PHE793  MET794  SER795  GLU796  ALA797  LYS798  CYS799  TRP800  GLU811  SER814 

> <Gold.Protein.RotatedAtoms>
  152.3586  134.6904  160.0213 H   0  0  0  0  0  0  0  0  0  0  0  0  # atno 6907 bound_to 6896
  151.7235  133.3310  159.3329 H   0  0  0  0  0  0  0  0  0  0  0  0  # atno 6908 bound_to 6896
  150.7589  134.6361  159.6257 H   0  0  0  0  0  0  0  0  0  0  0  0  # atno 6909 bound_to 6896
  144.7886  140.4881  143.5789 H   0  0  0  0  0  0  0  0  0  0  0  0  # atno 7974 bound_to 7965
  155.3110  140.0457  157.3035 H   0  0  0  0  0  0  0  0  0  0  0  0  # atno 8008 bound_to 7997
  154.5433  140.2294  155.8572 H   0  0  0  0  0  0  0  0  0  0  0  0  # atno 8009 bound_to 7997
  156.1901  140.3053  155.9321 H   0  0  0  0  0  0  0  0  0  0  0  0  # atno 8010 bound_to 7997
  139.5761  144.1529  152.1452 H   0  0  0  0  0  0  0  0  0  0  0  0  # atno 10167 bound_to 10162
  156.0352  130.4356  150.2482 H   0  0  0  0  0  0  0  0  0  0  0  0  # atno 10718 bound_to 10713
  154.2724  135.6287  153.5315 H   0  0  0  0  0  0  0  0  0  0  0  0  # atno 10763 bound_to 10752
  152.9878  135.5613  154.5585 H   0  0  0  0  0  0  0  0  0  0  0  0  # atno 10764 bound_to 10752
  154.5158  135.2879  155.1279 H   0  0  0  0  0  0  0  0  0  0  0  0  # atno 10765 bound_to 10752
  140.1213  134.4826  155.8595 H   0  0  0  0  0  0  0  0  0  0  0  0  # atno 11005 bound_to 11000
  145.5856  139.1492  143.3211 LP  0  0  0  0  0  0  0  0  0  0  0  0  # atno 17320 bound_to 7965
  146.2128  140.5984  142.9052 LP  0  0  0  0  0  0  0  0  0  0  0  0  # atno 17321 bound_to 7965
  140.1073  144.5488  150.6949 LP  0  0  0  0  0  0  0  0  0  0  0  0  # atno 17342 bound_to 10162
  140.7043  143.2457  151.4772 LP  0  0  0  0  0  0  0  0  0  0  0  0  # atno 17343 bound_to 10162
  157.0582  131.0082  151.3231 LP  0  0  0  0  0  0  0  0  0  0  0  0  # atno 17370 bound_to 10713
  157.5090  130.7927  149.7685 LP  0  0  0  0  0  0  0  0  0  0  0  0  # atno 17371 bound_to 10713
  141.2152  133.6761  156.6893 LP  0  0  0  0  0  0  0  0  0  0  0  0  # atno 17394 bound_to 11000
  140.2962  134.8201  157.4059 LP  0  0  0  0  0  0  0  0  0  0  0  0  # atno 17395 bound_to 11000

$$$$
