AV-unprocessed.smi:1455|AV-procd|sdf|5916|dock1
  -GOLD-   22720 6 03D 1   1.00000     0.00000
 Structure written by MMmdl.
 31 32  0  0  0  0  0  0  0  0  2 V2000
  155.0684  139.8282  159.1927 O   0  0  0  0  0  0  0  0  0  0  0  0
  153.8692  139.7374  159.4536 C   0  0  0  0  0  0  0  0  0  0  0  0
  153.0816  138.5188  158.9416 C   0  0  0  0  0  0  0  0  0  0  0  0
  152.4354  138.7072  157.6296 N   0  0  0  0  0  0  0  0  0  0  0  0
  151.6748  139.8749  157.4427 C   0  0  0  0  0  0  0  0  0  0  0  0
  151.0577  140.1422  156.2761 C   0  0  0  0  0  0  0  0  0  0  0  0
  151.1925  139.1813  155.1883 C   0  0  0  0  0  0  0  0  0  0  0  0
  150.6341  139.4074  154.1167 O   0  0  0  0  0  0  0  0  0  0  0  0
  151.9440  138.0649  155.4174 N   0  5  0  0  0  0  0  0  0  0  0  0
  152.5690  137.8079  156.6082 C   0  0  0  0  0  0  0  0  0  0  0  0
  153.2524  136.8002  156.7894 O   0  0  0  0  0  0  0  0  0  0  0  0
  153.2123  140.6563  160.1811 N   0  0  0  0  0  0  0  0  0  0  0  0
  153.7987  141.8625  160.7549 C   0  0  0  0  0  0  0  0  0  0  0  0
  153.7089  141.8599  162.2955 C   0  0  0  0  0  0  0  0  0  0  0  0
  153.0785  143.1976  162.6884 C   0  0  0  0  0  0  0  0  0  0  0  0
  152.2134  143.5760  161.4902 C   0  0  0  0  0  0  0  0  0  0  0  0
  153.0266  143.1078  160.2837 C   0  0  0  0  0  0  0  0  0  0  0  0
  153.7523  137.6584  158.9162 H   0  0  0  0  0  0  0  0  0  0  0  0
  152.3297  138.2658  159.6903 H   0  0  0  0  0  0  0  0  0  0  0  0
  151.6320  140.5363  158.2956 H   0  0  0  0  0  0  0  0  0  0  0  0
  150.4803  141.0459  156.1474 H   0  0  0  0  0  0  0  0  0  0  0  0
  152.2263  140.5068  160.3427 H   0  0  0  0  0  0  0  0  0  0  0  0
  154.8382  141.9483  160.4333 H   0  0  0  0  0  0  0  0  0  0  0  0
  153.0666  141.0491  162.6434 H   0  0  0  0  0  0  0  0  0  0  0  0
  154.6841  141.7180  162.7622 H   0  0  0  0  0  0  0  0  0  0  0  0
  152.5087  143.1368  163.6160 H   0  0  0  0  0  0  0  0  0  0  0  0
  153.8602  143.9457  162.8259 H   0  0  0  0  0  0  0  0  0  0  0  0
  151.2690  143.0315  161.5309 H   0  0  0  0  0  0  0  0  0  0  0  0
  151.9848  144.6413  161.4550 H   0  0  0  0  0  0  0  0  0  0  0  0
  153.7380  143.8876  160.0087 H   0  0  0  0  0  0  0  0  0  0  0  0
  152.3994  142.9252  159.4097 H   0  0  0  0  0  0  0  0  0  0  0  0
  1  2  2  0  0  0  0
  2  3  1  0  0  0  0
  2 12  1  0  0  0  0
  3  4  1  0  0  0  0
  3 18  1  0  0  0  0
  3 19  1  0  0  0  0
  4 10  1  0  0  0  0
  4  5  1  0  0  0  0
  5  6  2  0  0  0  0
  5 20  1  0  0  0  0
  6  7  1  0  0  0  0
  6 21  1  0  0  0  0
  7  8  2  0  0  0  0
  7  9  1  0  0  0  0
  9 10  1  0  0  0  0
 10 11  2  0  0  0  0
 12 13  1  0  0  0  0
 12 22  1  0  0  0  0
 13 17  1  0  0  0  0
 13 14  1  0  0  0  0
 13 23  1  0  0  0  0
 14 15  1  0  0  0  0
 14 24  1  0  0  0  0
 14 25  1  0  0  0  0
 15 16  1  0  0  0  0
 15 26  1  0  0  0  0
 15 27  1  0  0  0  0
 16 17  1  0  0  0  0
 16 28  1  0  0  0  0
 16 29  1  0  0  0  0
 17 30  1  0  0  0  0
 17 31  1  0  0  0  0
M  CHG  1   9  -1
M  END
> <s_m_source_file>
AV-unprocessed.smi

> <i_m_source_file_index>
1455

> <i_lp_mmshare_version>
43012

> <i_f3d_flags>
0

> <s_epik_input>
W0NIMl0xW0NIMl1bQ0gyXVtDSDJdW0NIXTFbTkhdQyg9TylbQ0gyXW4yW2NIXVtjSF1jKD1PKVtuSF1jMj1P

> <s_epik_cmdline>
J2VwaWtfcHl0aG9uJywgJy1waCcsICc3LjAnLCAnLXRuJywgJzgnLCAnLW1hJywgJzIwMCcsICctbWV0YWxfYmluZGluZycsICctaW1hZScsICc8aW5maWxlLm1hZT4nLCAnLW9tYWUnLCAnPG91dGZpbGUubWFlPic=

> <r_lp_tautomer_probability>
0.999537

> <r_epik_Ionization_Penalty>
3.09122

> <r_epik_Ionization_Penalty_Charging>
2.83991e-08

> <r_epik_Ionization_Penalty_Neutral>
3.09122

> <r_epik_State_Penalty>
3.09028

> <r_epik_Charging_Adjusted_Penalty>
3.09028

> <i_epik_Tot_Q>
-1

> <i_epik_Tot_abs_Q>
1

> <r_epik_Metal_State_Penalty>
0.460928

> <b_epik_Metal_Only>
1

> <s_lp_Force_Field>
OPLS_2005

> <r_lp_Energy>
25.8803

> <b_lp_Chiralities_Consistent>
1

> <s_lp_Variant>
AV-unprocessed.smi:1455-2

> <Gold.Version>
5.8.1

> <Gold.Id.Protein>
6NUR|6NUR_protein|mol2

> <Gold.PLP.Fitness>
41.7970

> <Gold.PLP.PLP>
-33.9628

> <Gold.PLP.part.hbond>
-3.0000

> <Gold.PLP.part.metal>
0.0000

> <Gold.PLP.part.buried>
-4.0010

> <Gold.PLP.part.nonpolar>
-27.2470

> <Gold.PLP.part.repulsive>
0.3078

> <Gold.PLP.ligand.clash>
0.0000

> <Gold.PLP.ligand.torsion>
0.4891

> <Gold.PLP.Chemscore.Hbond>
2.9357

> <Gold.PLP.Chemscore.CHOScore>
0.0000

> <Gold.PLP.Chemscore.Metal>
0.0000

> <Gold.Chemscore.Hbonds>
donor molecule, donor type, donor heavy atom, donor atom, acceptor molecule, acceptor atom, score
      P1  H  7989  7998       L1     8  1.00
      P1  H  7997  8009       L1     1  1.00
      P1  H 10752 10765       L1    11  0.91

> <Gold.PLP.Chemscore.Internal.Correction>
0.0052

> <Gold.Rescore>
     Score         DG    S(hbond)    S(metal)    S(lipo)     H(rot)  DE(clash)    DE(int)     intcor
     16.63     -17.12       2.22        0.00      73.03       1.69       0.00       0.49       ----

> <Gold.Chemscore.Fitness>
16.6279

> <Gold.Chemscore.DG>
-17.1198

> <Gold.Chemscore.ZeroCoef>
-5.4800

> <Gold.Chemscore.Hbond>
2.2200

> <Gold.Chemscore.Metal>
0.0000

> <Gold.Chemscore.Lipo>
73.0340

> <Gold.Chemscore.Internal_Hbond>
0.0000

> <Gold.Chemscore.DEClash>
0.0000

> <Gold.Chemscore.DEInternal>
0.4918

> <Gold.Chemscore.Rot>
1.6875

> <Gold.Chemscore.Internal.Correction>
   9.000000E+99

> <Gold.Chemscore.Hbonds>
donor molecule, donor type, donor heavy atom, donor atom, acceptor molecule, acceptor atom, score
      P1  H  7989  7998       L1     8  0.35
      P1  H  7997  8009       L1     1  0.81
      P1  H 10752 10765       L1    11  0.83

> <Gold.Chemscore.Hbond.Weighted>
-7.4148

> <Gold.Chemscore.Metal.Weighted>
-0.0000

> <Gold.Chemscore.Lipo.Weighted>
-8.5450

> <Gold.Chemscore.Internal_Hbond.Weighted>
0.0000

> <Gold.Chemscore.DEClash.Weighted>
0.0000

> <Gold.Chemscore.DEInternal.Weighted>
0.4918

> <Gold.Chemscore.Rot.Weighted>
4.3200

> <Gold.Chemscore.Internal.Correction.Weighted>
   9.000000E+99

> <Gold.Protein.RotatedTorsions>
[ 6907 6896 6895 6894 ] final -112.11 input  -60.11 | X-H torsion
[ 7974 7965 7964 7962 ] final   54.70 input  175.53 | X-H torsion
[ 8008 7997 7996 7995 ] final  104.86 input   59.86 | X-H torsion
[ 10167 10162 10161 10158 ] final  126.44 input  -65.29 | X-H torsion
[ 10718 10713 10712 10709 ] final  153.79 input   66.30 | X-H torsion
[ 10763 10752 10751 10750 ] final -116.99 input  -60.55 | X-H torsion
[ 11005 11000 10999 10996 ] final   17.77 input  -57.11 | X-H torsion

> <Gold.Protein.ActiveResidues>
 VAL166  LYS551  ARG553  GLY616  TRP617  ASP618  TYR619  PRO620  LYS621  CYS622 
 ASP623  PHE694  ASN695  SER759  ASP760  ASP761  ALA762  ILE779  LEU786  VAL792 
 PHE793  MET794  SER795  GLU796  ALA797  LYS798  CYS799  TRP800  GLU811  SER814 

> <Gold.Protein.RotatedAtoms>
  150.7736  133.9137  159.3376 H   0  0  0  0  0  0  0  0  0  0  0  0  # atno 6907 bound_to 6896
  151.7017  135.0927  160.0261 H   0  0  0  0  0  0  0  0  0  0  0  0  # atno 6908 bound_to 6896
  152.3763  133.6448  159.6162 H   0  0  0  0  0  0  0  0  0  0  0  0  # atno 6909 bound_to 6896
  145.9581  139.4033  143.0265 H   0  0  0  0  0  0  0  0  0  0  0  0  # atno 7974 bound_to 7965
  156.1609  140.3140  155.8806 H   0  0  0  0  0  0  0  0  0  0  0  0  # atno 8008 bound_to 7997
  155.3783  140.0486  157.3061 H   0  0  0  0  0  0  0  0  0  0  0  0  # atno 8009 bound_to 7997
  154.5146  140.2177  155.9101 H   0  0  0  0  0  0  0  0  0  0  0  0  # atno 8010 bound_to 7997
  139.5631  144.6894  151.3987 H   0  0  0  0  0  0  0  0  0  0  0  0  # atno 10167 bound_to 10162
  157.2401  131.0757  151.1798 H   0  0  0  0  0  0  0  0  0  0  0  0  # atno 10718 bound_to 10713
  154.8539  135.4325  154.1909 H   0  0  0  0  0  0  0  0  0  0  0  0  # atno 10763 bound_to 10752
  153.2978  135.6966  153.7238 H   0  0  0  0  0  0  0  0  0  0  0  0  # atno 10764 bound_to 10752
  153.6380  135.3473  155.3037 H   0  0  0  0  0  0  0  0  0  0  0  0  # atno 10765 bound_to 10752
  140.4322  134.1408  155.7682 H   0  0  0  0  0  0  0  0  0  0  0  0  # atno 11005 bound_to 11000
  145.8078  140.9740  143.0964 LP  0  0  0  0  0  0  0  0  0  0  0  0  # atno 17320 bound_to 7965
  144.6809  139.9883  143.7484 LP  0  0  0  0  0  0  0  0  0  0  0  0  # atno 17321 bound_to 7965
  140.6912  143.7856  150.7258 LP  0  0  0  0  0  0  0  0  0  0  0  0  # atno 17342 bound_to 10162
  140.1339  143.4501  152.2237 LP  0  0  0  0  0  0  0  0  0  0  0  0  # atno 17343 bound_to 10162
  157.3387  130.7022  149.6368 LP  0  0  0  0  0  0  0  0  0  0  0  0  # atno 17370 bound_to 10713
  155.9670  130.4286  150.4796 LP  0  0  0  0  0  0  0  0  0  0  0  0  # atno 17371 bound_to 10713
  141.1741  133.8550  157.1479 LP  0  0  0  0  0  0  0  0  0  0  0  0  # atno 17394 bound_to 11000
  140.0126  134.9981  157.0427 LP  0  0  0  0  0  0  0  0  0  0  0  0  # atno 17395 bound_to 11000

$$$$
