#       Name:                AV-unprocessed.smi:3068
#       Creating user name   scv26
#       Creation time:       Fri Mar 27 17:11:02 2020


#       File generated by GOLD software.
#

@<TRIPOS>MOLECULE
AV-unprocessed.smi:3068
    45    47     1
SMALL
NO_CHARGES


@<TRIPOS>ATOM
      1 ****        -1.9697  -5.4915  -1.9881 N.1            1 S1                 0.0000
      2 ****        -2.4652  -4.4458  -1.9690 C.1            1 S1                 0.0000
      3 ****        -3.0887  -3.1287  -1.9448 C.ar           1 S1                 0.0000
      4 ****        -4.4312  -3.0955  -1.7785 N.ar           1 S1                 0.0000
      5 ****        -5.0211  -1.8815  -1.7512 C.ar           1 S1                 0.0000
      6 ****        -4.2750  -0.6955  -1.8919 C.ar           1 S1                 0.0000
      7 ****        -2.9360  -0.7194  -2.0601 N.ar           1 S1                 0.0000
      8 ****        -2.3291  -1.9328  -2.0852 C.ar           1 S1                 0.0000
      9 ****        -0.9330  -1.9750  -2.2589 N.pl3          1 S1                 0.0000
     10 ****        -0.1128  -0.7721  -2.1759 C.3            1 S1                 0.0000
     11 ****         0.0949  -0.3005  -0.7272 C.3            1 S1                 0.0000
     12 ****         0.8002   1.0667  -0.6721 C.3            1 S1                 0.0000
     13 ****         1.0667   1.4852   0.6981 N.3            1 S1                 0.0000
     14 ****         1.7398   2.7822   0.7370 C.3            1 S1                 0.0000
     15 ****         2.0023   3.2633   2.1729 C.3            1 S1                 0.0000
     16 ****         2.8189   2.2165   2.9440 C.3            1 S1                 0.0000
     17 ****         2.1340   0.8439   2.8555 C.3            1 S1                 0.0000
     18 ****         1.8560   0.4599   1.3874 C.3            1 S1                 0.0000
     19 ****         1.1621  -0.9151   1.3059 C.3            1 S1                 0.0000
     20 ****         0.9143  -1.2538  -0.0549 O.3            1 S1                 0.0000
     21 ****        -6.0925  -1.8557  -1.6167 H              1 S1                 0.0000
     22 ****        -4.7528   0.2729  -1.8695 H              1 S1                 0.0000
     23 ****        -0.4636  -2.8690  -2.2298 H              1 S1                 0.0000
     24 ****         0.8524  -0.9812  -2.6374 H              1 S1                 0.0000
     25 ****        -0.5668   0.0204  -2.7719 H              1 S1                 0.0000
     26 ****        -0.8676  -0.2256  -0.2181 H              1 S1                 0.0000
     27 ****         1.7360   1.0152  -1.2312 H              1 S1                 0.0000
     28 ****         0.1805   1.8137  -1.1695 H              1 S1                 0.0000
     29 ****         2.6855   2.7245   0.1957 H              1 S1                 0.0000
     30 ****         1.1322   3.5250   0.2189 H              1 S1                 0.0000
     31 ****         2.5296   4.2174   2.1599 H              1 S1                 0.0000
     32 ****         1.0527   3.4374   2.6809 H              1 S1                 0.0000
     33 ****         3.8228   2.1524   2.5222 H              1 S1                 0.0000
     34 ****         2.9351   2.5167   3.9857 H              1 S1                 0.0000
     35 ****         2.7602   0.0888   3.3317 H              1 S1                 0.0000
     36 ****         1.1975   0.8681   3.4146 H              1 S1                 0.0000
     37 ****         2.8190   0.3688   0.8815 H              1 S1                 0.0000
     38 ****         1.7919  -1.6868   1.7490 H              1 S1                 0.0000
     39 ****         0.2224  -0.9123   1.8606 H              1 S1                 0.0000
     40 ****        -1.5416  -6.3951  -2.0046 LP             1 S1                 0.0000
     41 ****        -4.9645  -3.9357  -1.6799 LP             1 S1                 0.0000
     42 ****        -2.4109   0.1254  -2.1624 LP             1 S1                 0.0000
     43 ****         0.1930   1.5914   1.1729 LP             1 S1                 0.0000
     44 ****         1.7906  -1.3138  -0.5328 LP             1 S1                 0.0000
     45 ****         0.4574  -2.1429  -0.0836 LP             1 S1                 0.0000
@<TRIPOS>BOND
    1    1    2 3     
    2    2    3 1     
    3    3    8 ar    
    4    3    4 ar    
    5    4    5 ar    
    6    5    6 ar    
    7    5   21 1     
    8    6    7 ar    
    9    6   22 1     
   10    7    8 ar    
   11    8    9 1     
   12    9   10 1     
   13    9   23 1     
   14   10   11 1     
   15   10   24 1     
   16   10   25 1     
   17   11   20 1     
   18   11   12 1     
   19   11   26 1     
   20   12   13 1     
   21   12   27 1     
   22   12   28 1     
   23   13   18 1     
   24   13   14 1     
   25   14   15 1     
   26   14   29 1     
   27   14   30 1     
   28   15   16 1     
   29   15   31 1     
   30   15   32 1     
   31   16   17 1     
   32   16   33 1     
   33   16   34 1     
   34   17   18 1     
   35   17   35 1     
   36   17   36 1     
   37   18   19 1     
   38   18   37 1     
   39   19   20 1     
   40   19   38 1     
   41   19   39 1     
   42    1   40 1     
   43    4   41 1     
   44    7   42 1     
   45   13   43 1     
   46   20   44 1     
   47   20   45 1     
@<TRIPOS>SUBSTRUCTURE
      1 S1             1
@<TRIPOS>SET
LONE_PAIRS      STATIC     ATOMS    <user>   **** ""
6 40 41 42 43 44 45
DONOR_HYDROGENS      STATIC     ATOMS    <user>   **** ""
1 23
ATOM$BLUE        STATIC     ATOMS    COLORGROUP SYSTEM
6 40 41 42 43 44 45
ATOM$RED        STATIC     ATOMS    COLORGROUP SYSTEM
1 23
