#       Name:                AV-unprocessed.smi:2242
#       Creating user name   scv26
#       Creation time:       Fri Mar 27 12:26:55 2020


#       File generated by GOLD software.
#

@<TRIPOS>MOLECULE
AV-unprocessed.smi:2242
    48    49     1
SMALL
NO_CHARGES


@<TRIPOS>ATOM
      1 ****        -5.0447   3.6843  -0.0468 C.3            1 S1                 0.0000
      2 ****        -4.3784   2.3331  -0.2005 C.ar           1 S1                 0.0000
      3 ****        -5.1395   1.1486  -0.2260 C.ar           1 S1                 0.0000
      4 ****        -4.4585  -0.0760  -0.3720 C.ar           1 S1                 0.0000
      5 ****        -5.2128  -1.3884  -0.4032 C.3            1 S1                 0.0000
      6 ****        -3.1161  -0.1636  -0.4877 N.ar           1 S1                 0.0000
      7 ****        -2.3731   0.9705  -0.4647 C.ar           1 S1                 0.0000
      8 ****        -0.9575   0.9872  -0.5735 N.am           1 S1                 0.0000
      9 ****        -0.1271  -0.0493  -0.7837 C.2            1 S1                 0.0000
     10 ****        -0.4759  -1.2184  -0.9511 O.2            1 S1                 0.0000
     11 ****         1.1529   0.3535  -0.7912 N.am           1 S1                 0.0000
     12 ****         2.3232  -0.4932  -1.0263 C.3            1 S1                 0.0000
     13 ****         3.1622   0.1659  -2.1349 C.3            1 S1                 0.0000
     14 ****         3.1129  -0.7206   0.2916 C.3            1 S1                 0.0000
     15 ****         4.3568  -1.6106   0.0920 C.3            1 S1                 0.0000
     16 ****         5.0731  -1.8793   1.4253 C.3            1 S1                 0.0000
     17 ****         4.1755  -2.4825   2.3480 O.3            1 S1                 0.0000
     18 ****         3.0727  -1.6429   2.6658 C.3            1 S1                 0.0000
     19 ****         2.2469  -1.3546   1.4017 C.3            1 S1                 0.0000
     20 ****        -2.9772   2.2397  -0.3199 C.ar           1 S1                 0.0000
     21 ****        -6.1306   3.5906  -0.0132 H              1 S1                 0.0000
     22 ****        -4.7844   4.3314  -0.8848 H              1 S1                 0.0000
     23 ****        -4.7147   4.1647   0.8745 H              1 S1                 0.0000
     24 ****        -6.2155   1.1772  -0.1352 H              1 S1                 0.0000
     25 ****        -6.2906  -1.2248  -0.4194 H              1 S1                 0.0000
     26 ****        -4.9709  -1.9834   0.4778 H              1 S1                 0.0000
     27 ****        -4.9432  -1.9620  -1.2905 H              1 S1                 0.0000
     28 ****        -0.5264   1.8944  -0.4778 H              1 S1                 0.0000
     29 ****         1.3354   1.3344  -0.6385 H              1 S1                 0.0000
     30 ****         2.0014  -1.4659  -1.4027 H              1 S1                 0.0000
     31 ****         3.9760  -0.4789  -2.4651 H              1 S1                 0.0000
     32 ****         3.5942   1.1095  -1.8000 H              1 S1                 0.0000
     33 ****         2.5513   0.3749  -3.0141 H              1 S1                 0.0000
     34 ****         3.4538   0.2513   0.6521 H              1 S1                 0.0000
     35 ****         4.0648  -2.5597  -0.3597 H              1 S1                 0.0000
     36 ****         5.0625  -1.1418  -0.5927 H              1 S1                 0.0000
     37 ****         5.9171  -2.5506   1.2669 H              1 S1                 0.0000
     38 ****         5.4762  -0.9554   1.8433 H              1 S1                 0.0000
     39 ****         2.4532  -2.1448   3.4094 H              1 S1                 0.0000
     40 ****         3.4252  -0.7158   3.1203 H              1 S1                 0.0000
     41 ****         1.4165  -0.7006   1.6675 H              1 S1                 0.0000
     42 ****         1.8064  -2.2843   1.0389 H              1 S1                 0.0000
     43 ****        -2.3736   3.1359  -0.3020 H              1 S1                 0.0000
     44 ****        -2.6746  -1.0551  -0.5892 LP             1 S1                 0.0000
     45 ****        -1.4468  -1.4575  -0.9365 LP             1 S1                 0.0000
     46 ****         0.2118  -1.9287  -1.1015 LP             1 S1                 0.0000
     47 ****         4.6733  -2.6901   3.1902 LP             1 S1                 0.0000
     48 ****         3.8277  -3.3308   1.9487 LP             1 S1                 0.0000
@<TRIPOS>BOND
    1    1    2 1     
    2    1   21 1     
    3    1   22 1     
    4    1   23 1     
    5    2   20 ar    
    6    2    3 ar    
    7    3    4 ar    
    8    3   24 1     
    9    4    5 1     
   10    4    6 ar    
   11    5   25 1     
   12    5   26 1     
   13    5   27 1     
   14    6    7 ar    
   15    7    8 1     
   16    7   20 ar    
   17    8    9 am    
   18    8   28 1     
   19    9   10 2     
   20    9   11 am    
   21   11   12 1     
   22   11   29 1     
   23   12   13 1     
   24   12   14 1     
   25   12   30 1     
   26   13   31 1     
   27   13   32 1     
   28   13   33 1     
   29   14   19 1     
   30   14   15 1     
   31   14   34 1     
   32   15   16 1     
   33   15   35 1     
   34   15   36 1     
   35   16   17 1     
   36   16   37 1     
   37   16   38 1     
   38   17   18 1     
   39   18   19 1     
   40   18   39 1     
   41   18   40 1     
   42   19   41 1     
   43   19   42 1     
   44   20   43 1     
   45    6   44 1     
   46   10   45 1     
   47   10   46 1     
   48   17   47 1     
   49   17   48 1     
@<TRIPOS>SUBSTRUCTURE
      1 S1             1
@<TRIPOS>SET
LONE_PAIRS      STATIC     ATOMS    <user>   **** ""
5 44 45 46 47 48
DONOR_HYDROGENS      STATIC     ATOMS    <user>   **** ""
2 28 29
ATOM$BLUE        STATIC     ATOMS    COLORGROUP SYSTEM
5 44 45 46 47 48
ATOM$RED        STATIC     ATOMS    COLORGROUP SYSTEM
2 28 29
