AV-unprocessed.smi:2407|AV-procd|sdf|9518|dock6
  -GOLD-   2272013153D 1   1.00000     0.00000
 Structure written by MMmdl.
 38 39  0  0  0  0  0  0  0  0  1 V2000
  146.1084  142.4904  157.7021 C   0  0  0  0  0  0  0  0  0  0  0  0
  147.0032  142.0715  156.5736 C   0  0  0  0  0  0  0  0  0  0  0  0
  146.5006  141.7106  155.2617 C   0  0  0  0  0  0  0  0  0  0  0  0
  147.3715  141.3390  154.2990 C   0  0  0  0  0  0  0  0  0  0  0  0
  148.8116  141.2898  154.5431 C   0  0  0  0  0  0  0  0  0  0  0  0
  149.6298  140.9478  153.6898 O   0  0  0  0  0  0  0  0  0  0  0  0
  149.1665  141.6556  155.8102 N   0  0  0  0  0  0  0  0  0  0  0  0
  150.5715  141.6676  156.2352 C   0  0  0  0  0  0  0  0  0  0  0  0
  150.9694  140.3644  156.9631 C   0  0  2  0  0  0  0  0  0  0  0  0
  149.9067  140.0127  157.8276 O   0  0  0  0  0  0  0  0  0  0  0  0
  152.2212  140.5547  157.8363 C   0  0  0  0  0  0  0  0  0  0  0  0
  152.2641  141.9034  158.2838 O   0  0  0  0  0  0  0  0  0  0  0  0
  152.6253  142.1583  159.5908 C   0  0  0  0  0  0  0  0  0  0  0  0
  153.1790  141.1785  160.4547 C   0  0  0  0  0  0  0  0  0  0  0  0
  153.5254  141.5040  161.7790 C   0  0  0  0  0  0  0  0  0  0  0  0
  153.3238  142.8093  162.2584 C   0  0  0  0  0  0  0  0  0  0  0  0
  152.7759  143.7895  161.4119 C   0  0  0  0  0  0  0  0  0  0  0  0
  152.4246  143.4734  160.0796 C   0  0  0  0  0  0  0  0  0  0  0  0
  151.8306  144.5424  159.1675 C   0  0  0  0  0  0  0  0  0  0  0  0
  151.7783  145.7341  159.7642 F   0  0  0  0  0  0  0  0  0  0  0  0
  152.5739  144.6615  158.0670 F   0  0  0  0  0  0  0  0  0  0  0  0
  150.5908  144.1996  158.8165 F   0  0  0  0  0  0  0  0  0  0  0  0
  148.2755  142.0351  156.7998 N   0  0  0  0  0  0  0  0  0  0  0  0
  145.0691  142.5548  157.3788 H   0  0  0  0  0  0  0  0  0  0  0  0
  146.3987  143.4686  158.0870 H   0  0  0  0  0  0  0  0  0  0  0  0
  146.1590  141.7747  158.5232 H   0  0  0  0  0  0  0  0  0  0  0  0
  145.4390  141.7418  155.0653 H   0  0  0  0  0  0  0  0  0  0  0  0
  146.9962  141.0706  153.3225 H   0  0  0  0  0  0  0  0  0  0  0  0
  151.1977  141.8060  155.3520 H   0  0  0  0  0  0  0  0  0  0  0  0
  150.7816  142.5360  156.8630 H   0  0  0  0  0  0  0  0  0  0  0  0
  151.1469  139.5633  156.2443 H   0  0  0  0  0  0  0  0  0  0  0  0
  150.0398  140.4469  158.6565 H   0  0  0  0  0  0  0  0  0  0  0  0
  152.1542  139.9097  158.7137 H   0  0  0  0  0  0  0  0  0  0  0  0
  153.1233  140.2801  157.2865 H   0  0  0  0  0  0  0  0  0  0  0  0
  153.3494  140.1650  160.1256 H   0  0  0  0  0  0  0  0  0  0  0  0
  153.9462  140.7499  162.4277 H   0  0  0  0  0  0  0  0  0  0  0  0
  153.5889  143.0593  163.2753 H   0  0  0  0  0  0  0  0  0  0  0  0
  152.6286  144.7867  161.7988 H   0  0  0  0  0  0  0  0  0  0  0  0
  1  2  1  0  0  0  0
  1 24  1  0  0  0  0
  1 25  1  0  0  0  0
  1 26  1  0  0  0  0
  2 23  2  0  0  0  0
  2  3  1  0  0  0  0
  3  4  2  0  0  0  0
  3 27  1  0  0  0  0
  4  5  1  0  0  0  0
  4 28  1  0  0  0  0
  5  6  2  0  0  0  0
  5  7  1  0  0  0  0
  7  8  1  0  0  0  0
  7 23  1  0  0  0  0
  8  9  1  0  0  0  0
  8 29  1  0  0  0  0
  8 30  1  0  0  0  0
  9 10  1  0  0  0  0
  9 11  1  0  0  0  0
  9 31  1  0  0  0  0
 10 32  1  0  0  0  0
 11 12  1  0  0  0  0
 11 33  1  0  0  0  0
 11 34  1  0  0  0  0
 12 13  1  0  0  0  0
 13 18  1  0  0  0  0
 13 14  2  0  0  0  0
 14 15  1  0  0  0  0
 14 35  1  0  0  0  0
 15 16  2  0  0  0  0
 15 36  1  0  0  0  0
 16 17  1  0  0  0  0
 16 37  1  0  0  0  0
 17 18  2  0  0  0  0
 17 38  1  0  0  0  0
 18 19  1  0  0  0  0
 19 20  1  0  0  0  0
 19 21  1  0  0  0  0
 19 22  1  0  0  0  0
M  END
> <s_m_source_file>
AV-unprocessed.smi

> <i_m_source_file_index>
2407

> <i_lp_mmshare_version>
43012

> <i_f3d_flags>
0

> <s_epik_input>
W0NIM11jMVtjSF1bY0hdYyg9TyluKG4xKVtDSDJdW0NASF0oW09IXSlbQ0gyXU9jMltjSF1bY0hdW2NIXVtjSF1jMkMoRikoRilG

> <s_epik_cmdline>
J2VwaWtfcHl0aG9uJywgJy1waCcsICc3LjAnLCAnLXRuJywgJzgnLCAnLW1hJywgJzIwMCcsICctbWV0YWxfYmluZGluZycsICctaW1hZScsICc8aW5maWxlLm1hZT4nLCAnLW9tYWUnLCAnPG91dGZpbGUubWFlPic=

> <r_lp_tautomer_probability>
1

> <r_epik_Ionization_Penalty>
5.91655e-06

> <r_epik_Ionization_Penalty_Charging>
5.79937e-06

> <r_epik_Ionization_Penalty_Neutral>
1.17174e-07

> <r_epik_State_Penalty>
-0

> <r_epik_Charging_Adjusted_Penalty>
5.79937e-06

> <i_epik_Tot_Q>
0

> <i_epik_Tot_abs_Q>
0

> <r_epik_Metal_State_Penalty>
-0

> <b_epik_Metal_Only>
0

> <s_lp_Force_Field>
OPLS_2005

> <r_lp_Energy>
33.5011

> <b_lp_Chiralities_Consistent>
1

> <s_lp_Variant>
AV-unprocessed.smi:2407-1

> <Gold.Version>
5.8.1

> <Gold.Id.Protein>
6NUR|6NUR_protein|mol2

> <Gold.PLP.Fitness>
54.2624

> <Gold.PLP.PLP>
-53.2414

> <Gold.PLP.part.hbond>
-2.0000

> <Gold.PLP.part.metal>
0.0000

> <Gold.PLP.part.buried>
-6.3666

> <Gold.PLP.part.nonpolar>
-46.2528

> <Gold.PLP.part.repulsive>
2.2509

> <Gold.PLP.ligand.clash>
0.4705

> <Gold.PLP.ligand.torsion>
1.3259

> <Gold.PLP.Chemscore.Hbond>
1.1776

> <Gold.PLP.Chemscore.CHOScore>
0.0000

> <Gold.PLP.Chemscore.Metal>
0.0000

> <Gold.Chemscore.Hbonds>
donor molecule, donor type, donor heavy atom, donor atom, acceptor molecule, acceptor atom, score
      P1  H  7989  7998       L1     6  0.35
      P1  H  8011  8017       L1     6  1.00

> <Gold.PLP.Chemscore.Internal.Correction>
0.6104

> <Gold.Rescore>
     Score         DG    S(hbond)    S(metal)    S(lipo)     H(rot)  DE(clash)    DE(int)     intcor
      8.96     -15.65       1.21        0.00     109.38       2.60       1.36       5.33       ----

> <Gold.Chemscore.Fitness>
8.9620

> <Gold.Chemscore.DG>
-15.6521

> <Gold.Chemscore.ZeroCoef>
-5.4800

> <Gold.Chemscore.Hbond>
1.2095

> <Gold.Chemscore.Metal>
0.0000

> <Gold.Chemscore.Lipo>
109.3789

> <Gold.Chemscore.Internal_Hbond>
0.0000

> <Gold.Chemscore.DEClash>
1.3561

> <Gold.Chemscore.DEInternal>
5.3341

> <Gold.Chemscore.Rot>
2.6035

> <Gold.Chemscore.Internal.Correction>
   9.000000E+99

> <Gold.Chemscore.Hbonds>
donor molecule, donor type, donor heavy atom, donor atom, acceptor molecule, acceptor atom, score
      P1  H  7989  7998       L1     6  0.35
      P1  H  8011  8017       L1     6  0.64

> <Gold.Chemscore.Hbond.Weighted>
-4.0397

> <Gold.Chemscore.Metal.Weighted>
-0.0000

> <Gold.Chemscore.Lipo.Weighted>
-12.7973

> <Gold.Chemscore.Internal_Hbond.Weighted>
0.0000

> <Gold.Chemscore.DEClash.Weighted>
1.3561

> <Gold.Chemscore.DEInternal.Weighted>
5.3341

> <Gold.Chemscore.Rot.Weighted>
6.6649

> <Gold.Chemscore.Internal.Correction.Weighted>
   9.000000E+99

> <Gold.Protein.RotatedTorsions>
[ 6907 6896 6895 6894 ] final   63.78 input  -60.11 | X-H torsion
[ 7974 7965 7964 7962 ] final  172.57 input  175.53 | X-H torsion
[ 8008 7997 7996 7995 ] final  138.33 input   59.86 | X-H torsion
[ 10167 10162 10161 10158 ] final  139.70 input  -65.29 | X-H torsion
[ 10718 10713 10712 10709 ] final  153.23 input   66.30 | X-H torsion
[ 10763 10752 10751 10750 ] final -165.40 input  -60.55 | X-H torsion
[ 11005 11000 10999 10996 ] final   66.47 input  -57.11 | X-H torsion

> <Gold.Protein.ActiveResidues>
 VAL166  LYS551  ARG553  GLY616  TRP617  ASP618  TYR619  PRO620  LYS621  CYS622 
 ASP623  PHE694  ASN695  SER759  ASP760  ASP761  ALA762  ILE779  LEU786  VAL792 
 PHE793  MET794  SER795  GLU796  ALA797  LYS798  CYS799  TRP800  GLU811  SER814 

> <Gold.Protein.RotatedAtoms>
  152.4280  134.5831  159.9953 H   0  0  0  0  0  0  0  0  0  0  0  0  # atno 6907 bound_to 6896
  151.5963  133.3355  159.3046 H   0  0  0  0  0  0  0  0  0  0  0  0  # atno 6908 bound_to 6896
  150.8171  134.7395  159.6804 H   0  0  0  0  0  0  0  0  0  0  0  0  # atno 6909 bound_to 6896
  144.7265  139.9518  143.6432 H   0  0  0  0  0  0  0  0  0  0  0  0  # atno 7974 bound_to 7965
  156.2998  140.2396  156.4056 H   0  0  0  0  0  0  0  0  0  0  0  0  # atno 8008 bound_to 7997
  154.8488  140.0425  157.1610 H   0  0  0  0  0  0  0  0  0  0  0  0  # atno 8009 bound_to 7997
  154.9022  140.2978  155.5315 H   0  0  0  0  0  0  0  0  0  0  0  0  # atno 8010 bound_to 7997
  139.5071  144.6279  151.5891 H   0  0  0  0  0  0  0  0  0  0  0  0  # atno 10167 bound_to 10162
  157.2474  131.0772  151.1752 H   0  0  0  0  0  0  0  0  0  0  0  0  # atno 10718 bound_to 10713
  154.6935  135.2975  154.9445 H   0  0  0  0  0  0  0  0  0  0  0  0  # atno 10763 bound_to 10752
  154.0400  135.6658  153.4793 H   0  0  0  0  0  0  0  0  0  0  0  0  # atno 10764 bound_to 10752
  153.0629  135.5105  154.8041 H   0  0  0  0  0  0  0  0  0  0  0  0  # atno 10765 bound_to 10752
  139.9830  134.6713  156.0227 H   0  0  0  0  0  0  0  0  0  0  0  0  # atno 11005 bound_to 11000
  146.0705  139.3694  143.0526 LP  0  0  0  0  0  0  0  0  0  0  0  0  # atno 17320 bound_to 7965
  145.7974  140.9787  143.1017 LP  0  0  0  0  0  0  0  0  0  0  0  0  # atno 17321 bound_to 7965
  140.6002  143.9623  150.6381 LP  0  0  0  0  0  0  0  0  0  0  0  0  # atno 17342 bound_to 10162
  140.2833  143.3374  152.1131 LP  0  0  0  0  0  0  0  0  0  0  0  0  # atno 17343 bound_to 10162
  157.3314  130.6987  149.6326 LP  0  0  0  0  0  0  0  0  0  0  0  0  # atno 17370 bound_to 10713
  155.9667  130.4306  150.4885 LP  0  0  0  0  0  0  0  0  0  0  0  0  # atno 17371 bound_to 10713
  141.1499  133.6550  156.3982 LP  0  0  0  0  0  0  0  0  0  0  0  0  # atno 17394 bound_to 11000
  140.5058  134.6442  157.5266 LP  0  0  0  0  0  0  0  0  0  0  0  0  # atno 17395 bound_to 11000

$$$$
