#       Name:                AV-unprocessed.smi:196
#       Creating user name   scv26
#       Creation time:       Thu Mar 26 19:39:10 2020


#       File generated by GOLD software.
#

@<TRIPOS>MOLECULE
AV-unprocessed.smi:196
    56    59     1
SMALL
NO_CHARGES


@<TRIPOS>ATOM
      1 ****        -2.2349  -2.6031   4.5630 C.3            1 S1                 0.0000
      2 ****        -2.7716  -1.2487   4.0736 C.3            1 S1                 0.0000
      3 ****        -4.0903  -1.4599   3.5749 O.3            1 S1                 0.0000
      4 ****        -4.3452  -0.5260   2.5409 C.3            1 S1                 0.0000
      5 ****        -3.0206  -0.4957   1.7946 C.3            1 S1                 0.0000
      6 ****        -1.9902  -0.5588   2.9191 C.3            1 S1                 0.0000
      7 ****        -1.7106   0.7704   3.3269 O.3            1 S1                 0.0000
      8 ****        -0.6519  -1.2206   2.4979 C.3            1 S1                 0.0000
      9 ****        -0.0151  -0.5693   1.3626 N.pl3          1 S1                 0.0000
     10 ****         0.8013   0.5363   1.4005 C.2            1 S1                 0.0000
     11 ****         1.2518   0.9315   0.2425 N.2            1 S1                 0.0000
     12 ****         0.7199   0.0261  -0.6706 C.ar           1 S1                 0.0000
     13 ****         0.8022  -0.1434  -2.0875 C.ar           1 S1                 0.0000
     14 ****         1.5156   0.6466  -2.9380 N.pl3          1 S1                 0.0000
     15 ****         1.4728   0.4724  -4.3875 C.3            1 S1                 0.0000
     16 ****         2.4586   1.4948  -4.9559 C.3            1 S1                 0.0000
     17 ****         3.6505   0.9228  -5.1334 F              1 S1                 0.0000
     18 ****         2.5447   2.5532  -3.8558 C.3            1 S1                 0.0000
     19 ****         2.3587   1.7748  -2.5406 C.3            1 S1                 0.0000
     20 ****         3.7052   1.3257  -1.9421 C.2            1 S1                 0.0000
     21 ****         4.3393   2.2084  -1.1669 N.am           1 S1                 0.0000
     22 ****         4.1691   0.2097  -2.1713 O.2            1 S1                 0.0000
     23 ****         0.1061  -1.1816  -2.6230 N.ar           1 S1                 0.0000
     24 ****        -0.6078  -2.0010  -1.8478 C.ar           1 S1                 0.0000
     25 ****        -0.7677  -1.9663  -0.5253 N.ar           1 S1                 0.0000
     26 ****        -0.0821  -0.9256   0.0266 C.ar           1 S1                 0.0000
     27 ****         2.1475   1.8993  -5.9194 H              1 S1                 0.0000
     28 ****         1.8362   2.4140  -1.8285 H              1 S1                 0.0000
     29 ****        -1.2284  -2.5094   4.9708 H              1 S1                 0.0000
     30 ****        -2.2121  -3.3396   3.7593 H              1 S1                 0.0000
     31 ****        -2.8697  -3.0041   5.3533 H              1 S1                 0.0000
     32 ****        -2.8487  -0.5802   4.9333 H              1 S1                 0.0000
     33 ****        -5.1784  -0.8385   1.9112 H              1 S1                 0.0000
     34 ****        -4.5795   0.4489   2.9711 H              1 S1                 0.0000
     35 ****        -2.9522  -1.3889   1.1727 H              1 S1                 0.0000
     36 ****        -2.9120   0.3720   1.1422 H              1 S1                 0.0000
     37 ****        -2.5223   1.1821   3.5814 H              1 S1                 0.0000
     38 ****         0.0532  -1.2158   3.3300 H              1 S1                 0.0000
     39 ****        -0.8089  -2.2663   2.2332 H              1 S1                 0.0000
     40 ****         1.0488   1.0470   2.3198 H              1 S1                 0.0000
     41 ****         1.7326  -0.5432  -4.6899 H              1 S1                 0.0000
     42 ****         0.4622   0.6853  -4.7387 H              1 S1                 0.0000
     43 ****         3.4697   3.1303  -3.8993 H              1 S1                 0.0000
     44 ****         1.7209   3.2586  -3.9731 H              1 S1                 0.0000
     45 ****         5.2280   1.9694  -0.7521 H              1 S1                 0.0000
     46 ****         3.9277   3.1157  -1.0026 H              1 S1                 0.0000
     47 ****        -1.1233  -2.7994  -2.3610 H              1 S1                 0.0000
     48 ****        -4.7527  -1.3325   4.3131 LP             1 S1                 0.0000
     49 ****        -4.1679  -2.3894   3.2143 LP             1 S1                 0.0000
     50 ****        -1.2986   1.2763   2.5691 LP             1 S1                 0.0000
     51 ****        -1.0797   0.7598   4.1027 LP             1 S1                 0.0000
     52 ****         1.8474   1.7120   0.0527 LP             1 S1                 0.0000
     53 ****         3.6701  -0.4285  -2.7576 LP             1 S1                 0.0000
     54 ****         5.0453  -0.0594  -1.7714 LP             1 S1                 0.0000
     55 ****         0.1293  -1.3334  -3.6111 LP             1 S1                 0.0000
     56 ****        -1.3190  -2.6189  -0.0054 LP             1 S1                 0.0000
@<TRIPOS>BOND
    1    1    2 1     
    2    1   29 1     
    3    1   30 1     
    4    1   31 1     
    5    2    6 1     
    6    2    3 1     
    7    2   32 1     
    8    3    4 1     
    9    4    5 1     
   10    4   33 1     
   11    4   34 1     
   12    5    6 1     
   13    5   35 1     
   14    5   36 1     
   15    6    7 1     
   16    6    8 1     
   17    7   37 1     
   18    8    9 1     
   19    8   38 1     
   20    8   39 1     
   21    9   26 1     
   22    9   10 1     
   23   10   11 2     
   24   10   40 1     
   25   11   12 1     
   26   12   26 ar    
   27   12   13 ar    
   28   13   14 1     
   29   13   23 ar    
   30   14   19 1     
   31   14   15 1     
   32   15   16 1     
   33   15   41 1     
   34   15   42 1     
   35   16   27 1     
   36   16   17 1     
   37   16   18 1     
   38   18   19 1     
   39   18   43 1     
   40   18   44 1     
   41   19   28 1     
   42   19   20 1     
   43   20   21 am    
   44   20   22 2     
   45   21   45 1     
   46   21   46 1     
   47   23   24 ar    
   48   24   25 ar    
   49   24   47 1     
   50   25   26 ar    
   51    3   48 1     
   52    3   49 1     
   53    7   50 1     
   54    7   51 1     
   55   11   52 1     
   56   22   53 1     
   57   22   54 1     
   58   23   55 1     
   59   25   56 1     
@<TRIPOS>SUBSTRUCTURE
      1 S1             1
@<TRIPOS>SET
LONE_PAIRS      STATIC     ATOMS    <user>   **** ""
9 48 49 50 51 52 53 54 55 56
DONOR_HYDROGENS      STATIC     ATOMS    <user>   **** ""
3 37 45 46
ATOM$BLUE        STATIC     ATOMS    COLORGROUP SYSTEM
9 48 49 50 51 52 53 54 55 56
ATOM$RED        STATIC     ATOMS    COLORGROUP SYSTEM
3 37 45 46
