#       Name:                AV-unprocessed.smi:2327
#       Creating user name   scv26
#       Creation time:       Fri Mar 27 12:52:05 2020


#       File generated by GOLD software.
#

@<TRIPOS>MOLECULE
AV-unprocessed.smi:2327
    45    46     1
SMALL
NO_CHARGES


@<TRIPOS>ATOM
      1 ****        -2.5382   0.9941   4.3295 C.3            1 S1                 0.0000
      2 ****        -2.5441   0.8586   2.8396 C.2            1 S1                 0.0000
      3 ****        -3.1120  -0.1502   2.1024 C.2            1 S1                 0.0000
      4 ****        -2.8784   0.0850   0.3921 S.3            1 S1                 0.0000
      5 ****        -2.0045   1.5717   0.7463 C.2            1 S1                 0.0000
      6 ****        -1.3869   2.4326  -0.3132 C.3            1 S1                 0.0000
      7 ****        -1.9813   3.8483  -0.3241 C.3            1 S1                 0.0000
      8 ****         0.1555   2.4295  -0.2740 C.3            1 S1                 0.0000
      9 ****         0.7002   1.0752  -0.3379 N.am           1 S1                 0.0000
     10 ****         1.2369   0.3926   0.6883 C.2            1 S1                 0.0000
     11 ****         1.3745   0.8573   1.8180 O.2            1 S1                 0.0000
     12 ****         1.6258  -0.8591   0.3868 N.am           1 S1                 0.0000
     13 ****         2.2406  -1.8552   1.2665 C.3            1 S1                 0.0000
     14 ****         3.0036  -2.8860   0.4207 C.3            1 S1                 0.0000
     15 ****         3.5341  -4.0305   1.2997 C.3            1 S1                 0.0000
     16 ****         2.4607  -4.6378   2.0104 O.3            1 S1                 0.0000
     17 ****         1.8080  -3.7395   2.9008 C.3            1 S1                 0.0000
     18 ****         1.1778  -2.5812   2.1110 C.3            1 S1                 0.0000
     19 ****        -1.9197   1.8311   2.0546 N.2            1 S1                 0.0000
     20 ****        -3.0742   0.1739   4.8075 H              1 S1                 0.0000
     21 ****        -3.0133   1.9243   4.6416 H              1 S1                 0.0000
     22 ****        -1.5202   0.9948   4.7198 H              1 S1                 0.0000
     23 ****        -3.6497  -1.0157   2.4599 H              1 S1                 0.0000
     24 ****        -1.6682   1.9825  -1.2663 H              1 S1                 0.0000
     25 ****        -3.0643   3.8187  -0.4483 H              1 S1                 0.0000
     26 ****        -1.5709   4.4400  -1.1426 H              1 S1                 0.0000
     27 ****        -1.7665   4.3755   0.6060 H              1 S1                 0.0000
     28 ****         0.5482   2.9910  -1.1218 H              1 S1                 0.0000
     29 ****         0.5065   2.9471   0.6205 H              1 S1                 0.0000
     30 ****         0.6401   0.6069  -1.2301 H              1 S1                 0.0000
     31 ****         1.5188  -1.1381  -0.5780 H              1 S1                 0.0000
     32 ****         2.9590  -1.3677   1.9286 H              1 S1                 0.0000
     33 ****         2.3447  -3.3005  -0.3438 H              1 S1                 0.0000
     34 ****         3.8296  -2.4064  -0.1055 H              1 S1                 0.0000
     35 ****         4.0155  -4.7862   0.6789 H              1 S1                 0.0000
     36 ****         4.2879  -3.6667   1.9997 H              1 S1                 0.0000
     37 ****         1.0366  -4.2831   3.4464 H              1 S1                 0.0000
     38 ****         2.5169  -3.3648   3.6409 H              1 S1                 0.0000
     39 ****         0.6913  -1.8884   2.7979 H              1 S1                 0.0000
     40 ****         0.3953  -2.9759   1.4613 H              1 S1                 0.0000
     41 ****         1.0796   1.7927   2.0132 LP             1 S1                 0.0000
     42 ****         1.7813   0.3000   2.5418 LP             1 S1                 0.0000
     43 ****         2.8222  -5.4054   2.5396 LP             1 S1                 0.0000
     44 ****         1.7905  -4.9750   1.3493 LP             1 S1                 0.0000
     45 ****        -1.4589   2.6348   2.4311 LP             1 S1                 0.0000
@<TRIPOS>BOND
    1    1    2 1     
    2    1   20 1     
    3    1   21 1     
    4    1   22 1     
    5    2   19 1     
    6    2    3 2     
    7    3    4 1     
    8    3   23 1     
    9    4    5 1     
   10    5    6 1     
   11    5   19 2     
   12    6    7 1     
   13    6    8 1     
   14    6   24 1     
   15    7   25 1     
   16    7   26 1     
   17    7   27 1     
   18    8    9 1     
   19    8   28 1     
   20    8   29 1     
   21    9   10 am    
   22    9   30 1     
   23   10   11 2     
   24   10   12 am    
   25   12   13 1     
   26   12   31 1     
   27   13   18 1     
   28   13   14 1     
   29   13   32 1     
   30   14   15 1     
   31   14   33 1     
   32   14   34 1     
   33   15   16 1     
   34   15   35 1     
   35   15   36 1     
   36   16   17 1     
   37   17   18 1     
   38   17   37 1     
   39   17   38 1     
   40   18   39 1     
   41   18   40 1     
   42   11   41 1     
   43   11   42 1     
   44   16   43 1     
   45   16   44 1     
   46   19   45 1     
@<TRIPOS>SUBSTRUCTURE
      1 S1             1
@<TRIPOS>SET
LONE_PAIRS      STATIC     ATOMS    <user>   **** ""
5 41 42 43 44 45
DONOR_HYDROGENS      STATIC     ATOMS    <user>   **** ""
2 30 31
ATOM$BLUE        STATIC     ATOMS    COLORGROUP SYSTEM
5 41 42 43 44 45
ATOM$RED        STATIC     ATOMS    COLORGROUP SYSTEM
2 30 31
