AV-unprocessed.smi:356|AV-procd|sdf|2414|dock7
  -GOLD-   2262022353D 1   1.00000     0.00000
 Structure written by MMmdl.
 43 45  0  0  0  0  0  0  0  0  3 V2000
  147.5336  141.5854  153.5818 C   0  0  0  0  0  0  0  0  0  0  0  0
  148.6449  141.2998  154.5354 C   0  0  0  0  0  0  0  0  0  0  0  0
  149.3156  142.2219  155.2820 N   0  3  0  0  0  0  0  0  0  0  0  0
  150.2857  141.5865  156.0581 C   0  0  0  0  0  0  0  0  0  0  0  0
  151.2055  142.0991  156.9677 C   0  0  0  0  0  0  0  0  0  0  0  0
  152.0593  141.1690  157.5962 C   0  0  0  0  0  0  0  0  0  0  0  0
  151.9799  139.7901  157.3119 C   0  0  0  0  0  0  0  0  0  0  0  0
  151.0441  139.2820  156.3867 C   0  0  0  0  0  0  0  0  0  0  0  0
  150.2036  140.2086  155.7703 C   0  0  0  0  0  0  0  0  0  0  0  0
  149.1806  140.0788  154.8245 N   0  0  0  0  0  0  0  0  0  0  0  0
  148.8417  138.7431  154.3093 C   0  0  0  0  0  0  0  0  0  0  0  0
  147.3322  138.4348  154.3781 C   0  0  2  0  0  0  0  0  0  0  0  0
  146.7740  139.1103  155.4894 O   0  0  0  0  0  0  0  0  0  0  0  0
  147.0739  136.9208  154.5220 C   0  0  0  0  0  0  0  0  0  0  0  0
  146.7623  136.2540  153.2314 N   0  3  0  0  0  0  0  0  0  0  0  0
  146.4682  134.8047  153.3614 C   0  0  0  0  0  0  0  0  0  0  0  0
  146.1897  134.1865  151.9805 C   0  0  0  0  0  0  0  0  0  0  0  0
  145.1167  134.8780  151.3541 O   0  0  0  0  0  0  0  0  0  0  0  0
  145.4213  136.2506  151.1419 C   0  0  0  0  0  0  0  0  0  0  0  0
  145.6712  136.9368  152.4954 C   0  0  0  0  0  0  0  0  0  0  0  0
  147.3254  142.6549  153.5456 H   0  0  0  0  0  0  0  0  0  0  0  0
  146.6271  141.0661  153.8936 H   0  0  0  0  0  0  0  0  0  0  0  0
  147.8009  141.2506  152.5794 H   0  0  0  0  0  0  0  0  0  0  0  0
  151.2676  143.1548  157.1881 H   0  0  0  0  0  0  0  0  0  0  0  0
  152.7890  141.5203  158.3115 H   0  0  0  0  0  0  0  0  0  0  0  0
  152.6505  139.1082  157.8146 H   0  0  0  0  0  0  0  0  0  0  0  0
  150.9907  138.2241  156.1772 H   0  0  0  0  0  0  0  0  0  0  0  0
  149.2089  138.6675  153.2850 H   0  0  0  0  0  0  0  0  0  0  0  0
  149.4050  138.0111  154.8897 H   0  0  0  0  0  0  0  0  0  0  0  0
  146.8594  138.8198  153.4755 H   0  0  0  0  0  0  0  0  0  0  0  0
  147.3102  138.9467  156.2498 H   0  0  0  0  0  0  0  0  0  0  0  0
  147.9358  136.4296  154.9767 H   0  0  0  0  0  0  0  0  0  0  0  0
  146.2436  136.7770  155.2159 H   0  0  0  0  0  0  0  0  0  0  0  0
  147.3039  134.2811  153.8238 H   0  0  0  0  0  0  0  0  0  0  0  0
  145.6034  134.6630  154.0114 H   0  0  0  0  0  0  0  0  0  0  0  0
  147.0799  134.2233  151.3501 H   0  0  0  0  0  0  0  0  0  0  0  0
  145.9182  133.1360  152.0864 H   0  0  0  0  0  0  0  0  0  0  0  0
  146.2905  136.3466  150.4891 H   0  0  0  0  0  0  0  0  0  0  0  0
  144.5840  136.7238  150.6288 H   0  0  0  0  0  0  0  0  0  0  0  0
  144.7596  136.9228  153.0955 H   0  0  0  0  0  0  0  0  0  0  0  0
  145.9319  137.9833  152.3314 H   0  0  0  0  0  0  0  0  0  0  0  0
  147.5862  136.3414  152.6537 H   0  0  0  0  0  0  0  0  0  0  0  0
  149.1207  143.2148  155.2610 H   0  0  0  0  0  0  0  0  0  0  0  0
  1  2  1  0  0  0  0
  1 21  1  0  0  0  0
  1 22  1  0  0  0  0
  1 23  1  0  0  0  0
  2 10  1  0  0  0  0
  2  3  2  0  0  0  0
  3  4  1  0  0  0  0
  3 43  1  0  0  0  0
  4  9  2  0  0  0  0
  4  5  1  0  0  0  0
  5  6  2  0  0  0  0
  5 24  1  0  0  0  0
  6  7  1  0  0  0  0
  6 25  1  0  0  0  0
  7  8  2  0  0  0  0
  7 26  1  0  0  0  0
  8  9  1  0  0  0  0
  8 27  1  0  0  0  0
  9 10  1  0  0  0  0
 10 11  1  0  0  0  0
 11 12  1  0  0  0  0
 11 28  1  0  0  0  0
 11 29  1  0  0  0  0
 12 13  1  0  0  0  0
 12 14  1  0  0  0  0
 12 30  1  0  0  0  0
 13 31  1  0  0  0  0
 14 15  1  0  0  0  0
 14 32  1  0  0  0  0
 14 33  1  0  0  0  0
 15 20  1  0  0  0  0
 15 16  1  0  0  0  0
 15 42  1  0  0  0  0
 16 17  1  0  0  0  0
 16 34  1  0  0  0  0
 16 35  1  0  0  0  0
 17 18  1  0  0  0  0
 17 36  1  0  0  0  0
 17 37  1  0  0  0  0
 18 19  1  0  0  0  0
 19 20  1  0  0  0  0
 19 38  1  0  0  0  0
 19 39  1  0  0  0  0
 20 40  1  0  0  0  0
 20 41  1  0  0  0  0
M  CHG  1   3   1
M  CHG  1  15   1
M  END
> <s_m_source_file>
AV-unprocessed.smi

> <i_m_source_file_index>
356

> <i_lp_mmshare_version>
43012

> <i_f3d_flags>
0

> <s_epik_input>
W2NIXTFbY0hdW2NIXVtjSF1jKGMxMiluKGMobjIpW0NIM10pW0NIMl1bQ0BIXShbT0hdKVtDSDJdTjNbQ0gyXVtDSDJdT1tDSDJdW0NIMl0z

> <s_epik_cmdline>
J2VwaWtfcHl0aG9uJywgJy1waCcsICc3LjAnLCAnLXRuJywgJzgnLCAnLW1hJywgJzIwMCcsICctbWV0YWxfYmluZGluZycsICctaW1hZScsICc8aW5maWxlLm1hZT4nLCAnLW9tYWUnLCAnPG91dGZpbGUubWFlPic=

> <r_epik_Ionization_Penalty>
1.81899

> <r_epik_Ionization_Penalty_Charging>
1.81898

> <r_epik_Ionization_Penalty_Neutral>
1.42224e-05

> <r_epik_State_Penalty>
1.87399

> <r_epik_Charging_Adjusted_Penalty>
3.69296

> <i_epik_Tot_Q>
2

> <i_epik_Tot_abs_Q>
2

> <r_epik_Metal_State_Penalty>
5.87601

> <b_epik_Metal_Only>
0

> <s_lp_Force_Field>
OPLS_2005

> <r_lp_Energy>
28.369

> <b_lp_Chiralities_Consistent>
1

> <s_lp_Variant>
AV-unprocessed.smi:356-7

> <Gold.Version>
5.8.1

> <Gold.Id.Protein>
6NUR|6NUR_protein|mol2

> <Gold.PLP.Fitness>
40.2172

> <Gold.PLP.PLP>
-30.1451

> <Gold.PLP.part.hbond>
-1.9447

> <Gold.PLP.part.metal>
0.0000

> <Gold.PLP.part.buried>
-4.6387

> <Gold.PLP.part.nonpolar>
-24.2124

> <Gold.PLP.part.repulsive>
0.3811

> <Gold.PLP.ligand.clash>
0.0000

> <Gold.PLP.ligand.torsion>
0.9800

> <Gold.PLP.Chemscore.Hbond>
4.0000

> <Gold.PLP.Chemscore.CHOScore>
0.0000

> <Gold.PLP.Chemscore.Metal>
0.0000

> <Gold.Chemscore.Hbonds>
donor molecule, donor type, donor heavy atom, donor atom, acceptor molecule, acceptor atom, score
      L1  H     3    43       P1  8028  2.00
      L1  H    15    42       P1  7948  2.00

> <Gold.PLP.Chemscore.Internal.Correction>
0.0320

> <Gold.Rescore>
     Score         DG    S(hbond)    S(metal)    S(lipo)     H(rot)  DE(clash)    DE(int)     intcor
     13.24     -15.11       1.99        0.00      72.28       2.13       0.05       1.81       ----

> <Gold.Chemscore.Fitness>
13.2447

> <Gold.Chemscore.DG>
-15.1116

> <Gold.Chemscore.ZeroCoef>
-5.4800

> <Gold.Chemscore.Hbond>
1.9865

> <Gold.Chemscore.Metal>
0.0000

> <Gold.Chemscore.Lipo>
72.2768

> <Gold.Chemscore.Internal_Hbond>
0.0000

> <Gold.Chemscore.DEClash>
0.0541

> <Gold.Chemscore.DEInternal>
1.8128

> <Gold.Chemscore.Rot>
2.1327

> <Gold.Chemscore.Internal.Correction>
   9.000000E+99

> <Gold.Chemscore.Hbonds>
donor molecule, donor type, donor heavy atom, donor atom, acceptor molecule, acceptor atom, score
      L1  H     3    43       P1  8028  0.97
      L1  H    15    42       P1  7948  0.97

> <Gold.Chemscore.Hbond.Weighted>
-6.6349

> <Gold.Chemscore.Metal.Weighted>
-0.0000

> <Gold.Chemscore.Lipo.Weighted>
-8.4564

> <Gold.Chemscore.Internal_Hbond.Weighted>
0.0000

> <Gold.Chemscore.DEClash.Weighted>
0.0541

> <Gold.Chemscore.DEInternal.Weighted>
1.8128

> <Gold.Chemscore.Rot.Weighted>
5.4596

> <Gold.Chemscore.Internal.Correction.Weighted>
   9.000000E+99

> <Gold.Protein.RotatedTorsions>
[ 6907 6896 6895 6894 ] final -117.23 input  -60.11 | X-H torsion
[ 7974 7965 7964 7962 ] final   15.18 input  175.53 | X-H torsion
[ 8008 7997 7996 7995 ] final  -92.62 input   59.86 | X-H torsion
[ 10167 10162 10161 10158 ] final  112.97 input  -65.29 | X-H torsion
[ 10718 10713 10712 10709 ] final  -62.16 input   66.30 | X-H torsion
[ 10763 10752 10751 10750 ] final  -44.28 input  -60.55 | X-H torsion
[ 11005 11000 10999 10996 ] final   63.60 input  -57.11 | X-H torsion

> <Gold.Protein.ActiveResidues>
 VAL166  LYS551  ARG553  GLY616  TRP617  ASP618  TYR619  PRO620  LYS621  CYS622 
 ASP623  PHE694  ASN695  SER759  ASP760  ASP761  ALA762  ILE779  LEU786  VAL792 
 PHE793  MET794  SER795  GLU796  ALA797  LYS798  CYS799  TRP800  GLU811  SER814 

> <Gold.Protein.RotatedAtoms>
  150.8120  133.8405  159.3177 H   0  0  0  0  0  0  0  0  0  0  0  0  # atno 6907 bound_to 6896
  151.6188  135.1032  160.0106 H   0  0  0  0  0  0  0  0  0  0  0  0  # atno 6908 bound_to 6896
  152.4212  133.7079  159.6518 H   0  0  0  0  0  0  0  0  0  0  0  0  # atno 6909 bound_to 6896
  146.2285  139.8931  142.8551 H   0  0  0  0  0  0  0  0  0  0  0  0  # atno 7974 bound_to 7965
  154.7253  140.0507  157.0677 H   0  0  0  0  0  0  0  0  0  0  0  0  # atno 8008 bound_to 7997
  155.0372  140.3164  155.4718 H   0  0  0  0  0  0  0  0  0  0  0  0  # atno 8009 bound_to 7997
  156.2827  140.2139  156.5495 H   0  0  0  0  0  0  0  0  0  0  0  0  # atno 8010 bound_to 7997
  139.6496  144.7128  151.2074 H   0  0  0  0  0  0  0  0  0  0  0  0  # atno 10167 bound_to 10162
  156.0873  130.4206  150.1096 H   0  0  0  0  0  0  0  0  0  0  0  0  # atno 10718 bound_to 10713
  154.0095  135.6683  153.4764 H   0  0  0  0  0  0  0  0  0  0  0  0  # atno 10763 bound_to 10752
  153.0627  135.5018  154.8126 H   0  0  0  0  0  0  0  0  0  0  0  0  # atno 10764 bound_to 10752
  154.7004  135.3078  154.9313 H   0  0  0  0  0  0  0  0  0  0  0  0  # atno 10765 bound_to 10752
  140.0014  134.6436  155.9925 H   0  0  0  0  0  0  0  0  0  0  0  0  # atno 11005 bound_to 11000
  145.2397  141.0004  143.3943 LP  0  0  0  0  0  0  0  0  0  0  0  0  # atno 17320 bound_to 7965
  144.9462  139.4134  143.6425 LP  0  0  0  0  0  0  0  0  0  0  0  0  # atno 17321 bound_to 7965
  140.7531  143.6172  150.8548 LP  0  0  0  0  0  0  0  0  0  0  0  0  # atno 17342 bound_to 10162
  139.9819  143.5942  152.2940 LP  0  0  0  0  0  0  0  0  0  0  0  0  # atno 17343 bound_to 10162
  156.9114  130.9653  151.3562 LP  0  0  0  0  0  0  0  0  0  0  0  0  # atno 17370 bound_to 10713
  157.6012  130.8514  149.8805 LP  0  0  0  0  0  0  0  0  0  0  0  0  # atno 17371 bound_to 10713
  141.1644  133.6537  156.4430 LP  0  0  0  0  0  0  0  0  0  0  0  0  # atno 17394 bound_to 11000
  140.4721  134.6743  157.5134 LP  0  0  0  0  0  0  0  0  0  0  0  0  # atno 17395 bound_to 11000

$$$$
