#       Name:                AV-unprocessed.smi:197
#       Creating user name   scv26
#       Creation time:       Thu Mar 26 19:41:12 2020


#       File generated by GOLD software.
#

@<TRIPOS>MOLECULE
AV-unprocessed.smi:197
    66    69     1
SMALL
NO_CHARGES


@<TRIPOS>ATOM
      1 ****        -1.4510  -2.6897   2.8256 C.3            1 S1                 0.0000
      2 ****        -2.8336  -2.6545   2.5074 O.3            1 S1                 0.0000
      3 ****        -3.2002  -3.4652   1.3982 C.3            1 S1                 0.0000
      4 ****        -2.7915  -2.8363   0.0523 C.3            1 S1                 0.0000
      5 ****        -3.3520  -1.4084  -0.1831 C.3            1 S1                 0.0000
      6 ****        -4.8948  -1.4233  -0.2991 C.3            1 S1                 0.0000
      7 ****        -5.3915  -0.1129  -0.5470 O.3            1 S1                 0.0000
      8 ****        -4.9010   0.4181  -1.7706 C.3            1 S1                 0.0000
      9 ****        -3.3727   0.5247  -1.6885 C.3            1 S1                 0.0000
     10 ****        -2.7911  -0.7778  -1.3857 N.3            1 S1                 0.0000
     11 ****        -1.4427  -0.7294  -1.4769 C.ar           1 S1                 0.0000
     12 ****        -0.8872  -1.2144  -2.6143 N.ar           1 S1                 0.0000
     13 ****         0.4407  -1.2102  -2.7635 C.ar           1 S1                 0.0000
     14 ****         1.3750  -0.7732  -1.9165 N.ar           1 S1                 0.0000
     15 ****         0.8179  -0.2692  -0.7780 C.ar           1 S1                 0.0000
     16 ****        -0.5720  -0.2076  -0.4774 C.ar           1 S1                 0.0000
     17 ****        -0.7601   0.3693   0.7728 N.2            1 S1                 0.0000
     18 ****         0.4492   0.6204   1.1932 C.2            1 S1                 0.0000
     19 ****         1.4577   0.2803   0.3198 N.pl3          1 S1                 0.0000
     20 ****         2.8878   0.4466   0.5334 C.3            1 S1                 0.0000
     21 ****         3.4748   1.7682  -0.0329 C.3            1 S1                 0.0000
     22 ****         3.2660   1.7901  -1.4344 O.3            1 S1                 0.0000
     23 ****         2.8565   3.0271   0.5690 C.3            1 S1                 0.0000
     24 ****         3.7229   3.2605   1.7953 C.3            1 S1                 0.0000
     25 ****         5.0273   2.9722   1.3204 O.3            1 S1                 0.0000
     26 ****         4.9707   1.9221   0.3551 C.3            1 S1                 0.0000
     27 ****         5.9306   2.3007  -0.7856 C.3            1 S1                 0.0000
     28 ****        -1.2681  -2.0774   3.7083 H              1 S1                 0.0000
     29 ****        -0.8351  -2.2933   2.0188 H              1 S1                 0.0000
     30 ****        -1.1235  -3.7056   3.0498 H              1 S1                 0.0000
     31 ****        -2.7673  -4.4614   1.5002 H              1 S1                 0.0000
     32 ****        -4.2795  -3.6096   1.4287 H              1 S1                 0.0000
     33 ****        -1.7038  -2.8394   0.0006 H              1 S1                 0.0000
     34 ****        -3.1170  -3.4880  -0.7591 H              1 S1                 0.0000
     35 ****        -3.0940  -0.7859   0.6734 H              1 S1                 0.0000
     36 ****        -5.2218  -2.0991  -1.0912 H              1 S1                 0.0000
     37 ****        -5.3492  -1.7755   0.6262 H              1 S1                 0.0000
     38 ****        -5.2054  -0.2124  -2.6077 H              1 S1                 0.0000
     39 ****        -5.3400   1.4024  -1.9336 H              1 S1                 0.0000
     40 ****        -2.9790   0.9017  -2.6336 H              1 S1                 0.0000
     41 ****        -3.0927   1.2401  -0.9138 H              1 S1                 0.0000
     42 ****         0.8075  -1.6155  -3.6950 H              1 S1                 0.0000
     43 ****         0.6400   1.0710   2.1564 H              1 S1                 0.0000
     44 ****         3.0752   0.3779   1.6056 H              1 S1                 0.0000
     45 ****         3.3978  -0.4081   0.0863 H              1 S1                 0.0000
     46 ****         3.6585   2.5757  -1.7834 H              1 S1                 0.0000
     47 ****         2.9779   3.8734  -0.1094 H              1 S1                 0.0000
     48 ****         1.7958   2.9496   0.8019 H              1 S1                 0.0000
     49 ****         3.6515   4.2796   2.1755 H              1 S1                 0.0000
     50 ****         3.4611   2.5721   2.6000 H              1 S1                 0.0000
     51 ****         5.3348   1.0084   0.8272 H              1 S1                 0.0000
     52 ****         5.9618   1.5253  -1.5516 H              1 S1                 0.0000
     53 ****         6.9456   2.4293  -0.4093 H              1 S1                 0.0000
     54 ****         5.6340   3.2362  -1.2609 H              1 S1                 0.0000
     55 ****        -3.0831  -1.7086   2.2999 LP             1 S1                 0.0000
     56 ****        -3.3469  -2.9669   3.3068 LP             1 S1                 0.0000
     57 ****        -5.1090   0.4867   0.2018 LP             1 S1                 0.0000
     58 ****        -6.3901  -0.1481  -0.5872 LP             1 S1                 0.0000
     59 ****        -3.0725  -1.4274  -2.0920 LP             1 S1                 0.0000
     60 ****        -1.4710  -1.5753  -3.3416 LP             1 S1                 0.0000
     61 ****         2.3584  -0.8105  -2.0940 LP             1 S1                 0.0000
     62 ****        -1.6242   0.5504   1.2425 LP             1 S1                 0.0000
     63 ****         2.2852   1.7876  -1.6295 LP             1 S1                 0.0000
     64 ****         3.6909   0.9867  -1.8514 LP             1 S1                 0.0000
     65 ****         5.6039   2.6880   2.0864 LP             1 S1                 0.0000
     66 ****         5.4149   3.7912   0.8973 LP             1 S1                 0.0000
@<TRIPOS>BOND
    1    1    2 1     
    2    1   28 1     
    3    1   29 1     
    4    1   30 1     
    5    2    3 1     
    6    3    4 1     
    7    3   31 1     
    8    3   32 1     
    9    4    5 1     
   10    4   33 1     
   11    4   34 1     
   12    5   10 1     
   13    5    6 1     
   14    5   35 1     
   15    6    7 1     
   16    6   36 1     
   17    6   37 1     
   18    7    8 1     
   19    8    9 1     
   20    8   38 1     
   21    8   39 1     
   22    9   10 1     
   23    9   40 1     
   24    9   41 1     
   25   10   11 1     
   26   11   16 ar    
   27   11   12 ar    
   28   12   13 ar    
   29   13   14 ar    
   30   13   42 1     
   31   14   15 ar    
   32   15   19 1     
   33   15   16 ar    
   34   16   17 1     
   35   17   18 2     
   36   18   19 1     
   37   18   43 1     
   38   19   20 1     
   39   20   21 1     
   40   20   44 1     
   41   20   45 1     
   42   21   26 1     
   43   21   22 1     
   44   21   23 1     
   45   22   46 1     
   46   23   24 1     
   47   23   47 1     
   48   23   48 1     
   49   24   25 1     
   50   24   49 1     
   51   24   50 1     
   52   25   26 1     
   53   26   27 1     
   54   26   51 1     
   55   27   52 1     
   56   27   53 1     
   57   27   54 1     
   58    2   55 1     
   59    2   56 1     
   60    7   57 1     
   61    7   58 1     
   62   10   59 1     
   63   12   60 1     
   64   14   61 1     
   65   17   62 1     
   66   22   63 1     
   67   22   64 1     
   68   25   65 1     
   69   25   66 1     
@<TRIPOS>SUBSTRUCTURE
      1 S1             1
@<TRIPOS>SET
LONE_PAIRS      STATIC     ATOMS    <user>   **** ""
12 55 56 57 58 59 60 61 62 63 64 65 66
DONOR_HYDROGENS      STATIC     ATOMS    <user>   **** ""
1 46
ATOM$BLUE        STATIC     ATOMS    COLORGROUP SYSTEM
12 55 56 57 58 59 60 61 62 63 64 65 66
ATOM$RED        STATIC     ATOMS    COLORGROUP SYSTEM
1 46
