AV-unprocessed.smi:109|AV-procd|sdf|1031|dock3
  -GOLD-   2262018 33D 1   1.00000     0.00000
 Structure written by MMmdl.
 58 61  0  0  0  0  0  0  0  0  1 V2000
  149.2339  142.1828  153.9640 O   0  0  0  0  0  0  0  0  0  0  0  0
  149.0962  141.0755  154.8280 C   0  0  0  0  0  0  0  0  0  0  0  0
  149.3287  141.5154  156.2838 C   0  0  0  0  0  0  0  0  0  0  0  0
  150.7717  141.9941  156.5787 C   0  0  2  0  0  0  0  0  0  0  0  0
  151.5473  140.8853  157.1397 N   0  0  0  0  0  0  0  0  0  0  0  0
  151.6769  139.6986  156.5043 C   0  0  0  0  0  0  0  0  0  0  0  0
  152.5313  139.5402  155.4602 N   0  0  0  0  0  0  0  0  0  0  0  0
  152.6336  138.3552  154.8521 C   0  0  0  0  0  0  0  0  0  0  0  0
  151.9847  137.2209  155.1226 N   0  0  0  0  0  0  0  0  0  0  0  0
  151.1239  137.3729  156.1704 C   0  0  0  0  0  0  0  0  0  0  0  0
  150.9154  138.5715  156.9080 C   0  0  0  0  0  0  0  0  0  0  0  0
  149.9693  138.3547  157.9010 N   0  0  0  0  0  0  0  0  0  0  0  0
  149.6421  137.0985  157.7561 C   0  0  0  0  0  0  0  0  0  0  0  0
  150.2862  136.4334  156.7364 N   0  0  0  0  0  0  0  0  0  0  0  0
  150.1195  135.0041  156.3331 C   0  0  2  0  0  0  0  0  0  0  0  0
  149.4657  134.9751  155.1017 O   0  0  0  0  0  0  0  0  0  0  0  0
  148.4938  133.9363  155.0994 C   0  0  2  0  0  0  0  0  0  0  0  0
  147.4055  134.2451  154.0598 C   0  0  0  0  0  0  0  0  0  0  0  0
  147.9225  134.0847  152.7561 O   0  0  0  0  0  0  0  0  0  0  0  0
  147.9861  133.9574  156.5422 C   0  0  1  0  0  0  0  0  0  0  0  0
  147.3391  132.7547  156.9149 O   0  0  0  0  0  0  0  0  0  0  0  0
  149.2516  134.2424  157.3489 C   0  0  1  0  0  0  0  0  0  0  0  0
  149.8974  133.0549  157.7708 O   0  0  0  0  0  0  0  0  0  0  0  0
  150.8385  143.2129  157.5438 C   0  0  0  0  0  0  0  0  0  0  0  0
  152.2876  143.6034  157.9301 C   0  0  0  0  0  0  0  0  0  0  0  0
  152.3371  144.7792  158.9201 C   0  0  0  0  0  0  0  0  0  0  0  0
  151.5208  144.4834  160.1838 C   0  0  0  0  0  0  0  0  0  0  0  0
  150.0749  144.1288  159.8187 C   0  0  0  0  0  0  0  0  0  0  0  0
  150.0260  142.9469  158.8382 C   0  0  0  0  0  0  0  0  0  0  0  0
  151.1361  134.6178  156.2438 H   0  0  0  0  0  0  0  0  0  0  0  0
  148.9838  132.9820  154.8942 H   0  0  0  0  0  0  0  0  0  0  0  0
  147.2842  134.7811  156.6723 H   0  0  0  0  0  0  0  0  0  0  0  0
  149.0395  134.8552  158.2263 H   0  0  0  0  0  0  0  0  0  0  0  0
  149.1342  142.9738  154.4713 H   0  0  0  0  0  0  0  0  0  0  0  0
  148.0989  140.6561  154.6949 H   0  0  0  0  0  0  0  0  0  0  0  0
  149.8161  140.3093  154.5385 H   0  0  0  0  0  0  0  0  0  0  0  0
  148.6237  142.3204  156.4838 H   0  0  0  0  0  0  0  0  0  0  0  0
  149.0658  140.7012  156.9606 H   0  0  0  0  0  0  0  0  0  0  0  0
  151.2055  142.3273  155.6362 H   0  0  0  0  0  0  0  0  0  0  0  0
  152.0058  141.0805  158.0182 H   0  0  0  0  0  0  0  0  0  0  0  0
  153.3350  138.3091  154.0323 H   0  0  0  0  0  0  0  0  0  0  0  0
  148.9126  136.6199  158.3932 H   0  0  0  0  0  0  0  0  0  0  0  0
  146.5733  133.5491  154.1685 H   0  0  0  0  0  0  0  0  0  0  0  0
  147.0053  135.2509  154.1911 H   0  0  0  0  0  0  0  0  0  0  0  0
  148.5710  134.7552  152.6052 H   0  0  0  0  0  0  0  0  0  0  0  0
  146.4162  132.8431  156.7318 H   0  0  0  0  0  0  0  0  0  0  0  0
  150.3546  132.6851  157.0308 H   0  0  0  0  0  0  0  0  0  0  0  0
  150.3895  144.0686  157.0368 H   0  0  0  0  0  0  0  0  0  0  0  0
  152.7975  142.7416  158.3630 H   0  0  0  0  0  0  0  0  0  0  0  0
  152.8602  143.8941  157.0508 H   0  0  0  0  0  0  0  0  0  0  0  0
  153.3718  144.9928  159.1895 H   0  0  0  0  0  0  0  0  0  0  0  0
  151.9519  145.6789  158.4385 H   0  0  0  0  0  0  0  0  0  0  0  0
  151.9759  143.6568  160.7313 H   0  0  0  0  0  0  0  0  0  0  0  0
  151.5373  145.3454  160.8512 H   0  0  0  0  0  0  0  0  0  0  0  0
  149.5136  143.8854  160.7213 H   0  0  0  0  0  0  0  0  0  0  0  0
  149.5846  144.9953  159.3731 H   0  0  0  0  0  0  0  0  0  0  0  0
  148.9809  142.7429  158.6051 H   0  0  0  0  0  0  0  0  0  0  0  0
  150.4079  142.0520  159.3319 H   0  0  0  0  0  0  0  0  0  0  0  0
  1  2  1  0  0  0  0
  1 34  1  0  0  0  0
  2  3  1  0  0  0  0
  2 35  1  0  0  0  0
  2 36  1  0  0  0  0
  3  4  1  0  0  0  0
  3 37  1  0  0  0  0
  3 38  1  0  0  0  0
  4  5  1  0  0  0  0
  4 24  1  0  0  0  0
  4 39  1  0  0  0  0
  5  6  1  0  0  0  0
  5 40  1  0  0  0  0
  6 11  1  0  0  0  0
  6  7  2  0  0  0  0
  7  8  1  0  0  0  0
  8  9  2  0  0  0  0
  8 41  1  0  0  0  0
  9 10  1  0  0  0  0
 10 14  1  0  0  0  0
 10 11  2  0  0  0  0
 11 12  1  0  0  0  0
 12 13  2  0  0  0  0
 13 14  1  0  0  0  0
 13 42  1  0  0  0  0
 14 15  1  0  0  0  0
 15 30  1  0  0  0  0
 15 22  1  0  0  0  0
 15 16  1  0  0  0  0
 16 17  1  0  0  0  0
 17 31  1  0  0  0  0
 17 18  1  0  0  0  0
 17 20  1  0  0  0  0
 18 19  1  0  0  0  0
 18 43  1  0  0  0  0
 18 44  1  0  0  0  0
 19 45  1  0  0  0  0
 20 32  1  0  0  0  0
 20 21  1  0  0  0  0
 20 22  1  0  0  0  0
 21 46  1  0  0  0  0
 22 33  1  0  0  0  0
 22 23  1  0  0  0  0
 23 47  1  0  0  0  0
 24 29  1  0  0  0  0
 24 25  1  0  0  0  0
 24 48  1  0  0  0  0
 25 26  1  0  0  0  0
 25 49  1  0  0  0  0
 25 50  1  0  0  0  0
 26 27  1  0  0  0  0
 26 51  1  0  0  0  0
 26 52  1  0  0  0  0
 27 28  1  0  0  0  0
 27 53  1  0  0  0  0
 27 54  1  0  0  0  0
 28 29  1  0  0  0  0
 28 55  1  0  0  0  0
 28 56  1  0  0  0  0
 29 57  1  0  0  0  0
 29 58  1  0  0  0  0
M  END
> <s_m_source_file>
AV-unprocessed.smi

> <i_m_source_file_index>
109

> <i_lp_mmshare_version>
43012

> <i_f3d_flags>
0

> <s_epik_input>
W0NIMl0xW0NIMl1bQ0gyXVtDSDJdW0NIMl1bQ0hdMVtDQEhdKFtDSDJdW0NIMl1bT0hdKVtOSF1jKG5bY0hdbjIpYyhjMjMpbltjSF1uM1tDQEBIXTRPW0NASF0oW0NIMl1bT0hdKVtDQEBIXShbT0hdKVtDQEhdNFtPSF0=

> <s_epik_cmdline>
J2VwaWtfcHl0aG9uJywgJy1waCcsICc3LjAnLCAnLXRuJywgJzgnLCAnLW1hJywgJzIwMCcsICctbWV0YWxfYmluZGluZycsICctaW1hZScsICc8aW5maWxlLm1hZT4nLCAnLW9tYWUnLCAnPG91dGZpbGUubWFlPic=

> <r_lp_tautomer_probability>
1

> <r_epik_Ionization_Penalty>
0.000793976

> <r_epik_Ionization_Penalty_Charging>
0

> <r_epik_Ionization_Penalty_Neutral>
0.000793976

> <r_epik_State_Penalty>
-0

> <r_epik_Charging_Adjusted_Penalty>
0

> <i_epik_Tot_Q>
0

> <i_epik_Tot_abs_Q>
0

> <r_epik_Metal_State_Penalty>
-0

> <b_epik_Metal_Only>
0

> <s_epik_Chemistry_Notes>
This compound contains an acetal/aminal-like group ( X-CH(R)-Y where X, Y are N, S, or O) that may be acid/base labile, releasing an aldehyde.

> <s_lp_Force_Field>
OPLS_2005

> <r_lp_Energy>
54.5538

> <b_lp_Chiralities_Consistent>
1

> <s_lp_Variant>
AV-unprocessed.smi:109-1

> <Gold.Version>
5.8.1

> <Gold.Id.Protein>
6NUR|6NUR_protein|mol2

> <Gold.PLP.Fitness>
53.0110

> <Gold.PLP.PLP>
-40.4763

> <Gold.PLP.part.hbond>
-6.7387

> <Gold.PLP.part.metal>
0.0000

> <Gold.PLP.part.buried>
-2.4288

> <Gold.PLP.part.nonpolar>
-30.9742

> <Gold.PLP.part.repulsive>
0.3703

> <Gold.PLP.ligand.clash>
0.0000

> <Gold.PLP.ligand.torsion>
1.5243

> <Gold.PLP.Chemscore.Hbond>
5.0985

> <Gold.PLP.Chemscore.CHOScore>
0.0000

> <Gold.PLP.Chemscore.Metal>
0.0000

> <Gold.Chemscore.Hbonds>
donor molecule, donor type, donor heavy atom, donor atom, acceptor molecule, acceptor atom, score
      L1  H     1    34       P1  8028  0.81
      L1  H    19    45       P1  7948  0.82
      P1  H  6896  6909       L1    23  0.61
      P1  H  7997  8008       L1     7  0.86
      P1  H  8011  8017       L1     1  0.30
      P1  H 10752 10765       L1     9  0.88

> <Gold.PLP.Chemscore.Internal.Correction>
0.2878

> <Gold.Rescore>
     Score         DG    S(hbond)    S(metal)    S(lipo)     H(rot)  DE(clash)    DE(int)     intcor
     12.11     -14.14       3.42        0.00      96.13       5.47       0.44       1.59       ----

> <Gold.Chemscore.Fitness>
12.1127

> <Gold.Chemscore.DG>
-14.1407

> <Gold.Chemscore.ZeroCoef>
-5.4800

> <Gold.Chemscore.Hbond>
3.4154

> <Gold.Chemscore.Metal>
0.0000

> <Gold.Chemscore.Lipo>
96.1267

> <Gold.Chemscore.Internal_Hbond>
0.0000

> <Gold.Chemscore.DEClash>
0.4376

> <Gold.Chemscore.DEInternal>
1.5903

> <Gold.Chemscore.Rot>
5.4662

> <Gold.Chemscore.Internal.Correction>
   9.000000E+99

> <Gold.Chemscore.Hbonds>
donor molecule, donor type, donor heavy atom, donor atom, acceptor molecule, acceptor atom, score
      L1  H     1    34       P1  8028  0.80
      L1  H    19    45       P1  7948  0.13
      P1  H  6896  6909       L1    23  0.29
      P1  H  7997  8008       L1     7  0.47
      P1  H  8011  8017       L1     1  0.28
      P1  H 10752 10765       L1     9  0.67

> <Gold.Chemscore.Hbond.Weighted>
-11.4074

> <Gold.Chemscore.Metal.Weighted>
-0.0000

> <Gold.Chemscore.Lipo.Weighted>
-11.2468

> <Gold.Chemscore.Internal_Hbond.Weighted>
0.0000

> <Gold.Chemscore.DEClash.Weighted>
0.4376

> <Gold.Chemscore.DEInternal.Weighted>
1.5903

> <Gold.Chemscore.Rot.Weighted>
13.9935

> <Gold.Chemscore.Internal.Correction.Weighted>
   9.000000E+99

> <Gold.Protein.RotatedTorsions>
[ 6907 6896 6895 6894 ] final  -43.03 input  -60.11 | X-H torsion
[ 7974 7965 7964 7962 ] final   66.29 input  175.53 | X-H torsion
[ 8008 7997 7996 7995 ] final  -13.63 input   59.86 | X-H torsion
[ 10167 10162 10161 10158 ] final -152.93 input  -65.29 | X-H torsion
[ 10718 10713 10712 10709 ] final -129.25 input   66.30 | X-H torsion
[ 10763 10752 10751 10750 ] final  168.94 input  -60.55 | X-H torsion
[ 11005 11000 10999 10996 ] final   44.75 input  -57.11 | X-H torsion

> <Gold.Protein.ActiveResidues>
 VAL166  LYS551  ARG553  GLY616  TRP617  ASP618  TYR619  PRO620  LYS621  CYS622 
 ASP623  PHE694  ASN695  SER759  ASP760  ASP761  ALA762  ILE779  LEU786  VAL792 
 PHE793  MET794  SER795  GLU796  ALA797  LYS798  CYS799  TRP800  GLU811  SER814 

> <Gold.Protein.RotatedAtoms>
  150.9485  134.8888  159.7656 H   0  0  0  0  0  0  0  0  0  0  0  0  # atno 6907 bound_to 6896
  152.5110  134.3840  159.9371 H   0  0  0  0  0  0  0  0  0  0  0  0  # atno 6908 bound_to 6896
  151.3857  133.3766  159.2750 H   0  0  0  0  0  0  0  0  0  0  0  0  # atno 6909 bound_to 6896
  145.8283  139.3124  143.1002 H   0  0  0  0  0  0  0  0  0  0  0  0  # atno 7974 bound_to 7965
  154.5276  140.2244  155.8862 H   0  0  0  0  0  0  0  0  0  0  0  0  # atno 8008 bound_to 7997
  156.1730  140.3117  155.8972 H   0  0  0  0  0  0  0  0  0  0  0  0  # atno 8009 bound_to 7997
  155.3519  140.0456  157.3037 H   0  0  0  0  0  0  0  0  0  0  0  0  # atno 8010 bound_to 7997
  139.7140  143.9063  152.2479 H   0  0  0  0  0  0  0  0  0  0  0  0  # atno 10167 bound_to 10162
  156.2028  130.6868  151.0559 H   0  0  0  0  0  0  0  0  0  0  0  0  # atno 10718 bound_to 10713
  154.3759  135.2753  155.2240 H   0  0  0  0  0  0  0  0  0  0  0  0  # atno 10763 bound_to 10752
  154.4367  135.5964  153.6106 H   0  0  0  0  0  0  0  0  0  0  0  0  # atno 10764 bound_to 10752
  152.9836  135.6009  154.3995 H   0  0  0  0  0  0  0  0  0  0  0  0  # atno 10765 bound_to 10752
  140.1523  134.4446  155.8373 H   0  0  0  0  0  0  0  0  0  0  0  0  # atno 11005 bound_to 11000
  145.9598  140.8844  143.0216 LP  0  0  0  0  0  0  0  0  0  0  0  0  # atno 17320 bound_to 7965
  144.6742  140.1797  143.7407 LP  0  0  0  0  0  0  0  0  0  0  0  0  # atno 17321 bound_to 7965
  139.8940  144.6949  150.8739 LP  0  0  0  0  0  0  0  0  0  0  0  0  # atno 17342 bound_to 10162
  140.7739  143.3564  151.1912 LP  0  0  0  0  0  0  0  0  0  0  0  0  # atno 17343 bound_to 10162
  157.6995  131.0781  150.6864 LP  0  0  0  0  0  0  0  0  0  0  0  0  # atno 17370 bound_to 10713
  156.6921  130.4598  149.5597 LP  0  0  0  0  0  0  0  0  0  0  0  0  # atno 17371 bound_to 10713
  141.2200  133.6877  156.7443 LP  0  0  0  0  0  0  0  0  0  0  0  0  # atno 17394 bound_to 11000
  140.2590  134.8481  157.3740 LP  0  0  0  0  0  0  0  0  0  0  0  0  # atno 17395 bound_to 11000

$$$$
