AV-unprocessed.smi:2224|AV-procd|sdf|8997|dock8
  -GOLD-   2272012203D 1   1.00000     0.00000
 Structure written by MMmdl.
 44 46  0  0  0  0  0  0  0  0  1 V2000
  144.5892  132.2473  149.9191 C   0  0  0  0  0  0  0  0  0  0  0  0
  144.3937  133.2674  151.0210 C   0  0  0  0  0  0  0  0  0  0  0  0
  143.1144  133.5227  151.5506 C   0  0  0  0  0  0  0  0  0  0  0  0
  142.9985  134.4835  152.5742 C   0  0  0  0  0  0  0  0  0  0  0  0
  141.6536  134.8055  153.1910 C   0  0  0  0  0  0  0  0  0  0  0  0
  144.0544  135.1649  153.0678 N   0  0  0  0  0  0  0  0  0  0  0  0
  145.2915  134.9277  152.5652 C   0  0  0  0  0  0  0  0  0  0  0  0
  146.4653  135.5888  153.0160 N   0  0  0  0  0  0  0  0  0  0  0  0
  146.7745  135.9700  154.2680 C   0  0  0  0  0  0  0  0  0  0  0  0
  146.0576  135.8194  155.2577 O   0  0  0  0  0  0  0  0  0  0  0  0
  147.9859  136.5410  154.3172 N   0  0  0  0  0  0  0  0  0  0  0  0
  148.6116  137.0538  155.5410 C   0  0  2  0  0  0  0  0  0  0  0  0
  149.8759  137.8711  155.2616 C   0  0  2  0  0  0  0  0  0  0  0  0
  150.4669  138.5489  154.0785 C   0  0  0  0  0  0  0  0  0  0  0  0
  151.9387  138.1179  154.3242 C   0  0  0  0  0  0  0  0  0  0  0  0
  151.8938  137.1240  155.3803 O   0  0  0  0  0  0  0  0  0  0  0  0
  150.6099  136.5465  155.2490 C   0  0  1  0  0  0  0  0  0  0  0  0
  149.5785  136.0489  156.2862 C   0  0  0  0  0  0  0  0  0  0  0  0
  149.8812  136.3309  157.7690 C   0  0  0  0  0  0  0  0  0  0  0  0
  149.2380  134.5565  156.2072 C   0  0  0  0  0  0  0  0  0  0  0  0
  145.4948  133.9810  151.5359 C   0  0  0  0  0  0  0  0  0  0  0  0
  143.6580  131.7288  149.6891 H   0  0  0  0  0  0  0  0  0  0  0  0
  145.3277  131.5036  150.2190 H   0  0  0  0  0  0  0  0  0  0  0  0
  144.9416  132.7361  149.0107 H   0  0  0  0  0  0  0  0  0  0  0  0
  142.2456  132.9965  151.1827 H   0  0  0  0  0  0  0  0  0  0  0  0
  140.8394  134.3628  152.6163 H   0  0  0  0  0  0  0  0  0  0  0  0
  141.4963  135.8840  153.2251 H   0  0  0  0  0  0  0  0  0  0  0  0
  141.6033  134.4183  154.2089 H   0  0  0  0  0  0  0  0  0  0  0  0
  147.1534  135.7838  152.3042 H   0  0  0  0  0  0  0  0  0  0  0  0
  148.5129  136.6285  153.4607 H   0  0  0  0  0  0  0  0  0  0  0  0
  147.9184  137.5650  156.2111 H   0  0  0  0  0  0  0  0  0  0  0  0
  150.0991  138.4686  156.1489 H   0  0  0  0  0  0  0  0  0  0  0  0
  150.0765  138.1570  153.1385 H   0  0  0  0  0  0  0  0  0  0  0  0
  150.3367  139.6311  154.0992 H   0  0  0  0  0  0  0  0  0  0  0  0
  152.3751  137.6929  153.4194 H   0  0  0  0  0  0  0  0  0  0  0  0
  152.5617  138.9555  154.6388 H   0  0  0  0  0  0  0  0  0  0  0  0
  150.5336  136.0024  154.3020 H   0  0  0  0  0  0  0  0  0  0  0  0
  150.7862  135.8150  158.0910 H   0  0  0  0  0  0  0  0  0  0  0  0
  149.0680  135.9903  158.4107 H   0  0  0  0  0  0  0  0  0  0  0  0
  150.0254  137.3869  157.9912 H   0  0  0  0  0  0  0  0  0  0  0  0
  150.0160  133.9432  156.6627 H   0  0  0  0  0  0  0  0  0  0  0  0
  149.1327  134.2143  155.1775 H   0  0  0  0  0  0  0  0  0  0  0  0
  148.3008  134.3341  156.7186 H   0  0  0  0  0  0  0  0  0  0  0  0
  146.4855  133.8007  151.1435 H   0  0  0  0  0  0  0  0  0  0  0  0
  1  2  1  0  0  0  0
  1 22  1  0  0  0  0
  1 23  1  0  0  0  0
  1 24  1  0  0  0  0
  2 21  1  0  0  0  0
  2  3  2  0  0  0  0
  3  4  1  0  0  0  0
  3 25  1  0  0  0  0
  4  5  1  0  0  0  0
  4  6  2  0  0  0  0
  5 26  1  0  0  0  0
  5 27  1  0  0  0  0
  5 28  1  0  0  0  0
  6  7  1  0  0  0  0
  7  8  1  0  0  0  0
  7 21  2  0  0  0  0
  8  9  1  0  0  0  0
  8 29  1  0  0  0  0
  9 10  2  0  0  0  0
  9 11  1  0  0  0  0
 11 12  1  0  0  0  0
 11 30  1  0  0  0  0
 12 18  1  0  0  0  0
 12 13  1  0  0  0  0
 12 31  1  0  0  0  0
 13 17  1  0  0  0  0
 13 14  1  0  0  0  0
 13 32  1  0  0  0  0
 14 15  1  0  0  0  0
 14 33  1  0  0  0  0
 14 34  1  0  0  0  0
 15 16  1  0  0  0  0
 15 35  1  0  0  0  0
 15 36  1  0  0  0  0
 16 17  1  0  0  0  0
 17 18  1  0  0  0  0
 17 37  1  0  0  0  0
 18 19  1  0  0  0  0
 18 20  1  0  0  0  0
 19 38  1  0  0  0  0
 19 39  1  0  0  0  0
 19 40  1  0  0  0  0
 20 41  1  0  0  0  0
 20 42  1  0  0  0  0
 20 43  1  0  0  0  0
 21 44  1  0  0  0  0
M  END
> <s_m_source_file>
AV-unprocessed.smi

> <i_m_source_file_index>
2224

> <i_lp_mmshare_version>
43012

> <i_f3d_flags>
0

> <s_epik_input>
W0NIM11jMVtjSF1jKFtDSDNdKW5jKFtjSF0xKVtOSF1DKD1PKVtOSF1bQ0BIXTJDKFtDSDNdKShbQ0gzXSlbQ0BIXShbQ0BASF0yMylPW0NIMl1bQ0gyXTM=

> <s_epik_cmdline>
J2VwaWtfcHl0aG9uJywgJy1waCcsICc3LjAnLCAnLXRuJywgJzgnLCAnLW1hJywgJzIwMCcsICctbWV0YWxfYmluZGluZycsICctaW1hZScsICc8aW5maWxlLm1hZT4nLCAnLW9tYWUnLCAnPG91dGZpbGUubWFlPic=

> <r_lp_tautomer_probability>
1

> <r_epik_Ionization_Penalty>
0.000276544

> <r_epik_Ionization_Penalty_Charging>
0

> <r_epik_Ionization_Penalty_Neutral>
0.000276544

> <r_epik_State_Penalty>
-0

> <r_epik_Charging_Adjusted_Penalty>
0

> <i_epik_Tot_Q>
0

> <i_epik_Tot_abs_Q>
0

> <r_epik_Metal_State_Penalty>
-0

> <b_epik_Metal_Only>
0

> <s_lp_Force_Field>
OPLS_2005

> <r_lp_Energy>
64.3879

> <b_lp_Chiralities_Consistent>
1

> <s_lp_Variant>
AV-unprocessed.smi:2224-7

> <Gold.Version>
5.8.1

> <Gold.Id.Protein>
6NUR|6NUR_protein|mol2

> <Gold.PLP.Fitness>
39.0370

> <Gold.PLP.PLP>
-30.9363

> <Gold.PLP.part.hbond>
-3.0000

> <Gold.PLP.part.metal>
0.0000

> <Gold.PLP.part.buried>
-4.6863

> <Gold.PLP.part.nonpolar>
-23.3726

> <Gold.PLP.part.repulsive>
0.1616

> <Gold.PLP.ligand.clash>
0.0000

> <Gold.PLP.ligand.torsion>
0.4921

> <Gold.PLP.Chemscore.Hbond>
2.9420

> <Gold.PLP.Chemscore.CHOScore>
0.0000

> <Gold.PLP.Chemscore.Metal>
0.0000

> <Gold.Chemscore.Hbonds>
donor molecule, donor type, donor heavy atom, donor atom, acceptor molecule, acceptor atom, score
      L1  H     8    29       P1  7948  0.99
      L1  H    11    30       P1  7948  1.00
      P1  H 10752 10764       L1    16  0.89

> <Gold.PLP.Chemscore.Internal.Correction>
0.2589

> <Gold.Rescore>
     Score         DG    S(hbond)    S(metal)    S(lipo)     H(rot)  DE(clash)    DE(int)     intcor
     17.94     -19.20       2.06        0.00      80.44       1.00       0.03       1.24       ----

> <Gold.Chemscore.Fitness>
17.9350

> <Gold.Chemscore.DG>
-19.2021

> <Gold.Chemscore.ZeroCoef>
-5.4800

> <Gold.Chemscore.Hbond>
2.0572

> <Gold.Chemscore.Metal>
0.0000

> <Gold.Chemscore.Lipo>
80.4363

> <Gold.Chemscore.Internal_Hbond>
0.0000

> <Gold.Chemscore.DEClash>
0.0274

> <Gold.Chemscore.DEInternal>
1.2397

> <Gold.Chemscore.Rot>
1.0000

> <Gold.Chemscore.Internal.Correction>
   9.000000E+99

> <Gold.Chemscore.Hbonds>
donor molecule, donor type, donor heavy atom, donor atom, acceptor molecule, acceptor atom, score
      L1  H     8    29       P1  7948  0.94
      L1  H    11    30       P1  7948  0.98
      P1  H 10752 10764       L1    16  0.08

> <Gold.Chemscore.Hbond.Weighted>
-6.8711

> <Gold.Chemscore.Metal.Weighted>
-0.0000

> <Gold.Chemscore.Lipo.Weighted>
-9.4110

> <Gold.Chemscore.Internal_Hbond.Weighted>
0.0000

> <Gold.Chemscore.DEClash.Weighted>
0.0274

> <Gold.Chemscore.DEInternal.Weighted>
1.2397

> <Gold.Chemscore.Rot.Weighted>
2.5600

> <Gold.Chemscore.Internal.Correction.Weighted>
   9.000000E+99

> <Gold.Protein.RotatedTorsions>
[ 6907 6896 6895 6894 ] final  158.28 input  -60.11 | X-H torsion
[ 7974 7965 7964 7962 ] final  118.83 input  175.53 | X-H torsion
[ 8008 7997 7996 7995 ] final -123.76 input   59.86 | X-H torsion
[ 10167 10162 10161 10158 ] final   78.15 input  -65.29 | X-H torsion
[ 10718 10713 10712 10709 ] final   48.77 input   66.30 | X-H torsion
[ 10763 10752 10751 10750 ] final  -52.96 input  -60.55 | X-H torsion
[ 11005 11000 10999 10996 ] final   -6.90 input  -57.11 | X-H torsion

> <Gold.Protein.ActiveResidues>
 VAL166  LYS551  ARG553  GLY616  TRP617  ASP618  TYR619  PRO620  LYS621  CYS622 
 ASP623  PHE694  ASN695  SER759  ASP760  ASP761  ALA762  ILE779  LEU786  VAL792 
 PHE793  MET794  SER795  GLU796  ALA797  LYS798  CYS799  TRP800  GLU811  SER814 

> <Gold.Protein.RotatedAtoms>
  152.0027  133.3831  159.4187 H   0  0  0  0  0  0  0  0  0  0  0  0  # atno 6907 bound_to 6896
  150.6908  134.3816  159.5046 H   0  0  0  0  0  0  0  0  0  0  0  0  # atno 6908 bound_to 6896
  152.1566  134.8946  160.0595 H   0  0  0  0  0  0  0  0  0  0  0  0  # atno 6909 bound_to 6896
  145.1504  139.3214  143.4569 H   0  0  0  0  0  0  0  0  0  0  0  0  # atno 7974 bound_to 7965
  155.1857  140.0412  157.2891 H   0  0  0  0  0  0  0  0  0  0  0  0  # atno 8008 bound_to 7997
  154.6173  140.2492  155.7566 H   0  0  0  0  0  0  0  0  0  0  0  0  # atno 8009 bound_to 7997
  156.2413  140.2902  156.0464 H   0  0  0  0  0  0  0  0  0  0  0  0  # atno 8010 bound_to 7997
  139.9739  144.5874  150.7960 H   0  0  0  0  0  0  0  0  0  0  0  0  # atno 10167 bound_to 10162
  157.4720  130.8261  149.7998 H   0  0  0  0  0  0  0  0  0  0  0  0  # atno 10718 bound_to 10713
  154.1511  135.6490  153.4964 H   0  0  0  0  0  0  0  0  0  0  0  0  # atno 10763 bound_to 10752
  153.0137  135.5338  154.6807 H   0  0  0  0  0  0  0  0  0  0  0  0  # atno 10764 bound_to 10752
  154.6095  135.2952  155.0419 H   0  0  0  0  0  0  0  0  0  0  0  0  # atno 10765 bound_to 10752
  140.7070  133.8941  155.8723 H   0  0  0  0  0  0  0  0  0  0  0  0  # atno 11005 bound_to 11000
  146.3495  140.1576  142.8591 LP  0  0  0  0  0  0  0  0  0  0  0  0  # atno 17320 bound_to 7965
  145.0437  140.8965  143.5037 LP  0  0  0  0  0  0  0  0  0  0  0  0  # atno 17321 bound_to 7965
  140.7512  143.2969  151.3181 LP  0  0  0  0  0  0  0  0  0  0  0  0  # atno 17342 bound_to 10162
  139.6460  144.0450  152.2591 LP  0  0  0  0  0  0  0  0  0  0  0  0  # atno 17343 bound_to 10162
  156.0078  130.3847  150.2369 LP  0  0  0  0  0  0  0  0  0  0  0  0  # atno 17370 bound_to 10713
  157.0552  131.0074  151.3240 LP  0  0  0  0  0  0  0  0  0  0  0  0  # atno 17371 bound_to 10713
  141.0116  134.1012  157.4215 LP  0  0  0  0  0  0  0  0  0  0  0  0  # atno 17394 bound_to 11000
  139.8881  135.0095  156.6604 LP  0  0  0  0  0  0  0  0  0  0  0  0  # atno 17395 bound_to 11000

$$$$
