#       Name:                AV-unprocessed.smi:2279
#       Creating user name   scv26
#       Creation time:       Fri Mar 27 12:40:12 2020


#       File generated by GOLD software.
#

@<TRIPOS>MOLECULE
AV-unprocessed.smi:2279
    61    63     1
SMALL
NO_CHARGES


@<TRIPOS>ATOM
      1 ****        -7.4513   2.9753   0.4716 C.3            1 S1                 0.0000
      2 ****        -6.7832   1.6255   0.3138 C.ar           1 S1                 0.0000
      3 ****        -7.5324   0.4356   0.3872 C.ar           1 S1                 0.0000
      4 ****        -6.8523  -0.7884   0.2348 C.ar           1 S1                 0.0000
      5 ****        -7.5962  -2.1058   0.2965 C.3            1 S1                 0.0000
      6 ****        -5.5208  -0.8706   0.0268 N.ar           1 S1                 0.0000
      7 ****        -4.7890   0.2688  -0.0461 C.ar           1 S1                 0.0000
      8 ****        -3.3873   0.2892  -0.2756 N.am           1 S1                 0.0000
      9 ****        -2.5409  -0.7549  -0.3213 C.2            1 S1                 0.0000
     10 ****        -2.8453  -1.9280  -0.1031 O.2            1 S1                 0.0000
     11 ****        -1.2942  -0.3612  -0.6221 N.am           1 S1                 0.0000
     12 ****        -0.1390  -1.2484  -0.7262 C.3            1 S1                 0.0000
     13 ****         0.5527  -1.4016   0.6424 C.3            1 S1                 0.0000
     14 ****         1.8601  -2.2112   0.5228 C.3            1 S1                 0.0000
     15 ****         2.7983  -1.6234  -0.4780 N.4            1 S1                 1.0000
     16 ****         3.4845  -0.3598  -0.0380 C.3            1 S1                 0.0000
     17 ****         4.3484   0.2791  -1.1556 C.3            1 S1                 0.0000
     18 ****         5.1134   1.5230  -0.6721 C.3            1 S1                 0.0000
     19 ****         5.9653   1.2072   0.4973 N.4            1 S1                 1.0000
     20 ****         6.8029   2.3538   0.9112 C.3            1 S1                 0.0000
     21 ****         5.1649   0.6575   1.6156 C.3            1 S1                 0.0000
     22 ****         4.4034  -0.6078   1.1845 C.3            1 S1                 0.0000
     23 ****         2.1265  -1.5711  -1.8086 C.3            1 S1                 0.0000
     24 ****         0.8526  -0.7060  -1.7695 C.3            1 S1                 0.0000
     25 ****        -5.3941   1.5384   0.0909 C.ar           1 S1                 0.0000
     26 ****        -8.5369   2.8783   0.5016 H              1 S1                 0.0000
     27 ****        -7.1915   3.6278  -0.3621 H              1 S1                 0.0000
     28 ****        -7.1248   3.4512   1.3965 H              1 S1                 0.0000
     29 ****        -8.5993   0.4603   0.5550 H              1 S1                 0.0000
     30 ****        -8.6754  -1.9499   0.3055 H              1 S1                 0.0000
     31 ****        -7.3219  -2.6526   1.1990 H              1 S1                 0.0000
     32 ****        -7.3507  -2.7229  -0.5683 H              1 S1                 0.0000
     33 ****        -2.9867   1.2028  -0.4281 H              1 S1                 0.0000
     34 ****        -1.1339   0.6215  -0.7885 H              1 S1                 0.0000
     35 ****        -0.4666  -2.2342  -1.0631 H              1 S1                 0.0000
     36 ****         0.7571  -0.4211   1.0732 H              1 S1                 0.0000
     37 ****        -0.1198  -1.9008   1.3412 H              1 S1                 0.0000
     38 ****         2.3233  -2.3356   1.4989 H              1 S1                 0.0000
     39 ****         1.6161  -3.2247   0.2006 H              1 S1                 0.0000
     40 ****         2.7260   0.3701   0.2455 H              1 S1                 0.0000
     41 ****         5.0554  -0.4551  -1.5451 H              1 S1                 0.0000
     42 ****         3.7287   0.5966  -1.9934 H              1 S1                 0.0000
     43 ****         5.7353   1.9044  -1.4831 H              1 S1                 0.0000
     44 ****         4.4118   2.3172  -0.4107 H              1 S1                 0.0000
     45 ****         6.1864   3.1915   1.2400 H              1 S1                 0.0000
     46 ****         7.4277   2.6928   0.0840 H              1 S1                 0.0000
     47 ****         7.4639   2.0723   1.7317 H              1 S1                 0.0000
     48 ****         5.8242   0.4174   2.4508 H              1 S1                 0.0000
     49 ****         4.4646   1.4145   1.9727 H              1 S1                 0.0000
     50 ****         3.8325  -0.9466   2.0470 H              1 S1                 0.0000
     51 ****         5.1169  -1.4007   0.9547 H              1 S1                 0.0000
     52 ****         2.8006  -1.2485  -2.5997 H              1 S1                 0.0000
     53 ****         1.8512  -2.5893  -2.0877 H              1 S1                 0.0000
     54 ****         0.3840  -0.6999  -2.7544 H              1 S1                 0.0000
     55 ****         1.1100   0.3302  -1.5469 H              1 S1                 0.0000
     56 ****        -4.8002   2.4390   0.0296 H              1 S1                 0.0000
     57 ****         3.5421  -2.2989  -0.5845 H              1 S1                 0.0000
     58 ****         6.6031   0.4792   0.2075 H              1 S1                 0.0000
     59 ****        -5.0789  -1.7622  -0.0724 LP             1 S1                 0.0000
     60 ****        -3.7884  -2.1648   0.1303 LP             1 S1                 0.0000
     61 ****        -2.1494  -2.6439  -0.1592 LP             1 S1                 0.0000
@<TRIPOS>BOND
    1    1    2 1     
    2    1   26 1     
    3    1   27 1     
    4    1   28 1     
    5    2   25 ar    
    6    2    3 ar    
    7    3    4 ar    
    8    3   29 1     
    9    4    5 1     
   10    4    6 ar    
   11    5   30 1     
   12    5   31 1     
   13    5   32 1     
   14    6    7 ar    
   15    7    8 1     
   16    7   25 ar    
   17    8    9 am    
   18    8   33 1     
   19    9   10 2     
   20    9   11 am    
   21   11   12 1     
   22   11   34 1     
   23   12   24 1     
   24   12   13 1     
   25   12   35 1     
   26   13   14 1     
   27   13   36 1     
   28   13   37 1     
   29   14   15 1     
   30   14   38 1     
   31   14   39 1     
   32   15   16 1     
   33   15   23 1     
   34   15   57 1     
   35   16   22 1     
   36   16   17 1     
   37   16   40 1     
   38   17   18 1     
   39   17   41 1     
   40   17   42 1     
   41   18   19 1     
   42   18   43 1     
   43   18   44 1     
   44   19   20 1     
   45   19   21 1     
   46   19   58 1     
   47   20   45 1     
   48   20   46 1     
   49   20   47 1     
   50   21   22 1     
   51   21   48 1     
   52   21   49 1     
   53   22   50 1     
   54   22   51 1     
   55   23   24 1     
   56   23   52 1     
   57   23   53 1     
   58   24   54 1     
   59   24   55 1     
   60   25   56 1     
   61    6   59 1     
   62   10   60 1     
   63   10   61 1     
@<TRIPOS>SUBSTRUCTURE
      1 S1             1
@<TRIPOS>SET
LONE_PAIRS      STATIC     ATOMS    <user>   **** ""
3 59 60 61
DONOR_HYDROGENS      STATIC     ATOMS    <user>   **** ""
4 33 34 57 58
ATOM$BLUE        STATIC     ATOMS    COLORGROUP SYSTEM
3 59 60 61
ATOM$RED        STATIC     ATOMS    COLORGROUP SYSTEM
4 33 34 57 58
