#       Name:                AV-unprocessed.smi:184
#       Creating user name   scv26
#       Creation time:       Thu Mar 26 19:27:31 2020


#       File generated by GOLD software.
#

@<TRIPOS>MOLECULE
AV-unprocessed.smi:184
    63    67     1
SMALL
NO_CHARGES


@<TRIPOS>ATOM
      1 ****        -5.9541   0.6284   1.3306 O.2            1 S1                 0.0000
      2 ****        -4.9849   0.2664   0.6679 C.2            1 S1                 0.0000
      3 ****        -3.6532   1.0282   0.7963 C.3            1 S1                 0.0000
      4 ****        -2.5468   0.4437   0.0200 N.pl3          1 S1                 0.0000
      5 ****        -1.3177   1.0124   0.1268 C.ar           1 S1                 0.0000
      6 ****        -1.2167   2.3361   0.4200 N.ar           1 S1                 0.0000
      7 ****        -0.0184   2.9190   0.5146 C.ar           1 S1                 0.0000
      8 ****         1.1890   2.3726   0.3633 N.ar           1 S1                 0.0000
      9 ****         1.0978   1.0403   0.0882 C.ar           1 S1                 0.0000
     10 ****        -0.1036   0.2878  -0.0479 C.ar           1 S1                 0.0000
     11 ****         0.2028  -1.0413  -0.3182 N.2            1 S1                 0.0000
     12 ****         1.5064  -1.0686  -0.3581 C.2            1 S1                 0.0000
     13 ****         2.1258   0.1359  -0.1140 N.pl3          1 S1                 0.0000
     14 ****         3.5586   0.3873  -0.0893 C.3            1 S1                 0.0000
     15 ****         4.2068   0.2177   1.3076 C.3            1 S1                 0.0000
     16 ****         3.6553   1.2036   2.1627 O.3            1 S1                 0.0000
     17 ****         3.9357  -1.1706   1.9282 C.3            1 S1                 0.0000
     18 ****         4.7576  -1.4048   3.2082 C.3            1 S1                 0.0000
     19 ****         6.1416  -1.2115   2.9443 O.3            1 S1                 0.0000
     20 ****         6.4434   0.1194   2.5441 C.3            1 S1                 0.0000
     21 ****         5.7296   0.4444   1.2202 C.3            1 S1                 0.0000
     22 ****        -2.8713  -0.2272  -1.2403 C.3            1 S1                 0.0000
     23 ****        -3.3168   0.7863  -2.3224 C.3            1 S1                 0.0000
     24 ****        -3.7715   0.0811  -3.6081 C.3            1 S1                 0.0000
     25 ****        -4.8930  -0.9259  -3.3146 C.3            1 S1                 0.0000
     26 ****        -4.4416  -1.9602  -2.2711 C.3            1 S1                 0.0000
     27 ****        -3.9493  -1.3016  -0.9674 C.3            1 S1                 0.0000
     28 ****        -5.0641  -0.7711  -0.1829 N.am           1 S1                 0.0000
     29 ****        -3.8317   2.0556   0.4759 H              1 S1                 0.0000
     30 ****        -3.3753   1.0620   1.8505 H              1 S1                 0.0000
     31 ****        -0.0287   3.9743   0.7441 H              1 S1                 0.0000
     32 ****         2.0564  -1.9768  -0.5574 H              1 S1                 0.0000
     33 ****         4.0270  -0.2939  -0.8008 H              1 S1                 0.0000
     34 ****         3.7381   1.3931  -0.4721 H              1 S1                 0.0000
     35 ****         4.0564   1.1225   3.0144 H              1 S1                 0.0000
     36 ****         2.8755  -1.2980   2.1496 H              1 S1                 0.0000
     37 ****         4.1936  -1.9444   1.2040 H              1 S1                 0.0000
     38 ****         4.4329  -0.7411   4.0108 H              1 S1                 0.0000
     39 ****         4.6087  -2.4243   3.5642 H              1 S1                 0.0000
     40 ****         6.1589   0.8218   3.3287 H              1 S1                 0.0000
     41 ****         7.5222   0.2102   2.4169 H              1 S1                 0.0000
     42 ****         6.1451  -0.1960   0.4409 H              1 S1                 0.0000
     43 ****         5.9479   1.4701   0.9193 H              1 S1                 0.0000
     44 ****        -1.9994  -0.7483  -1.6325 H              1 S1                 0.0000
     45 ****        -4.1354   1.4052  -1.9540 H              1 S1                 0.0000
     46 ****        -2.4984   1.4700  -2.5503 H              1 S1                 0.0000
     47 ****        -4.1143   0.8188  -4.3341 H              1 S1                 0.0000
     48 ****        -2.9250  -0.4333  -4.0645 H              1 S1                 0.0000
     49 ****        -5.7781  -0.3988  -2.9566 H              1 S1                 0.0000
     50 ****        -5.1858  -1.4323  -4.2346 H              1 S1                 0.0000
     51 ****        -5.2530  -2.6576  -2.0595 H              1 S1                 0.0000
     52 ****        -3.6326  -2.5578  -2.6933 H              1 S1                 0.0000
     53 ****        -3.5014  -2.0815  -0.3496 H              1 S1                 0.0000
     54 ****        -5.9506  -1.2471  -0.2667 H              1 S1                 0.0000
     55 ****        -6.8269   0.1481   1.2435 LP             1 S1                 0.0000
     56 ****        -5.8702   1.4034   1.9570 LP             1 S1                 0.0000
     57 ****        -2.0450   2.8771   0.5658 LP             1 S1                 0.0000
     58 ****         2.0499   2.8752   0.4415 LP             1 S1                 0.0000
     59 ****        -0.4316  -1.8027  -0.4516 LP             1 S1                 0.0000
     60 ****         2.6677   1.0673   2.2410 LP             1 S1                 0.0000
     61 ****         3.8377   2.1133   1.7896 LP             1 S1                 0.0000
     62 ****         6.4182  -1.8358   2.2137 LP             1 S1                 0.0000
     63 ****         6.6579  -1.4207   3.7747 LP             1 S1                 0.0000
@<TRIPOS>BOND
    1    1    2 2     
    2    2   28 am    
    3    2    3 1     
    4    3    4 1     
    5    3   29 1     
    6    3   30 1     
    7    4    5 1     
    8    4   22 1     
    9    5   10 ar    
   10    5    6 ar    
   11    6    7 ar    
   12    7    8 ar    
   13    7   31 1     
   14    8    9 ar    
   15    9   13 1     
   16    9   10 ar    
   17   10   11 1     
   18   11   12 2     
   19   12   13 1     
   20   12   32 1     
   21   13   14 1     
   22   14   15 1     
   23   14   33 1     
   24   14   34 1     
   25   15   21 1     
   26   15   16 1     
   27   15   17 1     
   28   16   35 1     
   29   17   18 1     
   30   17   36 1     
   31   17   37 1     
   32   18   19 1     
   33   18   38 1     
   34   18   39 1     
   35   19   20 1     
   36   20   21 1     
   37   20   40 1     
   38   20   41 1     
   39   21   42 1     
   40   21   43 1     
   41   22   27 1     
   42   22   23 1     
   43   22   44 1     
   44   23   24 1     
   45   23   45 1     
   46   23   46 1     
   47   24   25 1     
   48   24   47 1     
   49   24   48 1     
   50   25   26 1     
   51   25   49 1     
   52   25   50 1     
   53   26   27 1     
   54   26   51 1     
   55   26   52 1     
   56   27   28 1     
   57   27   53 1     
   58   28   54 1     
   59    1   55 1     
   60    1   56 1     
   61    6   57 1     
   62    8   58 1     
   63   11   59 1     
   64   16   60 1     
   65   16   61 1     
   66   19   62 1     
   67   19   63 1     
@<TRIPOS>SUBSTRUCTURE
      1 S1             1
@<TRIPOS>SET
LONE_PAIRS      STATIC     ATOMS    <user>   **** ""
9 55 56 57 58 59 60 61 62 63
DONOR_HYDROGENS      STATIC     ATOMS    <user>   **** ""
2 35 54
ATOM$BLUE        STATIC     ATOMS    COLORGROUP SYSTEM
9 55 56 57 58 59 60 61 62 63
ATOM$RED        STATIC     ATOMS    COLORGROUP SYSTEM
2 35 54
