AV-unprocessed.smi:710|AV-procd|sdf|3463|dock1
  -GOLD-   22720 0453D 1   1.00000     0.00000
 Structure written by MMmdl.
 40 41  0  0  0  0  0  0  0  0  1 V2000
  151.8844  139.8406  156.4906 C   0  0  0  0  0  0  0  0  0  0  0  0
  152.1902  140.6270  157.7336 C   0  0  0  0  0  0  0  0  0  0  0  0
  153.1886  140.2371  158.5073 N   0  0  0  0  0  0  0  0  0  0  0  0
  153.2114  141.1264  159.5191 N   0  0  0  0  0  0  0  0  0  0  0  0
  154.2177  140.9731  160.5527 C   0  0  0  0  0  0  0  0  0  0  0  0
  152.2213  142.0829  159.3852 C   0  0  0  0  0  0  0  0  0  0  0  0
  152.0333  143.1890  160.3739 C   0  0  0  0  0  0  0  0  0  0  0  0
  151.5353  141.7905  158.2357 C   0  0  0  0  0  0  0  0  0  0  0  0
  150.3634  142.5180  157.6257 C   0  0  0  0  0  0  0  0  0  0  0  0
  149.2708  141.5143  157.2579 C   0  0  0  0  0  0  0  0  0  0  0  0
  149.0516  140.5489  157.9886 O   0  0  0  0  0  0  0  0  0  0  0  0
  148.5999  141.7519  156.1208 N   0  0  0  0  0  0  0  0  0  0  0  0
  147.5309  140.9169  155.5802 C   0  0  0  0  0  0  0  0  0  0  0  0
  146.2874  141.7269  155.1384 C   0  0  2  0  0  0  0  0  0  0  0  0
  145.2589  140.8093  154.8115 O   0  0  0  0  0  0  0  0  0  0  0  0
  146.5627  142.5527  153.8700 C   0  0  0  0  0  0  0  0  0  0  0  0
  145.3945  143.5258  153.6773 C   0  0  0  0  0  0  0  0  0  0  0  0
  144.7991  143.9992  155.3205 S   0  0  0  0  0  0  0  0  0  0  0  0
  145.7686  142.7325  156.1827 C   0  0  0  0  0  0  0  0  0  0  0  0
  151.2745  140.4152  155.7940 H   0  0  0  0  0  0  0  0  0  0  0  0
  151.3413  138.9267  156.7311 H   0  0  0  0  0  0  0  0  0  0  0  0
  152.7978  139.5574  155.9669 H   0  0  0  0  0  0  0  0  0  0  0  0
  154.0620  141.6909  161.3573 H   0  0  0  0  0  0  0  0  0  0  0  0
  155.2081  141.1327  160.1257 H   0  0  0  0  0  0  0  0  0  0  0  0
  154.1676  139.9664  160.9688 H   0  0  0  0  0  0  0  0  0  0  0  0
  151.2057  143.8388  160.0916 H   0  0  0  0  0  0  0  0  0  0  0  0
  152.9305  143.8046  160.4407 H   0  0  0  0  0  0  0  0  0  0  0  0
  151.8193  142.7904  161.3656 H   0  0  0  0  0  0  0  0  0  0  0  0
  149.9494  143.2527  158.3170 H   0  0  0  0  0  0  0  0  0  0  0  0
  150.6544  143.0797  156.7374 H   0  0  0  0  0  0  0  0  0  0  0  0
  148.8544  142.5687  155.5850 H   0  0  0  0  0  0  0  0  0  0  0  0
  147.9603  140.4158  154.7122 H   0  0  0  0  0  0  0  0  0  0  0  0
  147.2591  140.1209  156.2760 H   0  0  0  0  0  0  0  0  0  0  0  0
  145.1202  140.8343  153.8771 H   0  0  0  0  0  0  0  0  0  0  0  0
  147.4761  143.1333  154.0078 H   0  0  0  0  0  0  0  0  0  0  0  0
  146.7176  141.9262  152.9905 H   0  0  0  0  0  0  0  0  0  0  0  0
  145.6830  144.4023  153.0969 H   0  0  0  0  0  0  0  0  0  0  0  0
  144.5779  143.0336  153.1486 H   0  0  0  0  0  0  0  0  0  0  0  0
  145.1813  142.2582  156.9701 H   0  0  0  0  0  0  0  0  0  0  0  0
  146.6081  143.2384  156.6609 H   0  0  0  0  0  0  0  0  0  0  0  0
  1  2  1  0  0  0  0
  1 20  1  0  0  0  0
  1 21  1  0  0  0  0
  1 22  1  0  0  0  0
  2  8  1  0  0  0  0
  2  3  2  0  0  0  0
  3  4  1  0  0  0  0
  4  5  1  0  0  0  0
  4  6  1  0  0  0  0
  5 23  1  0  0  0  0
  5 24  1  0  0  0  0
  5 25  1  0  0  0  0
  6  7  1  0  0  0  0
  6  8  2  0  0  0  0
  7 26  1  0  0  0  0
  7 27  1  0  0  0  0
  7 28  1  0  0  0  0
  8  9  1  0  0  0  0
  9 10  1  0  0  0  0
  9 29  1  0  0  0  0
  9 30  1  0  0  0  0
 10 11  2  0  0  0  0
 10 12  1  0  0  0  0
 12 13  1  0  0  0  0
 12 31  1  0  0  0  0
 13 14  1  0  0  0  0
 13 32  1  0  0  0  0
 13 33  1  0  0  0  0
 14 19  1  0  0  0  0
 14 15  1  0  0  0  0
 14 16  1  0  0  0  0
 15 34  1  0  0  0  0
 16 17  1  0  0  0  0
 16 35  1  0  0  0  0
 16 36  1  0  0  0  0
 17 18  1  0  0  0  0
 17 37  1  0  0  0  0
 17 38  1  0  0  0  0
 18 19  1  0  0  0  0
 19 39  1  0  0  0  0
 19 40  1  0  0  0  0
M  END
> <s_m_source_file>
AV-unprocessed.smi

> <i_m_source_file_index>
710

> <i_lp_mmshare_version>
43012

> <i_f3d_flags>
0

> <s_epik_input>
W0NIM11jMW5uKFtDSDNdKWMoW0NIM10pYzFbQ0gyXUMoPU8pW05IXVtDSDJdW0NAQF0yKFtPSF0pW0NIMl1bQ0gyXVNbQ0gyXTI=

> <s_epik_cmdline>
J2VwaWtfcHl0aG9uJywgJy1waCcsICc3LjAnLCAnLXRuJywgJzgnLCAnLW1hJywgJzIwMCcsICctbWV0YWxfYmluZGluZycsICctaW1hZScsICc8aW5maWxlLm1hZT4nLCAnLW9tYWUnLCAnPG91dGZpbGUubWFlPic=

> <r_lp_tautomer_probability>
1

> <r_epik_Ionization_Penalty>
0.00343686

> <r_epik_Ionization_Penalty_Charging>
0

> <r_epik_Ionization_Penalty_Neutral>
0.00343686

> <r_epik_State_Penalty>
0.00243544

> <r_epik_Charging_Adjusted_Penalty>
0.00243544

> <i_epik_Tot_Q>
0

> <i_epik_Tot_abs_Q>
0

> <r_epik_Metal_State_Penalty>
-0

> <b_epik_Metal_Only>
0

> <s_lp_Force_Field>
OPLS_2005

> <r_lp_Energy>
11.3483

> <b_lp_Chiralities_Consistent>
1

> <s_lp_Variant>
AV-unprocessed.smi:710-2

> <Gold.Version>
5.8.1

> <Gold.Id.Protein>
6NUR|6NUR_protein|mol2

> <Gold.PLP.Fitness>
42.9089

> <Gold.PLP.PLP>
-36.0051

> <Gold.PLP.part.hbond>
-3.0000

> <Gold.PLP.part.metal>
0.0000

> <Gold.PLP.part.buried>
-4.5761

> <Gold.PLP.part.nonpolar>
-28.3835

> <Gold.PLP.part.repulsive>
0.0497

> <Gold.PLP.ligand.clash>
0.0000

> <Gold.PLP.ligand.torsion>
0.5860

> <Gold.PLP.Chemscore.Hbond>
2.6806

> <Gold.PLP.Chemscore.CHOScore>
0.0000

> <Gold.PLP.Chemscore.Metal>
0.0000

> <Gold.Chemscore.Hbonds>
donor molecule, donor type, donor heavy atom, donor atom, acceptor molecule, acceptor atom, score
      L1  H    12    31       P1  8028  0.61
      L1  H    15    34       P1 10175  0.82
      P1  H  7997  8008       L1     3  0.78

> <Gold.PLP.Chemscore.Internal.Correction>
0.0341

> <Gold.Rescore>
     Score         DG    S(hbond)    S(metal)    S(lipo)     H(rot)  DE(clash)    DE(int)     intcor
     17.42     -18.32       2.57        0.00      81.91       2.07       0.24       0.66       ----

> <Gold.Chemscore.Fitness>
17.4226

> <Gold.Chemscore.DG>
-18.3212

> <Gold.Chemscore.ZeroCoef>
-5.4800

> <Gold.Chemscore.Hbond>
2.5658

> <Gold.Chemscore.Metal>
0.0000

> <Gold.Chemscore.Lipo>
81.9095

> <Gold.Chemscore.Internal_Hbond>
0.0000

> <Gold.Chemscore.DEClash>
0.2417

> <Gold.Chemscore.DEInternal>
0.6569

> <Gold.Chemscore.Rot>
2.0750

> <Gold.Chemscore.Internal.Correction>
   9.000000E+99

> <Gold.Chemscore.Hbonds>
donor molecule, donor type, donor heavy atom, donor atom, acceptor molecule, acceptor atom, score
      L1  H    12    31       P1  8028  0.60
      L1  H    15    34       P1 10175  0.70
      P1  H  7997  8008       L1     3  0.12

> <Gold.Chemscore.Hbond.Weighted>
-8.5698

> <Gold.Chemscore.Metal.Weighted>
-0.0000

> <Gold.Chemscore.Lipo.Weighted>
-9.5834

> <Gold.Chemscore.Internal_Hbond.Weighted>
0.0000

> <Gold.Chemscore.DEClash.Weighted>
0.2417

> <Gold.Chemscore.DEInternal.Weighted>
0.6569

> <Gold.Chemscore.Rot.Weighted>
5.3120

> <Gold.Chemscore.Internal.Correction.Weighted>
   9.000000E+99

> <Gold.Protein.RotatedTorsions>
[ 6907 6896 6895 6894 ] final -102.43 input  -60.11 | X-H torsion
[ 7974 7965 7964 7962 ] final  -21.18 input  175.53 | X-H torsion
[ 8008 7997 7996 7995 ] final  -86.20 input   59.86 | X-H torsion
[ 10167 10162 10161 10158 ] final -127.18 input  -65.29 | X-H torsion
[ 10718 10713 10712 10709 ] final  -98.71 input   66.30 | X-H torsion
[ 10763 10752 10751 10750 ] final   31.35 input  -60.55 | X-H torsion
[ 11005 11000 10999 10996 ] final  -27.85 input  -57.11 | X-H torsion

> <Gold.Protein.ActiveResidues>
 VAL166  LYS551  ARG553  GLY616  TRP617  ASP618  TYR619  PRO620  LYS621  CYS622 
 ASP623  PHE694  ASN695  SER759  ASP760  ASP761  ALA762  ILE779  LEU786  VAL792 
 PHE793  MET794  SER795  GLU796  ALA797  LYS798  CYS799  TRP800  GLU811  SER814 

> <Gold.Protein.RotatedAtoms>
  150.7196  134.0583  159.3822 H   0  0  0  0  0  0  0  0  0  0  0  0  # atno 6907 bound_to 6896
  151.8562  135.0538  160.0473 H   0  0  0  0  0  0  0  0  0  0  0  0  # atno 6908 bound_to 6896
  152.2752  133.5383  159.5500 H   0  0  0  0  0  0  0  0  0  0  0  0  # atno 6909 bound_to 6896
  146.1747  140.4305  142.8518 H   0  0  0  0  0  0  0  0  0  0  0  0  # atno 7974 bound_to 7965
  154.6492  140.0581  156.9935 H   0  0  0  0  0  0  0  0  0  0  0  0  # atno 8008 bound_to 7997
  155.1398  140.3264  155.4436 H   0  0  0  0  0  0  0  0  0  0  0  0  # atno 8009 bound_to 7997
  156.2568  140.1966  156.6514 H   0  0  0  0  0  0  0  0  0  0  0  0  # atno 8010 bound_to 7997
  139.9636  143.5923  152.2437 H   0  0  0  0  0  0  0  0  0  0  0  0  # atno 10167 bound_to 10162
  156.0114  130.5250  150.6562 H   0  0  0  0  0  0  0  0  0  0  0  0  # atno 10718 bound_to 10713
  153.0321  135.6441  154.1185 H   0  0  0  0  0  0  0  0  0  0  0  0  # atno 10763 bound_to 10752
  154.0906  135.2866  155.3274 H   0  0  0  0  0  0  0  0  0  0  0  0  # atno 10764 bound_to 10752
  154.6467  135.5440  153.7917 H   0  0  0  0  0  0  0  0  0  0  0  0  # atno 10765 bound_to 10752
  140.9156  133.7432  156.0730 H   0  0  0  0  0  0  0  0  0  0  0  0  # atno 11005 bound_to 11000
  144.8218  140.6562  143.6348 LP  0  0  0  0  0  0  0  0  0  0  0  0  # atno 17320 bound_to 7965
  145.4243  139.1559  143.4057 LP  0  0  0  0  0  0  0  0  0  0  0  0  # atno 17321 bound_to 7965
  139.6535  144.7661  151.2101 LP  0  0  0  0  0  0  0  0  0  0  0  0  # atno 17342 bound_to 10162
  140.7545  143.6123  150.8593 LP  0  0  0  0  0  0  0  0  0  0  0  0  # atno 17343 bound_to 10162
  157.4314  131.0849  151.1035 LP  0  0  0  0  0  0  0  0  0  0  0  0  # atno 17370 bound_to 10713
  157.1607  130.6224  149.5610 LP  0  0  0  0  0  0  0  0  0  0  0  0  # atno 17371 bound_to 10713
  140.8054  134.3461  157.5427 LP  0  0  0  0  0  0  0  0  0  0  0  0  # atno 17394 bound_to 11000
  139.8765  134.9222  156.3295 LP  0  0  0  0  0  0  0  0  0  0  0  0  # atno 17395 bound_to 11000

$$$$
