AV-unprocessed.smi:100|AV-procd|sdf|900|dock2
  -GOLD-   2262017393D 1   1.00000     0.00000
 Structure written by MMmdl.
 31 33  0  0  0  0  0  0  0  0  1 V2000
  153.7045  141.1149  162.0107 N   0  0  0  0  0  0  0  0  0  0  0  0
  153.1393  141.6799  160.9350 C   0  0  0  0  0  0  0  0  0  0  0  0
  152.9219  143.0155  160.9505 N   0  0  0  0  0  0  0  0  0  0  0  0
  152.3591  143.6018  159.8892 C   0  0  0  0  0  0  0  0  0  0  0  0
  151.9508  143.0445  158.7465 N   0  0  0  0  0  0  0  0  0  0  0  0
  152.1686  141.6971  158.7307 C   0  0  0  0  0  0  0  0  0  0  0  0
  152.7596  140.9442  159.7839 C   0  0  0  0  0  0  0  0  0  0  0  0
  152.8319  139.6050  159.4270 N   0  0  0  0  0  0  0  0  0  0  0  0
  152.3103  139.5720  158.2304 C   0  0  0  0  0  0  0  0  0  0  0  0
  151.8827  140.7840  157.7326 N   0  0  0  0  0  0  0  0  0  0  0  0
  151.2464  141.0334  156.3959 C   0  0  1  0  0  0  0  0  0  0  0  0
  151.4116  139.9146  155.5739 O   0  0  0  0  0  0  0  0  0  0  0  0
  150.1427  139.3489  155.2500 C   0  0  2  0  0  0  0  0  0  0  0  0
  150.1867  138.6421  153.8865 C   0  0  0  0  0  0  0  0  0  0  0  0
  150.4280  137.2624  154.0622 O   0  0  0  0  0  0  0  0  0  0  0  0
  149.1953  140.5484  155.3079 C   0  0  2  0  0  0  0  0  0  0  0  0
  149.2981  141.2854  154.1993 F   0  0  0  0  0  0  0  0  0  0  0  0
  149.7370  141.3354  156.4866 C   0  0  1  0  0  0  0  0  0  0  0  0
  149.1248  140.9244  157.6964 O   0  0  0  0  0  0  0  0  0  0  0  0
  153.8770  140.1199  162.0231 H   0  0  0  0  0  0  0  0  0  0  0  0
  153.9511  141.6842  162.8073 H   0  0  0  0  0  0  0  0  0  0  0  0
  152.2161  144.6696  159.9653 H   0  0  0  0  0  0  0  0  0  0  0  0
  152.2218  138.6519  157.6712 H   0  0  0  0  0  0  0  0  0  0  0  0
  151.8162  141.8608  155.9709 H   0  0  0  0  0  0  0  0  0  0  0  0
  149.8432  138.6453  156.0278 H   0  0  0  0  0  0  0  0  0  0  0  0
  149.2258  138.7432  153.3808 H   0  0  0  0  0  0  0  0  0  0  0  0
  150.9445  139.0798  153.2362 H   0  0  0  0  0  0  0  0  0  0  0  0
  150.5779  136.8727  153.2144 H   0  0  0  0  0  0  0  0  0  0  0  0
  148.1471  140.2662  155.4121 H   0  0  0  0  0  0  0  0  0  0  0  0
  149.5710  142.4074  156.3726 H   0  0  0  0  0  0  0  0  0  0  0  0
  148.4186  140.3318  157.4880 H   0  0  0  0  0  0  0  0  0  0  0  0
  1  2  1  0  0  0  0
  1 20  1  0  0  0  0
  1 21  1  0  0  0  0
  2  7  1  0  0  0  0
  2  3  2  0  0  0  0
  3  4  1  0  0  0  0
  4  5  2  0  0  0  0
  4 22  1  0  0  0  0
  5  6  1  0  0  0  0
  6 10  1  0  0  0  0
  6  7  2  0  0  0  0
  7  8  1  0  0  0  0
  8  9  2  0  0  0  0
  9 10  1  0  0  0  0
  9 23  1  0  0  0  0
 10 11  1  0  0  0  0
 11 18  1  0  0  0  0
 11 12  1  0  0  0  0
 11 24  1  0  0  0  0
 12 13  1  0  0  0  0
 13 14  1  0  0  0  0
 13 16  1  0  0  0  0
 13 25  1  0  0  0  0
 14 15  1  0  0  0  0
 14 26  1  0  0  0  0
 14 27  1  0  0  0  0
 15 28  1  0  0  0  0
 16 17  1  0  0  0  0
 16 18  1  0  0  0  0
 16 29  1  0  0  0  0
 18 19  1  0  0  0  0
 18 30  1  0  0  0  0
 19 31  1  0  0  0  0
M  END
> <s_m_source_file>
AV-unprocessed.smi

> <i_m_source_file_index>
100

> <i_lp_mmshare_version>
43012

> <i_f3d_flags>
0

> <s_epik_input>
bjFbY0hdbmMoW05IMl0pYyhjMTIpbltjSF1uMltDQEBIXTNPW0NAQEhdKFtDSDJdW09IXSlbQ0BIXShGKVtDQEhdM1tPSF0=

> <s_epik_cmdline>
J2VwaWtfcHl0aG9uJywgJy1waCcsICc3LjAnLCAnLXRuJywgJzgnLCAnLW1hJywgJzIwMCcsICctbWV0YWxfYmluZGluZycsICctaW1hZScsICc8aW5maWxlLm1hZT4nLCAnLW9tYWUnLCAnPG91dGZpbGUubWFlPic=

> <r_lp_tautomer_probability>
1

> <r_epik_Ionization_Penalty>
0.000750324

> <r_epik_Ionization_Penalty_Charging>
0

> <r_epik_Ionization_Penalty_Neutral>
0.000750324

> <r_epik_State_Penalty>
-0

> <r_epik_Charging_Adjusted_Penalty>
0

> <i_epik_Tot_Q>
0

> <i_epik_Tot_abs_Q>
0

> <r_epik_Metal_State_Penalty>
-0

> <b_epik_Metal_Only>
0

> <s_epik_Chemistry_Notes>
This compound contains an acetal/aminal-like group ( X-CH(R)-Y where X, Y are N, S, or O) that may be acid/base labile, releasing an aldehyde.

> <s_lp_Force_Field>
OPLS_2005

> <r_lp_Energy>
36.2821

> <b_lp_Chiralities_Consistent>
1

> <s_lp_Variant>
AV-unprocessed.smi:100-4

> <Gold.Version>
5.8.1

> <Gold.Id.Protein>
6NUR|6NUR_protein|mol2

> <Gold.PLP.Fitness>
36.8266

> <Gold.PLP.PLP>
-34.1183

> <Gold.PLP.part.hbond>
-2.8241

> <Gold.PLP.part.metal>
0.0000

> <Gold.PLP.part.buried>
-4.1405

> <Gold.PLP.part.nonpolar>
-26.2796

> <Gold.PLP.part.repulsive>
0.1242

> <Gold.PLP.ligand.clash>
0.0000

> <Gold.PLP.ligand.torsion>
0.7437

> <Gold.PLP.Chemscore.Hbond>
1.3969

> <Gold.PLP.Chemscore.CHOScore>
0.0000

> <Gold.PLP.Chemscore.Metal>
0.0000

> <Gold.Chemscore.Hbonds>
donor molecule, donor type, donor heavy atom, donor atom, acceptor molecule, acceptor atom, score
      L1  H    15    28       P1  7949  0.45
      P1  H  7989  7998       L1    12  0.23

> <Gold.PLP.Chemscore.Internal.Correction>
0.0051

> <Gold.Rescore>
     Score         DG    S(hbond)    S(metal)    S(lipo)     H(rot)  DE(clash)    DE(int)     intcor
      3.59      -4.46       1.08        0.00      30.25       3.19       0.00       0.87       ----

> <Gold.Chemscore.Fitness>
3.5869

> <Gold.Chemscore.DG>
-4.4574

> <Gold.Chemscore.ZeroCoef>
-5.4800

> <Gold.Chemscore.Hbond>
1.0792

> <Gold.Chemscore.Metal>
0.0000

> <Gold.Chemscore.Lipo>
30.2537

> <Gold.Chemscore.Internal_Hbond>
0.0000

> <Gold.Chemscore.DEClash>
0.0038

> <Gold.Chemscore.DEInternal>
0.8667

> <Gold.Chemscore.Rot>
3.1901

> <Gold.Chemscore.Internal.Correction>
   9.000000E+99

> <Gold.Chemscore.Hbonds>
donor molecule, donor type, donor heavy atom, donor atom, acceptor molecule, acceptor atom, score
      L1  H    15    28       P1  7949  0.02
      P1  H  7989  7998       L1    12  0.01

> <Gold.Chemscore.Hbond.Weighted>
-3.6044

> <Gold.Chemscore.Metal.Weighted>
-0.0000

> <Gold.Chemscore.Lipo.Weighted>
-3.5397

> <Gold.Chemscore.Internal_Hbond.Weighted>
0.0000

> <Gold.Chemscore.DEClash.Weighted>
0.0038

> <Gold.Chemscore.DEInternal.Weighted>
0.8667

> <Gold.Chemscore.Rot.Weighted>
8.1667

> <Gold.Chemscore.Internal.Correction.Weighted>
   9.000000E+99

> <Gold.Protein.RotatedTorsions>
[ 6907 6896 6895 6894 ] final   40.86 input  -60.11 | X-H torsion
[ 7974 7965 7964 7962 ] final   69.56 input  175.53 | X-H torsion
[ 8008 7997 7996 7995 ] final   85.61 input   59.86 | X-H torsion
[ 10167 10162 10161 10158 ] final  -11.22 input  -65.29 | X-H torsion
[ 10718 10713 10712 10709 ] final  177.01 input   66.30 | X-H torsion
[ 10763 10752 10751 10750 ] final  -85.64 input  -60.55 | X-H torsion
[ 11005 11000 10999 10996 ] final -170.79 input  -57.11 | X-H torsion

> <Gold.Protein.ActiveResidues>
 VAL166  LYS551  ARG553  GLY616  TRP617  ASP618  TYR619  PRO620  LYS621  CYS622 
 ASP623  PHE694  ASN695  SER759  ASP760  ASP761  ALA762  ILE779  LEU786  VAL792 
 PHE793  MET794  SER795  GLU796  ALA797  LYS798  CYS799  TRP800  GLU811  SER814 

> <Gold.Protein.RotatedAtoms>
  152.1879  134.8697  160.0520 H   0  0  0  0  0  0  0  0  0  0  0  0  # atno 6907 bound_to 6896
  151.9597  133.3686  159.4039 H   0  0  0  0  0  0  0  0  0  0  0  0  # atno 6908 bound_to 6896
  150.6929  134.4177  159.5234 H   0  0  0  0  0  0  0  0  0  0  0  0  # atno 6909 bound_to 6896
  145.7889  139.2924  143.1222 H   0  0  0  0  0  0  0  0  0  0  0  0  # atno 7974 bound_to 7965
  155.9522  140.3400  155.6418 H   0  0  0  0  0  0  0  0  0  0  0  0  # atno 8008 bound_to 7997
  155.6905  140.0748  157.2468 H   0  0  0  0  0  0  0  0  0  0  0  0  # atno 8009 bound_to 7997
  154.4124  140.1658  156.2068 H   0  0  0  0  0  0  0  0  0  0  0  0  # atno 8010 bound_to 7997
  140.7133  143.5663  150.9141 H   0  0  0  0  0  0  0  0  0  0  0  0  # atno 10167 bound_to 10162
  156.9117  130.9912  151.3019 H   0  0  0  0  0  0  0  0  0  0  0  0  # atno 10718 bound_to 10713
  154.6134  135.5478  153.7497 H   0  0  0  0  0  0  0  0  0  0  0  0  # atno 10763 bound_to 10752
  153.0205  135.6395  154.1545 H   0  0  0  0  0  0  0  0  0  0  0  0  # atno 10764 bound_to 10752
  154.1482  135.2904  155.3122 H   0  0  0  0  0  0  0  0  0  0  0  0  # atno 10765 bound_to 10752
  140.5155  134.5760  157.5032 H   0  0  0  0  0  0  0  0  0  0  0  0  # atno 11005 bound_to 11000
  145.9997  140.8531  143.0024 LP  0  0  0  0  0  0  0  0  0  0  0  0  # atno 17320 bound_to 7965
  144.6785  140.2335  143.7352 LP  0  0  0  0  0  0  0  0  0  0  0  0  # atno 17321 bound_to 7965
  139.9388  143.6406  152.3058 LP  0  0  0  0  0  0  0  0  0  0  0  0  # atno 17342 bound_to 10162
  139.6883  144.7649  151.1484 LP  0  0  0  0  0  0  0  0  0  0  0  0  # atno 17343 bound_to 10162
  157.5963  130.8480  149.8734 LP  0  0  0  0  0  0  0  0  0  0  0  0  # atno 17370 bound_to 10713
  156.0533  130.3713  150.1150 LP  0  0  0  0  0  0  0  0  0  0  0  0  # atno 17371 bound_to 10713
  139.9635  134.7412  156.0187 LP  0  0  0  0  0  0  0  0  0  0  0  0  # atno 17394 bound_to 11000
  141.1363  133.6574  156.3602 LP  0  0  0  0  0  0  0  0  0  0  0  0  # atno 17395 bound_to 11000

$$$$
