AV-unprocessed.smi:800|AV-procd|sdf|3787|dock9
  -GOLD-   22720 1223D 1   1.00000     0.00000
 Structure written by MMmdl.
 36 37  0  0  0  0  0  0  0  0  1 V2000
  152.2069  142.0555  159.8857 C   0  0  0  0  0  0  0  0  0  0  0  0
  152.3953  142.8825  158.6074 C   0  0  0  0  0  0  0  0  0  0  0  0
  152.0209  144.3568  158.8252 C   0  0  0  0  0  0  0  0  0  0  0  0
  151.5904  142.3064  157.5352 N   0  0  0  0  0  0  0  0  0  0  0  0
  151.6962  141.0522  157.0670 C   0  0  0  0  0  0  0  0  0  0  0  0
  152.4755  140.2157  157.5250 O   0  0  0  0  0  0  0  0  0  0  0  0
  150.7335  140.6854  155.9746 C   0  0  0  0  0  0  0  0  0  0  0  0
  149.5674  141.3708  155.9478 N   0  0  0  0  0  0  0  0  0  0  0  0
  148.6716  141.0784  154.9969 C   0  0  0  0  0  0  0  0  0  0  0  0
  147.4739  141.8051  154.9892 N   0  0  0  0  0  0  0  0  0  0  0  0
  146.7345  142.0726  153.7527 C   0  0  0  0  0  0  0  0  0  0  0  0
  146.0026  143.4228  153.8338 C   0  0  0  0  0  0  0  0  0  0  0  0
  145.1666  143.4501  154.9840 O   0  0  0  0  0  0  0  0  0  0  0  0
  145.9219  143.3162  156.1814 C   0  0  0  0  0  0  0  0  0  0  0  0
  146.6493  141.9611  156.1900 C   0  0  0  0  0  0  0  0  0  0  0  0
  148.8371  140.1411  154.0556 N   0  0  0  0  0  0  0  0  0  0  0  0
  149.9857  139.4337  154.0683 C   0  0  0  0  0  0  0  0  0  0  0  0
  150.9925  139.6617  155.0262 C   0  0  0  0  0  0  0  0  0  0  0  0
  152.4249  138.6896  155.0160 Cl  0  0  0  0  0  0  0  0  0  0  0  0
  152.8155  142.4490  160.7004 H   0  0  0  0  0  0  0  0  0  0  0  0
  152.5009  141.0171  159.7286 H   0  0  0  0  0  0  0  0  0  0  0  0
  151.1670  142.0619  160.2147 H   0  0  0  0  0  0  0  0  0  0  0  0
  153.4493  142.8285  158.3291 H   0  0  0  0  0  0  0  0  0  0  0  0
  152.6227  144.7995  159.6191 H   0  0  0  0  0  0  0  0  0  0  0  0
  150.9719  144.4634  159.1037 H   0  0  0  0  0  0  0  0  0  0  0  0
  152.1864  144.9459  157.9225 H   0  0  0  0  0  0  0  0  0  0  0  0
  150.9043  142.9103  157.1059 H   0  0  0  0  0  0  0  0  0  0  0  0
  147.3852  142.0907  152.8790 H   0  0  0  0  0  0  0  0  0  0  0  0
  146.0170  141.2669  153.5950 H   0  0  0  0  0  0  0  0  0  0  0  0
  146.7145  144.2493  153.8669 H   0  0  0  0  0  0  0  0  0  0  0  0
  145.3875  143.5690  152.9460 H   0  0  0  0  0  0  0  0  0  0  0  0
  146.6323  144.1397  156.2719 H   0  0  0  0  0  0  0  0  0  0  0  0
  145.2473  143.3846  157.0346 H   0  0  0  0  0  0  0  0  0  0  0  0
  145.9239  141.1477  156.2224 H   0  0  0  0  0  0  0  0  0  0  0  0
  147.2376  141.8963  157.1048 H   0  0  0  0  0  0  0  0  0  0  0  0
  150.0977  138.6721  153.3108 H   0  0  0  0  0  0  0  0  0  0  0  0
  1  2  1  0  0  0  0
  1 20  1  0  0  0  0
  1 21  1  0  0  0  0
  1 22  1  0  0  0  0
  2  3  1  0  0  0  0
  2  4  1  0  0  0  0
  2 23  1  0  0  0  0
  3 24  1  0  0  0  0
  3 25  1  0  0  0  0
  3 26  1  0  0  0  0
  4  5  1  0  0  0  0
  4 27  1  0  0  0  0
  5  6  2  0  0  0  0
  5  7  1  0  0  0  0
  7 18  1  0  0  0  0
  7  8  2  0  0  0  0
  8  9  1  0  0  0  0
  9 10  1  0  0  0  0
  9 16  2  0  0  0  0
 10 15  1  0  0  0  0
 10 11  1  0  0  0  0
 11 12  1  0  0  0  0
 11 28  1  0  0  0  0
 11 29  1  0  0  0  0
 12 13  1  0  0  0  0
 12 30  1  0  0  0  0
 12 31  1  0  0  0  0
 13 14  1  0  0  0  0
 14 15  1  0  0  0  0
 14 32  1  0  0  0  0
 14 33  1  0  0  0  0
 15 34  1  0  0  0  0
 15 35  1  0  0  0  0
 16 17  1  0  0  0  0
 17 18  2  0  0  0  0
 17 36  1  0  0  0  0
 18 19  1  0  0  0  0
M  END
> <s_m_source_file>
AV-unprocessed.smi

> <i_m_source_file_index>
800

> <i_lp_mmshare_version>
43012

> <i_f3d_flags>
0

> <s_epik_input>
W0NIM11bQ0hdKFtDSDNdKVtOSF1DKD1PKWMxbmMobltjSF1jMUNsKU4yW0NIMl1bQ0gyXU9bQ0gyXVtDSDJdMg==

> <s_epik_cmdline>
J2VwaWtfcHl0aG9uJywgJy1waCcsICc3LjAnLCAnLXRuJywgJzgnLCAnLW1hJywgJzIwMCcsICctbWV0YWxfYmluZGluZycsICctaW1hZScsICc8aW5maWxlLm1hZT4nLCAnLW9tYWUnLCAnPG91dGZpbGUubWFlPic=

> <r_lp_tautomer_probability>
1

> <r_epik_Ionization_Penalty>
1.24434e-05

> <r_epik_Ionization_Penalty_Charging>
0

> <r_epik_Ionization_Penalty_Neutral>
1.24434e-05

> <r_epik_State_Penalty>
-0

> <r_epik_Charging_Adjusted_Penalty>
0

> <i_epik_Tot_Q>
0

> <i_epik_Tot_abs_Q>
0

> <r_epik_Metal_State_Penalty>
0.0120585

> <b_epik_Metal_Only>
0

> <s_lp_Force_Field>
OPLS_2005

> <r_lp_Energy>
14.0321

> <b_lp_Chiralities_Consistent>
1

> <s_lp_Variant>
AV-unprocessed.smi:800-1

> <Gold.Version>
5.8.1

> <Gold.Id.Protein>
6NUR|6NUR_protein|mol2

> <Gold.PLP.Fitness>
39.3301

> <Gold.PLP.PLP>
-37.1874

> <Gold.PLP.part.hbond>
-1.0000

> <Gold.PLP.part.metal>
0.0000

> <Gold.PLP.part.buried>
-2.0085

> <Gold.PLP.part.nonpolar>
-33.5208

> <Gold.PLP.part.repulsive>
1.0657

> <Gold.PLP.ligand.clash>
0.0000

> <Gold.PLP.ligand.torsion>
0.9558

> <Gold.PLP.Chemscore.Hbond>
1.0000

> <Gold.PLP.Chemscore.CHOScore>
0.3152

> <Gold.PLP.Chemscore.Metal>
0.0000

> <Gold.Chemscore.Hbonds>
donor molecule, donor type, donor heavy atom, donor atom, acceptor molecule, acceptor atom, score
      P1  H  7997  8008       L1     6  0.84
      L1  C    17    36       P1  7957  0.38

> <Gold.PLP.Chemscore.Internal.Correction>
0.1088

> <Gold.Rescore>
     Score         DG    S(hbond)    S(metal)    S(lipo)     H(rot)  DE(clash)    DE(int)     intcor
     13.65     -15.67       0.93        0.00      82.48       1.00       0.11       1.91       ----

> <Gold.Chemscore.Fitness>
13.6529

> <Gold.Chemscore.DG>
-15.6708

> <Gold.Chemscore.ZeroCoef>
-5.4800

> <Gold.Chemscore.Hbond>
0.9282

> <Gold.Chemscore.Metal>
0.0000

> <Gold.Chemscore.Lipo>
82.4839

> <Gold.Chemscore.Internal_Hbond>
0.0000

> <Gold.Chemscore.DEClash>
0.1092

> <Gold.Chemscore.DEInternal>
1.9087

> <Gold.Chemscore.Rot>
1.0000

> <Gold.Chemscore.Internal.Correction>
   9.000000E+99

> <Gold.Chemscore.Hbonds>
donor molecule, donor type, donor heavy atom, donor atom, acceptor molecule, acceptor atom, score
      P1  H  7997  8008       L1     6  0.76

> <Gold.Chemscore.Hbond.Weighted>
-3.1002

> <Gold.Chemscore.Metal.Weighted>
-0.0000

> <Gold.Chemscore.Lipo.Weighted>
-9.6506

> <Gold.Chemscore.Internal_Hbond.Weighted>
0.0000

> <Gold.Chemscore.DEClash.Weighted>
0.1092

> <Gold.Chemscore.DEInternal.Weighted>
1.9087

> <Gold.Chemscore.Rot.Weighted>
2.5600

> <Gold.Chemscore.Internal.Correction.Weighted>
   9.000000E+99

> <Gold.Protein.RotatedTorsions>
[ 6907 6896 6895 6894 ] final  -51.42 input  -60.11 | X-H torsion
[ 7974 7965 7964 7962 ] final   -3.74 input  175.53 | X-H torsion
[ 8008 7997 7996 7995 ] final  -70.48 input   59.86 | X-H torsion
[ 10167 10162 10161 10158 ] final  -24.47 input  -65.29 | X-H torsion
[ 10718 10713 10712 10709 ] final  -72.48 input   66.30 | X-H torsion
[ 10763 10752 10751 10750 ] final    1.25 input  -60.55 | X-H torsion
[ 11005 11000 10999 10996 ] final -114.66 input  -57.11 | X-H torsion

> <Gold.Protein.ActiveResidues>
 VAL166  LYS551  ARG553  GLY616  TRP617  ASP618  TYR619  PRO620  LYS621  CYS622 
 ASP623  PHE694  ASN695  SER759  ASP760  ASP761  ALA762  ILE779  LEU786  VAL792 
 PHE793  MET794  SER795  GLU796  ALA797  LYS798  CYS799  TRP800  GLU811  SER814 

> <Gold.Protein.RotatedAtoms>
  150.8613  134.7966  159.7084 H   0  0  0  0  0  0  0  0  0  0  0  0  # atno 6907 bound_to 6896
  152.4649  134.5095  159.9759 H   0  0  0  0  0  0  0  0  0  0  0  0  # atno 6908 bound_to 6896
  151.5198  133.3430  159.2935 H   0  0  0  0  0  0  0  0  0  0  0  0  # atno 6909 bound_to 6896
  146.2384  140.1767  142.8332 H   0  0  0  0  0  0  0  0  0  0  0  0  # atno 7974 bound_to 7965
  154.5015  140.0833  156.7808 H   0  0  0  0  0  0  0  0  0  0  0  0  # atno 8008 bound_to 7997
  155.3992  140.3436  155.4238 H   0  0  0  0  0  0  0  0  0  0  0  0  # atno 8009 bound_to 7997
  156.1462  140.1544  156.8830 H   0  0  0  0  0  0  0  0  0  0  0  0  # atno 8010 bound_to 7997
  140.7288  143.4350  151.0743 H   0  0  0  0  0  0  0  0  0  0  0  0  # atno 10167 bound_to 10162
  156.0318  130.4373  150.2599 H   0  0  0  0  0  0  0  0  0  0  0  0  # atno 10718 bound_to 10713
  153.3104  135.6962  153.7121 H   0  0  0  0  0  0  0  0  0  0  0  0  # atno 10763 bound_to 10752
  153.6001  135.3464  155.2943 H   0  0  0  0  0  0  0  0  0  0  0  0  # atno 10764 bound_to 10752
  154.8573  135.4338  154.2240 H   0  0  0  0  0  0  0  0  0  0  0  0  # atno 10765 bound_to 10752
  141.0538  133.9645  157.2790 H   0  0  0  0  0  0  0  0  0  0  0  0  # atno 11005 bound_to 11000
  144.9968  140.8596  143.5306 LP  0  0  0  0  0  0  0  0  0  0  0  0  # atno 17320 bound_to 7965
  145.1780  139.2367  143.5307 LP  0  0  0  0  0  0  0  0  0  0  0  0  # atno 17321 bound_to 7965
  139.8011  143.8082  152.3163 LP  0  0  0  0  0  0  0  0  0  0  0  0  # atno 17342 bound_to 10162
  139.8099  144.7340  150.9711 LP  0  0  0  0  0  0  0  0  0  0  0  0  # atno 17343 bound_to 10162
  157.0701  131.0114  151.3193 LP  0  0  0  0  0  0  0  0  0  0  0  0  # atno 17370 bound_to 10713
  157.5006  130.7877  149.7600 LP  0  0  0  0  0  0  0  0  0  0  0  0  # atno 17371 bound_to 10713
  139.9372  135.0195  156.8595 LP  0  0  0  0  0  0  0  0  0  0  0  0  # atno 17394 bound_to 11000
  140.6004  134.0177  155.7535 LP  0  0  0  0  0  0  0  0  0  0  0  0  # atno 17395 bound_to 11000

$$$$
