AV-unprocessed.smi:2026|AV-procd|sdf|8201|dock7
  -GOLD-   2272010463D 1   1.00000     0.00000
 Structure written by MMmdl.
 46 48  0  0  0  0  0  0  0  0  1 V2000
  152.7597  143.2253  161.3048 C   0  0  0  0  0  0  0  0  0  0  0  0
  152.1988  142.7959  159.9609 C   0  0  0  0  0  0  0  0  0  0  0  0
  152.6613  141.5954  159.3745 C   0  0  0  0  0  0  0  0  0  0  0  0
  152.1622  141.1596  158.1271 C   0  0  0  0  0  0  0  0  0  0  0  0
  152.4633  140.0346  157.3774 N   0  0  0  0  0  0  0  0  0  0  0  0
  151.6700  140.1950  156.3210 C   0  0  0  0  0  0  0  0  0  0  0  0
  150.8914  141.2934  156.2988 N   0  0  0  0  0  0  0  0  0  0  0  0
  149.9544  141.6985  155.2693 C   0  0  0  0  0  0  0  0  0  0  0  0
  149.2230  140.4904  154.6492 C   0  0  2  0  0  0  0  0  0  0  0  0
  150.0734  139.8547  153.7166 O   0  0  0  0  0  0  0  0  0  0  0  0
  147.9004  140.8568  153.9439 C   0  0  0  0  0  0  0  0  0  0  0  0
  146.8604  141.2772  154.8914 N   0  0  0  0  0  0  0  0  0  0  0  0
  146.5307  140.6069  156.0103 C   0  0  0  0  0  0  0  0  0  0  0  0
  147.0420  139.5651  156.4179 O   0  0  0  0  0  0  0  0  0  0  0  0
  145.5308  141.2622  156.6148 N   0  0  0  0  0  0  0  0  0  0  0  0
  145.1179  142.4515  155.8950 C   0  0  0  0  0  0  0  0  0  0  0  0
  143.6600  142.3245  155.4168 C   0  0  0  0  0  0  0  0  0  0  0  0
  145.3471  143.7148  156.7438 C   0  0  0  0  0  0  0  0  0  0  0  0
  146.0975  142.3681  154.7349 C   0  0  0  0  0  0  0  0  0  0  0  0
  146.1447  143.1839  153.8141 O   0  0  0  0  0  0  0  0  0  0  0  0
  151.1829  141.9660  157.4787 C   0  0  0  0  0  0  0  0  0  0  0  0
  150.7156  143.1619  158.0503 C   0  0  0  0  0  0  0  0  0  0  0  0
  151.2237  143.5828  159.2963 C   0  0  0  0  0  0  0  0  0  0  0  0
  150.7096  144.8757  159.9048 C   0  0  0  0  0  0  0  0  0  0  0  0
  153.4372  142.4745  161.7123 H   0  0  0  0  0  0  0  0  0  0  0  0
  151.9561  143.3746  162.0263 H   0  0  0  0  0  0  0  0  0  0  0  0
  153.3132  144.1591  161.2042 H   0  0  0  0  0  0  0  0  0  0  0  0
  153.4047  140.9968  159.8801 H   0  0  0  0  0  0  0  0  0  0  0  0
  151.6533  139.4728  155.5178 H   0  0  0  0  0  0  0  0  0  0  0  0
  149.2450  142.3828  155.7339 H   0  0  0  0  0  0  0  0  0  0  0  0
  150.4822  142.2699  154.5046 H   0  0  0  0  0  0  0  0  0  0  0  0
  149.0126  139.7587  155.4297 H   0  0  0  0  0  0  0  0  0  0  0  0
  149.6596  139.8773  152.8674 H   0  0  0  0  0  0  0  0  0  0  0  0
  148.0796  141.6308  153.1955 H   0  0  0  0  0  0  0  0  0  0  0  0
  147.5292  139.9935  153.3883 H   0  0  0  0  0  0  0  0  0  0  0  0
  145.0938  140.9642  157.4748 H   0  0  0  0  0  0  0  0  0  0  0  0
  143.3532  143.2010  154.8450 H   0  0  0  0  0  0  0  0  0  0  0  0
  142.9777  142.2283  156.2619 H   0  0  0  0  0  0  0  0  0  0  0  0
  143.5176  141.4502  154.7802 H   0  0  0  0  0  0  0  0  0  0  0  0
  145.0388  144.6130  156.2073 H   0  0  0  0  0  0  0  0  0  0  0  0
  146.3971  143.8366  157.0136 H   0  0  0  0  0  0  0  0  0  0  0  0
  144.7733  143.6729  157.6700 H   0  0  0  0  0  0  0  0  0  0  0  0
  149.9685  143.7466  157.5344 H   0  0  0  0  0  0  0  0  0  0  0  0
  150.0174  145.3838  159.2321 H   0  0  0  0  0  0  0  0  0  0  0  0
  151.5342  145.5579  160.1122 H   0  0  0  0  0  0  0  0  0  0  0  0
  150.1831  144.6737  160.8378 H   0  0  0  0  0  0  0  0  0  0  0  0
  1  2  1  0  0  0  0
  1 25  1  0  0  0  0
  1 26  1  0  0  0  0
  1 27  1  0  0  0  0
  2 23  1  0  0  0  0
  2  3  2  0  0  0  0
  3  4  1  0  0  0  0
  3 28  1  0  0  0  0
  4 21  2  0  0  0  0
  4  5  1  0  0  0  0
  5  6  2  0  0  0  0
  6  7  1  0  0  0  0
  6 29  1  0  0  0  0
  7  8  1  0  0  0  0
  7 21  1  0  0  0  0
  8  9  1  0  0  0  0
  8 30  1  0  0  0  0
  8 31  1  0  0  0  0
  9 10  1  0  0  0  0
  9 11  1  0  0  0  0
  9 32  1  0  0  0  0
 10 33  1  0  0  0  0
 11 12  1  0  0  0  0
 11 34  1  0  0  0  0
 11 35  1  0  0  0  0
 12 19  1  0  0  0  0
 12 13  1  0  0  0  0
 13 14  2  0  0  0  0
 13 15  1  0  0  0  0
 15 16  1  0  0  0  0
 15 36  1  0  0  0  0
 16 17  1  0  0  0  0
 16 18  1  0  0  0  0
 16 19  1  0  0  0  0
 17 37  1  0  0  0  0
 17 38  1  0  0  0  0
 17 39  1  0  0  0  0
 18 40  1  0  0  0  0
 18 41  1  0  0  0  0
 18 42  1  0  0  0  0
 19 20  2  0  0  0  0
 21 22  1  0  0  0  0
 22 23  2  0  0  0  0
 22 43  1  0  0  0  0
 23 24  1  0  0  0  0
 24 44  1  0  0  0  0
 24 45  1  0  0  0  0
 24 46  1  0  0  0  0
M  END
> <s_m_source_file>
AV-unprocessed.smi

> <i_m_source_file_index>
2026

> <i_lp_mmshare_version>
43012

> <i_f3d_flags>
0

> <s_epik_input>
W0NIM11jKFtjSF0xKWMoW0NIM10pW2NIXWMoYzEyKW4oW2NIXW4yKVtDSDJdW0NASF0oW09IXSlbQ0gyXU4oQzM9TylDKD1PKVtOSF1DMyhbQ0gzXSlbQ0gzXQ==

> <s_epik_cmdline>
J2VwaWtfcHl0aG9uJywgJy1waCcsICc3LjAnLCAnLXRuJywgJzgnLCAnLW1hJywgJzIwMCcsICctbWV0YWxfYmluZGluZycsICctaW1hZScsICc8aW5maWxlLm1hZT4nLCAnLW9tYWUnLCAnPG91dGZpbGUubWFlPic=

> <r_lp_tautomer_probability>
1

> <r_epik_Ionization_Penalty>
0.103994

> <r_epik_Ionization_Penalty_Charging>
0

> <r_epik_Ionization_Penalty_Neutral>
0.103994

> <r_epik_State_Penalty>
0.0938482

> <r_epik_Charging_Adjusted_Penalty>
0.0938482

> <i_epik_Tot_Q>
0

> <i_epik_Tot_abs_Q>
0

> <r_epik_Metal_State_Penalty>
0.106997

> <b_epik_Metal_Only>
0

> <s_lp_Force_Field>
OPLS_2005

> <r_lp_Energy>
21.0149

> <b_lp_Chiralities_Consistent>
1

> <s_lp_Variant>
AV-unprocessed.smi:2026-1

> <Gold.Version>
5.8.1

> <Gold.Id.Protein>
6NUR|6NUR_protein|mol2

> <Gold.PLP.Fitness>
51.9549

> <Gold.PLP.PLP>
-44.8453

> <Gold.PLP.part.hbond>
-3.0000

> <Gold.PLP.part.metal>
0.0000

> <Gold.PLP.part.buried>
-6.3459

> <Gold.PLP.part.nonpolar>
-36.0328

> <Gold.PLP.part.repulsive>
0.2099

> <Gold.PLP.ligand.clash>
0.0000

> <Gold.PLP.ligand.torsion>
0.6989

> <Gold.PLP.Chemscore.Hbond>
2.8320

> <Gold.PLP.Chemscore.CHOScore>
0.0000

> <Gold.PLP.Chemscore.Metal>
0.0000

> <Gold.Chemscore.Hbonds>
donor molecule, donor type, donor heavy atom, donor atom, acceptor molecule, acceptor atom, score
      L1  H    10    33       P1  7957  1.00
      P1  H  7989  7998       L1    10  0.83
      P1  H  7997  8010       L1     5  0.94

> <Gold.PLP.Chemscore.Internal.Correction>
0.0113

> <Gold.Rescore>
     Score         DG    S(hbond)    S(metal)    S(lipo)     H(rot)  DE(clash)    DE(int)     intcor
     17.95     -18.81       2.21        0.00     104.23       2.44       0.29       0.58       ----

> <Gold.Chemscore.Fitness>
17.9463

> <Gold.Chemscore.DG>
-18.8130

> <Gold.Chemscore.ZeroCoef>
-5.4800

> <Gold.Chemscore.Hbond>
2.2079

> <Gold.Chemscore.Metal>
0.0000

> <Gold.Chemscore.Lipo>
104.2258

> <Gold.Chemscore.Internal_Hbond>
0.0000

> <Gold.Chemscore.DEClash>
0.2888

> <Gold.Chemscore.DEInternal>
0.5779

> <Gold.Chemscore.Rot>
2.4358

> <Gold.Chemscore.Internal.Correction>
   9.000000E+99

> <Gold.Chemscore.Hbonds>
donor molecule, donor type, donor heavy atom, donor atom, acceptor molecule, acceptor atom, score
      L1  H    10    33       P1  7957  0.98
      P1  H  7989  7998       L1    10  0.25
      P1  H  7997  8010       L1     5  0.49

> <Gold.Chemscore.Hbond.Weighted>
-7.3743

> <Gold.Chemscore.Metal.Weighted>
-0.0000

> <Gold.Chemscore.Lipo.Weighted>
-12.1944

> <Gold.Chemscore.Internal_Hbond.Weighted>
0.0000

> <Gold.Chemscore.DEClash.Weighted>
0.2888

> <Gold.Chemscore.DEInternal.Weighted>
0.5779

> <Gold.Chemscore.Rot.Weighted>
6.2357

> <Gold.Chemscore.Internal.Correction.Weighted>
   9.000000E+99

> <Gold.Protein.RotatedTorsions>
[ 6907 6896 6895 6894 ] final -123.16 input  -60.11 | X-H torsion
[ 7974 7965 7964 7962 ] final  -93.26 input  175.53 | X-H torsion
[ 8008 7997 7996 7995 ] final   50.86 input   59.86 | X-H torsion
[ 10167 10162 10161 10158 ] final  159.19 input  -65.29 | X-H torsion
[ 10718 10713 10712 10709 ] final  136.59 input   66.30 | X-H torsion
[ 10763 10752 10751 10750 ] final -169.09 input  -60.55 | X-H torsion
[ 11005 11000 10999 10996 ] final   88.62 input  -57.11 | X-H torsion

> <Gold.Protein.ActiveResidues>
 VAL166  LYS551  ARG553  GLY616  TRP617  ASP618  TYR619  PRO620  LYS621  CYS622 
 ASP623  PHE694  ASN695  SER759  ASP760  ASP761  ALA762  ILE779  LEU786  VAL792 
 PHE793  MET794  SER795  GLU796  ALA797  LYS798  CYS799  TRP800  GLU811  SER814 

> <Gold.Protein.RotatedAtoms>
  150.8645  133.7595  159.2981 H   0  0  0  0  0  0  0  0  0  0  0  0  # atno 6907 bound_to 6896
  151.5227  135.1066  159.9892 H   0  0  0  0  0  0  0  0  0  0  0  0  # atno 6908 bound_to 6896
  152.4650  133.7860  159.6932 H   0  0  0  0  0  0  0  0  0  0  0  0  # atno 6909 bound_to 6896
  145.3889  140.9526  143.2352 H   0  0  0  0  0  0  0  0  0  0  0  0  # atno 7974 bound_to 7965
  155.4257  140.3448  155.4275 H   0  0  0  0  0  0  0  0  0  0  0  0  # atno 8008 bound_to 7997
  156.1366  140.1530  156.9016 H   0  0  0  0  0  0  0  0  0  0  0  0  # atno 8009 bound_to 7997
  154.4937  140.0834  156.7630 H   0  0  0  0  0  0  0  0  0  0  0  0  # atno 8010 bound_to 7997
  139.4831  144.4753  151.8520 H   0  0  0  0  0  0  0  0  0  0  0  0  # atno 10167 bound_to 10162
  157.4450  131.1061  151.0100 H   0  0  0  0  0  0  0  0  0  0  0  0  # atno 10718 bound_to 10713
  154.6559  135.2918  154.9928 H   0  0  0  0  0  0  0  0  0  0  0  0  # atno 10763 bound_to 10752
  154.1004  135.6577  153.4871 H   0  0  0  0  0  0  0  0  0  0  0  0  # atno 10764 bound_to 10752
  153.0402  135.5241  154.7488 H   0  0  0  0  0  0  0  0  0  0  0  0  # atno 10765 bound_to 10752
  139.8892  134.8499  156.3026 H   0  0  0  0  0  0  0  0  0  0  0  0  # atno 11005 bound_to 11000
  144.8454  139.5404  143.6881 LP  0  0  0  0  0  0  0  0  0  0  0  0  # atno 17320 bound_to 7965
  146.2807  139.6870  142.9231 LP  0  0  0  0  0  0  0  0  0  0  0  0  # atno 17321 bound_to 7965
  140.4225  144.2224  150.5887 LP  0  0  0  0  0  0  0  0  0  0  0  0  # atno 17342 bound_to 10162
  140.4860  143.2363  151.8887 LP  0  0  0  0  0  0  0  0  0  0  0  0  # atno 17343 bound_to 10162
  157.0949  130.5958  149.5447 LP  0  0  0  0  0  0  0  0  0  0  0  0  # atno 17370 bound_to 10713
  155.9964  130.5033  150.7494 LP  0  0  0  0  0  0  0  0  0  0  0  0  # atno 17371 bound_to 10713
  140.9903  133.7212  156.0804 LP  0  0  0  0  0  0  0  0  0  0  0  0  # atno 17394 bound_to 11000
  140.7633  134.3915  157.5521 LP  0  0  0  0  0  0  0  0  0  0  0  0  # atno 17395 bound_to 11000

$$$$
