#       Name:                AV-unprocessed.smi:1721
#       Creating user name   scv26
#       Creation time:       Fri Mar 27 08:14:44 2020


#       File generated by GOLD software.
#

@<TRIPOS>MOLECULE
AV-unprocessed.smi:1721
    49    51     1
SMALL
NO_CHARGES


@<TRIPOS>ATOM
      1 ****        -2.0643   5.5743   0.6473 C.3            1 S1                 0.0000
      2 ****        -1.3254   4.3584   0.6888 O.3            1 S1                 0.0000
      3 ****         0.0551   4.4233   0.6718 C.ar           1 S1                 0.0000
      4 ****         0.6417   5.6456   0.6235 N.ar           1 S1                 0.0000
      5 ****         1.9883   5.7118   0.6024 C.ar           1 S1                 0.0000
      6 ****         2.8149   4.5742   0.6229 C.ar           1 S1                 0.0000
      7 ****         2.2093   3.3051   0.6723 C.ar           1 S1                 0.0000
      8 ****         0.7953   3.2178   0.7053 C.ar           1 S1                 0.0000
      9 ****         0.0664   1.9953   0.7444 N.am           1 S1                 0.0000
     10 ****         0.5040   0.7443   0.9664 C.2            1 S1                 0.0000
     11 ****         1.6660   0.4198   1.2076 O.2            1 S1                 0.0000
     12 ****        -0.5019  -0.1387   0.8936 N.am           1 S1                 0.0000
     13 ****        -0.3553  -1.5802   1.0771 C.3            1 S1                 0.0000
     14 ****        -1.6807  -2.3053   1.2713 C.3            1 S1                 0.0000
     15 ****        -1.3236  -3.7638   0.9654 C.3            1 S1                 0.0000
     16 ****        -0.1633  -3.7378   0.0405 N.4            1 S1                 1.0000
     17 ****        -0.3840  -4.4834  -1.2277 C.3            1 S1                 0.0000
     18 ****         0.6613  -4.0950  -2.2840 C.3            1 S1                 0.0000
     19 ****         0.5722  -2.5995  -2.6424 C.3            1 S1                 0.0000
     20 ****        -0.0662  -1.7608  -1.5187 C.3            1 S1                 0.0000
     21 ****         0.2769  -2.3221  -0.1167 C.3            1 S1                 0.0000
     22 ****        -3.1304   5.3487   0.6682 H              1 S1                 0.0000
     23 ****        -1.8629   6.1330  -0.2677 H              1 S1                 0.0000
     24 ****        -1.8430   6.2053   1.5093 H              1 S1                 0.0000
     25 ****         2.4198   6.7011   0.5640 H              1 S1                 0.0000
     26 ****         3.8900   4.6727   0.5986 H              1 S1                 0.0000
     27 ****         2.8457   2.4351   0.6737 H              1 S1                 0.0000
     28 ****        -0.9294   2.0947   0.6100 H              1 S1                 0.0000
     29 ****        -1.4292   0.2081   0.6949 H              1 S1                 0.0000
     30 ****         0.2538  -1.7618   1.9656 H              1 S1                 0.0000
     31 ****        -2.0947  -2.1732   2.2714 H              1 S1                 0.0000
     32 ****        -2.4181  -1.9461   0.5517 H              1 S1                 0.0000
     33 ****        -1.0111  -4.2718   1.8783 H              1 S1                 0.0000
     34 ****        -2.1797  -4.3106   0.5672 H              1 S1                 0.0000
     35 ****        -0.3435  -5.5536  -1.0216 H              1 S1                 0.0000
     36 ****        -1.3814  -4.2738  -1.6184 H              1 S1                 0.0000
     37 ****         1.6563  -4.3194  -1.8972 H              1 S1                 0.0000
     38 ****         0.5412  -4.7007  -3.1827 H              1 S1                 0.0000
     39 ****         1.5730  -2.2274  -2.8644 H              1 S1                 0.0000
     40 ****        -0.0085  -2.4664  -3.5559 H              1 S1                 0.0000
     41 ****         0.2604  -0.7260  -1.6218 H              1 S1                 0.0000
     42 ****        -1.1494  -1.7502  -1.6478 H              1 S1                 0.0000
     43 ****         1.3626  -2.2946  -0.0103 H              1 S1                 0.0000
     44 ****         0.5913  -4.2057   0.5223 H              1 S1                 0.0000
     45 ****        -1.6050   3.8162  -0.1035 LP             1 S1                 0.0000
     46 ****        -1.5880   3.8822   1.5280 LP             1 S1                 0.0000
     47 ****         0.0882   6.4782   0.6040 LP             1 S1                 0.0000
     48 ****         2.3811   1.1174   1.2518 LP             1 S1                 0.0000
     49 ****         1.8954  -0.5416   1.3595 LP             1 S1                 0.0000
@<TRIPOS>BOND
    1    1    2 1     
    2    1   22 1     
    3    1   23 1     
    4    1   24 1     
    5    2    3 1     
    6    3    8 ar    
    7    3    4 ar    
    8    4    5 ar    
    9    5    6 ar    
   10    5   25 1     
   11    6    7 ar    
   12    6   26 1     
   13    7    8 ar    
   14    7   27 1     
   15    8    9 1     
   16    9   10 am    
   17    9   28 1     
   18   10   11 2     
   19   10   12 am    
   20   12   13 1     
   21   12   29 1     
   22   13   21 1     
   23   13   14 1     
   24   13   30 1     
   25   14   15 1     
   26   14   31 1     
   27   14   32 1     
   28   15   16 1     
   29   15   33 1     
   30   15   34 1     
   31   16   21 1     
   32   16   17 1     
   33   16   44 1     
   34   17   18 1     
   35   17   35 1     
   36   17   36 1     
   37   18   19 1     
   38   18   37 1     
   39   18   38 1     
   40   19   20 1     
   41   19   39 1     
   42   19   40 1     
   43   20   21 1     
   44   20   41 1     
   45   20   42 1     
   46   21   43 1     
   47    2   45 1     
   48    2   46 1     
   49    4   47 1     
   50   11   48 1     
   51   11   49 1     
@<TRIPOS>SUBSTRUCTURE
      1 S1             1
@<TRIPOS>SET
LONE_PAIRS      STATIC     ATOMS    <user>   **** ""
5 45 46 47 48 49
DONOR_HYDROGENS      STATIC     ATOMS    <user>   **** ""
3 28 29 44
ATOM$BLUE        STATIC     ATOMS    COLORGROUP SYSTEM
5 45 46 47 48 49
ATOM$RED        STATIC     ATOMS    COLORGROUP SYSTEM
3 28 29 44
