#       Name:                AV-unprocessed.smi:2734
#       Creating user name   scv26
#       Creation time:       Fri Mar 27 14:58:47 2020


#       File generated by GOLD software.
#

@<TRIPOS>MOLECULE
AV-unprocessed.smi:2734
    46    48     1
SMALL
NO_CHARGES


@<TRIPOS>ATOM
      1 ****        -3.2884   3.0368  -1.7496 C.3            1 S1                 0.0000
      2 ****        -2.6827   2.1177  -0.7025 C.ar           1 S1                 0.0000
      3 ****        -2.2755   2.6758   0.5302 C.ar           1 S1                 0.0000
      4 ****        -1.7212   1.8107   1.4662 C.ar           1 S1                 0.0000
      5 ****        -1.2259   2.0490   2.7498 N.pl3          1 S1                 1.0000
      6 ****        -0.7741   0.8821   3.2867 C.2            1 S1                 0.0000
      7 ****        -0.9733  -0.0986   2.3650 N.pl3          1 S1                 0.0000
      8 ****        -0.6546  -1.5315   2.4411 C.3            1 S1                 0.0000
      9 ****         0.8127  -1.8439   2.0826 C.3            1 S1                 0.0000
     10 ****         0.9919  -3.2412   2.1865 O.3            1 S1                 0.0000
     11 ****         1.2234  -1.3802   0.6730 C.3            1 S1                 0.0000
     12 ****         2.9796  -1.6908   0.3209 S.3            1 S1                 0.0000
     13 ****         3.0796  -0.9927  -1.2992 C.2            1 S1                 0.0000
     14 ****         2.0904  -0.4205  -1.9773 N.2            1 S1                 0.0000
     15 ****         2.6773  -0.0413  -3.1692 N.2            1 S1                 0.0000
     16 ****         3.9366  -0.3678  -3.1994 N.2            1 S1                 0.0000
     17 ****         4.2088  -0.9737  -2.0181 N.pl3          1 S1                 0.0000
     18 ****         5.5383  -1.4666  -1.7173 C.3            1 S1                 0.0000
     19 ****        -1.5678   0.4336   1.2137 C.ar           1 S1                 0.0000
     20 ****        -1.9679  -0.1327   0.0051 C.ar           1 S1                 0.0000
     21 ****        -2.5326   0.7305  -0.9605 C.ar           1 S1                 0.0000
     22 ****        -2.9747   0.1392  -2.2883 C.3            1 S1                 0.0000
     23 ****        -3.2342   4.0815  -1.4422 H              1 S1                 0.0000
     24 ****        -4.3377   2.7891  -1.9121 H              1 S1                 0.0000
     25 ****        -2.7590   2.9434  -2.6981 H              1 S1                 0.0000
     26 ****        -2.3876   3.7308   0.7344 H              1 S1                 0.0000
     27 ****        -0.3335   0.7577   4.2655 H              1 S1                 0.0000
     28 ****        -0.8626  -1.8510   3.4632 H              1 S1                 0.0000
     29 ****        -1.3433  -2.0871   1.8044 H              1 S1                 0.0000
     30 ****         1.4644  -1.3680   2.8162 H              1 S1                 0.0000
     31 ****         1.8978  -3.4418   2.0053 H              1 S1                 0.0000
     32 ****         0.6120  -1.8769  -0.0813 H              1 S1                 0.0000
     33 ****         1.0573  -0.3081   0.5718 H              1 S1                 0.0000
     34 ****         5.9301  -0.9508  -0.8405 H              1 S1                 0.0000
     35 ****         6.2107  -1.2950  -2.5588 H              1 S1                 0.0000
     36 ****         5.4945  -2.5366  -1.5124 H              1 S1                 0.0000
     37 ****        -1.8497  -1.1866  -0.1975 H              1 S1                 0.0000
     38 ****        -2.8739  -0.9465  -2.2953 H              1 S1                 0.0000
     39 ****        -2.3683   0.5361  -3.1027 H              1 S1                 0.0000
     40 ****        -4.0201   0.3758  -2.4865 H              1 S1                 0.0000
     41 ****        -1.1948   2.9415   3.2258 H              1 S1                 0.0000
     42 ****         0.4044  -3.7068   1.5246 LP             1 S1                 0.0000
     43 ****         0.7577  -3.5435   3.1105 LP             1 S1                 0.0000
     44 ****         1.1406  -0.2937  -1.6910 LP             1 S1                 0.0000
     45 ****         2.1965   0.4238  -3.9125 LP             1 S1                 0.0000
     46 ****         4.5784  -0.2036  -3.9484 LP             1 S1                 0.0000
@<TRIPOS>BOND
    1    1    2 1     
    2    1   23 1     
    3    1   24 1     
    4    1   25 1     
    5    2   21 ar    
    6    2    3 ar    
    7    3    4 ar    
    8    3   26 1     
    9    4   19 ar    
   10    4    5 1     
   11    5    6 2     
   12    5   41 1     
   13    6    7 1     
   14    6   27 1     
   15    7    8 1     
   16    7   19 1     
   17    8    9 1     
   18    8   28 1     
   19    8   29 1     
   20    9   10 1     
   21    9   11 1     
   22    9   30 1     
   23   10   31 1     
   24   11   12 1     
   25   11   32 1     
   26   11   33 1     
   27   12   13 1     
   28   13   17 1     
   29   13   14 2     
   30   14   15 1     
   31   15   16 2     
   32   16   17 1     
   33   17   18 1     
   34   18   34 1     
   35   18   35 1     
   36   18   36 1     
   37   19   20 ar    
   38   20   21 ar    
   39   20   37 1     
   40   21   22 1     
   41   22   38 1     
   42   22   39 1     
   43   22   40 1     
   44   10   42 1     
   45   10   43 1     
   46   14   44 1     
   47   15   45 1     
   48   16   46 1     
@<TRIPOS>SUBSTRUCTURE
      1 S1             1
@<TRIPOS>SET
LONE_PAIRS      STATIC     ATOMS    <user>   **** ""
5 42 43 44 45 46
DONOR_HYDROGENS      STATIC     ATOMS    <user>   **** ""
2 41 31
ATOM$BLUE        STATIC     ATOMS    COLORGROUP SYSTEM
5 42 43 44 45 46
ATOM$RED        STATIC     ATOMS    COLORGROUP SYSTEM
2 41 31
