AV-unprocessed.smi:1556|AV-procd|sdf|6269|dock7
  -GOLD-   22720 6463D 1   1.00000     0.00000
 Structure written by MMmdl.
 37 38  0  0  0  0  0  0  0  0  1 V2000
  145.6128  130.1083  151.4523 C   0  0  0  0  0  0  0  0  0  0  0  0
  145.0804  131.3828  151.0204 N   0  0  0  0  0  0  0  0  0  0  0  0
  145.5586  132.6481  151.2836 C   0  0  0  0  0  0  0  0  0  0  0  0
  144.7491  133.5357  150.6323 C   0  0  0  0  0  0  0  0  0  0  0  0
  144.8686  135.0362  150.5593 C   0  0  0  0  0  0  0  0  0  0  0  0
  144.9989  135.6881  151.9507 C   0  0  0  0  0  0  0  0  0  0  0  0
  146.3527  135.5865  152.4862 N   0  0  0  0  0  0  0  0  0  0  0  0
  146.7237  134.8021  153.5109 C   0  0  0  0  0  0  0  0  0  0  0  0
  145.9294  134.1595  154.1946 O   0  0  0  0  0  0  0  0  0  0  0  0
  148.0499  134.7583  153.7319 N   0  0  0  0  0  0  0  0  0  0  0  0
  148.7720  134.0060  154.7605 C   0  0  1  0  0  0  0  0  0  0  0  0
  149.9279  133.2008  154.1376 C   0  0  0  0  0  0  0  0  0  0  0  0
  150.8657  132.7350  155.2575 C   0  0  0  0  0  0  0  0  0  0  0  0
  150.8040  134.0387  156.5432 S   0  0  0  0  0  0  0  0  0  0  0  0
  150.4243  133.4287  157.8263 O   0  0  0  0  0  0  0  0  0  0  0  0
  151.9941  134.8960  156.4344 O   0  0  0  0  0  0  0  0  0  0  0  0
  149.3672  134.9283  155.8403 C   0  0  0  0  0  0  0  0  0  0  0  0
  143.7779  132.7015  150.0090 C   0  0  0  0  0  0  0  0  0  0  0  0
  143.9818  131.4147  150.2388 N   0  0  0  0  0  0  0  0  0  0  0  0
  146.3875  130.2624  152.2040 H   0  0  0  0  0  0  0  0  0  0  0  0
  146.0462  129.5850  150.5994 H   0  0  0  0  0  0  0  0  0  0  0  0
  144.8178  129.4985  151.8826 H   0  0  0  0  0  0  0  0  0  0  0  0
  146.4392  132.8111  151.8872 H   0  0  0  0  0  0  0  0  0  0  0  0
  145.7250  135.3249  149.9497 H   0  0  0  0  0  0  0  0  0  0  0  0
  143.9990  135.4588  150.0544 H   0  0  0  0  0  0  0  0  0  0  0  0
  144.7626  136.7497  151.8749 H   0  0  0  0  0  0  0  0  0  0  0  0
  144.2758  135.2602  152.6468 H   0  0  0  0  0  0  0  0  0  0  0  0
  147.0742  136.0899  151.9908 H   0  0  0  0  0  0  0  0  0  0  0  0
  148.6195  135.3482  153.1422 H   0  0  0  0  0  0  0  0  0  0  0  0
  148.0947  133.2955  155.2378 H   0  0  0  0  0  0  0  0  0  0  0  0
  149.5641  132.3602  153.5456 H   0  0  0  0  0  0  0  0  0  0  0  0
  150.4911  133.8459  153.4613 H   0  0  0  0  0  0  0  0  0  0  0  0
  150.5039  131.8076  155.7020 H   0  0  0  0  0  0  0  0  0  0  0  0
  151.8915  132.5836  154.9210 H   0  0  0  0  0  0  0  0  0  0  0  0
  149.7335  135.8607  155.4096 H   0  0  0  0  0  0  0  0  0  0  0  0
  148.6598  135.1660  156.6345 H   0  0  0  0  0  0  0  0  0  0  0  0
  142.9446  132.9918  149.3861 H   0  0  0  0  0  0  0  0  0  0  0  0
  1  2  1  0  0  0  0
  1 20  1  0  0  0  0
  1 21  1  0  0  0  0
  1 22  1  0  0  0  0
  2 19  1  0  0  0  0
  2  3  1  0  0  0  0
  3  4  2  0  0  0  0
  3 23  1  0  0  0  0
  4  5  1  0  0  0  0
  4 18  1  0  0  0  0
  5  6  1  0  0  0  0
  5 24  1  0  0  0  0
  5 25  1  0  0  0  0
  6  7  1  0  0  0  0
  6 26  1  0  0  0  0
  6 27  1  0  0  0  0
  7  8  1  0  0  0  0
  7 28  1  0  0  0  0
  8  9  2  0  0  0  0
  8 10  1  0  0  0  0
 10 11  1  0  0  0  0
 10 29  1  0  0  0  0
 11 17  1  0  0  0  0
 11 12  1  0  0  0  0
 11 30  1  0  0  0  0
 12 13  1  0  0  0  0
 12 31  1  0  0  0  0
 12 32  1  0  0  0  0
 13 14  1  0  0  0  0
 13 33  1  0  0  0  0
 13 34  1  0  0  0  0
 14 15  2  0  0  0  0
 14 16  2  0  0  0  0
 14 17  1  0  0  0  0
 17 35  1  0  0  0  0
 17 36  1  0  0  0  0
 18 19  2  0  0  0  0
 18 37  1  0  0  0  0
M  END
> <s_m_source_file>
AV-unprocessed.smi

> <i_m_source_file_index>
1556

> <i_lp_mmshare_version>
43012

> <i_f3d_flags>
0

> <s_epik_input>
W0NIM11uMVtjSF1jKFtjSF1uMSlbQ0gyXVtDSDJdW05IXUMoPU8pW05IXVtDQEBIXShbQ0gyXTIpW0NIMl1bQ0gyXVMyKD1PKT1P

> <s_epik_cmdline>
J2VwaWtfcHl0aG9uJywgJy1waCcsICc3LjAnLCAnLXRuJywgJzgnLCAnLW1hJywgJzIwMCcsICctbWV0YWxfYmluZGluZycsICctaW1hZScsICc8aW5maWxlLm1hZT4nLCAnLW9tYWUnLCAnPG91dGZpbGUubWFlPic=

> <r_lp_tautomer_probability>
1

> <r_epik_Ionization_Penalty>
0.000530192

> <r_epik_Ionization_Penalty_Charging>
0

> <r_epik_Ionization_Penalty_Neutral>
0.000530192

> <r_epik_State_Penalty>
-0

> <r_epik_Charging_Adjusted_Penalty>
0

> <i_epik_Tot_Q>
0

> <i_epik_Tot_abs_Q>
0

> <r_epik_Metal_State_Penalty>
-0

> <b_epik_Metal_Only>
0

> <s_lp_Force_Field>
OPLS_2005

> <r_lp_Energy>
7.70197

> <b_lp_Chiralities_Consistent>
1

> <s_lp_Variant>
AV-unprocessed.smi:1556-2

> <Gold.Version>
5.8.1

> <Gold.Id.Protein>
6NUR|6NUR_protein|mol2

> <Gold.PLP.Fitness>
47.6012

> <Gold.PLP.PLP>
-31.8603

> <Gold.PLP.part.hbond>
-5.0000

> <Gold.PLP.part.metal>
0.0000

> <Gold.PLP.part.buried>
-3.0666

> <Gold.PLP.part.nonpolar>
-22.7537

> <Gold.PLP.part.repulsive>
0.2487

> <Gold.PLP.ligand.clash>
0.0000

> <Gold.PLP.ligand.torsion>
0.3150

> <Gold.PLP.Chemscore.Hbond>
4.4550

> <Gold.PLP.Chemscore.CHOScore>
1.0000

> <Gold.PLP.Chemscore.Metal>
0.0000

> <Gold.Chemscore.Hbonds>
donor molecule, donor type, donor heavy atom, donor atom, acceptor molecule, acceptor atom, score
      L1  H     7    28       P1  7948  0.85
      L1  H    10    29       P1  7948  1.00
      P1  H  6896  6908       L1    15  0.90
      P1  H 10752 10763       L1    16  0.98
      P1  H 10785 10796       L1    19  0.55
      L1  C    18    37       P1 10186  1.00

> <Gold.PLP.Chemscore.Internal.Correction>
0.0060

> <Gold.Rescore>
     Score         DG    S(hbond)    S(metal)    S(lipo)     H(rot)  DE(clash)    DE(int)     intcor
     21.86     -22.25       4.13        0.00      65.25       1.82       0.05       0.34       ----

> <Gold.Chemscore.Fitness>
21.8557

> <Gold.Chemscore.DG>
-22.2457

> <Gold.Chemscore.ZeroCoef>
-5.4800

> <Gold.Chemscore.Hbond>
4.1306

> <Gold.Chemscore.Metal>
0.0000

> <Gold.Chemscore.Lipo>
65.2453

> <Gold.Chemscore.Internal_Hbond>
0.0000

> <Gold.Chemscore.DEClash>
0.0528

> <Gold.Chemscore.DEInternal>
0.3372

> <Gold.Chemscore.Rot>
1.8220

> <Gold.Chemscore.Internal.Correction>
   9.000000E+99

> <Gold.Chemscore.Hbonds>
donor molecule, donor type, donor heavy atom, donor atom, acceptor molecule, acceptor atom, score
      L1  H     7    28       P1  7948  0.83
      L1  H    10    29       P1  7948  0.84
      P1  H  6896  6908       L1    15  0.83
      P1  H 10752 10763       L1    16  0.93
      P1  H 10785 10796       L1    19  0.50

> <Gold.Chemscore.Hbond.Weighted>
-13.7962

> <Gold.Chemscore.Metal.Weighted>
-0.0000

> <Gold.Chemscore.Lipo.Weighted>
-7.6337

> <Gold.Chemscore.Internal_Hbond.Weighted>
0.0000

> <Gold.Chemscore.DEClash.Weighted>
0.0528

> <Gold.Chemscore.DEInternal.Weighted>
0.3372

> <Gold.Chemscore.Rot.Weighted>
4.6642

> <Gold.Chemscore.Internal.Correction.Weighted>
   9.000000E+99

> <Gold.Protein.RotatedTorsions>
[ 6907 6896 6895 6894 ] final   91.82 input  -60.11 | X-H torsion
[ 7974 7965 7964 7962 ] final  110.14 input  175.53 | X-H torsion
[ 8008 7997 7996 7995 ] final    8.19 input   59.86 | X-H torsion
[ 10167 10162 10161 10158 ] final  169.90 input  -65.29 | X-H torsion
[ 10718 10713 10712 10709 ] final  -11.56 input   66.30 | X-H torsion
[ 10763 10752 10751 10750 ] final   96.34 input  -60.55 | X-H torsion
[ 11005 11000 10999 10996 ] final -168.89 input  -57.11 | X-H torsion

> <Gold.Protein.ActiveResidues>
 VAL166  LYS551  ARG553  GLY616  TRP617  ASP618  TYR619  PRO620  LYS621  CYS622 
 ASP623  PHE694  ASN695  SER759  ASP760  ASP761  ALA762  ILE779  LEU786  VAL792 
 PHE793  MET794  SER795  GLU796  ALA797  LYS798  CYS799  TRP800  GLU811  SER814 

> <Gold.Protein.RotatedAtoms>
  152.5451  134.1597  159.8552 H   0  0  0  0  0  0  0  0  0  0  0  0  # atno 6907 bound_to 6896
  151.1617  133.4834  159.2601 H   0  0  0  0  0  0  0  0  0  0  0  0  # atno 6908 bound_to 6896
  151.1366  135.0169  159.8662 H   0  0  0  0  0  0  0  0  0  0  0  0  # atno 6909 bound_to 6896
  145.2588  139.2710  143.4028 H   0  0  0  0  0  0  0  0  0  0  0  0  # atno 7974 bound_to 7965
  154.7637  140.2789  155.6194 H   0  0  0  0  0  0  0  0  0  0  0  0  # atno 8008 bound_to 7997
  156.2920  140.2655  156.2349 H   0  0  0  0  0  0  0  0  0  0  0  0  # atno 8009 bound_to 7997
  154.9986  140.0373  157.2340 H   0  0  0  0  0  0  0  0  0  0  0  0  # atno 8010 bound_to 7997
  139.5004  144.3655  151.9780 H   0  0  0  0  0  0  0  0  0  0  0  0  # atno 10167 bound_to 10162
  156.6572  130.4971  149.6042 H   0  0  0  0  0  0  0  0  0  0  0  0  # atno 10718 bound_to 10713
  153.2638  135.4222  155.0920 H   0  0  0  0  0  0  0  0  0  0  0  0  # atno 10763 bound_to 10752
  154.8430  135.3455  154.6340 H   0  0  0  0  0  0  0  0  0  0  0  0  # atno 10764 bound_to 10752
  153.6760  135.7041  153.5189 H   0  0  0  0  0  0  0  0  0  0  0  0  # atno 10765 bound_to 10752
  140.5369  134.5561  157.5089 H   0  0  0  0  0  0  0  0  0  0  0  0  # atno 11005 bound_to 11000
  146.3281  140.2999  142.8620 LP  0  0  0  0  0  0  0  0  0  0  0  0  # atno 17320 bound_to 7965
  144.9437  140.8105  143.5615 LP  0  0  0  0  0  0  0  0  0  0  0  0  # atno 17321 bound_to 7965
  140.3091  144.3559  150.6039 LP  0  0  0  0  0  0  0  0  0  0  0  0  # atno 17342 bound_to 10162
  140.5813  143.2172  151.7423 LP  0  0  0  0  0  0  0  0  0  0  0  0  # atno 17343 bound_to 10162
  156.2038  130.6636  151.1196 LP  0  0  0  0  0  0  0  0  0  0  0  0  # atno 17370 bound_to 10713
  157.7121  131.0728  150.6461 LP  0  0  0  0  0  0  0  0  0  0  0  0  # atno 17371 bound_to 10713
  139.9524  134.7593  156.0417 LP  0  0  0  0  0  0  0  0  0  0  0  0  # atno 17394 bound_to 11000
  141.1249  133.6602  156.3312 LP  0  0  0  0  0  0  0  0  0  0  0  0  # atno 17395 bound_to 11000

$$$$
