AV-unprocessed.smi:2870|AV-procd|sdf|11029|dock10
  -GOLD-   2272015493D 1   1.00000     0.00000
 Structure written by MMmdl.
 40 42  0  0  0  0  0  0  0  0  1 V2000
  154.0125  142.5634  164.0900 N   0  0  0  0  0  0  0  0  0  0  0  0
  153.8389  142.1359  163.0285 C   0  0  0  0  0  0  0  0  0  0  0  0
  153.6118  141.5838  161.7340 C   0  0  0  0  0  0  0  0  0  0  0  0
  152.9947  142.2848  160.7608 C   0  0  0  0  0  0  0  0  0  0  0  0
  152.7798  141.7718  159.5004 N   0  0  0  0  0  0  0  0  0  0  0  0
  151.9992  142.4824  158.5270 C   0  0  0  0  0  0  0  0  0  0  0  0
  150.6135  142.9915  158.8744 C   0  0  0  0  0  0  0  0  0  0  0  0
  150.7732  141.8147  157.9434 C   0  0  0  0  0  0  0  0  0  0  0  0
  153.1323  140.4361  159.2079 C   0  0  0  0  0  0  0  0  0  0  0  0
  152.8741  139.9332  158.1115 O   0  0  0  0  0  0  0  0  0  0  0  0
  153.7903  139.6887  160.2148 N   0  0  0  0  0  0  0  0  0  0  0  0
  154.2233  138.3089  159.9013 C   0  0  0  0  0  0  0  0  0  0  0  0
  153.4807  137.2354  160.7118 C   0  0  0  0  0  0  0  0  0  0  0  0
  152.7024  136.4509  160.1670 O   0  0  0  0  0  0  0  0  0  0  0  0
  153.7457  137.2092  162.0252 N   0  0  0  0  0  0  0  0  0  0  0  0
  153.1674  136.2613  162.9671 C   0  0  0  0  0  0  0  0  0  0  0  0
  153.9963  134.9833  163.0111 C   0  0  0  0  0  0  0  0  0  0  0  0
  153.9834  134.0187  161.8152 C   0  0  0  0  0  0  0  0  0  0  0  0
  154.0960  132.8590  162.8083 C   0  0  0  0  0  0  0  0  0  0  0  0
  153.5241  133.8015  163.8709 C   0  0  0  0  0  0  0  0  0  0  0  0
  154.0732  140.2173  161.5004 C   0  0  0  0  0  0  0  0  0  0  0  0
  154.6698  139.5477  162.3454 O   0  0  0  0  0  0  0  0  0  0  0  0
  152.6629  143.2914  160.9720 H   0  0  0  0  0  0  0  0  0  0  0  0
  152.5715  143.1032  157.8399 H   0  0  0  0  0  0  0  0  0  0  0  0
  150.2217  142.7866  159.8689 H   0  0  0  0  0  0  0  0  0  0  0  0
  150.3051  143.9399  158.4395 H   0  0  0  0  0  0  0  0  0  0  0  0
  150.5686  141.9778  156.8873 H   0  0  0  0  0  0  0  0  0  0  0  0
  150.4901  140.8362  158.3267 H   0  0  0  0  0  0  0  0  0  0  0  0
  154.0940  138.0852  158.8414 H   0  0  0  0  0  0  0  0  0  0  0  0
  155.2961  138.1928  160.0644 H   0  0  0  0  0  0  0  0  0  0  0  0
  154.3983  137.8847  162.3957 H   0  0  0  0  0  0  0  0  0  0  0  0
  153.1176  136.7111  163.9600 H   0  0  0  0  0  0  0  0  0  0  0  0
  152.1415  136.0442  162.6658 H   0  0  0  0  0  0  0  0  0  0  0  0
  155.0343  135.2057  163.2688 H   0  0  0  0  0  0  0  0  0  0  0  0
  153.0338  134.0221  161.2771 H   0  0  0  0  0  0  0  0  0  0  0  0
  154.8302  134.1244  161.1365 H   0  0  0  0  0  0  0  0  0  0  0  0
  153.4709  131.9961  162.5767 H   0  0  0  0  0  0  0  0  0  0  0  0
  155.1294  132.5715  163.0087 H   0  0  0  0  0  0  0  0  0  0  0  0
  154.0001  133.7305  164.8495 H   0  0  0  0  0  0  0  0  0  0  0  0
  152.4371  133.7386  163.9469 H   0  0  0  0  0  0  0  0  0  0  0  0
  1  2  3  0  0  0  0
  2  3  1  0  0  0  0
  3 21  1  0  0  0  0
  3  4  2  0  0  0  0
  4  5  1  0  0  0  0
  4 23  1  0  0  0  0
  5  6  1  0  0  0  0
  5  9  1  0  0  0  0
  6  8  1  0  0  0  0
  6  7  1  0  0  0  0
  6 24  1  0  0  0  0
  7  8  1  0  0  0  0
  7 25  1  0  0  0  0
  7 26  1  0  0  0  0
  8 27  1  0  0  0  0
  8 28  1  0  0  0  0
  9 10  2  0  0  0  0
  9 11  1  0  0  0  0
 11 12  1  0  0  0  0
 11 21  1  0  0  0  0
 12 13  1  0  0  0  0
 12 29  1  0  0  0  0
 12 30  1  0  0  0  0
 13 14  2  0  0  0  0
 13 15  1  0  0  0  0
 15 16  1  0  0  0  0
 15 31  1  0  0  0  0
 16 17  1  0  0  0  0
 16 32  1  0  0  0  0
 16 33  1  0  0  0  0
 17 20  1  0  0  0  0
 17 18  1  0  0  0  0
 17 34  1  0  0  0  0
 18 19  1  0  0  0  0
 18 35  1  0  0  0  0
 18 36  1  0  0  0  0
 19 20  1  0  0  0  0
 19 37  1  0  0  0  0
 19 38  1  0  0  0  0
 20 39  1  0  0  0  0
 20 40  1  0  0  0  0
 21 22  2  0  0  0  0
M  END
> <s_m_source_file>
AV-unprocessed.smi

> <i_m_source_file_index>
2870

> <i_lp_mmshare_version>
43012

> <i_f3d_flags>
0

> <s_epik_input>
TiNDYzFbY0hdbihbQ0hdMltDSDJdW0NIMl0yKWMoPU8pbihjMT1PKVtDSDJdQyg9TylbTkhdW0NIMl1bQ0hdM1tDSDJdW0NIMl1bQ0gyXTM=

> <s_epik_cmdline>
J2VwaWtfcHl0aG9uJywgJy1waCcsICc3LjAnLCAnLXRuJywgJzgnLCAnLW1hJywgJzIwMCcsICctbWV0YWxfYmluZGluZycsICctaW1hZScsICc8aW5maWxlLm1hZT4nLCAnLW9tYWUnLCAnPG91dGZpbGUubWFlPic=

> <r_lp_tautomer_probability>
1

> <r_epik_Ionization_Penalty>
1.93838e-08

> <r_epik_Ionization_Penalty_Charging>
8.20545e-11

> <r_epik_Ionization_Penalty_Neutral>
1.93017e-08

> <r_epik_State_Penalty>
-0

> <r_epik_Charging_Adjusted_Penalty>
8.20545e-11

> <i_epik_Tot_Q>
0

> <i_epik_Tot_abs_Q>
0

> <r_epik_Metal_State_Penalty>
-0

> <b_epik_Metal_Only>
0

> <s_lp_Force_Field>
OPLS_2005

> <r_lp_Energy>
38.3845

> <b_lp_Chiralities_Consistent>
1

> <s_lp_Variant>
AV-unprocessed.smi:2870-1

> <Gold.Version>
5.8.1

> <Gold.Id.Protein>
6NUR|6NUR_protein|mol2

> <Gold.PLP.Fitness>
50.6794

> <Gold.PLP.PLP>
-46.9347

> <Gold.PLP.part.hbond>
-2.0403

> <Gold.PLP.part.metal>
0.0000

> <Gold.PLP.part.buried>
-5.2346

> <Gold.PLP.part.nonpolar>
-39.4925

> <Gold.PLP.part.repulsive>
0.0790

> <Gold.PLP.ligand.clash>
0.0000

> <Gold.PLP.ligand.torsion>
0.4219

> <Gold.PLP.Chemscore.Hbond>
1.4388

> <Gold.PLP.Chemscore.CHOScore>
0.0000

> <Gold.PLP.Chemscore.Metal>
0.0000

> <Gold.Chemscore.Hbonds>
donor molecule, donor type, donor heavy atom, donor atom, acceptor molecule, acceptor atom, score
      P1  H  6896  6907       L1    14  1.00
      P1  H  7997  8010       L1    10  0.93

> <Gold.PLP.Chemscore.Internal.Correction>
0.2723

> <Gold.Rescore>
     Score         DG    S(hbond)    S(metal)    S(lipo)     H(rot)  DE(clash)    DE(int)     intcor
     13.43     -16.98       1.73        0.00      92.15       1.98       0.31       3.24       ----

> <Gold.Chemscore.Fitness>
13.4334

> <Gold.Chemscore.DG>
-16.9770

> <Gold.Chemscore.ZeroCoef>
-5.4800

> <Gold.Chemscore.Hbond>
1.7311

> <Gold.Chemscore.Metal>
0.0000

> <Gold.Chemscore.Lipo>
92.1493

> <Gold.Chemscore.Internal_Hbond>
0.0000

> <Gold.Chemscore.DEClash>
0.3082

> <Gold.Chemscore.DEInternal>
3.2354

> <Gold.Chemscore.Rot>
1.9791

> <Gold.Chemscore.Internal.Correction>
   9.000000E+99

> <Gold.Chemscore.Hbonds>
donor molecule, donor type, donor heavy atom, donor atom, acceptor molecule, acceptor atom, score
      P1  H  6896  6907       L1    14  0.95
      P1  H  7997  8010       L1    10  0.37

> <Gold.Chemscore.Hbond.Weighted>
-5.7820

> <Gold.Chemscore.Metal.Weighted>
-0.0000

> <Gold.Chemscore.Lipo.Weighted>
-10.7815

> <Gold.Chemscore.Internal_Hbond.Weighted>
0.0000

> <Gold.Chemscore.DEClash.Weighted>
0.3082

> <Gold.Chemscore.DEInternal.Weighted>
3.2354

> <Gold.Chemscore.Rot.Weighted>
5.0665

> <Gold.Chemscore.Internal.Correction.Weighted>
   9.000000E+99

> <Gold.Protein.RotatedTorsions>
[ 6907 6896 6895 6894 ] final   24.07 input  -60.11 | X-H torsion
[ 7974 7965 7964 7962 ] final  111.92 input  175.53 | X-H torsion
[ 8008 7997 7996 7995 ] final   27.83 input   59.86 | X-H torsion
[ 10167 10162 10161 10158 ] final  -58.43 input  -65.29 | X-H torsion
[ 10718 10713 10712 10709 ] final  156.90 input   66.30 | X-H torsion
[ 10763 10752 10751 10750 ] final -118.32 input  -60.55 | X-H torsion
[ 11005 11000 10999 10996 ] final  -24.51 input  -57.11 | X-H torsion

> <Gold.Protein.ActiveResidues>
 VAL166  LYS551  ARG553  GLY616  TRP617  ASP618  TYR619  PRO620  LYS621  CYS622 
 ASP623  PHE694  ASN695  SER759  ASP760  ASP761  ALA762  ILE779  LEU786  VAL792 
 PHE793  MET794  SER795  GLU796  ALA797  LYS798  CYS799  TRP800  GLU811  SER814 

> <Gold.Protein.RotatedAtoms>
  151.9520  135.0164  160.0542 H   0  0  0  0  0  0  0  0  0  0  0  0  # atno 6907 bound_to 6896
  152.1945  133.4792  159.5033 H   0  0  0  0  0  0  0  0  0  0  0  0  # atno 6908 bound_to 6896
  150.6941  134.1587  159.4211 H   0  0  0  0  0  0  0  0  0  0  0  0  # atno 6909 bound_to 6896
  145.2360  139.2799  143.4143 H   0  0  0  0  0  0  0  0  0  0  0  0  # atno 7974 bound_to 7965
  155.0490  140.3177  155.4698 H   0  0  0  0  0  0  0  0  0  0  0  0  # atno 8008 bound_to 7997
  156.2838  140.2149  156.5559 H   0  0  0  0  0  0  0  0  0  0  0  0  # atno 8009 bound_to 7997
  154.7226  140.0488  157.0641 H   0  0  0  0  0  0  0  0  0  0  0  0  # atno 8010 bound_to 7997
  140.6198  143.2415  151.5509 H   0  0  0  0  0  0  0  0  0  0  0  0  # atno 10167 bound_to 10162
  157.1988  131.0671  151.2037 H   0  0  0  0  0  0  0  0  0  0  0  0  # atno 10718 bound_to 10713
  154.8583  135.4278  154.2120 H   0  0  0  0  0  0  0  0  0  0  0  0  # atno 10763 bound_to 10752
  153.3143  135.6978  153.7093 H   0  0  0  0  0  0  0  0  0  0  0  0  # atno 10764 bound_to 10752
  153.6173  135.3508  155.2973 H   0  0  0  0  0  0  0  0  0  0  0  0  # atno 10765 bound_to 10752
  140.8852  133.7626  156.0351 H   0  0  0  0  0  0  0  0  0  0  0  0  # atno 11005 bound_to 11000
  146.3341  140.2710  142.8606 LP  0  0  0  0  0  0  0  0  0  0  0  0  # atno 17320 bound_to 7965
  144.9632  140.8296  143.5500 LP  0  0  0  0  0  0  0  0  0  0  0  0  # atno 17321 bound_to 7965
  139.5429  144.2599  152.1386 LP  0  0  0  0  0  0  0  0  0  0  0  0  # atno 17342 bound_to 10162
  140.1817  144.4838  150.6525 LP  0  0  0  0  0  0  0  0  0  0  0  0  # atno 17343 bound_to 10162
  157.3788  130.7220  149.6615 LP  0  0  0  0  0  0  0  0  0  0  0  0  # atno 17370 bound_to 10713
  155.9703  130.4178  150.4298 LP  0  0  0  0  0  0  0  0  0  0  0  0  # atno 17371 bound_to 10713
  140.8414  134.3062  157.5312 LP  0  0  0  0  0  0  0  0  0  0  0  0  # atno 17394 bound_to 11000
  139.8723  134.9418  156.3807 LP  0  0  0  0  0  0  0  0  0  0  0  0  # atno 17395 bound_to 11000

$$$$
