#       Name:                AV-unprocessed.smi:1535
#       Creating user name   scv26
#       Creation time:       Fri Mar 27 06:32:00 2020


#       File generated by GOLD software.
#

@<TRIPOS>MOLECULE
AV-unprocessed.smi:1535
    51    52     1
SMALL
NO_CHARGES


@<TRIPOS>ATOM
      1 ****         1.6277   5.2474  -1.3186 C.3            1 S1                 0.0000
      2 ****         0.7146   4.0636  -1.0526 C.ar           1 S1                 0.0000
      3 ****         0.1734   3.3538  -2.1480 C.ar           1 S1                 0.0000
      4 ****        -0.6809   2.2484  -1.9441 C.ar           1 S1                 0.0000
      5 ****        -1.3115   1.4201  -2.8565 N.2            1 S1                 0.0000
      6 ****        -1.9604   0.5820  -2.0535 C.2            1 S1                 0.0000
      7 ****        -1.8234   0.7685  -0.7268 N.pl3          1 S1                 0.0000
      8 ****        -2.4292  -0.0215   0.3298 C.3            1 S1                 0.0000
      9 ****        -1.6557  -1.3250   0.6030 C.3            1 S1                 0.0000
     10 ****        -2.3743  -2.0522   1.5776 O.3            1 S1                 0.0000
     11 ****        -0.2237  -1.0819   1.1267 C.3            1 S1                 0.0000
     12 ****         0.6331  -2.2624   1.3032 N.3            1 S1                 0.0000
     13 ****         1.8625  -1.8563   1.9736 C.3            1 S1                 0.0000
     14 ****         0.9489  -2.9295   0.0359 C.3            1 S1                 0.0000
     15 ****        -0.0339  -4.0462  -0.3717 C.3            1 S1                 0.0000
     16 ****         0.4842  -5.4328   0.0319 C.3            1 S1                 0.0000
     17 ****        -0.3193  -3.9980  -1.8147 C.1            1 S1                 0.0000
     18 ****        -0.5445  -3.9587  -2.9487 N.1            1 S1                 0.0000
     19 ****        -0.9817   1.8690  -0.6031 C.ar           1 S1                 0.0000
     20 ****        -0.4488   2.5668   0.4953 C.ar           1 S1                 0.0000
     21 ****         0.4024   3.6696   0.2734 C.ar           1 S1                 0.0000
     22 ****         0.9710   4.4184   1.4658 C.3            1 S1                 0.0000
     23 ****         1.7922   5.3917  -2.3867 H              1 S1                 0.0000
     24 ****         2.5996   5.0949  -0.8488 H              1 S1                 0.0000
     25 ****         1.1898   6.1632  -0.9207 H              1 S1                 0.0000
     26 ****         0.4106   3.6535  -3.1581 H              1 S1                 0.0000
     27 ****        -2.5687  -0.2168  -2.4523 H              1 S1                 0.0000
     28 ****        -2.4911   0.5868   1.2332 H              1 S1                 0.0000
     29 ****        -3.4554  -0.2469   0.0358 H              1 S1                 0.0000
     30 ****        -1.6366  -1.8958  -0.3238 H              1 S1                 0.0000
     31 ****        -1.8932  -2.8420   1.7732 H              1 S1                 0.0000
     32 ****         0.2859  -0.3867   0.4591 H              1 S1                 0.0000
     33 ****        -0.3072  -0.5564   2.0795 H              1 S1                 0.0000
     34 ****         2.4981  -2.7194   2.1746 H              1 S1                 0.0000
     35 ****         1.6456  -1.3834   2.9321 H              1 S1                 0.0000
     36 ****         2.4296  -1.1496   1.3657 H              1 S1                 0.0000
     37 ****         1.0140  -2.1823  -0.7570 H              1 S1                 0.0000
     38 ****         1.9474  -3.3677   0.0798 H              1 S1                 0.0000
     39 ****        -0.9930  -3.9050   0.1227 H              1 S1                 0.0000
     40 ****        -0.2375  -6.2087  -0.2250 H              1 S1                 0.0000
     41 ****         0.6609  -5.4869   1.1064 H              1 S1                 0.0000
     42 ****         1.4202  -5.6694  -0.4751 H              1 S1                 0.0000
     43 ****        -0.6919   2.2543   1.5000 H              1 S1                 0.0000
     44 ****         0.6062   4.0046   2.4064 H              1 S1                 0.0000
     45 ****         0.6836   5.4694   1.4294 H              1 S1                 0.0000
     46 ****         2.0593   4.3558   1.4722 H              1 S1                 0.0000
     47 ****        -1.2858   1.4453  -3.8559 LP             1 S1                 0.0000
     48 ****        -3.2801  -2.2867   1.2248 LP             1 S1                 0.0000
     49 ****        -2.4717  -1.5016   2.4066 LP             1 S1                 0.0000
     50 ****         0.1304  -2.9255   1.8578 LP             1 S1                 0.0000
     51 ****        -0.7391  -3.9247  -3.9290 LP             1 S1                 0.0000
@<TRIPOS>BOND
    1    1    2 1     
    2    1   23 1     
    3    1   24 1     
    4    1   25 1     
    5    2   21 ar    
    6    2    3 ar    
    7    3    4 ar    
    8    3   26 1     
    9    4   19 ar    
   10    4    5 1     
   11    5    6 2     
   12    6    7 1     
   13    6   27 1     
   14    7    8 1     
   15    7   19 1     
   16    8    9 1     
   17    8   28 1     
   18    8   29 1     
   19    9   10 1     
   20    9   11 1     
   21    9   30 1     
   22   10   31 1     
   23   11   12 1     
   24   11   32 1     
   25   11   33 1     
   26   12   13 1     
   27   12   14 1     
   28   13   34 1     
   29   13   35 1     
   30   13   36 1     
   31   14   15 1     
   32   14   37 1     
   33   14   38 1     
   34   15   16 1     
   35   15   17 1     
   36   15   39 1     
   37   16   40 1     
   38   16   41 1     
   39   16   42 1     
   40   17   18 3     
   41   19   20 ar    
   42   20   21 ar    
   43   20   43 1     
   44   21   22 1     
   45   22   44 1     
   46   22   45 1     
   47   22   46 1     
   48    5   47 1     
   49   10   48 1     
   50   10   49 1     
   51   12   50 1     
   52   18   51 1     
@<TRIPOS>SUBSTRUCTURE
      1 S1             1
@<TRIPOS>SET
LONE_PAIRS      STATIC     ATOMS    <user>   **** ""
5 47 48 49 50 51
DONOR_HYDROGENS      STATIC     ATOMS    <user>   **** ""
1 31
ATOM$BLUE        STATIC     ATOMS    COLORGROUP SYSTEM
5 47 48 49 50 51
ATOM$RED        STATIC     ATOMS    COLORGROUP SYSTEM
1 31
