AV-unprocessed.smi:1129|AV-procd|sdf|4847|dock4
  -GOLD-   22720 3413D 1   1.00000     0.00000
 Structure written by MMmdl.
 40 41  0  0  0  0  0  0  0  0  1 V2000
  151.9359  144.6461  158.7138 C   0  0  0  0  0  0  0  0  0  0  0  0
  151.3461  143.4008  159.0440 O   0  0  0  0  0  0  0  0  0  0  0  0
  151.6505  142.3883  158.0991 C   0  0  0  0  0  0  0  0  0  0  0  0
  150.3498  141.7293  157.6304 C   0  0  0  0  0  0  0  0  0  0  0  0
  150.4431  141.4716  156.2326 O   0  0  0  0  0  0  0  0  0  0  0  0
  150.4686  140.1603  155.8043 C   0  0  0  0  0  0  0  0  0  0  0  0
  150.9119  139.1680  156.7010 C   0  0  0  0  0  0  0  0  0  0  0  0
  150.9430  137.8272  156.2727 C   0  0  0  0  0  0  0  0  0  0  0  0
  150.5352  137.5214  154.9527 C   0  0  0  0  0  0  0  0  0  0  0  0
  150.5015  136.2071  154.4141 N   0  0  0  0  0  0  0  0  0  0  0  0
  151.0856  135.0934  154.8940 C   0  0  0  0  0  0  0  0  0  0  0  0
  151.7775  135.0599  155.9117 O   0  0  0  0  0  0  0  0  0  0  0  0
  150.8475  133.8089  154.0760 C   0  0  1  0  0  0  0  0  0  0  0  0
  151.5904  132.5924  154.6599 C   0  0  0  0  0  0  0  0  0  0  0  0
  150.9881  132.0889  155.9855 C   0  0  0  0  0  0  0  0  0  0  0  0
  149.4523  132.0519  155.9944 C   0  0  0  0  0  0  0  0  0  0  0  0
  148.8695  131.4089  156.8642 O   0  0  0  0  0  0  0  0  0  0  0  0
  148.7755  132.7607  155.0737 N   0  0  0  0  0  0  0  0  0  0  0  0
  149.3479  133.4661  153.9254 C   0  0  0  0  0  0  0  0  0  0  0  0
  150.0918  138.5848  154.1395 C   0  0  0  0  0  0  0  0  0  0  0  0
  150.0619  139.8724  154.5431 N   0  0  0  0  0  0  0  0  0  0  0  0
  151.6695  145.3881  159.4663 H   0  0  0  0  0  0  0  0  0  0  0  0
  151.5828  145.0057  157.7464 H   0  0  0  0  0  0  0  0  0  0  0  0
  153.0238  144.5725  158.6845 H   0  0  0  0  0  0  0  0  0  0  0  0
  152.1993  142.7970  157.2491 H   0  0  0  0  0  0  0  0  0  0  0  0
  152.2878  141.6388  158.5707 H   0  0  0  0  0  0  0  0  0  0  0  0
  150.2148  140.7876  158.1648 H   0  0  0  0  0  0  0  0  0  0  0  0
  149.4972  142.3710  157.8597 H   0  0  0  0  0  0  0  0  0  0  0  0
  151.2192  139.4304  157.7026 H   0  0  0  0  0  0  0  0  0  0  0  0
  151.2622  137.0636  156.9648 H   0  0  0  0  0  0  0  0  0  0  0  0
  150.0366  136.1149  153.5223 H   0  0  0  0  0  0  0  0  0  0  0  0
  151.2400  133.9918  153.0742 H   0  0  0  0  0  0  0  0  0  0  0  0
  151.5680  131.7815  153.9307 H   0  0  0  0  0  0  0  0  0  0  0  0
  152.6453  132.8293  154.8051 H   0  0  0  0  0  0  0  0  0  0  0  0
  151.3749  131.0950  156.2131 H   0  0  0  0  0  0  0  0  0  0  0  0
  151.3068  132.7351  156.8041 H   0  0  0  0  0  0  0  0  0  0  0  0
  147.7675  132.7520  155.1358 H   0  0  0  0  0  0  0  0  0  0  0  0
  148.7617  134.3675  153.7416 H   0  0  0  0  0  0  0  0  0  0  0  0
  149.2087  132.8322  153.0490 H   0  0  0  0  0  0  0  0  0  0  0  0
  149.7552  138.3995  153.1299 H   0  0  0  0  0  0  0  0  0  0  0  0
  1  2  1  0  0  0  0
  1 22  1  0  0  0  0
  1 23  1  0  0  0  0
  1 24  1  0  0  0  0
  2  3  1  0  0  0  0
  3  4  1  0  0  0  0
  3 25  1  0  0  0  0
  3 26  1  0  0  0  0
  4  5  1  0  0  0  0
  4 27  1  0  0  0  0
  4 28  1  0  0  0  0
  5  6  1  0  0  0  0
  6 21  1  0  0  0  0
  6  7  2  0  0  0  0
  7  8  1  0  0  0  0
  7 29  1  0  0  0  0
  8  9  2  0  0  0  0
  8 30  1  0  0  0  0
  9 10  1  0  0  0  0
  9 20  1  0  0  0  0
 10 11  1  0  0  0  0
 10 31  1  0  0  0  0
 11 12  2  0  0  0  0
 11 13  1  0  0  0  0
 13 19  1  0  0  0  0
 13 14  1  0  0  0  0
 13 32  1  0  0  0  0
 14 15  1  0  0  0  0
 14 33  1  0  0  0  0
 14 34  1  0  0  0  0
 15 16  1  0  0  0  0
 15 35  1  0  0  0  0
 15 36  1  0  0  0  0
 16 17  2  0  0  0  0
 16 18  1  0  0  0  0
 18 19  1  0  0  0  0
 18 37  1  0  0  0  0
 19 38  1  0  0  0  0
 19 39  1  0  0  0  0
 20 21  2  0  0  0  0
 20 40  1  0  0  0  0
M  END
> <s_m_source_file>
AV-unprocessed.smi

> <i_m_source_file_index>
1129

> <i_lp_mmshare_version>
43012

> <i_f3d_flags>
0

> <s_epik_input>
W0NIM11PW0NIMl1bQ0gyXU9jMVtjSF1bY0hdYyhbY0hdbjEpW05IXUMoPU8pW0NAQEhdMltDSDJdW0NIMl1DKD1PKVtOSF1bQ0gyXTI=

> <s_epik_cmdline>
J2VwaWtfcHl0aG9uJywgJy1waCcsICc3LjAnLCAnLXRuJywgJzgnLCAnLW1hJywgJzIwMCcsICctbWV0YWxfYmluZGluZycsICctaW1hZScsICc8aW5maWxlLm1hZT4nLCAnLW9tYWUnLCAnPG91dGZpbGUubWFlPic=

> <r_lp_tautomer_probability>
1

> <r_epik_Ionization_Penalty>
1.79985e-05

> <r_epik_Ionization_Penalty_Charging>
0

> <r_epik_Ionization_Penalty_Neutral>
1.79985e-05

> <r_epik_State_Penalty>
-0

> <r_epik_Charging_Adjusted_Penalty>
0

> <i_epik_Tot_Q>
0

> <i_epik_Tot_abs_Q>
0

> <r_epik_Metal_State_Penalty>
-0

> <b_epik_Metal_Only>
0

> <s_lp_Force_Field>
OPLS_2005

> <r_lp_Energy>
14.8931

> <b_lp_Chiralities_Consistent>
1

> <s_lp_Variant>
AV-unprocessed.smi:1129-2

> <Gold.Version>
5.8.1

> <Gold.Id.Protein>
6NUR|6NUR_protein|mol2

> <Gold.PLP.Fitness>
37.5989

> <Gold.PLP.PLP>
-28.6993

> <Gold.PLP.part.hbond>
-2.2186

> <Gold.PLP.part.metal>
0.0000

> <Gold.PLP.part.buried>
-5.4210

> <Gold.PLP.part.nonpolar>
-22.4183

> <Gold.PLP.part.repulsive>
0.3217

> <Gold.PLP.ligand.clash>
0.0000

> <Gold.PLP.ligand.torsion>
1.3963

> <Gold.PLP.Chemscore.Hbond>
2.0000

> <Gold.PLP.Chemscore.CHOScore>
1.8751

> <Gold.PLP.Chemscore.Metal>
0.0000

> <Gold.Chemscore.Hbonds>
donor molecule, donor type, donor heavy atom, donor atom, acceptor molecule, acceptor atom, score
      L1  H    10    31       P1  7948  0.55
      P1  H  7989  7998       L1    21  0.67
      P1  H 10752 10764       L1    12  0.62
      L1  C    20    40       P1  7948  0.84
      L1  C    20    40       P1  7957  0.94

> <Gold.PLP.Chemscore.Internal.Correction>
0.0669

> <Gold.Rescore>
     Score         DG    S(hbond)    S(metal)    S(lipo)     H(rot)  DE(clash)    DE(int)     intcor
     11.17     -13.72       1.76        0.00      64.53       2.03       0.01       2.53       ----

> <Gold.Chemscore.Fitness>
11.1712

> <Gold.Chemscore.DG>
-13.7186

> <Gold.Chemscore.ZeroCoef>
-5.4800

> <Gold.Chemscore.Hbond>
1.7585

> <Gold.Chemscore.Metal>
0.0000

> <Gold.Chemscore.Lipo>
64.5330

> <Gold.Chemscore.Internal_Hbond>
0.0000

> <Gold.Chemscore.DEClash>
0.0126

> <Gold.Chemscore.DEInternal>
2.5348

> <Gold.Chemscore.Rot>
2.0255

> <Gold.Chemscore.Internal.Correction>
   9.000000E+99

> <Gold.Chemscore.Hbonds>
donor molecule, donor type, donor heavy atom, donor atom, acceptor molecule, acceptor atom, score
      L1  H    10    31       P1  7948  0.03
      P1  H  7989  7998       L1    21  0.07
      P1  H 10752 10764       L1    12  0.22

> <Gold.Chemscore.Hbond.Weighted>
-5.8735

> <Gold.Chemscore.Metal.Weighted>
-0.0000

> <Gold.Chemscore.Lipo.Weighted>
-7.5504

> <Gold.Chemscore.Internal_Hbond.Weighted>
0.0000

> <Gold.Chemscore.DEClash.Weighted>
0.0126

> <Gold.Chemscore.DEInternal.Weighted>
2.5348

> <Gold.Chemscore.Rot.Weighted>
5.1853

> <Gold.Chemscore.Internal.Correction.Weighted>
   9.000000E+99

> <Gold.Protein.RotatedTorsions>
[ 6907 6896 6895 6894 ] final  108.77 input  -60.11 | X-H torsion
[ 7974 7965 7964 7962 ] final   70.13 input  175.53 | X-H torsion
[ 8008 7997 7996 7995 ] final  137.52 input   59.86 | X-H torsion
[ 10167 10162 10161 10158 ] final   89.82 input  -65.29 | X-H torsion
[ 10718 10713 10712 10709 ] final -108.57 input   66.30 | X-H torsion
[ 10763 10752 10751 10750 ] final   -6.43 input  -60.55 | X-H torsion
[ 11005 11000 10999 10996 ] final   68.76 input  -57.11 | X-H torsion

> <Gold.Protein.ActiveResidues>
 VAL166  LYS551  ARG553  GLY616  TRP617  ASP618  TYR619  PRO620  LYS621  CYS622 
 ASP623  PHE694  ASN695  SER759  ASP760  ASP761  ALA762  ILE779  LEU786  VAL792 
 PHE793  MET794  SER795  GLU796  ALA797  LYS798  CYS799  TRP800  GLU811  SER814 

> <Gold.Protein.RotatedAtoms>
  152.5097  133.9040  159.7454 H   0  0  0  0  0  0  0  0  0  0  0  0  # atno 6907 bound_to 6896
  150.9449  133.6606  159.2790 H   0  0  0  0  0  0  0  0  0  0  0  0  # atno 6908 bound_to 6896
  151.3904  135.0960  159.9577 H   0  0  0  0  0  0  0  0  0  0  0  0  # atno 6909 bound_to 6896
  145.7819  139.2892  143.1261 H   0  0  0  0  0  0  0  0  0  0  0  0  # atno 7974 bound_to 7965
  156.3002  140.2417  156.3923 H   0  0  0  0  0  0  0  0  0  0  0  0  # atno 8008 bound_to 7997
  154.8602  140.0420  157.1680 H   0  0  0  0  0  0  0  0  0  0  0  0  # atno 8009 bound_to 7997
  154.8904  140.2962  155.5378 H   0  0  0  0  0  0  0  0  0  0  0  0  # atno 8010 bound_to 7997
  139.8535  144.6581  150.9142 H   0  0  0  0  0  0  0  0  0  0  0  0  # atno 10167 bound_to 10162
  156.0492  130.5719  150.7979 H   0  0  0  0  0  0  0  0  0  0  0  0  # atno 10718 bound_to 10713
  153.4122  135.7008  153.6351 H   0  0  0  0  0  0  0  0  0  0  0  0  # atno 10763 bound_to 10752
  153.4840  135.3687  155.2457 H   0  0  0  0  0  0  0  0  0  0  0  0  # atno 10764 bound_to 10752
  154.8717  135.4073  154.3476 H   0  0  0  0  0  0  0  0  0  0  0  0  # atno 10765 bound_to 10752
  139.9692  134.6928  156.0481 H   0  0  0  0  0  0  0  0  0  0  0  0  # atno 11005 bound_to 11000
  146.0065  140.8474  142.9992 LP  0  0  0  0  0  0  0  0  0  0  0  0  # atno 17320 bound_to 7965
  144.6795  140.2428  143.7341 LP  0  0  0  0  0  0  0  0  0  0  0  0  # atno 17321 bound_to 7965
  140.7784  143.3806  151.1483 LP  0  0  0  0  0  0  0  0  0  0  0  0  # atno 17342 bound_to 10162
  139.7442  143.8877  152.3059 LP  0  0  0  0  0  0  0  0  0  0  0  0  # atno 17343 bound_to 10162
  157.5401  131.0940  150.9839 LP  0  0  0  0  0  0  0  0  0  0  0  0  # atno 17370 bound_to 10713
  157.0124  130.5642  149.5322 LP  0  0  0  0  0  0  0  0  0  0  0  0  # atno 17371 bound_to 10713
  141.1372  133.6572  156.3627 LP  0  0  0  0  0  0  0  0  0  0  0  0  # atno 17394 bound_to 11000
  140.5329  134.6195  157.5356 LP  0  0  0  0  0  0  0  0  0  0  0  0  # atno 17395 bound_to 11000

$$$$
