AV-unprocessed.smi:826|AV-procd|sdf|3855|dock10
  -GOLD-   22720 1303D 1   1.00000     0.00000
 Structure written by MMmdl.
 38 39  0  0  0  0  0  0  0  0  2 V2000
  149.2346  132.5849  154.3793 C   0  0  0  0  0  0  0  0  0  0  0  0
  149.8804  133.6200  155.2348 C   0  0  0  0  0  0  0  0  0  0  0  0
  150.3269  133.3666  156.4675 N   0  0  0  0  0  0  0  0  0  0  0  0
  150.8919  134.4871  157.0595 N   0  0  0  0  0  0  0  0  0  0  0  0
  150.8760  135.5663  156.2642 C   0  0  0  0  0  0  0  0  0  0  0  0
  151.3774  136.7516  156.6484 N   0  5  0  0  0  0  0  0  0  0  0  0
  151.3667  137.0962  157.9563 C   0  0  0  0  0  0  0  0  0  0  0  0
  150.5062  136.7889  158.7850 O   0  0  0  0  0  0  0  0  0  0  0  0
  152.4207  137.8373  158.3308 N   0  0  0  0  0  0  0  0  0  0  0  0
  152.6793  138.3392  159.6798 C   0  0  1  0  0  0  0  0  0  0  0  0
  153.5992  137.3342  160.3938 C   0  0  0  0  0  0  0  0  0  0  0  0
  153.4018  139.6940  159.6172 C   0  0  0  0  0  0  0  0  0  0  0  0
  154.5410  139.7783  159.1554 O   0  0  0  0  0  0  0  0  0  0  0  0
  152.7280  140.7448  160.1083 N   0  0  0  0  0  0  0  0  0  0  0  0
  153.2307  142.1142  160.1643 C   0  0  0  0  0  0  0  0  0  0  0  0
  153.1014  142.7070  161.5834 C   0  0  0  0  0  0  0  0  0  0  0  0
  152.3798  144.0470  161.4231 C   0  0  0  0  0  0  0  0  0  0  0  0
  151.5313  143.8756  160.1669 C   0  0  0  0  0  0  0  0  0  0  0  0
  152.4056  143.0291  159.2421 C   0  0  0  0  0  0  0  0  0  0  0  0
  150.1207  135.2734  154.6976 S   0  0  0  0  0  0  0  0  0  0  0  0
  149.9764  132.1321  153.7213 H   0  0  0  0  0  0  0  0  0  0  0  0
  148.4531  133.0370  153.7685 H   0  0  0  0  0  0  0  0  0  0  0  0
  148.7873  131.8041  154.9953 H   0  0  0  0  0  0  0  0  0  0  0  0
  153.0960  138.0752  157.6194 H   0  0  0  0  0  0  0  0  0  0  0  0
  151.7425  138.4288  160.2337 H   0  0  0  0  0  0  0  0  0  0  0  0
  153.8283  137.6595  161.4092 H   0  0  0  0  0  0  0  0  0  0  0  0
  154.5441  137.1976  159.8657 H   0  0  0  0  0  0  0  0  0  0  0  0
  153.1214  136.3569  160.4674 H   0  0  0  0  0  0  0  0  0  0  0  0
  151.7964  140.5844  160.4623 H   0  0  0  0  0  0  0  0  0  0  0  0
  154.2723  142.1334  159.8378 H   0  0  0  0  0  0  0  0  0  0  0  0
  152.5031  142.0539  162.2210 H   0  0  0  0  0  0  0  0  0  0  0  0
  154.0714  142.8249  162.0672 H   0  0  0  0  0  0  0  0  0  0  0  0
  151.7861  144.3111  162.2986 H   0  0  0  0  0  0  0  0  0  0  0  0
  153.1107  144.8411  161.2647 H   0  0  0  0  0  0  0  0  0  0  0  0
  150.6180  143.3312  160.4103 H   0  0  0  0  0  0  0  0  0  0  0  0
  151.2449  144.8275  159.7187 H   0  0  0  0  0  0  0  0  0  0  0  0
  153.0813  143.6850  158.6915 H   0  0  0  0  0  0  0  0  0  0  0  0
  151.8176  142.4841  158.5022 H   0  0  0  0  0  0  0  0  0  0  0  0
  1  2  1  0  0  0  0
  1 21  1  0  0  0  0
  1 22  1  0  0  0  0
  1 23  1  0  0  0  0
  2 20  1  0  0  0  0
  2  3  2  0  0  0  0
  3  4  1  0  0  0  0
  4  5  2  0  0  0  0
  5  6  1  0  0  0  0
  5 20  1  0  0  0  0
  6  7  1  0  0  0  0
  7  8  2  0  0  0  0
  7  9  1  0  0  0  0
  9 10  1  0  0  0  0
  9 24  1  0  0  0  0
 10 11  1  0  0  0  0
 10 12  1  0  0  0  0
 10 25  1  0  0  0  0
 11 26  1  0  0  0  0
 11 27  1  0  0  0  0
 11 28  1  0  0  0  0
 12 13  2  0  0  0  0
 12 14  1  0  0  0  0
 14 15  1  0  0  0  0
 14 29  1  0  0  0  0
 15 19  1  0  0  0  0
 15 16  1  0  0  0  0
 15 30  1  0  0  0  0
 16 17  1  0  0  0  0
 16 31  1  0  0  0  0
 16 32  1  0  0  0  0
 17 18  1  0  0  0  0
 17 33  1  0  0  0  0
 17 34  1  0  0  0  0
 18 19  1  0  0  0  0
 18 35  1  0  0  0  0
 18 36  1  0  0  0  0
 19 37  1  0  0  0  0
 19 38  1  0  0  0  0
M  CHG  1   6  -1
M  END
> <s_m_source_file>
AV-unprocessed.smi

> <i_m_source_file_index>
826

> <i_lp_mmshare_version>
43012

> <i_f3d_flags>
0

> <s_epik_input>
W0NIM11jMW5uYyhzMSlbTkhdQyg9TylbTkhdW0NASF0oW0NIM10pQyg9TylbTkhdW0NIXTJbQ0gyXVtDSDJdW0NIMl1bQ0gyXTI=

> <s_epik_cmdline>
J2VwaWtfcHl0aG9uJywgJy1waCcsICc3LjAnLCAnLXRuJywgJzgnLCAnLW1hJywgJzIwMCcsICctbWV0YWxfYmluZGluZycsICctaW1hZScsICc8aW5maWxlLm1hZT4nLCAnLW9tYWUnLCAnPG91dGZpbGUubWFlPic=

> <r_lp_tautomer_probability>
1

> <r_epik_Ionization_Penalty>
3.15008

> <r_epik_Ionization_Penalty_Charging>
3.01509

> <r_epik_Ionization_Penalty_Neutral>
0.134987

> <r_epik_State_Penalty>
3.01143

> <r_epik_Charging_Adjusted_Penalty>
6.02652

> <i_epik_Tot_Q>
-1

> <i_epik_Tot_abs_Q>
1

> <r_epik_Metal_State_Penalty>
0.454645

> <b_epik_Metal_Only>
1

> <s_lp_Force_Field>
OPLS_2005

> <r_lp_Energy>
16.5176

> <b_lp_Chiralities_Consistent>
1

> <s_lp_Variant>
AV-unprocessed.smi:826-4

> <Gold.Version>
5.8.1

> <Gold.Id.Protein>
6NUR|6NUR_protein|mol2

> <Gold.PLP.Fitness>
40.7565

> <Gold.PLP.PLP>
-36.2550

> <Gold.PLP.part.hbond>
-3.0000

> <Gold.PLP.part.metal>
0.0000

> <Gold.PLP.part.buried>
-5.6502

> <Gold.PLP.part.nonpolar>
-27.8310

> <Gold.PLP.part.repulsive>
0.2082

> <Gold.PLP.ligand.clash>
0.0000

> <Gold.PLP.ligand.torsion>
0.8971

> <Gold.PLP.Chemscore.Hbond>
2.0852

> <Gold.PLP.Chemscore.CHOScore>
0.0000

> <Gold.PLP.Chemscore.Metal>
0.0000

> <Gold.Chemscore.Hbonds>
donor molecule, donor type, donor heavy atom, donor atom, acceptor molecule, acceptor atom, score
      P1  H  6896  6907       L1     8  0.78
      P1  H  6896  6909       L1     4  0.06
      P1  H  7997  8010       L1    13  1.00

> <Gold.PLP.Chemscore.Internal.Correction>
0.0401

> <Gold.Rescore>
     Score         DG    S(hbond)    S(metal)    S(lipo)     H(rot)  DE(clash)    DE(int)     intcor
     15.63     -17.73       1.99        0.00      83.36       1.62       0.01       2.09       ----

> <Gold.Chemscore.Fitness>
15.6326

> <Gold.Chemscore.DG>
-17.7350

> <Gold.Chemscore.ZeroCoef>
-5.4800

> <Gold.Chemscore.Hbond>
1.9909

> <Gold.Chemscore.Metal>
0.0000

> <Gold.Chemscore.Lipo>
83.3577

> <Gold.Chemscore.Internal_Hbond>
0.0000

> <Gold.Chemscore.DEClash>
0.0106

> <Gold.Chemscore.DEInternal>
2.0917

> <Gold.Chemscore.Rot>
1.6201

> <Gold.Chemscore.Internal.Correction>
   9.000000E+99

> <Gold.Chemscore.Hbonds>
donor molecule, donor type, donor heavy atom, donor atom, acceptor molecule, acceptor atom, score
      P1  H  6896  6907       L1     8  0.50
      P1  H  6896  6909       L1     4  0.01
      P1  H  7997  8010       L1    13  0.99

> <Gold.Chemscore.Hbond.Weighted>
-6.6496

> <Gold.Chemscore.Metal.Weighted>
-0.0000

> <Gold.Chemscore.Lipo.Weighted>
-9.7529

> <Gold.Chemscore.Internal_Hbond.Weighted>
0.0000

> <Gold.Chemscore.DEClash.Weighted>
0.0106

> <Gold.Chemscore.DEInternal.Weighted>
2.0917

> <Gold.Chemscore.Rot.Weighted>
4.1475

> <Gold.Chemscore.Internal.Correction.Weighted>
   9.000000E+99

> <Gold.Protein.RotatedTorsions>
[ 6907 6896 6895 6894 ] final  -21.44 input  -60.11 | X-H torsion
[ 7974 7965 7964 7962 ] final -160.03 input  175.53 | X-H torsion
[ 8008 7997 7996 7995 ] final    6.50 input   59.86 | X-H torsion
[ 10167 10162 10161 10158 ] final  114.82 input  -65.29 | X-H torsion
[ 10718 10713 10712 10709 ] final  177.88 input   66.30 | X-H torsion
[ 10763 10752 10751 10750 ] final  161.55 input  -60.55 | X-H torsion
[ 11005 11000 10999 10996 ] final   88.99 input  -57.11 | X-H torsion

> <Gold.Protein.ActiveResidues>
 VAL166  LYS551  ARG553  GLY616  TRP617  ASP618  TYR619  PRO620  LYS621  CYS622 
 ASP623  PHE694  ASN695  SER759  ASP760  ASP761  ALA762  ILE779  LEU786  VAL792 
 PHE793  MET794  SER795  GLU796  ALA797  LYS798  CYS799  TRP800  GLU811  SER814 

> <Gold.Protein.RotatedAtoms>
  151.2334  135.0562  159.8996 H   0  0  0  0  0  0  0  0  0  0  0  0  # atno 6907 bound_to 6896
  152.5402  134.0513  159.8121 H   0  0  0  0  0  0  0  0  0  0  0  0  # atno 6908 bound_to 6896
  151.0696  133.5429  159.2659 H   0  0  0  0  0  0  0  0  0  0  0  0  # atno 6909 bound_to 6896
  144.7442  140.3600  143.6098 H   0  0  0  0  0  0  0  0  0  0  0  0  # atno 7974 bound_to 7965
  154.7418  140.2750  155.6367 H   0  0  0  0  0  0  0  0  0  0  0  0  # atno 8008 bound_to 7997
  156.2875  140.2695  156.2073 H   0  0  0  0  0  0  0  0  0  0  0  0  # atno 8009 bound_to 7997
  155.0249  140.0371  157.2441 H   0  0  0  0  0  0  0  0  0  0  0  0  # atno 8010 bound_to 7997
  139.6361  144.7120  151.2332 H   0  0  0  0  0  0  0  0  0  0  0  0  # atno 10167 bound_to 10162
  156.8988  130.9871  151.3039 H   0  0  0  0  0  0  0  0  0  0  0  0  # atno 10718 bound_to 10713
  154.2647  135.2767  155.2763 H   0  0  0  0  0  0  0  0  0  0  0  0  # atno 10763 bound_to 10752
  154.5353  135.5718  153.6797 H   0  0  0  0  0  0  0  0  0  0  0  0  # atno 10764 bound_to 10752
  152.9956  135.6238  154.2799 H   0  0  0  0  0  0  0  0  0  0  0  0  # atno 10765 bound_to 10752
  139.8884  134.8523  156.3078 H   0  0  0  0  0  0  0  0  0  0  0  0  # atno 11005 bound_to 11000
  145.7187  139.1704  143.2497 LP  0  0  0  0  0  0  0  0  0  0  0  0  # atno 17320 bound_to 7965
  146.1293  140.7207  142.9420 LP  0  0  0  0  0  0  0  0  0  0  0  0  # atno 17321 bound_to 7965
  140.7466  143.6394  150.8349 LP  0  0  0  0  0  0  0  0  0  0  0  0  # atno 17342 bound_to 10162
  140.0025  143.5728  152.2870 LP  0  0  0  0  0  0  0  0  0  0  0  0  # atno 17343 bound_to 10162
  157.6039  130.8533  149.8845 LP  0  0  0  0  0  0  0  0  0  0  0  0  # atno 17370 bound_to 10713
  156.0592  130.3703  150.1020 LP  0  0  0  0  0  0  0  0  0  0  0  0  # atno 17371 bound_to 10713
  140.9870  133.7232  156.0757 LP  0  0  0  0  0  0  0  0  0  0  0  0  # atno 17394 bound_to 11000
  140.7675  134.3870  157.5514 LP  0  0  0  0  0  0  0  0  0  0  0  0  # atno 17395 bound_to 11000

$$$$
