#       Name:                AV-unprocessed.smi:2448
#       Creating user name   scv26
#       Creation time:       Fri Mar 27 13:29:06 2020


#       File generated by GOLD software.
#

@<TRIPOS>MOLECULE
AV-unprocessed.smi:2448
    41    42     1
SMALL
NO_CHARGES


@<TRIPOS>ATOM
      1 ****        -2.0900   0.2665   2.3397 O.3            1 S1                 0.0000
      2 ****        -1.7154   0.6303   1.0221 C.3            1 S1                 0.0000
      3 ****        -0.1770   0.6019   0.9316 C.3            1 S1                 0.0000
      4 ****         0.3631  -0.7548   1.1740 N.4            1 S1                 1.0000
      5 ****         1.8305  -0.8907   1.0151 C.3            1 S1                 0.0000
      6 ****         2.1822  -1.5436  -0.3411 C.3            1 S1                 0.0000
      7 ****         1.7264  -0.7342  -1.5415 C.ar           1 S1                 0.0000
      8 ****         0.5883  -1.1188  -2.2806 C.ar           1 S1                 0.0000
      9 ****         0.1932  -0.3175  -3.3707 C.ar           1 S1                 0.0000
     10 ****         0.8494   0.8020  -3.7431 N.ar           1 S1                 0.0000
     11 ****         1.9428   1.1599  -3.0363 C.ar           1 S1                 0.0000
     12 ****         2.4211   0.4297  -1.9297 C.ar           1 S1                 0.0000
     13 ****         2.4082  -1.6931   2.1969 C.3            1 S1                 0.0000
     14 ****         2.1049  -1.0839   3.3433 F              1 S1                 0.0000
     15 ****         1.9040  -2.9272   2.2191 F              1 S1                 0.0000
     16 ****         3.7353  -1.7670   2.0997 F              1 S1                 0.0000
     17 ****        -2.2855   2.0297   0.7377 C.3            1 S1                 0.0000
     18 ****        -3.7972   1.8886   0.5314 C.3            1 S1                 0.0000
     19 ****        -4.0939   0.2869  -0.2578 S.3            1 S1                 0.0000
     20 ****        -2.4028  -0.3054   0.0113 C.3            1 S1                 0.0000
     21 ****        -1.8045   0.9432   2.9349 H              1 S1                 0.0000
     22 ****         0.1360   0.9480  -0.0533 H              1 S1                 0.0000
     23 ****         0.2557   1.2923   1.6573 H              1 S1                 0.0000
     24 ****         0.1284  -1.0035   2.1249 H              1 S1                 0.0000
     25 ****         2.2826   0.1022   1.0523 H              1 S1                 0.0000
     26 ****         3.2618  -1.6757  -0.4202 H              1 S1                 0.0000
     27 ****         1.7523  -2.5444  -0.3989 H              1 S1                 0.0000
     28 ****         0.0239  -2.0023  -2.0203 H              1 S1                 0.0000
     29 ****        -0.6765  -0.5801  -3.9547 H              1 S1                 0.0000
     30 ****         2.4493   2.0575  -3.3586 H              1 S1                 0.0000
     31 ****         3.2981   0.7608  -1.3927 H              1 S1                 0.0000
     32 ****        -2.0508   2.7441   1.5279 H              1 S1                 0.0000
     33 ****        -1.8437   2.4195  -0.1807 H              1 S1                 0.0000
     34 ****        -4.3101   1.8931   1.4935 H              1 S1                 0.0000
     35 ****        -4.2082   2.7023  -0.0665 H              1 S1                 0.0000
     36 ****        -1.8922  -0.2556  -0.9506 H              1 S1                 0.0000
     37 ****        -2.3987  -1.3488   0.3283 H              1 S1                 0.0000
     38 ****        -0.0910  -1.4109   0.5549 H              1 S1                 0.0000
     39 ****        -1.6575  -0.6012   2.5848 LP             1 S1                 0.0000
     40 ****        -3.0840   0.1700   2.3922 LP             1 S1                 0.0000
     41 ****         0.5353   1.3494  -4.5187 LP             1 S1                 0.0000
@<TRIPOS>BOND
    1    1    2 1     
    2    1   21 1     
    3    2   20 1     
    4    2    3 1     
    5    2   17 1     
    6    3    4 1     
    7    3   22 1     
    8    3   23 1     
    9    4    5 1     
   10    4   24 1     
   11    4   38 1     
   12    5    6 1     
   13    5   13 1     
   14    5   25 1     
   15    6    7 1     
   16    6   26 1     
   17    6   27 1     
   18    7   12 ar    
   19    7    8 ar    
   20    8    9 ar    
   21    8   28 1     
   22    9   10 ar    
   23    9   29 1     
   24   10   11 ar    
   25   11   12 ar    
   26   11   30 1     
   27   12   31 1     
   28   13   14 1     
   29   13   15 1     
   30   13   16 1     
   31   17   18 1     
   32   17   32 1     
   33   17   33 1     
   34   18   19 1     
   35   18   34 1     
   36   18   35 1     
   37   19   20 1     
   38   20   36 1     
   39   20   37 1     
   40    1   39 1     
   41    1   40 1     
   42   10   41 1     
@<TRIPOS>SUBSTRUCTURE
      1 S1             1
@<TRIPOS>SET
LONE_PAIRS      STATIC     ATOMS    <user>   **** ""
3 39 40 41
DONOR_HYDROGENS      STATIC     ATOMS    <user>   **** ""
3 21 24 38
ATOM$BLUE        STATIC     ATOMS    COLORGROUP SYSTEM
3 39 40 41
ATOM$RED        STATIC     ATOMS    COLORGROUP SYSTEM
3 21 24 38
