#       Name:                AV-unprocessed.smi:143
#       Creating user name   scv26
#       Creation time:       Thu Mar 26 18:35:18 2020


#       File generated by GOLD software.
#

@<TRIPOS>MOLECULE
AV-unprocessed.smi:143
    46    48     1
SMALL
NO_CHARGES


@<TRIPOS>ATOM
      1 ****        -2.0120  -0.4042  -0.5959 O.2            1 S1                 0.0000
      2 ****        -1.4395  -1.4773  -0.7967 C.2            1 S1                 0.0000
      3 ****         0.0984  -1.5190  -0.9261 C.3            1 S1                 0.0000
      4 ****         0.7185  -0.2030  -0.8161 N.am           1 S1                 0.0000
      5 ****         0.8886   0.5500  -2.0042 C.2            1 S1                 0.0000
      6 ****         0.5455   0.1214  -3.1073 O.2            1 S1                 0.0000
      7 ****         1.4763   1.8689  -1.8041 C.2            1 S1                 0.0000
      8 ****         1.6501   2.6852  -2.8572 F              1 S1                 0.0000
      9 ****         1.8325   2.2956  -0.5735 C.2            1 S1                 0.0000
     10 ****         1.6882   1.5259   0.5719 N.am           1 S1                 0.0000
     11 ****         2.0067   2.0571   1.9617 C.3            1 S1                 0.0000
     12 ****         3.0068   3.2214   1.9795 C.3            1 S1                 0.0000
     13 ****         2.1106   4.4534   2.0751 C.3            1 S1                 0.0000
     14 ****         0.6826   3.8984   2.0909 C.3            1 S1                 0.0000
     15 ****         0.8337   2.5533   2.5236 O.3            1 S1                 0.0000
     16 ****         1.0728   0.2569   0.4756 C.2            1 S1                 0.0000
     17 ****         0.8492  -0.4163   1.4847 O.2            1 S1                 0.0000
     18 ****        -2.1754  -2.7695  -0.9232 C.ar           1 S1                 0.0000
     19 ****        -3.5851  -2.7774  -0.8011 C.ar           1 S1                 0.0000
     20 ****        -4.3102  -3.9788  -0.9194 C.ar           1 S1                 0.0000
     21 ****        -3.6349  -5.1888  -1.1625 C.ar           1 S1                 0.0000
     22 ****        -4.6150  -6.8119  -1.3269 Br             1 S1                 0.0000
     23 ****        -2.2332  -5.1952  -1.2846 C.ar           1 S1                 0.0000
     24 ****        -1.5065  -3.9943  -1.1654 C.ar           1 S1                 0.0000
     25 ****         0.5399  -2.1608  -0.1620 H              1 S1                 0.0000
     26 ****         0.4010  -1.9515  -1.8808 H              1 S1                 0.0000
     27 ****         2.2328   3.2946  -0.5033 H              1 S1                 0.0000
     28 ****         2.3871   1.2005   2.5205 H              1 S1                 0.0000
     29 ****         3.6113   3.1378   2.8834 H              1 S1                 0.0000
     30 ****         3.6866   3.2075   1.1279 H              1 S1                 0.0000
     31 ****         2.3192   4.9933   2.9994 H              1 S1                 0.0000
     32 ****         2.2635   5.1438   1.2453 H              1 S1                 0.0000
     33 ****         0.0241   4.4576   2.7557 H              1 S1                 0.0000
     34 ****         0.2442   3.9183   1.0923 H              1 S1                 0.0000
     35 ****        -4.1274  -1.8614  -0.6155 H              1 S1                 0.0000
     36 ****        -5.3861  -3.9701  -0.8243 H              1 S1                 0.0000
     37 ****        -1.7122  -6.1229  -1.4706 H              1 S1                 0.0000
     38 ****        -0.4327  -4.0402  -1.2652 H              1 S1                 0.0000
     39 ****        -1.4803   0.4391  -0.5169 LP             1 S1                 0.0000
     40 ****        -3.0081  -0.3769  -0.5121 LP             1 S1                 0.0000
     41 ****         0.1318  -0.7857  -3.1847 LP             1 S1                 0.0000
     42 ****         0.6808   0.6807  -3.9252 LP             1 S1                 0.0000
     43 ****         0.8939   2.5212   3.5212 LP             1 S1                 0.0000
     44 ****         0.0529   2.0079   2.2190 LP             1 S1                 0.0000
     45 ****         0.4078  -1.3097   1.4020 LP             1 S1                 0.0000
     46 ****         1.1094  -0.0686   2.3854 LP             1 S1                 0.0000
@<TRIPOS>BOND
    1    1    2 2     
    2    2    3 1     
    3    2   18 1     
    4    3    4 1     
    5    3   25 1     
    6    3   26 1     
    7    4   16 am    
    8    4    5 am    
    9    5    6 2     
   10    5    7 1     
   11    7    8 1     
   12    7    9 2     
   13    9   10 1     
   14    9   27 1     
   15   10   11 1     
   16   10   16 am    
   17   11   15 1     
   18   11   12 1     
   19   11   28 1     
   20   12   13 1     
   21   12   29 1     
   22   12   30 1     
   23   13   14 1     
   24   13   31 1     
   25   13   32 1     
   26   14   15 1     
   27   14   33 1     
   28   14   34 1     
   29   16   17 2     
   30   18   24 ar    
   31   18   19 ar    
   32   19   20 ar    
   33   19   35 1     
   34   20   21 ar    
   35   20   36 1     
   36   21   22 1     
   37   21   23 ar    
   38   23   24 ar    
   39   23   37 1     
   40   24   38 1     
   41    1   39 1     
   42    1   40 1     
   43    6   41 1     
   44    6   42 1     
   45   15   43 1     
   46   15   44 1     
   47   17   45 1     
   48   17   46 1     
@<TRIPOS>SUBSTRUCTURE
      1 S1             1
@<TRIPOS>SET
LONE_PAIRS      STATIC     ATOMS    <user>   **** ""
8 39 40 41 42 43 44 45 46
ATOM$BLUE        STATIC     ATOMS    COLORGROUP SYSTEM
8 39 40 41 42 43 44 45 46
