AV-unprocessed.smi:1414|AV-procd|sdf|5762|dock1
  -GOLD-   22720 5403D 1   1.00000     0.00000
 Structure written by MMmdl.
 45 46  0  0  0  0  0  0  0  0  1 V2000
  150.9970  139.7584  158.5225 C   0  0  0  0  0  0  0  0  0  0  0  0
  151.0579  138.7333  157.3847 C   0  0  1  0  0  0  0  0  0  0  0  0
  150.1376  137.5316  157.6466 C   0  0  0  0  0  0  0  0  0  0  0  0
  150.1004  136.6306  156.4860 N   0  0  0  0  0  0  0  0  0  0  0  0
  150.5840  134.9687  156.6282 S   0  0  0  0  0  0  0  0  0  0  0  0
  152.0162  134.9651  156.9635 O   0  0  0  0  0  0  0  0  0  0  0  0
  149.6228  134.2955  157.5157 O   0  0  0  0  0  0  0  0  0  0  0  0
  150.4029  134.3048  154.9120 C   0  0  0  0  0  0  0  0  0  0  0  0
  149.5248  133.0421  154.8664 C   0  0  0  0  0  0  0  0  0  0  0  0
  149.0281  132.7675  153.5223 N   0  0  0  0  0  0  0  0  0  0  0  0
  147.7562  132.8841  153.1166 C   0  0  0  0  0  0  0  0  0  0  0  0
  146.8394  133.2571  153.8466 O   0  0  0  0  0  0  0  0  0  0  0  0
  147.6217  132.5207  151.8300 N   0  0  0  0  0  0  0  0  0  0  0  0
  146.4462  132.5384  151.0327 C   0  0  0  0  0  0  0  0  0  0  0  0
  145.3308  133.2593  151.5063 C   0  0  0  0  0  0  0  0  0  0  0  0
  144.1484  133.2724  150.7422 C   0  0  0  0  0  0  0  0  0  0  0  0
  144.1246  132.5509  149.5329 C   0  0  0  0  0  0  0  0  0  0  0  0
  145.1773  131.8425  149.0730 N   0  0  0  0  0  0  0  0  0  0  0  0
  146.3094  131.8366  149.8093 C   0  0  0  0  0  0  0  0  0  0  0  0
  149.9137  137.2705  155.1718 C   0  0  0  0  0  0  0  0  0  0  0  0
  150.7270  138.5739  155.0165 C   0  0  2  0  0  0  0  0  0  0  0  0
  152.1803  138.3512  154.5718 C   0  0  0  0  0  0  0  0  0  0  0  0
  150.6509  139.3842  156.1871 O   0  0  0  0  0  0  0  0  0  0  0  0
  151.3060  139.3133  159.4685 H   0  0  0  0  0  0  0  0  0  0  0  0
  149.9869  140.1487  158.6503 H   0  0  0  0  0  0  0  0  0  0  0  0
  151.6572  140.6024  158.3212 H   0  0  0  0  0  0  0  0  0  0  0  0
  152.0902  138.3949  157.2989 H   0  0  0  0  0  0  0  0  0  0  0  0
  150.4701  136.9924  158.5335 H   0  0  0  0  0  0  0  0  0  0  0  0
  149.1216  137.8733  157.8471 H   0  0  0  0  0  0  0  0  0  0  0  0
  150.0274  135.0949  154.2627 H   0  0  0  0  0  0  0  0  0  0  0  0
  151.4058  134.0566  154.5643 H   0  0  0  0  0  0  0  0  0  0  0  0
  150.1098  132.1735  155.1683 H   0  0  0  0  0  0  0  0  0  0  0  0
  148.6967  133.1181  155.5713 H   0  0  0  0  0  0  0  0  0  0  0  0
  149.7095  132.4500  152.8483 H   0  0  0  0  0  0  0  0  0  0  0  0
  148.4436  132.1395  151.3848 H   0  0  0  0  0  0  0  0  0  0  0  0
  145.3794  133.8004  152.4401 H   0  0  0  0  0  0  0  0  0  0  0  0
  143.2797  133.8210  151.0750 H   0  0  0  0  0  0  0  0  0  0  0  0
  143.2341  132.5376  148.9219 H   0  0  0  0  0  0  0  0  0  0  0  0
  147.1072  131.2322  149.4065 H   0  0  0  0  0  0  0  0  0  0  0  0
  150.1515  136.5750  154.3670 H   0  0  0  0  0  0  0  0  0  0  0  0
  148.8531  137.5019  155.0711 H   0  0  0  0  0  0  0  0  0  0  0  0
  150.2549  139.1548  154.2236 H   0  0  0  0  0  0  0  0  0  0  0  0
  152.2208  137.8359  153.6121 H   0  0  0  0  0  0  0  0  0  0  0  0
  152.7330  137.7492  155.2872 H   0  0  0  0  0  0  0  0  0  0  0  0
  152.7041  139.3005  154.4594 H   0  0  0  0  0  0  0  0  0  0  0  0
  1  2  1  0  0  0  0
  1 24  1  0  0  0  0
  1 25  1  0  0  0  0
  1 26  1  0  0  0  0
  2 23  1  0  0  0  0
  2  3  1  0  0  0  0
  2 27  1  0  0  0  0
  3  4  1  0  0  0  0
  3 28  1  0  0  0  0
  3 29  1  0  0  0  0
  4  5  1  0  0  0  0
  4 20  1  0  0  0  0
  5  6  2  0  0  0  0
  5  7  2  0  0  0  0
  5  8  1  0  0  0  0
  8  9  1  0  0  0  0
  8 30  1  0  0  0  0
  8 31  1  0  0  0  0
  9 10  1  0  0  0  0
  9 32  1  0  0  0  0
  9 33  1  0  0  0  0
 10 11  1  0  0  0  0
 10 34  1  0  0  0  0
 11 12  2  0  0  0  0
 11 13  1  0  0  0  0
 13 14  1  0  0  0  0
 13 35  1  0  0  0  0
 14 19  1  0  0  0  0
 14 15  2  0  0  0  0
 15 16  1  0  0  0  0
 15 36  1  0  0  0  0
 16 17  2  0  0  0  0
 16 37  1  0  0  0  0
 17 18  1  0  0  0  0
 17 38  1  0  0  0  0
 18 19  2  0  0  0  0
 19 39  1  0  0  0  0
 20 21  1  0  0  0  0
 20 40  1  0  0  0  0
 20 41  1  0  0  0  0
 21 22  1  0  0  0  0
 21 23  1  0  0  0  0
 21 42  1  0  0  0  0
 22 43  1  0  0  0  0
 22 44  1  0  0  0  0
 22 45  1  0  0  0  0
M  END
> <s_m_source_file>
AV-unprocessed.smi

> <i_m_source_file_index>
1414

> <i_lp_mmshare_version>
43012

> <i_f3d_flags>
0

> <s_epik_input>
W0NIM11bQ0BASF0xW0NIMl1OKFtDSDJdW0NASF0oTzEpW0NIM10pUyg9TykoPU8pW0NIMl1bQ0gyXVtOSF1DKD1PKVtOSF1jMltjSF1bY0hdW2NIXW5bY0hdMg==

> <s_epik_cmdline>
J2VwaWtfcHl0aG9uJywgJy1waCcsICc3LjAnLCAnLXRuJywgJzgnLCAnLW1hJywgJzIwMCcsICctbWV0YWxfYmluZGluZycsICctaW1hZScsICc8aW5maWxlLm1hZT4nLCAnLW9tYWUnLCAnPG91dGZpbGUubWFlPic=

> <r_epik_Ionization_Penalty>
0.00437531

> <r_epik_Ionization_Penalty_Charging>
0

> <r_epik_Ionization_Penalty_Neutral>
0.00437531

> <r_epik_State_Penalty>
0.00312896

> <r_epik_Charging_Adjusted_Penalty>
0.00312896

> <i_epik_Tot_Q>
0

> <i_epik_Tot_abs_Q>
0

> <r_epik_Metal_State_Penalty>
-0

> <b_epik_Metal_Only>
0

> <s_lp_Force_Field>
OPLS_2005

> <r_lp_Energy>
7.0755

> <b_lp_Chiralities_Consistent>
1

> <s_lp_Variant>
AV-unprocessed.smi:1414-3

> <Gold.Version>
5.8.1

> <Gold.Id.Protein>
6NUR|6NUR_protein|mol2

> <Gold.PLP.Fitness>
50.2403

> <Gold.PLP.PLP>
-36.4466

> <Gold.PLP.part.hbond>
-3.7084

> <Gold.PLP.part.metal>
0.0000

> <Gold.PLP.part.buried>
-7.4580

> <Gold.PLP.part.nonpolar>
-25.4883

> <Gold.PLP.part.repulsive>
0.2619

> <Gold.PLP.ligand.clash>
0.0000

> <Gold.PLP.ligand.torsion>
1.4874

> <Gold.PLP.Chemscore.Hbond>
2.9200

> <Gold.PLP.Chemscore.CHOScore>
1.9595

> <Gold.PLP.Chemscore.Metal>
0.0000

> <Gold.Chemscore.Hbonds>
donor molecule, donor type, donor heavy atom, donor atom, acceptor molecule, acceptor atom, score
      L1  H    13    35       P1 10747  0.88
      P1  H  6896  6907       L1     7  0.58
      P1  H 10752 10765       L1     6  0.54
      L1  C    19    39       P1 10747  0.98

> <Gold.PLP.Chemscore.Internal.Correction>
2.1299

> <Gold.Rescore>
     Score         DG    S(hbond)    S(metal)    S(lipo)     H(rot)  DE(clash)    DE(int)     intcor
     15.96     -19.09       2.31        0.00      84.85       1.57       0.31       2.82       ----

> <Gold.Chemscore.Fitness>
15.9632

> <Gold.Chemscore.DG>
-19.0945

> <Gold.Chemscore.ZeroCoef>
-5.4800

> <Gold.Chemscore.Hbond>
2.3063

> <Gold.Chemscore.Metal>
0.0000

> <Gold.Chemscore.Lipo>
84.8494

> <Gold.Chemscore.Internal_Hbond>
0.0000

> <Gold.Chemscore.DEClash>
0.3080

> <Gold.Chemscore.DEInternal>
2.8232

> <Gold.Chemscore.Rot>
1.5687

> <Gold.Chemscore.Internal.Correction>
   9.000000E+99

> <Gold.Chemscore.Hbonds>
donor molecule, donor type, donor heavy atom, donor atom, acceptor molecule, acceptor atom, score
      L1  H    13    35       P1 10747  0.87
      P1  H  6896  6907       L1     7  0.23
      P1  H 10752 10765       L1     6  0.48

> <Gold.Chemscore.Hbond.Weighted>
-7.7031

> <Gold.Chemscore.Metal.Weighted>
-0.0000

> <Gold.Chemscore.Lipo.Weighted>
-9.9274

> <Gold.Chemscore.Internal_Hbond.Weighted>
0.0000

> <Gold.Chemscore.DEClash.Weighted>
0.3080

> <Gold.Chemscore.DEInternal.Weighted>
2.8232

> <Gold.Chemscore.Rot.Weighted>
4.0160

> <Gold.Chemscore.Internal.Correction.Weighted>
   9.000000E+99

> <Gold.Protein.RotatedTorsions>
[ 6907 6896 6895 6894 ] final -123.12 input  -60.11 | X-H torsion
[ 7974 7965 7964 7962 ] final   78.95 input  175.53 | X-H torsion
[ 8008 7997 7996 7995 ] final -135.13 input   59.86 | X-H torsion
[ 10167 10162 10161 10158 ] final  158.50 input  -65.29 | X-H torsion
[ 10718 10713 10712 10709 ] final   17.69 input   66.30 | X-H torsion
[ 10763 10752 10751 10750 ] final -132.52 input  -60.55 | X-H torsion
[ 11005 11000 10999 10996 ] final -176.55 input  -57.11 | X-H torsion

> <Gold.Protein.ActiveResidues>
 VAL166  LYS551  ARG553  GLY616  TRP617  ASP618  TYR619  PRO620  LYS621  CYS622 
 ASP623  PHE694  ASN695  SER759  ASP760  ASP761  ALA762  ILE779  LEU786  VAL792 
 PHE793  MET794  SER795  GLU796  ALA797  LYS798  CYS799  TRP800  GLU811  SER814 

> <Gold.Protein.RotatedAtoms>
  150.8641  133.7601  159.2982 H   0  0  0  0  0  0  0  0  0  0  0  0  # atno 6907 bound_to 6896
  151.5234  135.1066  159.9894 H   0  0  0  0  0  0  0  0  0  0  0  0  # atno 6908 bound_to 6896
  152.4648  133.7854  159.6929 H   0  0  0  0  0  0  0  0  0  0  0  0  # atno 6909 bound_to 6896
  145.6705  139.2495  143.1871 H   0  0  0  0  0  0  0  0  0  0  0  0  # atno 7974 bound_to 7965
  155.3736  140.0490  157.3045 H   0  0  0  0  0  0  0  0  0  0  0  0  # atno 8008 bound_to 7997
  154.5117  140.2194  155.9105 H   0  0  0  0  0  0  0  0  0  0  0  0  # atno 8009 bound_to 7997
  156.1590  140.3120  155.8781 H   0  0  0  0  0  0  0  0  0  0  0  0  # atno 8010 bound_to 7997
  139.4827  144.4819  151.8432 H   0  0  0  0  0  0  0  0  0  0  0  0  # atno 10167 bound_to 10162
  157.0857  130.6406  149.5837 H   0  0  0  0  0  0  0  0  0  0  0  0  # atno 10718 bound_to 10713
  154.8742  135.3795  154.4423 H   0  0  0  0  0  0  0  0  0  0  0  0  # atno 10763 bound_to 10752
  153.5107  135.7029  153.5787 H   0  0  0  0  0  0  0  0  0  0  0  0  # atno 10764 bound_to 10752
  153.4078  135.3932  155.1996 H   0  0  0  0  0  0  0  0  0  0  0  0  # atno 10765 bound_to 10752
  140.4508  134.6345  157.4800 H   0  0  0  0  0  0  0  0  0  0  0  0  # atno 11005 bound_to 11000
  146.1049  140.7499  142.9531 LP  0  0  0  0  0  0  0  0  0  0  0  0  # atno 17320 bound_to 7965
  144.7058  140.3847  143.7119 LP  0  0  0  0  0  0  0  0  0  0  0  0  # atno 17321 bound_to 7965
  140.4296  144.2134  150.5888 LP  0  0  0  0  0  0  0  0  0  0  0  0  # atno 17342 bound_to 10162
  140.4793  143.2385  151.8978 LP  0  0  0  0  0  0  0  0  0  0  0  0  # atno 17343 bound_to 10162
  155.9911  130.4965  150.7286 LP  0  0  0  0  0  0  0  0  0  0  0  0  # atno 17370 bound_to 10713
  157.4763  131.0898  151.0586 LP  0  0  0  0  0  0  0  0  0  0  0  0  # atno 17371 bound_to 10713
  140.0008  134.6840  155.9534 LP  0  0  0  0  0  0  0  0  0  0  0  0  # atno 17394 bound_to 11000
  141.1665  133.6537  156.4497 LP  0  0  0  0  0  0  0  0  0  0  0  0  # atno 17395 bound_to 11000

$$$$
