AV-unprocessed.smi:160|AV-procd|sdf|1367|dock10
  -GOLD-   2262019 83D 1   1.00000     0.00000
 Structure written by MMmdl.
 28 29  0  0  0  0  0  0  0  0  2 V2000
  148.8480  135.6256  159.6705 N   0  5  0  0  0  0  0  0  0  0  0  0
  148.9432  136.8449  159.0959 C   0  0  0  0  0  0  0  0  0  0  0  0
  148.2239  137.8166  159.3262 O   0  0  0  0  0  0  0  0  0  0  0  0
  150.0546  136.9734  158.0815 C   0  0  0  0  0  0  0  0  0  0  0  0
  151.0593  136.0472  158.0239 N   0  0  0  0  0  0  0  0  0  0  0  0
  151.7663  136.5637  157.0277 C   0  0  0  0  0  0  0  0  0  0  0  0
  151.2528  137.6846  156.5120 N   0  0  0  0  0  0  0  0  0  0  0  0
  151.7748  138.5577  155.4079 C   0  0  2  0  0  0  0  0  0  0  0  0
  152.0499  139.8092  155.9572 O   0  0  0  0  0  0  0  0  0  0  0  0
  151.0757  140.7781  155.5635 C   0  0  2  0  0  0  0  0  0  0  0  0
  150.5236  141.5015  156.8035 C   0  0  0  0  0  0  0  0  0  0  0  0
  149.2810  142.1020  156.5054 O   0  0  0  0  0  0  0  0  0  0  0  0
  150.0014  140.0078  154.7770 C   0  0  1  0  0  0  0  0  0  0  0  0
  149.5398  140.7732  153.6816 O   0  0  0  0  0  0  0  0  0  0  0  0
  150.7489  138.7782  154.2846 C   0  0  2  0  0  0  0  0  0  0  0  0
  149.8749  137.6834  154.0760 O   0  0  0  0  0  0  0  0  0  0  0  0
  150.1237  137.9777  157.2031 N   0  0  0  0  0  0  0  0  0  0  0  0
  152.6851  138.0570  155.0767 H   0  0  0  0  0  0  0  0  0  0  0  0
  151.5730  141.4856  154.8970 H   0  0  0  0  0  0  0  0  0  0  0  0
  149.1667  139.7304  155.4224 H   0  0  0  0  0  0  0  0  0  0  0  0
  151.3018  139.0008  153.3705 H   0  0  0  0  0  0  0  0  0  0  0  0
  148.1275  135.4788  160.3875 H   0  0  0  0  0  0  0  0  0  0  0  0
  152.6792  136.1142  156.6658 H   0  0  0  0  0  0  0  0  0  0  0  0
  150.3536  140.7869  157.6094 H   0  0  0  0  0  0  0  0  0  0  0  0
  151.2241  142.2483  157.1772 H   0  0  0  0  0  0  0  0  0  0  0  0
  149.4109  143.0350  156.4315 H   0  0  0  0  0  0  0  0  0  0  0  0
  149.5364  140.2197  152.9156 H   0  0  0  0  0  0  0  0  0  0  0  0
  149.8481  137.4902  153.1517 H   0  0  0  0  0  0  0  0  0  0  0  0
  1  2  1  0  0  0  0
  1 22  1  0  0  0  0
  2  3  2  0  0  0  0
  2  4  1  0  0  0  0
  4 17  2  0  0  0  0
  4  5  1  0  0  0  0
  5  6  2  0  0  0  0
  6  7  1  0  0  0  0
  6 23  1  0  0  0  0
  7  8  1  0  0  0  0
  7 17  1  0  0  0  0
  8 18  1  0  0  0  0
  8 15  1  0  0  0  0
  8  9  1  0  0  0  0
  9 10  1  0  0  0  0
 10 19  1  0  0  0  0
 10 11  1  0  0  0  0
 10 13  1  0  0  0  0
 11 12  1  0  0  0  0
 11 24  1  0  0  0  0
 11 25  1  0  0  0  0
 12 26  1  0  0  0  0
 13 20  1  0  0  0  0
 13 14  1  0  0  0  0
 13 15  1  0  0  0  0
 14 27  1  0  0  0  0
 15 21  1  0  0  0  0
 15 16  1  0  0  0  0
 16 28  1  0  0  0  0
M  CHG  1   1  -1
M  END
> <s_m_source_file>
AV-unprocessed.smi

> <i_m_source_file_index>
160

> <i_lp_mmshare_version>
43012

> <i_f3d_flags>
0

> <s_epik_input>
W05IMl1DKD1PKWMxbltjSF1uKG4xKVtDQEBIXTJPW0NASF0oW0NIMl1bT0hdKVtDQEBIXShbT0hdKVtDQEhdMltPSF0=

> <s_epik_cmdline>
J2VwaWtfcHl0aG9uJywgJy1waCcsICc3LjAnLCAnLXRuJywgJzgnLCAnLW1hJywgJzIwMCcsICctbWV0YWxfYmluZGluZycsICctaW1hZScsICc8aW5maWxlLm1hZT4nLCAnLW9tYWUnLCAnPG91dGZpbGUubWFlPic=

> <r_lp_tautomer_probability>
1

> <r_epik_Ionization_Penalty>
6.6993

> <r_epik_Ionization_Penalty_Charging>
6.6993

> <r_epik_Ionization_Penalty_Neutral>
6.01698e-06

> <r_epik_State_Penalty>
6.69929

> <r_epik_Charging_Adjusted_Penalty>
13.3986

> <i_epik_Tot_Q>
-1

> <i_epik_Tot_abs_Q>
1

> <r_epik_Metal_State_Penalty>
2.62798

> <b_epik_Metal_Only>
1

> <s_epik_Chemistry_Notes>
This compound contains an acetal/aminal-like group ( X-CH(R)-Y where X, Y are N, S, or O) that may be acid/base labile, releasing an aldehyde.

> <s_lp_Force_Field>
OPLS_2005

> <r_lp_Energy>
43.4077

> <b_lp_Chiralities_Consistent>
1

> <s_lp_Variant>
AV-unprocessed.smi:160-25

> <Gold.Version>
5.8.1

> <Gold.Id.Protein>
6NUR|6NUR_protein|mol2

> <Gold.PLP.Fitness>
41.4980

> <Gold.PLP.PLP>
-26.3663

> <Gold.PLP.part.hbond>
-8.2157

> <Gold.PLP.part.metal>
0.0000

> <Gold.PLP.part.buried>
-3.4088

> <Gold.PLP.part.nonpolar>
-14.8087

> <Gold.PLP.part.repulsive>
0.0000

> <Gold.PLP.ligand.clash>
0.0000

> <Gold.PLP.ligand.torsion>
0.3076

> <Gold.PLP.Chemscore.Hbond>
5.2448

> <Gold.PLP.Chemscore.CHOScore>
0.0000

> <Gold.PLP.Chemscore.Metal>
0.0000

> <Gold.Chemscore.Hbonds>
donor molecule, donor type, donor heavy atom, donor atom, acceptor molecule, acceptor atom, score
      L1  H    12    26       P1  8028  0.98
      L1  H    14    27       P1  7957  0.99
      L1  H    16    28       P1  7948  0.83
      P1  H  6896  6907       L1     1  1.72
      P1  H  6934  6947       L1     3  0.18
      P1  H  8011  8017       L1    14  0.22

> <Gold.PLP.Chemscore.Internal.Correction>
0.0124

> <Gold.Rescore>
     Score         DG    S(hbond)    S(metal)    S(lipo)     H(rot)  DE(clash)    DE(int)     intcor
     10.38     -11.00       3.76        0.00      28.20       4.04       0.28       0.34       ----

> <Gold.Chemscore.Fitness>
10.3782

> <Gold.Chemscore.DG>
-10.9964

> <Gold.Chemscore.ZeroCoef>
-5.4800

> <Gold.Chemscore.Hbond>
3.7607

> <Gold.Chemscore.Metal>
0.0000

> <Gold.Chemscore.Lipo>
28.1951

> <Gold.Chemscore.Internal_Hbond>
0.0000

> <Gold.Chemscore.DEClash>
0.2817

> <Gold.Chemscore.DEInternal>
0.3364

> <Gold.Chemscore.Rot>
4.0403

> <Gold.Chemscore.Internal.Correction>
   9.000000E+99

> <Gold.Chemscore.Hbonds>
donor molecule, donor type, donor heavy atom, donor atom, acceptor molecule, acceptor atom, score
      L1  H    12    26       P1  8028  0.93
      L1  H    14    27       P1  7957  0.94
      L1  H    16    28       P1  7948  0.37
      P1  H  6896  6907       L1     1  0.58
      P1  H  6934  6947       L1     3  0.18

> <Gold.Chemscore.Hbond.Weighted>
-12.5606

> <Gold.Chemscore.Metal.Weighted>
-0.0000

> <Gold.Chemscore.Lipo.Weighted>
-3.2988

> <Gold.Chemscore.Internal_Hbond.Weighted>
0.0000

> <Gold.Chemscore.DEClash.Weighted>
0.2817

> <Gold.Chemscore.DEInternal.Weighted>
0.3364

> <Gold.Chemscore.Rot.Weighted>
10.3431

> <Gold.Chemscore.Internal.Correction.Weighted>
   9.000000E+99

> <Gold.Protein.RotatedTorsions>
[ 6907 6896 6895 6894 ] final  -60.69 input  -60.11 | X-H torsion
[ 7974 7965 7964 7962 ] final    0.76 input  175.53 | X-H torsion
[ 8008 7997 7996 7995 ] final  158.71 input   59.86 | X-H torsion
[ 10167 10162 10161 10158 ] final  -65.20 input  -65.29 | X-H torsion
[ 10718 10713 10712 10709 ] final  157.01 input   66.30 | X-H torsion
[ 10763 10752 10751 10750 ] final  -97.23 input  -60.55 | X-H torsion
[ 11005 11000 10999 10996 ] final   81.46 input  -57.11 | X-H torsion

> <Gold.Protein.ActiveResidues>
 VAL166  LYS551  ARG553  GLY616  TRP617  ASP618  TYR619  PRO620  LYS621  CYS622 
 ASP623  PHE694  ASN695  SER759  ASP760  ASP761  ALA762  ILE779  LEU786  VAL792 
 PHE793  MET794  SER795  GLU796  ALA797  LYS798  CYS799  TRP800  GLU811  SER814 

> <Gold.Protein.RotatedAtoms>
  150.7838  134.6804  159.6440 H   0  0  0  0  0  0  0  0  0  0  0  0  # atno 6907 bound_to 6896
  152.3929  134.6409  160.0109 H   0  0  0  0  0  0  0  0  0  0  0  0  # atno 6908 bound_to 6896
  151.6704  133.3277  159.3231 H   0  0  0  0  0  0  0  0  0  0  0  0  # atno 6909 bound_to 6896
  146.2436  140.1089  142.8344 H   0  0  0  0  0  0  0  0  0  0  0  0  # atno 7974 bound_to 7965
  156.2285  140.1851  156.7302 H   0  0  0  0  0  0  0  0  0  0  0  0  # atno 8008 bound_to 7997
  154.5982  140.0640  156.9361 H   0  0  0  0  0  0  0  0  0  0  0  0  # atno 8009 bound_to 7997
  155.2219  140.3308  155.4317 H   0  0  0  0  0  0  0  0  0  0  0  0  # atno 8010 bound_to 7997
  140.5747  143.2321  151.6467 H   0  0  0  0  0  0  0  0  0  0  0  0  # atno 10167 bound_to 10162
  157.1973  131.0668  151.2045 H   0  0  0  0  0  0  0  0  0  0  0  0  # atno 10718 bound_to 10713
  154.7310  135.5054  153.8964 H   0  0  0  0  0  0  0  0  0  0  0  0  # atno 10763 bound_to 10752
  153.0950  135.6669  153.9789 H   0  0  0  0  0  0  0  0  0  0  0  0  # atno 10764 bound_to 10752
  153.9591  135.3050  155.3414 H   0  0  0  0  0  0  0  0  0  0  0  0  # atno 10765 bound_to 10752
  139.9097  134.7998  156.2044 H   0  0  0  0  0  0  0  0  0  0  0  0  # atno 11005 bound_to 11000
  145.0504  140.9013  143.4999 LP  0  0  0  0  0  0  0  0  0  0  0  0  # atno 17320 bound_to 7965
  145.1186  139.2708  143.5600 LP  0  0  0  0  0  0  0  0  0  0  0  0  # atno 17321 bound_to 7965
  139.5136  144.3438  152.0716 LP  0  0  0  0  0  0  0  0  0  0  0  0  # atno 17342 bound_to 10162
  140.2580  144.4098  150.6196 LP  0  0  0  0  0  0  0  0  0  0  0  0  # atno 17343 bound_to 10162
  157.3802  130.7227  149.6625 LP  0  0  0  0  0  0  0  0  0  0  0  0  # atno 17370 bound_to 10713
  155.9704  130.4174  150.4280 LP  0  0  0  0  0  0  0  0  0  0  0  0  # atno 17371 bound_to 10713
  141.0504  133.6891  156.1762 LP  0  0  0  0  0  0  0  0  0  0  0  0  # atno 17394 bound_to 11000
  140.6818  134.4759  157.5589 LP  0  0  0  0  0  0  0  0  0  0  0  0  # atno 17395 bound_to 11000

$$$$
