AV-unprocessed.smi:2008|AV-procd|sdf|8142|dock5
  -GOLD-   2272010383D 1   1.00000     0.00000
 Structure written by MMmdl.
 46 47  0  0  0  0  0  0  0  0  2 V2000
  152.0385  141.4923  159.1442 C   0  0  0  0  0  0  0  0  0  0  0  0
  152.6173  140.6644  158.1411 O   0  0  0  0  0  0  0  0  0  0  0  0
  151.8532  140.3408  157.0386 C   0  0  0  0  0  0  0  0  0  0  0  0
  150.5070  140.7550  157.0056 C   0  0  0  0  0  0  0  0  0  0  0  0
  149.7239  140.4262  155.8832 C   0  0  0  0  0  0  0  0  0  0  0  0
  150.3023  139.6862  154.8321 C   0  0  0  0  0  0  0  0  0  0  0  0
  149.4896  139.3798  153.7069 N   0  0  0  0  0  0  0  0  0  0  0  0
  148.1845  139.0589  153.6790 C   0  0  0  0  0  0  0  0  0  0  0  0
  147.4500  138.9642  154.6623 O   0  0  0  0  0  0  0  0  0  0  0  0
  147.7579  138.8637  152.4229 N   0  0  0  0  0  0  0  0  0  0  0  0
  146.3863  138.5339  152.0524 C   0  0  0  0  0  0  0  0  0  0  0  0
  145.8156  137.4138  152.9445 C   0  0  0  0  0  0  0  0  0  0  0  0
  146.2460  136.0502  152.5308 N   0  3  1  0  0  0  0  0  0  0  0  0
  146.2201  135.0912  153.6684 C   0  0  0  0  0  0  0  0  0  0  0  0
  146.8645  133.7489  153.2883 C   0  0  0  0  0  0  0  0  0  0  0  0
  146.1866  133.1438  152.0549 C   0  0  0  0  0  0  0  0  0  0  0  0
  146.2131  134.1551  150.9011 C   0  0  0  0  0  0  0  0  0  0  0  0
  145.5898  135.5110  151.2968 C   0  0  1  0  0  0  0  0  0  0  0  0
  144.0504  135.4378  151.3931 C   0  0  0  0  0  0  0  0  0  0  0  0
  151.6673  139.3279  154.9538 C   0  0  0  0  0  0  0  0  0  0  0  0
  152.4242  139.6420  156.0267 N   0  0  0  0  0  0  0  0  0  0  0  0
  152.7586  141.6430  159.9483 H   0  0  0  0  0  0  0  0  0  0  0  0
  151.1503  141.0316  159.5792 H   0  0  0  0  0  0  0  0  0  0  0  0
  151.7751  142.4736  158.7471 H   0  0  0  0  0  0  0  0  0  0  0  0
  150.0833  141.3153  157.8259 H   0  0  0  0  0  0  0  0  0  0  0  0
  148.6900  140.7357  155.8353 H   0  0  0  0  0  0  0  0  0  0  0  0
  149.9400  139.4843  152.8094 H   0  0  0  0  0  0  0  0  0  0  0  0
  148.4244  138.9648  151.6710 H   0  0  0  0  0  0  0  0  0  0  0  0
  145.7840  139.4407  152.1100 H   0  0  0  0  0  0  0  0  0  0  0  0
  146.3805  138.2195  151.0084 H   0  0  0  0  0  0  0  0  0  0  0  0
  146.1647  137.5903  153.9630 H   0  0  0  0  0  0  0  0  0  0  0  0
  144.7278  137.4651  152.9932 H   0  0  0  0  0  0  0  0  0  0  0  0
  146.7646  135.5121  154.5145 H   0  0  0  0  0  0  0  0  0  0  0  0
  145.1945  134.9390  154.0062 H   0  0  0  0  0  0  0  0  0  0  0  0
  147.9264  133.8964  153.0870 H   0  0  0  0  0  0  0  0  0  0  0  0
  146.8023  133.0542  154.1265 H   0  0  0  0  0  0  0  0  0  0  0  0
  146.6939  132.2246  151.7608 H   0  0  0  0  0  0  0  0  0  0  0  0
  145.1585  132.8683  152.2920 H   0  0  0  0  0  0  0  0  0  0  0  0
  147.2480  134.3137  150.5943 H   0  0  0  0  0  0  0  0  0  0  0  0
  145.7017  133.7422  150.0308 H   0  0  0  0  0  0  0  0  0  0  0  0
  145.8213  136.1870  150.4747 H   0  0  0  0  0  0  0  0  0  0  0  0
  143.6291  135.0137  150.4815 H   0  0  0  0  0  0  0  0  0  0  0  0
  143.6037  136.4249  151.5110 H   0  0  0  0  0  0  0  0  0  0  0  0
  143.7146  134.8171  152.2233 H   0  0  0  0  0  0  0  0  0  0  0  0
  152.1913  138.7939  154.1770 H   0  0  0  0  0  0  0  0  0  0  0  0
  147.2232  136.1417  152.2922 H   0  0  0  0  0  0  0  0  0  0  0  0
  1  2  1  0  0  0  0
  1 22  1  0  0  0  0
  1 23  1  0  0  0  0
  1 24  1  0  0  0  0
  2  3  1  0  0  0  0
  3 21  1  0  0  0  0
  3  4  2  0  0  0  0
  4  5  1  0  0  0  0
  4 25  1  0  0  0  0
  5  6  2  0  0  0  0
  5 26  1  0  0  0  0
  6  7  1  0  0  0  0
  6 20  1  0  0  0  0
  7  8  1  0  0  0  0
  7 27  1  0  0  0  0
  8  9  2  0  0  0  0
  8 10  1  0  0  0  0
 10 11  1  0  0  0  0
 10 28  1  0  0  0  0
 11 12  1  0  0  0  0
 11 29  1  0  0  0  0
 11 30  1  0  0  0  0
 12 13  1  0  0  0  0
 12 31  1  0  0  0  0
 12 32  1  0  0  0  0
 13 18  1  0  0  0  0
 13 14  1  0  0  0  0
 13 46  1  0  0  0  0
 14 15  1  0  0  0  0
 14 33  1  0  0  0  0
 14 34  1  0  0  0  0
 15 16  1  0  0  0  0
 15 35  1  0  0  0  0
 15 36  1  0  0  0  0
 16 17  1  0  0  0  0
 16 37  1  0  0  0  0
 16 38  1  0  0  0  0
 17 18  1  0  0  0  0
 17 39  1  0  0  0  0
 17 40  1  0  0  0  0
 18 19  1  0  0  0  0
 18 41  1  0  0  0  0
 19 42  1  0  0  0  0
 19 43  1  0  0  0  0
 19 44  1  0  0  0  0
 20 21  2  0  0  0  0
 20 45  1  0  0  0  0
M  CHG  1  13   1
M  END
> <s_m_source_file>
AV-unprocessed.smi

> <i_m_source_file_index>
2008

> <i_lp_mmshare_version>
43012

> <i_f3d_flags>
0

> <s_epik_input>
W0NIM11PYzFbY0hdW2NIXWMoW2NIXW4xKVtOSF1DKD1PKVtOSF1bQ0gyXVtDSDJdTjJbQ0gyXVtDSDJdW0NIMl1bQ0gyXVtDQEhdMltDSDNd

> <s_epik_cmdline>
J2VwaWtfcHl0aG9uJywgJy1waCcsICc3LjAnLCAnLXRuJywgJzgnLCAnLW1hJywgJzIwMCcsICctbWV0YWxfYmluZGluZycsICctaW1hZScsICc8aW5maWxlLm1hZT4nLCAnLW9tYWUnLCAnPG91dGZpbGUubWFlPic=

> <r_lp_tautomer_probability>
1

> <r_epik_Ionization_Penalty>
0.00219526

> <r_epik_Ionization_Penalty_Charging>
0.00211816

> <r_epik_Ionization_Penalty_Neutral>
7.71003e-05

> <r_epik_State_Penalty>
0.00145254

> <r_epik_Charging_Adjusted_Penalty>
0.0035707

> <i_epik_Tot_Q>
1

> <i_epik_Tot_abs_Q>
1

> <r_epik_Metal_State_Penalty>
-0

> <b_epik_Metal_Only>
0

> <s_lp_Force_Field>
OPLS_2005

> <r_lp_Energy>
23.0137

> <b_lp_Chiralities_Consistent>
1

> <s_lp_Variant>
AV-unprocessed.smi:2008-2

> <Gold.Version>
5.8.1

> <Gold.Id.Protein>
6NUR|6NUR_protein|mol2

> <Gold.PLP.Fitness>
47.8251

> <Gold.PLP.PLP>
-35.5679

> <Gold.PLP.part.hbond>
-5.5105

> <Gold.PLP.part.metal>
0.0000

> <Gold.PLP.part.buried>
-4.1105

> <Gold.PLP.part.nonpolar>
-27.3130

> <Gold.PLP.part.repulsive>
0.3020

> <Gold.PLP.ligand.clash>
0.6586

> <Gold.PLP.ligand.torsion>
0.6616

> <Gold.PLP.Chemscore.Hbond>
4.7280

> <Gold.PLP.Chemscore.CHOScore>
0.0000

> <Gold.PLP.Chemscore.Metal>
0.0000

> <Gold.Chemscore.Hbonds>
donor molecule, donor type, donor heavy atom, donor atom, acceptor molecule, acceptor atom, score
      L1  H     7    27       P1  7957  0.83
      L1  H    10    28       P1  7957  0.82
      L1  H    13    46       P1  7948  2.00
      P1  H  7997  8008       L1    21  1.00

> <Gold.PLP.Chemscore.Internal.Correction>
0.0551

> <Gold.Rescore>
     Score         DG    S(hbond)    S(metal)    S(lipo)     H(rot)  DE(clash)    DE(int)     intcor
     18.48     -21.96       3.67        0.00      73.39       1.71       0.40       3.08       ----

> <Gold.Chemscore.Fitness>
18.4841

> <Gold.Chemscore.DG>
-21.9578

> <Gold.Chemscore.ZeroCoef>
-5.4800

> <Gold.Chemscore.Hbond>
3.6739

> <Gold.Chemscore.Metal>
0.0000

> <Gold.Chemscore.Lipo>
73.3878

> <Gold.Chemscore.Internal_Hbond>
0.0000

> <Gold.Chemscore.DEClash>
0.3983

> <Gold.Chemscore.DEInternal>
3.0755

> <Gold.Chemscore.Rot>
1.7107

> <Gold.Chemscore.Internal.Correction>
   9.000000E+99

> <Gold.Chemscore.Hbonds>
donor molecule, donor type, donor heavy atom, donor atom, acceptor molecule, acceptor atom, score
      L1  H     7    27       P1  7957  0.82
      L1  H    10    28       P1  7957  0.64
      L1  H    13    46       P1  7948  1.00
      P1  H  7997  8008       L1    21  0.25

> <Gold.Chemscore.Hbond.Weighted>
-12.2709

> <Gold.Chemscore.Metal.Weighted>
-0.0000

> <Gold.Chemscore.Lipo.Weighted>
-8.5864

> <Gold.Chemscore.Internal_Hbond.Weighted>
0.0000

> <Gold.Chemscore.DEClash.Weighted>
0.3983

> <Gold.Chemscore.DEInternal.Weighted>
3.0755

> <Gold.Chemscore.Rot.Weighted>
4.3794

> <Gold.Chemscore.Internal.Correction.Weighted>
   9.000000E+99

> <Gold.Protein.RotatedTorsions>
[ 6907 6896 6895 6894 ] final  174.93 input  -60.11 | X-H torsion
[ 7974 7965 7964 7962 ] final   56.69 input  175.53 | X-H torsion
[ 8008 7997 7996 7995 ] final  -39.94 input   59.86 | X-H torsion
[ 10167 10162 10161 10158 ] final  101.52 input  -65.29 | X-H torsion
[ 10718 10713 10712 10709 ] final   25.16 input   66.30 | X-H torsion
[ 10763 10752 10751 10750 ] final -167.25 input  -60.55 | X-H torsion
[ 11005 11000 10999 10996 ] final -160.33 input  -57.11 | X-H torsion

> <Gold.Protein.ActiveResidues>
 VAL166  LYS551  ARG553  GLY616  TRP617  ASP618  TYR619  PRO620  LYS621  CYS622 
 ASP623  PHE694  ASN695  SER759  ASP760  ASP761  ALA762  ILE779  LEU786  VAL792 
 PHE793  MET794  SER795  GLU796  ALA797  LYS798  CYS799  TRP800  GLU811  SER814 

> <Gold.Protein.RotatedAtoms>
  151.7444  133.3324  159.3374 H   0  0  0  0  0  0  0  0  0  0  0  0  # atno 6907 bound_to 6896
  150.7560  134.6249  159.6165 H   0  0  0  0  0  0  0  0  0  0  0  0  # atno 6908 bound_to 6896
  152.3509  134.7008  160.0288 H   0  0  0  0  0  0  0  0  0  0  0  0  # atno 6909 bound_to 6896
  145.9371  139.3857  143.0386 H   0  0  0  0  0  0  0  0  0  0  0  0  # atno 7974 bound_to 7965
  154.4017  140.1538  156.2946 H   0  0  0  0  0  0  0  0  0  0  0  0  # atno 8008 bound_to 7997
  155.8755  140.3446  155.5829 H   0  0  0  0  0  0  0  0  0  0  0  0  # atno 8009 bound_to 7997
  155.7727  140.0832  157.2090 H   0  0  0  0  0  0  0  0  0  0  0  0  # atno 8010 bound_to 7997
  139.7430  144.7006  151.0546 H   0  0  0  0  0  0  0  0  0  0  0  0  # atno 10167 bound_to 10162
  157.1896  130.6840  149.6144 H   0  0  0  0  0  0  0  0  0  0  0  0  # atno 10718 bound_to 10713
  154.6751  135.2945  154.9689 H   0  0  0  0  0  0  0  0  0  0  0  0  # atno 10763 bound_to 10752
  154.0703  135.6619  153.4827 H   0  0  0  0  0  0  0  0  0  0  0  0  # atno 10764 bound_to 10752
  153.0511  135.5173  154.7766 H   0  0  0  0  0  0  0  0  0  0  0  0  # atno 10765 bound_to 10752
  140.6327  134.4635  157.5230 H   0  0  0  0  0  0  0  0  0  0  0  0  # atno 11005 bound_to 11000
  145.8349  140.9611  143.0830 LP  0  0  0  0  0  0  0  0  0  0  0  0  # atno 17320 bound_to 7965
  144.6773  140.0210  143.7484 LP  0  0  0  0  0  0  0  0  0  0  0  0  # atno 17321 bound_to 7965
  140.7788  143.4901  150.9905 LP  0  0  0  0  0  0  0  0  0  0  0  0  # atno 17342 bound_to 10162
  139.8589  143.7341  152.3174 LP  0  0  0  0  0  0  0  0  0  0  0  0  # atno 17343 bound_to 10162
  155.9713  130.4619  150.6127 LP  0  0  0  0  0  0  0  0  0  0  0  0  # atno 17370 bound_to 10713
  157.3874  131.0790  151.1424 LP  0  0  0  0  0  0  0  0  0  0  0  0  # atno 17371 bound_to 10713
  139.9110  134.8345  156.1529 LP  0  0  0  0  0  0  0  0  0  0  0  0  # atno 17394 bound_to 11000
  141.0664  133.6817  156.2053 LP  0  0  0  0  0  0  0  0  0  0  0  0  # atno 17395 bound_to 11000

$$$$
