AV-unprocessed.smi:2948|AV-procd|sdf|11283|dock5
  -GOLD-   2272016173D 1   1.00000     0.00000
 Structure written by MMmdl.
 32 33  0  0  0  0  0  0  0  0  1 V2000
  148.5486  138.9938  154.2111 C   0  0  0  0  0  0  0  0  0  0  0  0
  150.0575  139.0456  154.4601 C   0  0  0  0  0  0  0  0  0  0  0  0
  150.4310  140.3906  154.6997 O   0  0  0  0  0  0  0  0  0  0  0  0
  150.3078  140.7681  156.0610 C   0  0  0  0  0  0  0  0  0  0  0  0
  151.2842  141.9114  156.3747 C   0  0  0  0  0  0  0  0  0  0  0  0
  151.6897  141.9161  157.7738 N   0  0  0  0  0  0  0  0  0  0  0  0
  152.0663  140.8713  158.5579 C   0  0  0  0  0  0  0  0  0  0  0  0
  152.1245  139.4544  158.0607 C   0  0  0  0  0  0  0  0  0  0  0  0
  153.0550  139.2748  157.0134 O   0  0  0  0  0  0  0  0  0  0  0  0
  152.3765  141.1811  159.8186 N   0  0  0  0  0  0  0  0  0  0  0  0
  152.2035  142.5499  159.8513 C   0  0  0  0  0  0  0  0  0  0  0  0
  152.3828  143.4733  160.9062 C   0  0  0  0  0  0  0  0  0  0  0  0
  152.1427  144.8475  160.7002 C   0  0  0  0  0  0  0  0  0  0  0  0
  151.7206  145.3169  159.4395 C   0  0  0  0  0  0  0  0  0  0  0  0
  151.5356  144.4134  158.3754 C   0  0  0  0  0  0  0  0  0  0  0  0
  151.7758  143.0422  158.5867 C   0  0  0  0  0  0  0  0  0  0  0  0
  148.2189  137.9716  154.0245 H   0  0  0  0  0  0  0  0  0  0  0  0
  148.2736  139.5982  153.3463 H   0  0  0  0  0  0  0  0  0  0  0  0
  147.9975  139.3719  155.0727 H   0  0  0  0  0  0  0  0  0  0  0  0
  150.3143  138.4230  155.3185 H   0  0  0  0  0  0  0  0  0  0  0  0
  150.5932  138.6550  153.5937 H   0  0  0  0  0  0  0  0  0  0  0  0
  149.2851  141.0887  156.2663 H   0  0  0  0  0  0  0  0  0  0  0  0
  150.5177  139.9146  156.7069 H   0  0  0  0  0  0  0  0  0  0  0  0
  152.1766  141.8123  155.7560 H   0  0  0  0  0  0  0  0  0  0  0  0
  150.8510  142.8763  156.1141 H   0  0  0  0  0  0  0  0  0  0  0  0
  152.3957  138.8032  158.8919 H   0  0  0  0  0  0  0  0  0  0  0  0
  151.1559  139.1206  157.6950 H   0  0  0  0  0  0  0  0  0  0  0  0
  152.8829  138.4435  156.5988 H   0  0  0  0  0  0  0  0  0  0  0  0
  152.7071  143.1235  161.8751 H   0  0  0  0  0  0  0  0  0  0  0  0
  152.2841  145.5445  161.5131 H   0  0  0  0  0  0  0  0  0  0  0  0
  151.5398  146.3712  159.2898 H   0  0  0  0  0  0  0  0  0  0  0  0
  151.2141  144.7703  157.4084 H   0  0  0  0  0  0  0  0  0  0  0  0
  1  2  1  0  0  0  0
  1 17  1  0  0  0  0
  1 18  1  0  0  0  0
  1 19  1  0  0  0  0
  2  3  1  0  0  0  0
  2 20  1  0  0  0  0
  2 21  1  0  0  0  0
  3  4  1  0  0  0  0
  4  5  1  0  0  0  0
  4 22  1  0  0  0  0
  4 23  1  0  0  0  0
  5  6  1  0  0  0  0
  5 24  1  0  0  0  0
  5 25  1  0  0  0  0
  6 16  1  0  0  0  0
  6  7  1  0  0  0  0
  7  8  1  0  0  0  0
  7 10  2  0  0  0  0
  8  9  1  0  0  0  0
  8 26  1  0  0  0  0
  8 27  1  0  0  0  0
  9 28  1  0  0  0  0
 10 11  1  0  0  0  0
 11 16  2  0  0  0  0
 11 12  1  0  0  0  0
 12 13  2  0  0  0  0
 12 29  1  0  0  0  0
 13 14  1  0  0  0  0
 13 30  1  0  0  0  0
 14 15  2  0  0  0  0
 14 31  1  0  0  0  0
 15 16  1  0  0  0  0
 15 32  1  0  0  0  0
M  END
> <s_m_source_file>
AV-unprocessed.smi

> <i_m_source_file_index>
2948

> <i_lp_mmshare_version>
43012

> <i_f3d_flags>
0

> <s_epik_input>
W0NIM11bQ0gyXU9bQ0gyXVtDSDJdbihjKG4xKVtDSDJdW09IXSljKGMxMilbY0hdW2NIXVtjSF1bY0hdMg==

> <s_epik_cmdline>
J2VwaWtfcHl0aG9uJywgJy1waCcsICc3LjAnLCAnLXRuJywgJzgnLCAnLW1hJywgJzIwMCcsICctbWV0YWxfYmluZGluZycsICctaW1hZScsICc8aW5maWxlLm1hZT4nLCAnLW9tYWUnLCAnPG91dGZpbGUubWFlPic=

> <r_epik_Ionization_Penalty>
0.0599051

> <r_epik_Ionization_Penalty_Charging>
0

> <r_epik_Ionization_Penalty_Neutral>
0.0599051

> <r_epik_State_Penalty>
0.0518308

> <r_epik_Charging_Adjusted_Penalty>
0.0518308

> <i_epik_Tot_Q>
0

> <i_epik_Tot_abs_Q>
0

> <r_epik_Metal_State_Penalty>
5.4163e-05

> <b_epik_Metal_Only>
0

> <s_lp_Force_Field>
OPLS_2005

> <r_lp_Energy>
7.3767

> <b_lp_Chiralities_Consistent>
1

> <s_lp_Variant>
AV-unprocessed.smi:2948-1

> <Gold.Version>
5.8.1

> <Gold.Id.Protein>
6NUR|6NUR_protein|mol2

> <Gold.PLP.Fitness>
42.6298

> <Gold.PLP.PLP>
-37.9604

> <Gold.PLP.part.hbond>
-2.0000

> <Gold.PLP.part.metal>
0.0000

> <Gold.PLP.part.buried>
-6.4296

> <Gold.PLP.part.nonpolar>
-29.2472

> <Gold.PLP.part.repulsive>
0.0981

> <Gold.PLP.ligand.clash>
0.0000

> <Gold.PLP.ligand.torsion>
0.6796

> <Gold.PLP.Chemscore.Hbond>
2.0000

> <Gold.PLP.Chemscore.CHOScore>
0.0000

> <Gold.PLP.Chemscore.Metal>
0.0000

> <Gold.Chemscore.Hbonds>
donor molecule, donor type, donor heavy atom, donor atom, acceptor molecule, acceptor atom, score
      P1  H  7989  7998       L1     3  1.00
      P1  H  7997  8010       L1     9  1.00

> <Gold.PLP.Chemscore.Internal.Correction>
0.0287

> <Gold.Rescore>
     Score         DG    S(hbond)    S(metal)    S(lipo)     H(rot)  DE(clash)    DE(int)     intcor
     17.19     -17.78       1.95        0.00      97.96       2.22       0.07       0.52       ----

> <Gold.Chemscore.Fitness>
17.1889

> <Gold.Chemscore.DG>
-17.7802

> <Gold.Chemscore.ZeroCoef>
-5.4800

> <Gold.Chemscore.Hbond>
1.9543

> <Gold.Chemscore.Metal>
0.0000

> <Gold.Chemscore.Lipo>
97.9606

> <Gold.Chemscore.Internal_Hbond>
0.0000

> <Gold.Chemscore.DEClash>
0.0731

> <Gold.Chemscore.DEInternal>
0.5182

> <Gold.Chemscore.Rot>
2.2221

> <Gold.Chemscore.Internal.Correction>
   9.000000E+99

> <Gold.Chemscore.Hbonds>
donor molecule, donor type, donor heavy atom, donor atom, acceptor molecule, acceptor atom, score
      P1  H  7989  7998       L1     3  0.68
      P1  H  7997  8010       L1     9  0.97

> <Gold.Chemscore.Hbond.Weighted>
-6.5274

> <Gold.Chemscore.Metal.Weighted>
-0.0000

> <Gold.Chemscore.Lipo.Weighted>
-11.4614

> <Gold.Chemscore.Internal_Hbond.Weighted>
0.0000

> <Gold.Chemscore.DEClash.Weighted>
0.0731

> <Gold.Chemscore.DEInternal.Weighted>
0.5182

> <Gold.Chemscore.Rot.Weighted>
5.6886

> <Gold.Chemscore.Internal.Correction.Weighted>
   9.000000E+99

> <Gold.Protein.RotatedTorsions>
[ 6907 6896 6895 6894 ] final   75.78 input  -60.11 | X-H torsion
[ 7974 7965 7964 7962 ] final  129.11 input  175.53 | X-H torsion
[ 8008 7997 7996 7995 ] final   52.21 input   59.86 | X-H torsion
[ 10167 10162 10161 10158 ] final -120.79 input  -65.29 | X-H torsion
[ 10718 10713 10712 10709 ] final  101.09 input   66.30 | X-H torsion
[ 10763 10752 10751 10750 ] final -153.25 input  -60.55 | X-H torsion
[ 11005 11000 10999 10996 ] final  105.61 input  -57.11 | X-H torsion

> <Gold.Protein.ActiveResidues>
 VAL166  LYS551  ARG553  GLY616  TRP617  ASP618  TYR619  PRO620  LYS621  CYS622 
 ASP623  PHE694  ASN695  SER759  ASP760  ASP761  ALA762  ILE779  LEU786  VAL792 
 PHE793  MET794  SER795  GLU796  ALA797  LYS798  CYS799  TRP800  GLU811  SER814 

> <Gold.Protein.RotatedAtoms>
  152.5042  134.4068  159.9434 H   0  0  0  0  0  0  0  0  0  0  0  0  # atno 6907 bound_to 6896
  151.4034  133.3744  159.2743 H   0  0  0  0  0  0  0  0  0  0  0  0  # atno 6908 bound_to 6896
  150.9344  134.8779  159.7631 H   0  0  0  0  0  0  0  0  0  0  0  0  # atno 6909 bound_to 6896
  145.0322  139.4036  143.5144 H   0  0  0  0  0  0  0  0  0  0  0  0  # atno 7974 bound_to 7965
  155.4480  140.3457  155.4297 H   0  0  0  0  0  0  0  0  0  0  0  0  # atno 8008 bound_to 7997
  156.1238  140.1494  156.9196 H   0  0  0  0  0  0  0  0  0  0  0  0  # atno 8009 bound_to 7997
  154.4842  140.0860  156.7429 H   0  0  0  0  0  0  0  0  0  0  0  0  # atno 8010 bound_to 7997
  140.0320  143.5238  152.2172 H   0  0  0  0  0  0  0  0  0  0  0  0  # atno 10167 bound_to 10162
  157.6838  131.0716  150.5199 H   0  0  0  0  0  0  0  0  0  0  0  0  # atno 10718 bound_to 10713
  154.7940  135.3217  154.7710 H   0  0  0  0  0  0  0  0  0  0  0  0  # atno 10763 bound_to 10752
  153.8392  135.6872  153.4809 H   0  0  0  0  0  0  0  0  0  0  0  0  # atno 10764 bound_to 10752
  153.1623  135.4656  154.9731 H   0  0  0  0  0  0  0  0  0  0  0  0  # atno 10765 bound_to 10752
  139.8804  134.9341  156.5540 H   0  0  0  0  0  0  0  0  0  0  0  0  # atno 11005 bound_to 11000
  146.3500  139.9878  142.8689 LP  0  0  0  0  0  0  0  0  0  0  0  0  # atno 17320 bound_to 7965
  145.1756  140.9742  143.4296 LP  0  0  0  0  0  0  0  0  0  0  0  0  # atno 17321 bound_to 7965
  139.6070  144.7599  151.3040 LP  0  0  0  0  0  0  0  0  0  0  0  0  # atno 17342 bound_to 10162
  140.7298  143.6898  150.7931 LP  0  0  0  0  0  0  0  0  0  0  0  0  # atno 17343 bound_to 10162
  156.5513  130.4232  149.6106 LP  0  0  0  0  0  0  0  0  0  0  0  0  # atno 17370 bound_to 10713
  156.2900  130.7119  151.1965 LP  0  0  0  0  0  0  0  0  0  0  0  0  # atno 17371 bound_to 10713
  140.8219  133.8347  155.8903 LP  0  0  0  0  0  0  0  0  0  0  0  0  # atno 17394 bound_to 11000
  140.9410  134.1900  157.4797 LP  0  0  0  0  0  0  0  0  0  0  0  0  # atno 17395 bound_to 11000

$$$$
