AV-unprocessed.smi:4|AV-procd|sdf|35|dock5
  -GOLD-   2262015153D 1   1.00000     0.00000
 Structure written by MMmdl.
 43 44  0  0  0  0  0  0  0  0  3 V2000
  151.3488  138.0664  156.7493 C   0  0  0  0  0  0  0  0  0  0  0  0
  151.1450  138.2813  155.2254 C   0  0  0  0  0  0  0  0  0  0  0  0
  152.5261  138.7194  154.6774 C   0  0  0  0  0  0  0  0  0  0  0  0
  150.7561  136.8889  154.6659 C   0  0  0  0  0  0  0  0  0  0  0  0
  150.0919  139.3064  154.8812 N   0  0  0  0  0  0  0  0  0  0  0  0
  148.9554  138.9268  154.1203 C   0  0  0  0  0  0  0  0  0  0  0  0
  147.9754  139.7813  153.7619 C   0  0  0  0  0  0  0  0  0  0  0  0
  146.7750  139.3473  152.9346 C   0  0  0  0  0  0  0  0  0  0  0  0
  146.7873  137.8863  152.7197 N   0  3  0  0  0  0  0  0  0  0  0  0
  145.9654  137.4389  151.5775 C   0  0  0  0  0  0  0  0  0  0  0  0
  145.5110  135.9868  151.7446 C   0  0  0  0  0  0  0  0  0  0  0  0
  146.6828  135.2444  152.0218 O   0  0  0  0  0  0  0  0  0  0  0  0
  144.3285  135.7089  152.6907 C   0  0  0  0  0  0  0  0  0  0  0  0
  143.7487  134.7418  151.6579 C   0  0  0  0  0  0  0  0  0  0  0  0
  144.6555  135.3915  150.6122 C   0  0  0  0  0  0  0  0  0  0  0  0
  148.1103  141.1737  154.1812 C   0  0  0  0  0  0  0  0  0  0  0  0
  147.2460  141.9920  153.8683 O   0  0  0  0  0  0  0  0  0  0  0  0
  149.2012  141.5077  154.9199 N   0  5  0  0  0  0  0  0  0  0  0  0
  150.1791  140.6229  155.2809 C   0  0  0  0  0  0  0  0  0  0  0  0
  151.1327  140.9989  155.9595 O   0  0  0  0  0  0  0  0  0  0  0  0
  152.1096  137.3089  156.9432 H   0  0  0  0  0  0  0  0  0  0  0  0
  150.4378  137.7181  157.2382 H   0  0  0  0  0  0  0  0  0  0  0  0
  151.6897  138.9736  157.2501 H   0  0  0  0  0  0  0  0  0  0  0  0
  152.7908  139.7162  155.0316 H   0  0  0  0  0  0  0  0  0  0  0  0
  152.5731  138.7353  153.5899 H   0  0  0  0  0  0  0  0  0  0  0  0
  153.3137  138.0396  155.0042 H   0  0  0  0  0  0  0  0  0  0  0  0
  151.4460  136.1176  155.0100 H   0  0  0  0  0  0  0  0  0  0  0  0
  150.7720  136.8384  153.5787 H   0  0  0  0  0  0  0  0  0  0  0  0
  149.7572  136.5990  154.9938 H   0  0  0  0  0  0  0  0  0  0  0  0
  148.8841  137.8979  153.8191 H   0  0  0  0  0  0  0  0  0  0  0  0
  145.8582  139.6415  153.4476 H   0  0  0  0  0  0  0  0  0  0  0  0
  146.7815  139.8552  151.9694 H   0  0  0  0  0  0  0  0  0  0  0  0
  147.7391  137.5830  152.5706 H   0  0  0  0  0  0  0  0  0  0  0  0
  145.0980  138.0960  151.5004 H   0  0  0  0  0  0  0  0  0  0  0  0
  146.5326  137.5650  150.6539 H   0  0  0  0  0  0  0  0  0  0  0  0
  147.4057  135.8538  152.0123 H   0  0  0  0  0  0  0  0  0  0  0  0
  144.5997  135.2407  153.6376 H   0  0  0  0  0  0  0  0  0  0  0  0
  143.6953  136.5836  152.8484 H   0  0  0  0  0  0  0  0  0  0  0  0
  144.0124  133.7024  151.8580 H   0  0  0  0  0  0  0  0  0  0  0  0
  142.6809  134.8615  151.4715 H   0  0  0  0  0  0  0  0  0  0  0  0
  144.1380  136.1506  150.0236 H   0  0  0  0  0  0  0  0  0  0  0  0
  145.1755  134.6800  149.9694 H   0  0  0  0  0  0  0  0  0  0  0  0
  146.4369  137.4450  153.5589 H   0  0  0  0  0  0  0  0  0  0  0  0
  1  2  1  0  0  0  0
  1 21  1  0  0  0  0
  1 22  1  0  0  0  0
  1 23  1  0  0  0  0
  2  3  1  0  0  0  0
  2  4  1  0  0  0  0
  2  5  1  0  0  0  0
  3 24  1  0  0  0  0
  3 25  1  0  0  0  0
  3 26  1  0  0  0  0
  4 27  1  0  0  0  0
  4 28  1  0  0  0  0
  4 29  1  0  0  0  0
  5 19  1  0  0  0  0
  5  6  1  0  0  0  0
  6  7  2  0  0  0  0
  6 30  1  0  0  0  0
  7  8  1  0  0  0  0
  7 16  1  0  0  0  0
  8  9  1  0  0  0  0
  8 31  1  0  0  0  0
  8 32  1  0  0  0  0
  9 10  1  0  0  0  0
  9 33  1  0  0  0  0
  9 43  1  0  0  0  0
 10 11  1  0  0  0  0
 10 34  1  0  0  0  0
 10 35  1  0  0  0  0
 11 15  1  0  0  0  0
 11 12  1  0  0  0  0
 11 13  1  0  0  0  0
 12 36  1  0  0  0  0
 13 14  1  0  0  0  0
 13 37  1  0  0  0  0
 13 38  1  0  0  0  0
 14 15  1  0  0  0  0
 14 39  1  0  0  0  0
 14 40  1  0  0  0  0
 15 41  1  0  0  0  0
 15 42  1  0  0  0  0
 16 17  2  0  0  0  0
 16 18  1  0  0  0  0
 18 19  1  0  0  0  0
 19 20  2  0  0  0  0
M  CHG  1   9   1
M  CHG  1  18  -1
M  END
> <s_m_source_file>
AV-unprocessed.smi

> <i_m_source_file_index>
4

> <i_lp_mmshare_version>
43012

> <i_f3d_flags>
0

> <s_epik_input>
W0NIM11DKFtDSDNdKShbQ0gzXSluMVtjSF1jKGMoPU8pW25IXWMxPU8pW0NIMl1bTkhdW0NIMl1DMihbT0hdKVtDSDJdW0NIMl1bQ0gyXTI=

> <s_epik_cmdline>
J2VwaWtfcHl0aG9uJywgJy1waCcsICc3LjAnLCAnLXRuJywgJzgnLCAnLW1hJywgJzIwMCcsICctbWV0YWxfYmluZGluZycsICctaW1hZScsICc8aW5maWxlLm1hZT4nLCAnLW9tYWUnLCAnPG91dGZpbGUubWFlPic=

> <r_lp_tautomer_probability>
0.999537

> <r_epik_Ionization_Penalty>
3.42736

> <r_epik_Ionization_Penalty_Charging>
0.0116785

> <r_epik_Ionization_Penalty_Neutral>
3.41568

> <r_epik_State_Penalty>
3.42726

> <r_epik_Charging_Adjusted_Penalty>
3.43893

> <i_epik_Tot_Q>
0

> <i_epik_Tot_abs_Q>
2

> <r_epik_Metal_State_Penalty>
0.176979

> <b_epik_Metal_Only>
1

> <s_lp_Force_Field>
OPLS_2005

> <r_lp_Energy>
29.0009

> <b_lp_Chiralities_Consistent>
1

> <s_lp_Variant>
AV-unprocessed.smi:4-3

> <Gold.Version>
5.8.1

> <Gold.Id.Protein>
6NUR|6NUR_protein|mol2

> <Gold.PLP.Fitness>
46.2330

> <Gold.PLP.PLP>
-35.0815

> <Gold.PLP.part.hbond>
-2.0127

> <Gold.PLP.part.metal>
0.0000

> <Gold.PLP.part.buried>
-1.6244

> <Gold.PLP.part.nonpolar>
-32.4835

> <Gold.PLP.part.repulsive>
0.3888

> <Gold.PLP.ligand.clash>
0.0000

> <Gold.PLP.ligand.torsion>
0.3594

> <Gold.PLP.Chemscore.Hbond>
2.9520

> <Gold.PLP.Chemscore.CHOScore>
0.9634

> <Gold.PLP.Chemscore.Metal>
0.0000

> <Gold.Chemscore.Hbonds>
donor molecule, donor type, donor heavy atom, donor atom, acceptor molecule, acceptor atom, score
      L1  H     9    33       P1  7948  1.92
      L1  H    12    36       P1  7948  1.00
      L1  C     6    30       P1  7948  0.94

> <Gold.PLP.Chemscore.Internal.Correction>
0.1241

> <Gold.Rescore>
     Score         DG    S(hbond)    S(metal)    S(lipo)     H(rot)  DE(clash)    DE(int)     intcor
     11.73     -14.10       1.92        0.00      72.92       2.47       0.74       1.64       ----

> <Gold.Chemscore.Fitness>
11.7254

> <Gold.Chemscore.DG>
-14.0978

> <Gold.Chemscore.ZeroCoef>
-5.4800

> <Gold.Chemscore.Hbond>
1.9186

> <Gold.Chemscore.Metal>
0.0000

> <Gold.Chemscore.Lipo>
72.9172

> <Gold.Chemscore.Internal_Hbond>
0.0000

> <Gold.Chemscore.DEClash>
0.7367

> <Gold.Chemscore.DEInternal>
1.6358

> <Gold.Chemscore.Rot>
2.4694

> <Gold.Chemscore.Internal.Correction>
   9.000000E+99

> <Gold.Chemscore.Hbonds>
donor molecule, donor type, donor heavy atom, donor atom, acceptor molecule, acceptor atom, score
      L1  H     9    33       P1  7948  0.92
      L1  H    12    36       P1  7948  0.94

> <Gold.Chemscore.Hbond.Weighted>
-6.4081

> <Gold.Chemscore.Metal.Weighted>
-0.0000

> <Gold.Chemscore.Lipo.Weighted>
-8.5313

> <Gold.Chemscore.Internal_Hbond.Weighted>
0.0000

> <Gold.Chemscore.DEClash.Weighted>
0.7367

> <Gold.Chemscore.DEInternal.Weighted>
1.6358

> <Gold.Chemscore.Rot.Weighted>
6.3216

> <Gold.Chemscore.Internal.Correction.Weighted>
   9.000000E+99

> <Gold.Protein.RotatedTorsions>
[ 6907 6896 6895 6894 ] final  -99.63 input  -60.11 | X-H torsion
[ 7974 7965 7964 7962 ] final   37.50 input  175.53 | X-H torsion
[ 8008 7997 7996 7995 ] final -134.86 input   59.86 | X-H torsion
[ 10167 10162 10161 10158 ] final   56.36 input  -65.29 | X-H torsion
[ 10718 10713 10712 10709 ] final   79.39 input   66.30 | X-H torsion
[ 10763 10752 10751 10750 ] final -124.29 input  -60.55 | X-H torsion
[ 11005 11000 10999 10996 ] final  154.80 input  -57.11 | X-H torsion

> <Gold.Protein.ActiveResidues>
 VAL166  LYS551  ARG553  GLY616  TRP617  ASP618  TYR619  PRO620  LYS621  CYS622 
 ASP623  PHE694  ASN695  SER759  ASP760  ASP761  ALA762  ILE779  LEU786  VAL792 
 PHE793  MET794  SER795  GLU796  ALA797  LYS798  CYS799  TRP800  GLU811  SER814 

> <Gold.Protein.RotatedAtoms>
  150.7087  134.1011  159.3965 H   0  0  0  0  0  0  0  0  0  0  0  0  # atno 6907 bound_to 6896
  151.8998  135.0381  160.0514 H   0  0  0  0  0  0  0  0  0  0  0  0  # atno 6908 bound_to 6896
  152.2424  133.5111  159.5314 H   0  0  0  0  0  0  0  0  0  0  0  0  # atno 6909 bound_to 6896
  146.1132  139.5886  142.9338 H   0  0  0  0  0  0  0  0  0  0  0  0  # atno 7974 bound_to 7965
  155.3691  140.0487  157.3045 H   0  0  0  0  0  0  0  0  0  0  0  0  # atno 8008 bound_to 7997
  154.5139  140.2201  155.9066 H   0  0  0  0  0  0  0  0  0  0  0  0  # atno 8009 bound_to 7997
  156.1614  140.3115  155.8819 H   0  0  0  0  0  0  0  0  0  0  0  0  # atno 8010 bound_to 7997
  140.2096  144.3903  150.6494 H   0  0  0  0  0  0  0  0  0  0  0  0  # atno 10167 bound_to 10162
  157.6775  130.9912  150.1926 H   0  0  0  0  0  0  0  0  0  0  0  0  # atno 10718 bound_to 10713
  154.8721  135.4069  154.3082 H   0  0  0  0  0  0  0  0  0  0  0  0  # atno 10763 bound_to 10752
  153.3930  135.7015  153.6486 H   0  0  0  0  0  0  0  0  0  0  0  0  # atno 10764 bound_to 10752
  153.5261  135.3677  155.2625 H   0  0  0  0  0  0  0  0  0  0  0  0  # atno 10765 bound_to 10752
  140.1522  134.8667  157.2469 H   0  0  0  0  0  0  0  0  0  0  0  0  # atno 11005 bound_to 11000
  145.5620  141.0403  143.2221 LP  0  0  0  0  0  0  0  0  0  0  0  0  # atno 17320 bound_to 7965
  144.7530  139.7145  143.7265 LP  0  0  0  0  0  0  0  0  0  0  0  0  # atno 17321 bound_to 7965
  140.6333  143.2191  151.6449 LP  0  0  0  0  0  0  0  0  0  0  0  0  # atno 17342 bound_to 10162
  139.5185  144.3282  152.0850 LP  0  0  0  0  0  0  0  0  0  0  0  0  # atno 17343 bound_to 10162
  156.2634  130.3713  149.8107 LP  0  0  0  0  0  0  0  0  0  0  0  0  # atno 17370 bound_to 10713
  156.5845  130.8480  151.3392 LP  0  0  0  0  0  0  0  0  0  0  0  0  # atno 17371 bound_to 10713
  140.2590  134.3593  155.7413 LP  0  0  0  0  0  0  0  0  0  0  0  0  # atno 17394 bound_to 11000
  141.2200  133.7359  156.9052 LP  0  0  0  0  0  0  0  0  0  0  0  0  # atno 17395 bound_to 11000

$$$$
