AV-unprocessed.smi:2772|AV-procd|sdf|10665|dock8
  -GOLD-   2272015113D 1   1.00000     0.00000
 Structure written by MMmdl.
 55 57  0  0  0  0  0  0  0  0  3 V2000
  154.1223  141.5695  162.6116 C   0  0  0  0  0  0  0  0  0  0  0  0
  153.3602  141.7918  161.3220 C   0  0  0  0  0  0  0  0  0  0  0  0
  153.0820  143.0947  160.8596 C   0  0  0  0  0  0  0  0  0  0  0  0
  152.3692  143.2432  159.6542 C   0  0  0  0  0  0  0  0  0  0  0  0
  151.9527  142.0829  158.9579 C   0  0  0  0  0  0  0  0  0  0  0  0
  151.2480  142.1012  157.7243 N   0  0  0  0  0  0  0  0  0  0  0  0
  150.2351  141.3113  157.3290 C   0  0  0  0  0  0  0  0  0  0  0  0
  149.7598  140.3832  157.9826 O   0  0  0  0  0  0  0  0  0  0  0  0
  149.8101  141.6505  156.1033 N   0  0  0  0  0  0  0  0  0  0  0  0
  148.7313  141.0008  155.3631 C   0  0  2  0  0  0  0  0  0  0  0  0
  148.5843  141.6465  153.9725 C   0  0  0  0  0  0  0  0  0  0  0  0
  147.3398  141.1110  153.2374 C   0  0  0  0  0  0  0  0  0  0  0  0
  146.0943  141.3142  154.0326 N   0  3  2  0  0  0  0  0  0  0  0  0
  145.6205  142.7384  154.1341 C   0  0  2  0  0  0  0  0  0  0  0  0
  144.1758  142.8402  154.6870 C   0  0  0  0  0  0  0  0  0  0  0  0
  143.6551  144.2874  154.7171 C   0  0  0  0  0  0  0  0  0  0  0  0
  143.7195  144.9074  153.3740 N   0  3  1  0  0  0  0  0  0  0  0  0
  143.1116  146.2553  153.3442 C   0  0  0  0  0  0  0  0  0  0  0  0
  145.1019  144.8986  152.8435 C   0  0  0  0  0  0  0  0  0  0  0  0
  145.6585  143.4665  152.7661 C   0  0  0  0  0  0  0  0  0  0  0  0
  146.2241  140.5886  155.3292 C   0  0  0  0  0  0  0  0  0  0  0  0
  147.4161  141.1062  156.1571 C   0  0  0  0  0  0  0  0  0  0  0  0
  152.2980  140.8290  159.5047 C   0  0  0  0  0  0  0  0  0  0  0  0
  152.9803  140.6777  160.6599 N   0  0  0  0  0  0  0  0  0  0  0  0
  154.3882  142.5159  163.0833 H   0  0  0  0  0  0  0  0  0  0  0  0
  155.0416  141.0160  162.4183 H   0  0  0  0  0  0  0  0  0  0  0  0
  153.5180  140.9969  163.3156 H   0  0  0  0  0  0  0  0  0  0  0  0
  153.4103  143.9636  161.4106 H   0  0  0  0  0  0  0  0  0  0  0  0
  152.1714  144.2370  159.2837 H   0  0  0  0  0  0  0  0  0  0  0  0
  151.5896  142.7633  157.0430 H   0  0  0  0  0  0  0  0  0  0  0  0
  150.2710  142.4241  155.6470 H   0  0  0  0  0  0  0  0  0  0  0  0
  148.9490  139.9407  155.2200 H   0  0  0  0  0  0  0  0  0  0  0  0
  148.5253  142.7317  154.0626 H   0  0  0  0  0  0  0  0  0  0  0  0
  149.4754  141.4419  153.3779 H   0  0  0  0  0  0  0  0  0  0  0  0
  147.2653  141.5330  152.2377 H   0  0  0  0  0  0  0  0  0  0  0  0
  147.4636  140.0397  153.0714 H   0  0  0  0  0  0  0  0  0  0  0  0
  146.2758  143.2785  154.8175 H   0  0  0  0  0  0  0  0  0  0  0  0
  143.5045  142.2239  154.0873 H   0  0  0  0  0  0  0  0  0  0  0  0
  144.1195  142.4654  155.7078 H   0  0  0  0  0  0  0  0  0  0  0  0
  142.6238  144.2949  155.0725 H   0  0  0  0  0  0  0  0  0  0  0  0
  144.2372  144.8820  155.4232 H   0  0  0  0  0  0  0  0  0  0  0  0
  143.6556  146.9461  153.9900 H   0  0  0  0  0  0  0  0  0  0  0  0
  142.0746  146.2174  153.6799 H   0  0  0  0  0  0  0  0  0  0  0  0
  143.1166  146.6577  152.3308 H   0  0  0  0  0  0  0  0  0  0  0  0
  145.1132  145.3467  151.8490 H   0  0  0  0  0  0  0  0  0  0  0  0
  145.7411  145.5169  153.4762 H   0  0  0  0  0  0  0  0  0  0  0  0
  146.6778  143.5450  152.3913 H   0  0  0  0  0  0  0  0  0  0  0  0
  145.0945  142.8961  152.0267 H   0  0  0  0  0  0  0  0  0  0  0  0
  145.3046  140.6115  155.9099 H   0  0  0  0  0  0  0  0  0  0  0  0
  146.3803  139.5311  155.1110 H   0  0  0  0  0  0  0  0  0  0  0  0
  147.4981  140.5297  157.0793 H   0  0  0  0  0  0  0  0  0  0  0  0
  147.2383  142.1381  156.4618 H   0  0  0  0  0  0  0  0  0  0  0  0
  152.0141  139.9156  159.0026 H   0  0  0  0  0  0  0  0  0  0  0  0
  145.3672  140.8300  153.5249 H   0  0  0  0  0  0  0  0  0  0  0  0
  143.1642  144.3313  152.7573 H   0  0  0  0  0  0  0  0  0  0  0  0
  1  2  1  0  0  0  0
  1 25  1  0  0  0  0
  1 26  1  0  0  0  0
  1 27  1  0  0  0  0
  2 24  1  0  0  0  0
  2  3  2  0  0  0  0
  3  4  1  0  0  0  0
  3 28  1  0  0  0  0
  4  5  2  0  0  0  0
  4 29  1  0  0  0  0
  5  6  1  0  0  0  0
  5 23  1  0  0  0  0
  6  7  1  0  0  0  0
  6 30  1  0  0  0  0
  7  8  2  0  0  0  0
  7  9  1  0  0  0  0
  9 10  1  0  0  0  0
  9 31  1  0  0  0  0
 10 22  1  0  0  0  0
 10 11  1  0  0  0  0
 10 32  1  0  0  0  0
 11 12  1  0  0  0  0
 11 33  1  0  0  0  0
 11 34  1  0  0  0  0
 12 13  1  0  0  0  0
 12 35  1  0  0  0  0
 12 36  1  0  0  0  0
 13 14  1  0  0  0  0
 13 21  1  0  0  0  0
 13 54  1  0  0  0  0
 14 20  1  0  0  0  0
 14 15  1  0  0  0  0
 14 37  1  0  0  0  0
 15 16  1  0  0  0  0
 15 38  1  0  0  0  0
 15 39  1  0  0  0  0
 16 17  1  0  0  0  0
 16 40  1  0  0  0  0
 16 41  1  0  0  0  0
 17 18  1  0  0  0  0
 17 19  1  0  0  0  0
 17 55  1  0  0  0  0
 18 42  1  0  0  0  0
 18 43  1  0  0  0  0
 18 44  1  0  0  0  0
 19 20  1  0  0  0  0
 19 45  1  0  0  0  0
 19 46  1  0  0  0  0
 20 47  1  0  0  0  0
 20 48  1  0  0  0  0
 21 22  1  0  0  0  0
 21 49  1  0  0  0  0
 21 50  1  0  0  0  0
 22 51  1  0  0  0  0
 22 52  1  0  0  0  0
 23 24  2  0  0  0  0
 23 53  1  0  0  0  0
M  CHG  1  13   1
M  CHG  1  17   1
M  END
> <s_m_source_file>
AV-unprocessed.smi

> <i_m_source_file_index>
2772

> <i_lp_mmshare_version>
43012

> <i_f3d_flags>
0

> <s_epik_input>
W0NIM11jMVtjSF1bY0hdYyhbY0hdbjEpW05IXUMoPU8pW05IXVtDSF0yW0NIMl1bQ0gyXU4oW0NIMl1bQ0gyXTIpW0NIXTNbQ0gyXVtDSDJdTihbQ0gzXSlbQ0gyXVtDSDJdMw==

> <s_epik_cmdline>
J2VwaWtfcHl0aG9uJywgJy1waCcsICc3LjAnLCAnLXRuJywgJzgnLCAnLW1hJywgJzIwMCcsICctbWV0YWxfYmluZGluZycsICctaW1hZScsICc8aW5maWxlLm1hZT4nLCAnLW9tYWUnLCAnPG91dGZpbGUubWFlPic=

> <r_epik_Ionization_Penalty>
0.196786

> <r_epik_Ionization_Penalty_Charging>
0.180787

> <r_epik_Ionization_Penalty_Neutral>
0.0159988

> <r_epik_State_Penalty>
0.163322

> <r_epik_Charging_Adjusted_Penalty>
0.344109

> <i_epik_Tot_Q>
2

> <i_epik_Tot_abs_Q>
2

> <r_epik_Metal_State_Penalty>
0.163596

> <b_epik_Metal_Only>
0

> <s_lp_Force_Field>
OPLS_2005

> <r_lp_Energy>
45.3322

> <b_lp_Chiralities_Consistent>
1

> <s_lp_Variant>
AV-unprocessed.smi:2772-2

> <Gold.Version>
5.8.1

> <Gold.Id.Protein>
6NUR|6NUR_protein|mol2

> <Gold.PLP.Fitness>
48.2084

> <Gold.PLP.PLP>
-37.8177

> <Gold.PLP.part.hbond>
-2.2192

> <Gold.PLP.part.metal>
0.0000

> <Gold.PLP.part.buried>
-0.5574

> <Gold.PLP.part.nonpolar>
-35.4958

> <Gold.PLP.part.repulsive>
0.2344

> <Gold.PLP.ligand.clash>
0.0000

> <Gold.PLP.ligand.torsion>
0.4320

> <Gold.PLP.Chemscore.Hbond>
3.7375

> <Gold.PLP.Chemscore.CHOScore>
0.0000

> <Gold.PLP.Chemscore.Metal>
0.0000

> <Gold.Chemscore.Hbonds>
donor molecule, donor type, donor heavy atom, donor atom, acceptor molecule, acceptor atom, score
      L1  H    13    54       P1 10175  2.00
      L1  H    17    55       P1 10174  1.98

> <Gold.PLP.Chemscore.Internal.Correction>
0.0421

> <Gold.Rescore>
     Score         DG    S(hbond)    S(metal)    S(lipo)     H(rot)  DE(clash)    DE(int)     intcor
     19.28     -22.69       1.79        0.00     122.55       1.21       0.62       2.79       ----

> <Gold.Chemscore.Fitness>
19.2845

> <Gold.Chemscore.DG>
-22.6869

> <Gold.Chemscore.ZeroCoef>
-5.4800

> <Gold.Chemscore.Hbond>
1.7856

> <Gold.Chemscore.Metal>
0.0000

> <Gold.Chemscore.Lipo>
122.5510

> <Gold.Chemscore.Internal_Hbond>
0.0000

> <Gold.Chemscore.DEClash>
0.6153

> <Gold.Chemscore.DEInternal>
2.7871

> <Gold.Chemscore.Rot>
1.2092

> <Gold.Chemscore.Internal.Correction>
   9.000000E+99

> <Gold.Chemscore.Hbonds>
donor molecule, donor type, donor heavy atom, donor atom, acceptor molecule, acceptor atom, score
      L1  H    13    54       P1 10175  0.78
      L1  H    17    55       P1 10174  0.91

> <Gold.Chemscore.Hbond.Weighted>
-5.9639

> <Gold.Chemscore.Metal.Weighted>
-0.0000

> <Gold.Chemscore.Lipo.Weighted>
-14.3385

> <Gold.Chemscore.Internal_Hbond.Weighted>
0.0000

> <Gold.Chemscore.DEClash.Weighted>
0.6153

> <Gold.Chemscore.DEInternal.Weighted>
2.7871

> <Gold.Chemscore.Rot.Weighted>
3.0955

> <Gold.Chemscore.Internal.Correction.Weighted>
   9.000000E+99

> <Gold.Protein.RotatedTorsions>
[ 6907 6896 6895 6894 ] final -112.28 input  -60.11 | X-H torsion
[ 7974 7965 7964 7962 ] final  -82.18 input  175.53 | X-H torsion
[ 8008 7997 7996 7995 ] final  126.72 input   59.86 | X-H torsion
[ 10167 10162 10161 10158 ] final   43.30 input  -65.29 | X-H torsion
[ 10718 10713 10712 10709 ] final   24.69 input   66.30 | X-H torsion
[ 10763 10752 10751 10750 ] final  -24.71 input  -60.55 | X-H torsion
[ 11005 11000 10999 10996 ] final -147.17 input  -57.11 | X-H torsion

> <Gold.Protein.ActiveResidues>
 VAL166  LYS551  ARG553  GLY616  TRP617  ASP618  TYR619  PRO620  LYS621  CYS622 
 ASP623  PHE694  ASN695  SER759  ASP760  ASP761  ALA762  ILE779  LEU786  VAL792 
 PHE793  MET794  SER795  GLU796  ALA797  LYS798  CYS799  TRP800  GLU811  SER814 

> <Gold.Protein.RotatedAtoms>
  150.7748  133.9112  159.3369 H   0  0  0  0  0  0  0  0  0  0  0  0  # atno 6907 bound_to 6896
  151.6989  135.0931  160.0257 H   0  0  0  0  0  0  0  0  0  0  0  0  # atno 6908 bound_to 6896
  152.3779  133.6468  159.6174 H   0  0  0  0  0  0  0  0  0  0  0  0  # atno 6909 bound_to 6896
  145.5367  140.9515  143.1573 H   0  0  0  0  0  0  0  0  0  0  0  0  # atno 7974 bound_to 7965
  156.2872  140.2686  156.2157 H   0  0  0  0  0  0  0  0  0  0  0  0  # atno 8008 bound_to 7997
  155.0219  140.0386  157.2458 H   0  0  0  0  0  0  0  0  0  0  0  0  # atno 8009 bound_to 7997
  154.7428  140.2728  155.6363 H   0  0  0  0  0  0  0  0  0  0  0  0  # atno 8010 bound_to 7997
  140.3457  144.2414  150.6150 H   0  0  0  0  0  0  0  0  0  0  0  0  # atno 10167 bound_to 10162
  157.1832  130.6812  149.6121 H   0  0  0  0  0  0  0  0  0  0  0  0  # atno 10718 bound_to 10713
  153.6881  135.6963  153.5098 H   0  0  0  0  0  0  0  0  0  0  0  0  # atno 10763 bound_to 10752
  153.2434  135.4298  155.0721 H   0  0  0  0  0  0  0  0  0  0  0  0  # atno 10764 bound_to 10752
  154.8380  135.3513  154.6423 H   0  0  0  0  0  0  0  0  0  0  0  0  # atno 10765 bound_to 10752
  140.7744  134.3151  157.5065 H   0  0  0  0  0  0  0  0  0  0  0  0  # atno 11005 bound_to 11000
  144.7598  139.6985  143.7239 LP  0  0  0  0  0  0  0  0  0  0  0  0  # atno 17320 bound_to 7965
  146.2008  139.5302  142.9744 LP  0  0  0  0  0  0  0  0  0  0  0  0  # atno 17321 bound_to 7965
  140.5266  143.2253  151.8304 LP  0  0  0  0  0  0  0  0  0  0  0  0  # atno 17342 bound_to 10162
  139.4833  144.4771  151.9353 LP  0  0  0  0  0  0  0  0  0  0  0  0  # atno 17343 bound_to 10162
  155.9721  130.4640  150.6201 LP  0  0  0  0  0  0  0  0  0  0  0  0  # atno 17370 bound_to 10713
  157.3933  131.0799  151.1374 LP  0  0  0  0  0  0  0  0  0  0  0  0  # atno 17371 bound_to 10713
  139.8751  134.9281  156.3441 LP  0  0  0  0  0  0  0  0  0  0  0  0  # atno 17394 bound_to 11000
  140.9542  133.7431  156.0313 LP  0  0  0  0  0  0  0  0  0  0  0  0  # atno 17395 bound_to 11000

$$$$
