AV-unprocessed.smi:2100|AV-procd|sdf|8578|dock1
  -GOLD-   2272011303D 1   1.00000     0.00000
 Structure written by MMmdl.
 40 41  0  0  0  0  0  0  0  0  2 V2000
  151.6181  140.0607  157.2108 C   0  0  0  0  0  0  0  0  0  0  0  0
  151.8199  139.5868  155.7602 C   0  0  1  0  0  0  0  0  0  0  0  0
  151.8573  138.0543  155.6247 C   0  0  0  0  0  0  0  0  0  0  0  0
  150.5078  137.4698  155.7458 N   0  0  0  0  0  0  0  0  0  0  0  0
  150.3883  135.7540  155.9814 S   0  0  0  0  0  0  0  0  0  0  0  0
  149.9029  135.1838  154.7141 O   0  0  0  0  0  0  0  0  0  0  0  0
  151.7096  135.3246  156.4685 O   0  0  0  0  0  0  0  0  0  0  0  0
  149.2418  135.7955  157.1243 N   0  5  0  0  0  0  0  0  0  0  0  0
  149.5349  136.3940  158.4150 C   0  0  0  0  0  0  0  0  0  0  0  0
  148.2305  136.9069  159.0684 C   0  0  0  0  0  0  0  0  0  0  0  0
  147.9059  136.2980  160.4314 C   0  0  0  0  0  0  0  0  0  0  0  0
  147.8508  134.8948  160.5978 C   0  0  0  0  0  0  0  0  0  0  0  0
  147.5470  134.3761  161.8703 C   0  0  0  0  0  0  0  0  0  0  0  0
  147.3205  135.2730  162.9316 C   0  0  0  0  0  0  0  0  0  0  0  0
  147.4080  136.6549  162.6704 C   0  0  0  0  0  0  0  0  0  0  0  0
  147.6975  137.1636  161.4536 N   0  0  0  0  0  0  0  0  0  0  0  0
  149.5329  138.1045  154.8476 C   0  0  0  0  0  0  0  0  0  0  0  0
  149.5387  139.6334  155.0264 C   0  0  2  0  0  0  0  0  0  0  0  0
  148.6378  140.3306  154.0013 C   0  0  0  0  0  0  0  0  0  0  0  0
  150.8581  140.1434  154.8670 O   0  0  0  0  0  0  0  0  0  0  0  0
  152.4467  139.7356  157.8406 H   0  0  0  0  0  0  0  0  0  0  0  0
  150.7055  139.6611  157.6524 H   0  0  0  0  0  0  0  0  0  0  0  0
  151.5698  141.1483  157.2630 H   0  0  0  0  0  0  0  0  0  0  0  0
  152.7879  139.9708  155.4368 H   0  0  0  0  0  0  0  0  0  0  0  0
  152.2646  137.7806  154.6509 H   0  0  0  0  0  0  0  0  0  0  0  0
  152.5316  137.6334  156.3702 H   0  0  0  0  0  0  0  0  0  0  0  0
  150.0038  135.6714  159.0832 H   0  0  0  0  0  0  0  0  0  0  0  0
  150.2392  137.2226  158.3331 H   0  0  0  0  0  0  0  0  0  0  0  0
  148.2679  137.9930  159.1657 H   0  0  0  0  0  0  0  0  0  0  0  0
  147.3957  136.7022  158.3969 H   0  0  0  0  0  0  0  0  0  0  0  0
  148.0214  134.2324  159.7615 H   0  0  0  0  0  0  0  0  0  0  0  0
  147.4877  133.3095  162.0289 H   0  0  0  0  0  0  0  0  0  0  0  0
  147.0846  134.9109  163.9211 H   0  0  0  0  0  0  0  0  0  0  0  0
  147.2419  137.3714  163.4609 H   0  0  0  0  0  0  0  0  0  0  0  0
  149.7756  137.8349  153.8189 H   0  0  0  0  0  0  0  0  0  0  0  0
  148.5337  137.7210  155.0532 H   0  0  0  0  0  0  0  0  0  0  0  0
  149.1678  139.8833  156.0205 H   0  0  0  0  0  0  0  0  0  0  0  0
  147.6055  139.9922  154.0925 H   0  0  0  0  0  0  0  0  0  0  0  0
  148.9687  140.1272  152.9825 H   0  0  0  0  0  0  0  0  0  0  0  0
  148.6472  141.4111  154.1455 H   0  0  0  0  0  0  0  0  0  0  0  0
  1  2  1  0  0  0  0
  1 21  1  0  0  0  0
  1 22  1  0  0  0  0
  1 23  1  0  0  0  0
  2 20  1  0  0  0  0
  2  3  1  0  0  0  0
  2 24  1  0  0  0  0
  3  4  1  0  0  0  0
  3 25  1  0  0  0  0
  3 26  1  0  0  0  0
  4  5  1  0  0  0  0
  4 17  1  0  0  0  0
  5  6  2  0  0  0  0
  5  7  2  0  0  0  0
  5  8  1  0  0  0  0
  8  9  1  0  0  0  0
  9 10  1  0  0  0  0
  9 27  1  0  0  0  0
  9 28  1  0  0  0  0
 10 11  1  0  0  0  0
 10 29  1  0  0  0  0
 10 30  1  0  0  0  0
 11 16  1  0  0  0  0
 11 12  2  0  0  0  0
 12 13  1  0  0  0  0
 12 31  1  0  0  0  0
 13 14  2  0  0  0  0
 13 32  1  0  0  0  0
 14 15  1  0  0  0  0
 14 33  1  0  0  0  0
 15 16  2  0  0  0  0
 15 34  1  0  0  0  0
 17 18  1  0  0  0  0
 17 35  1  0  0  0  0
 17 36  1  0  0  0  0
 18 19  1  0  0  0  0
 18 20  1  0  0  0  0
 18 37  1  0  0  0  0
 19 38  1  0  0  0  0
 19 39  1  0  0  0  0
 19 40  1  0  0  0  0
M  CHG  1   8  -1
M  END
> <s_m_source_file>
AV-unprocessed.smi

> <i_m_source_file_index>
2100

> <i_lp_mmshare_version>
43012

> <i_f3d_flags>
0

> <s_epik_input>
W0NIM11bQ0BASF0xW0NIMl1OKFtDSDJdW0NASF0oTzEpW0NIM10pUyg9TykoPU8pW05IXVtDSDJdW0NIMl1jMltjSF1bY0hdW2NIXVtjSF1uMg==

> <s_epik_cmdline>
J2VwaWtfcHl0aG9uJywgJy1waCcsICc3LjAnLCAnLXRuJywgJzgnLCAnLW1hJywgJzIwMCcsICctbWV0YWxfYmluZGluZycsICctaW1hZScsICc8aW5maWxlLm1hZT4nLCAnLW9tYWUnLCAnPG91dGZpbGUubWFlPic=

> <r_epik_Ionization_Penalty>
1.27779

> <r_epik_Ionization_Penalty_Charging>
1.20871

> <r_epik_Ionization_Penalty_Neutral>
0.0690773

> <r_epik_State_Penalty>
1.64557

> <r_epik_Charging_Adjusted_Penalty>
2.85428

> <i_epik_Tot_Q>
-1

> <i_epik_Tot_abs_Q>
1

> <r_epik_Metal_State_Penalty>
0.643506

> <b_epik_Metal_Only>
0

> <s_lp_Force_Field>
OPLS_2005

> <r_lp_Energy>
10.0642

> <b_lp_Chiralities_Consistent>
1

> <s_lp_Variant>
AV-unprocessed.smi:2100-6

> <Gold.Version>
5.8.1

> <Gold.Id.Protein>
6NUR|6NUR_protein|mol2

> <Gold.PLP.Fitness>
44.7459

> <Gold.PLP.PLP>
-35.5854

> <Gold.PLP.part.hbond>
-4.0000

> <Gold.PLP.part.metal>
0.0000

> <Gold.PLP.part.buried>
-4.5181

> <Gold.PLP.part.nonpolar>
-28.7076

> <Gold.PLP.part.repulsive>
0.8488

> <Gold.PLP.ligand.clash>
0.0000

> <Gold.PLP.ligand.torsion>
1.8983

> <Gold.PLP.Chemscore.Hbond>
3.7840

> <Gold.PLP.Chemscore.CHOScore>
0.0000

> <Gold.PLP.Chemscore.Metal>
0.0000

> <Gold.Chemscore.Hbonds>
donor molecule, donor type, donor heavy atom, donor atom, acceptor molecule, acceptor atom, score
      P1  H  6931  6943       L1    16  0.95
      P1  H  6934  6947       L1    16  0.78
      P1  H  7989  7998       L1    20  1.00
      P1  H 10752 10765       L1     7  1.00

> <Gold.PLP.Chemscore.Internal.Correction>
1.6051

> <Gold.Rescore>
     Score         DG    S(hbond)    S(metal)    S(lipo)     H(rot)  DE(clash)    DE(int)     intcor
     18.82     -20.76       2.85        0.00      81.41       1.47       0.02       1.92       ----

> <Gold.Chemscore.Fitness>
18.8215

> <Gold.Chemscore.DG>
-20.7643

> <Gold.Chemscore.ZeroCoef>
-5.4800

> <Gold.Chemscore.Hbond>
2.8534

> <Gold.Chemscore.Metal>
0.0000

> <Gold.Chemscore.Lipo>
81.4098

> <Gold.Chemscore.Internal_Hbond>
0.0000

> <Gold.Chemscore.DEClash>
0.0210

> <Gold.Chemscore.DEInternal>
1.9218

> <Gold.Chemscore.Rot>
1.4731

> <Gold.Chemscore.Internal.Correction>
   9.000000E+99

> <Gold.Chemscore.Hbonds>
donor molecule, donor type, donor heavy atom, donor atom, acceptor molecule, acceptor atom, score
      P1  H  6931  6943       L1    16  0.20
      P1  H  6934  6947       L1    16  0.71
      P1  H  7989  7998       L1    20  0.78
      P1  H 10752 10765       L1     7  0.86

> <Gold.Chemscore.Hbond.Weighted>
-9.5305

> <Gold.Chemscore.Metal.Weighted>
-0.0000

> <Gold.Chemscore.Lipo.Weighted>
-9.5249

> <Gold.Chemscore.Internal_Hbond.Weighted>
0.0000

> <Gold.Chemscore.DEClash.Weighted>
0.0210

> <Gold.Chemscore.DEInternal.Weighted>
1.9218

> <Gold.Chemscore.Rot.Weighted>
3.7712

> <Gold.Chemscore.Internal.Correction.Weighted>
   9.000000E+99

> <Gold.Protein.RotatedTorsions>
[ 6907 6896 6895 6894 ] final -156.92 input  -60.11 | X-H torsion
[ 7974 7965 7964 7962 ] final  -66.11 input  175.53 | X-H torsion
[ 8008 7997 7996 7995 ] final -129.10 input   59.86 | X-H torsion
[ 10167 10162 10161 10158 ] final  -93.79 input  -65.29 | X-H torsion
[ 10718 10713 10712 10709 ] final   94.54 input   66.30 | X-H torsion
[ 10763 10752 10751 10750 ] final -146.26 input  -60.55 | X-H torsion
[ 11005 11000 10999 10996 ] final   37.45 input  -57.11 | X-H torsion

> <Gold.Protein.ActiveResidues>
 VAL166  LYS551  ARG553  GLY616  TRP617  ASP618  TYR619  PRO620  LYS621  CYS622 
 ASP623  PHE694  ASN695  SER759  ASP760  ASP761  ALA762  ILE779  LEU786  VAL792 
 PHE793  MET794  SER795  GLU796  ALA797  LYS798  CYS799  TRP800  GLU811  SER814 

> <Gold.Protein.RotatedAtoms>
  151.2950  133.4148  159.2635 H   0  0  0  0  0  0  0  0  0  0  0  0  # atno 6907 bound_to 6896
  151.0245  134.9494  159.8088 H   0  0  0  0  0  0  0  0  0  0  0  0  # atno 6908 bound_to 6896
  152.5332  134.2912  159.9096 H   0  0  0  0  0  0  0  0  0  0  0  0  # atno 6909 bound_to 6896
  145.7458  140.8932  143.0506 H   0  0  0  0  0  0  0  0  0  0  0  0  # atno 7974 bound_to 7965
  155.2736  140.0441  157.3009 H   0  0  0  0  0  0  0  0  0  0  0  0  # atno 8008 bound_to 7997
  154.5639  140.2354  155.8262 H   0  0  0  0  0  0  0  0  0  0  0  0  # atno 8009 bound_to 7997
  156.2069  140.3010  155.9654 H   0  0  0  0  0  0  0  0  0  0  0  0  # atno 8010 bound_to 7997
  140.3210  143.3049  152.0046 H   0  0  0  0  0  0  0  0  0  0  0  0  # atno 10167 bound_to 10162
  157.6947  131.0516  150.4202 H   0  0  0  0  0  0  0  0  0  0  0  0  # atno 10718 bound_to 10713
  154.8344  135.3391  154.6634 H   0  0  0  0  0  0  0  0  0  0  0  0  # atno 10763 bound_to 10752
  153.7250  135.6955  153.5008 H   0  0  0  0  0  0  0  0  0  0  0  0  # atno 10764 bound_to 10752
  153.2354  135.4402  155.0593 H   0  0  0  0  0  0  0  0  0  0  0  0  # atno 10765 bound_to 10752
  140.2224  134.3625  155.7999 H   0  0  0  0  0  0  0  0  0  0  0  0  # atno 11005 bound_to 11000
  144.6860  139.9523  143.7478 LP  0  0  0  0  0  0  0  0  0  0  0  0  # atno 17320 bound_to 7965
  146.0404  139.3416  143.0701 LP  0  0  0  0  0  0  0  0  0  0  0  0  # atno 17321 bound_to 7965
  139.4874  144.6310  151.7069 LP  0  0  0  0  0  0  0  0  0  0  0  0  # atno 17342 bound_to 10162
  140.5483  144.0467  150.6116 LP  0  0  0  0  0  0  0  0  0  0  0  0  # atno 17343 bound_to 10162
  156.4578  130.4025  149.6595 LP  0  0  0  0  0  0  0  0  0  0  0  0  # atno 17370 bound_to 10713
  156.3721  130.7536  151.2520 LP  0  0  0  0  0  0  0  0  0  0  0  0  # atno 17371 bound_to 10713
  141.2222  133.7201  156.8598 LP  0  0  0  0  0  0  0  0  0  0  0  0  # atno 17394 bound_to 11000
  140.1835  134.9016  157.2977 LP  0  0  0  0  0  0  0  0  0  0  0  0  # atno 17395 bound_to 11000

$$$$
