AV-unprocessed.smi:83|AV-procd|sdf|804|dock9
  -GOLD-   2262017193D 1   1.00000     0.00000
 Structure written by MMmdl.
 56 59  0  0  0  0  0  0  0  0  1 V2000
  151.6854  145.3697  159.7206 C   0  0  0  0  0  0  0  0  0  0  0  0
  152.1862  144.2263  160.6049 C   0  0  0  0  0  0  0  0  0  0  0  0
  152.2283  144.3904  161.8238 O   0  0  0  0  0  0  0  0  0  0  0  0
  152.5679  143.0751  160.0156 N   0  0  0  0  0  0  0  0  0  0  0  0
  153.0711  141.9147  160.7459 C   0  0  0  0  0  0  0  0  0  0  0  0
  153.4350  140.8834  159.6729 C   0  0  0  0  0  0  0  0  0  0  0  0
  152.5450  141.2427  158.4833 C   0  0  1  0  0  0  0  0  0  0  0  0
  151.1708  140.5408  158.6178 C   0  0  0  0  0  0  0  0  0  0  0  0
  150.4999  140.2778  157.3433 N   0  0  0  0  0  0  0  0  0  0  0  0
  149.1693  140.8550  157.1617 C   0  0  0  0  0  0  0  0  0  0  0  0
  150.8750  139.2291  156.5512 C   0  0  0  0  0  0  0  0  0  0  0  0
  151.7201  139.4795  155.5137 N   0  0  0  0  0  0  0  0  0  0  0  0
  152.0870  138.5101  154.6728 C   0  0  0  0  0  0  0  0  0  0  0  0
  151.7316  137.2263  154.6772 N   0  0  0  0  0  0  0  0  0  0  0  0
  150.8976  136.9520  155.7189 C   0  0  0  0  0  0  0  0  0  0  0  0
  150.4299  137.8767  156.6999 C   0  0  0  0  0  0  0  0  0  0  0  0
  149.6113  137.2032  157.6025 N   0  0  0  0  0  0  0  0  0  0  0  0
  149.5770  135.9740  157.1708 C   0  0  0  0  0  0  0  0  0  0  0  0
  150.3211  135.7362  156.0412 N   0  0  0  0  0  0  0  0  0  0  0  0
  150.4581  134.4677  155.3481 C   0  0  0  0  0  0  0  0  0  0  0  0
  149.1925  134.0920  154.5531 C   0  0  2  0  0  0  0  0  0  0  0  0
  148.0892  134.0262  155.4366 O   0  0  0  0  0  0  0  0  0  0  0  0
  149.3381  132.7387  153.8332 C   0  0  1  0  0  0  0  0  0  0  0  0
  149.7125  131.5725  154.7477 C   0  0  0  0  0  0  0  0  0  0  0  0
  149.2512  130.3861  153.9326 C   0  0  0  0  0  0  0  0  0  0  0  0
  147.9753  130.9164  153.2821 C   0  0  0  0  0  0  0  0  0  0  0  0
  148.0926  132.3374  153.2696 O   0  0  0  0  0  0  0  0  0  0  0  0
  152.4962  142.7756  158.5879 C   0  0  0  0  0  0  0  0  0  0  0  0
  152.4167  145.6120  158.9495 H   0  0  0  0  0  0  0  0  0  0  0  0
  151.5132  146.2677  160.3142 H   0  0  0  0  0  0  0  0  0  0  0  0
  150.7451  145.1022  159.2395 H   0  0  0  0  0  0  0  0  0  0  0  0
  153.9316  142.1672  161.3670 H   0  0  0  0  0  0  0  0  0  0  0  0
  152.2831  141.5314  161.3958 H   0  0  0  0  0  0  0  0  0  0  0  0
  154.4817  141.0080  159.3920 H   0  0  0  0  0  0  0  0  0  0  0  0
  153.3094  139.8558  160.0155 H   0  0  0  0  0  0  0  0  0  0  0  0
  153.0126  140.9361  157.5470 H   0  0  0  0  0  0  0  0  0  0  0  0
  151.3313  139.5728  159.0933 H   0  0  0  0  0  0  0  0  0  0  0  0
  150.5349  141.0695  159.3195 H   0  0  0  0  0  0  0  0  0  0  0  0
  149.0038  141.1313  156.1197 H   0  0  0  0  0  0  0  0  0  0  0  0
  149.0490  141.7564  157.7631 H   0  0  0  0  0  0  0  0  0  0  0  0
  148.3969  140.1461  157.4623 H   0  0  0  0  0  0  0  0  0  0  0  0
  152.7555  138.8083  153.8786 H   0  0  0  0  0  0  0  0  0  0  0  0
  149.0048  135.2035  157.6667 H   0  0  0  0  0  0  0  0  0  0  0  0
  151.3171  134.5421  154.6803 H   0  0  0  0  0  0  0  0  0  0  0  0
  150.6989  133.6920  156.0760 H   0  0  0  0  0  0  0  0  0  0  0  0
  148.9862  134.8702  153.8170 H   0  0  0  0  0  0  0  0  0  0  0  0
  147.3547  133.6550  154.9720 H   0  0  0  0  0  0  0  0  0  0  0  0
  150.0665  132.8128  153.0236 H   0  0  0  0  0  0  0  0  0  0  0  0
  150.7767  131.5392  154.9829 H   0  0  0  0  0  0  0  0  0  0  0  0
  149.1554  131.6222  155.6843 H   0  0  0  0  0  0  0  0  0  0  0  0
  149.9924  130.1509  153.1679 H   0  0  0  0  0  0  0  0  0  0  0  0
  149.0842  129.4913  154.5328 H   0  0  0  0  0  0  0  0  0  0  0  0
  147.8391  130.5240  152.2741 H   0  0  0  0  0  0  0  0  0  0  0  0
  147.0986  130.6464  153.8715 H   0  0  0  0  0  0  0  0  0  0  0  0
  151.6296  143.2106  158.0966 H   0  0  0  0  0  0  0  0  0  0  0  0
  153.3766  143.2073  158.1101 H   0  0  0  0  0  0  0  0  0  0  0  0
  1  2  1  0  0  0  0
  1 29  1  0  0  0  0
  1 30  1  0  0  0  0
  1 31  1  0  0  0  0
  2  3  2  0  0  0  0
  2  4  1  0  0  0  0
  4 28  1  0  0  0  0
  4  5  1  0  0  0  0
  5  6  1  0  0  0  0
  5 32  1  0  0  0  0
  5 33  1  0  0  0  0
  6  7  1  0  0  0  0
  6 34  1  0  0  0  0
  6 35  1  0  0  0  0
  7  8  1  0  0  0  0
  7 28  1  0  0  0  0
  7 36  1  0  0  0  0
  8  9  1  0  0  0  0
  8 37  1  0  0  0  0
  8 38  1  0  0  0  0
  9 10  1  0  0  0  0
  9 11  1  0  0  0  0
 10 39  1  0  0  0  0
 10 40  1  0  0  0  0
 10 41  1  0  0  0  0
 11 16  1  0  0  0  0
 11 12  2  0  0  0  0
 12 13  1  0  0  0  0
 13 14  2  0  0  0  0
 13 42  1  0  0  0  0
 14 15  1  0  0  0  0
 15 19  1  0  0  0  0
 15 16  2  0  0  0  0
 16 17  1  0  0  0  0
 17 18  2  0  0  0  0
 18 19  1  0  0  0  0
 18 43  1  0  0  0  0
 19 20  1  0  0  0  0
 20 21  1  0  0  0  0
 20 44  1  0  0  0  0
 20 45  1  0  0  0  0
 21 22  1  0  0  0  0
 21 23  1  0  0  0  0
 21 46  1  0  0  0  0
 22 47  1  0  0  0  0
 23 27  1  0  0  0  0
 23 24  1  0  0  0  0
 23 48  1  0  0  0  0
 24 25  1  0  0  0  0
 24 49  1  0  0  0  0
 24 50  1  0  0  0  0
 25 26  1  0  0  0  0
 25 51  1  0  0  0  0
 25 52  1  0  0  0  0
 26 27  1  0  0  0  0
 26 53  1  0  0  0  0
 26 54  1  0  0  0  0
 28 55  1  0  0  0  0
 28 56  1  0  0  0  0
M  END
> <s_m_source_file>
AV-unprocessed.smi

> <i_m_source_file_index>
83

> <i_lp_mmshare_version>
43012

> <i_f3d_flags>
0

> <s_epik_input>
W0NIM11DKD1PKU4xW0NIMl1bQ0gyXVtDQEhdKFtDSDJdMSlbQ0gyXU4oW0NIM10pYyhuW2NIXW4yKWMoYzIzKW5bY0hdbjNbQ0gyXVtDQEhdKFtPSF0pW0NAQEhdNFtDSDJdW0NIMl1bQ0gyXU80

> <s_epik_cmdline>
J2VwaWtfcHl0aG9uJywgJy1waCcsICc3LjAnLCAnLXRuJywgJzgnLCAnLW1hJywgJzIwMCcsICctbWV0YWxfYmluZGluZycsICctaW1hZScsICc8aW5maWxlLm1hZT4nLCAnLW9tYWUnLCAnPG91dGZpbGUubWFlPic=

> <r_lp_tautomer_probability>
1

> <r_epik_Ionization_Penalty>
0.00109752

> <r_epik_Ionization_Penalty_Charging>
0

> <r_epik_Ionization_Penalty_Neutral>
0.00109752

> <r_epik_State_Penalty>
0.000634803

> <r_epik_Charging_Adjusted_Penalty>
0.000634803

> <i_epik_Tot_Q>
0

> <i_epik_Tot_abs_Q>
0

> <r_epik_Metal_State_Penalty>
-0

> <b_epik_Metal_Only>
0

> <s_lp_Force_Field>
OPLS_2005

> <r_lp_Energy>
53.0153

> <b_lp_Chiralities_Consistent>
1

> <s_lp_Variant>
AV-unprocessed.smi:83-5

> <Gold.Version>
5.8.1

> <Gold.Id.Protein>
6NUR|6NUR_protein|mol2

> <Gold.PLP.Fitness>
48.9927

> <Gold.PLP.PLP>
-49.8539

> <Gold.PLP.part.hbond>
-1.0000

> <Gold.PLP.part.metal>
0.0000

> <Gold.PLP.part.buried>
-8.4468

> <Gold.PLP.part.nonpolar>
-41.5652

> <Gold.PLP.part.repulsive>
1.0652

> <Gold.PLP.ligand.clash>
0.0000

> <Gold.PLP.ligand.torsion>
2.1803

> <Gold.PLP.Chemscore.Hbond>
1.0000

> <Gold.PLP.Chemscore.CHOScore>
0.0000

> <Gold.PLP.Chemscore.Metal>
0.0000

> <Gold.Chemscore.Hbonds>
donor molecule, donor type, donor heavy atom, donor atom, acceptor molecule, acceptor atom, score
      P1  H 10752 10765       L1    14  1.00

> <Gold.PLP.Chemscore.Internal.Correction>
0.4995

> <Gold.Rescore>
     Score         DG    S(hbond)    S(metal)    S(lipo)     H(rot)  DE(clash)    DE(int)     intcor
      9.73     -12.97       0.92        0.00      94.89       2.62       0.31       2.93       ----

> <Gold.Chemscore.Fitness>
9.7299

> <Gold.Chemscore.DG>
-12.9657

> <Gold.Chemscore.ZeroCoef>
-5.4800

> <Gold.Chemscore.Hbond>
0.9215

> <Gold.Chemscore.Metal>
0.0000

> <Gold.Chemscore.Lipo>
94.8941

> <Gold.Chemscore.Internal_Hbond>
0.0000

> <Gold.Chemscore.DEClash>
0.3067

> <Gold.Chemscore.DEInternal>
2.9290

> <Gold.Chemscore.Rot>
2.6152

> <Gold.Chemscore.Internal.Correction>
   9.000000E+99

> <Gold.Chemscore.Hbonds>
donor molecule, donor type, donor heavy atom, donor atom, acceptor molecule, acceptor atom, score
      P1  H 10752 10765       L1    14  0.56

> <Gold.Chemscore.Hbond.Weighted>
-3.0780

> <Gold.Chemscore.Metal.Weighted>
-0.0000

> <Gold.Chemscore.Lipo.Weighted>
-11.1026

> <Gold.Chemscore.Internal_Hbond.Weighted>
0.0000

> <Gold.Chemscore.DEClash.Weighted>
0.3067

> <Gold.Chemscore.DEInternal.Weighted>
2.9290

> <Gold.Chemscore.Rot.Weighted>
6.6949

> <Gold.Chemscore.Internal.Correction.Weighted>
   9.000000E+99

> <Gold.Protein.RotatedTorsions>
[ 6907 6896 6895 6894 ] final -159.57 input  -60.11 | X-H torsion
[ 7974 7965 7964 7962 ] final  -84.17 input  175.53 | X-H torsion
[ 8008 7997 7996 7995 ] final -160.58 input   59.86 | X-H torsion
[ 10167 10162 10161 10158 ] final   71.53 input  -65.29 | X-H torsion
[ 10718 10713 10712 10709 ] final -146.32 input   66.30 | X-H torsion
[ 10763 10752 10751 10750 ] final  172.55 input  -60.55 | X-H torsion
[ 11005 11000 10999 10996 ] final  156.20 input  -57.11 | X-H torsion

> <Gold.Protein.ActiveResidues>
 VAL166  LYS551  ARG553  GLY616  TRP617  ASP618  TYR619  PRO620  LYS621  CYS622 
 ASP623  PHE694  ASN695  SER759  ASP760  ASP761  ALA762  ILE779  LEU786  VAL792 
 PHE793  MET794  SER795  GLU796  ALA797  LYS798  CYS799  TRP800  GLU811  SER814 

> <Gold.Protein.RotatedAtoms>
  151.3357  133.3982  159.2666 H   0  0  0  0  0  0  0  0  0  0  0  0  # atno 6907 bound_to 6896
  150.9919  134.9252  159.7915 H   0  0  0  0  0  0  0  0  0  0  0  0  # atno 6908 bound_to 6896
  152.5250  134.3322  159.9239 H   0  0  0  0  0  0  0  0  0  0  0  0  # atno 6909 bound_to 6896
  145.5102  140.9540  143.1711 H   0  0  0  0  0  0  0  0  0  0  0  0  # atno 7974 bound_to 7965
  155.7795  140.0863  157.2066 H   0  0  0  0  0  0  0  0  0  0  0  0  # atno 8008 bound_to 7997
  154.3991  140.1510  156.3093 H   0  0  0  0  0  0  0  0  0  0  0  0  # atno 8009 bound_to 7997
  155.8667  140.3427  155.5796 H   0  0  0  0  0  0  0  0  0  0  0  0  # atno 8010 bound_to 7997
  140.0451  144.5357  150.7404 H   0  0  0  0  0  0  0  0  0  0  0  0  # atno 10167 bound_to 10162
  156.3934  130.7897  151.2101 H   0  0  0  0  0  0  0  0  0  0  0  0  # atno 10718 bound_to 10713
  154.4277  135.2759  155.1933 H   0  0  0  0  0  0  0  0  0  0  0  0  # atno 10763 bound_to 10752
  154.3853  135.6078  153.5816 H   0  0  0  0  0  0  0  0  0  0  0  0  # atno 10764 bound_to 10752
  152.9835  135.5890  154.4583 H   0  0  0  0  0  0  0  0  0  0  0  0  # atno 10765 bound_to 10752
  140.1652  134.8581  157.2624 H   0  0  0  0  0  0  0  0  0  0  0  0  # atno 11005 bound_to 11000
  144.7731  139.6689  143.7186 LP  0  0  0  0  0  0  0  0  0  0  0  0  # atno 17320 bound_to 7965
  146.2171  139.5569  142.9643 LP  0  0  0  0  0  0  0  0  0  0  0  0  # atno 17321 bound_to 7965
  140.7242  143.2619  151.4176 LP  0  0  0  0  0  0  0  0  0  0  0  0  # atno 17342 bound_to 10162
  139.5988  144.1339  152.2175 LP  0  0  0  0  0  0  0  0  0  0  0  0  # atno 17343 bound_to 10162
  157.7500  131.0309  150.4156 LP  0  0  0  0  0  0  0  0  0  0  0  0  # atno 17370 bound_to 10713
  156.4422  130.3994  149.6690 LP  0  0  0  0  0  0  0  0  0  0  0  0  # atno 17371 bound_to 10713
  140.2442  134.3760  155.7468 LP  0  0  0  0  0  0  0  0  0  0  0  0  # atno 17394 bound_to 11000
  141.2213  133.7281  156.8835 LP  0  0  0  0  0  0  0  0  0  0  0  0  # atno 17395 bound_to 11000

$$$$
