AV-unprocessed.smi:942|AV-procd|sdf|4228|dock8
  -GOLD-   22720 2133D 1   1.00000     0.00000
 Structure written by MMmdl.
 42 44  0  0  0  0  0  0  0  0  1 V2000
  152.7954  140.4344  157.9683 O   0  0  0  0  0  0  0  0  0  0  0  0
  151.7660  141.0139  157.6214 C   0  0  0  0  0  0  0  0  0  0  0  0
  151.5362  142.3135  157.8627 N   0  0  0  0  0  0  0  0  0  0  0  0
  152.4409  143.2137  158.5718 C   0  0  1  0  0  0  0  0  0  0  0  0
  152.2227  144.6830  158.1533 C   0  0  0  0  0  0  0  0  0  0  0  0
  151.6288  145.3940  159.3712 C   0  0  0  0  0  0  0  0  0  0  0  0
  152.1824  144.6227  160.5651 C   0  0  0  0  0  0  0  0  0  0  0  0
  152.1703  143.1650  160.0921 C   0  0  2  0  0  0  0  0  0  0  0  0
  153.1013  142.3154  160.8184 N   0  0  0  0  0  0  0  0  0  0  0  0
  153.9413  141.3355  160.3014 C   0  0  0  0  0  0  0  0  0  0  0  0
  154.6262  140.7988  161.3678 C   0  0  0  0  0  0  0  0  0  0  0  0
  154.2256  141.4259  162.5448 N   0  0  0  0  0  0  0  0  0  0  0  0
  153.3217  142.3091  162.1406 C   0  0  0  0  0  0  0  0  0  0  0  0
  150.6618  140.2556  156.8730 C   0  0  0  0  0  0  0  0  0  0  0  0
  150.1861  139.0267  157.6767 C   0  0  0  0  0  0  0  0  0  0  0  0
  149.0791  138.2659  156.9282 C   0  0  0  0  0  0  0  0  0  0  0  0
  149.5392  137.8530  155.5208 C   0  0  0  0  0  0  0  0  0  0  0  0
  150.0313  139.0667  154.7163 C   0  0  0  0  0  0  0  0  0  0  0  0
  151.1372  139.8245  155.4696 C   0  0  0  0  0  0  0  0  0  0  0  0
  150.6653  142.7073  157.5369 H   0  0  0  0  0  0  0  0  0  0  0  0
  153.4739  142.9339  158.3550 H   0  0  0  0  0  0  0  0  0  0  0  0
  153.1870  145.1310  157.9102 H   0  0  0  0  0  0  0  0  0  0  0  0
  151.5897  144.7955  157.2720 H   0  0  0  0  0  0  0  0  0  0  0  0
  151.8803  146.4546  159.4023 H   0  0  0  0  0  0  0  0  0  0  0  0
  150.5413  145.3089  159.3520 H   0  0  0  0  0  0  0  0  0  0  0  0
  153.1996  144.9590  160.7702 H   0  0  0  0  0  0  0  0  0  0  0  0
  151.5933  144.7732  161.4704 H   0  0  0  0  0  0  0  0  0  0  0  0
  151.1622  142.7820  160.2642 H   0  0  0  0  0  0  0  0  0  0  0  0
  153.9807  141.1061  159.2466 H   0  0  0  0  0  0  0  0  0  0  0  0
  155.3691  140.0149  161.3787 H   0  0  0  0  0  0  0  0  0  0  0  0
  152.8076  142.9680  162.8251 H   0  0  0  0  0  0  0  0  0  0  0  0
  149.8106  140.9280  156.7498 H   0  0  0  0  0  0  0  0  0  0  0  0
  151.0223  138.3506  157.8628 H   0  0  0  0  0  0  0  0  0  0  0  0
  149.8171  139.3371  158.6551 H   0  0  0  0  0  0  0  0  0  0  0  0
  148.7848  137.3833  157.4968 H   0  0  0  0  0  0  0  0  0  0  0  0
  148.1912  138.8949  156.8524 H   0  0  0  0  0  0  0  0  0  0  0  0
  150.3415  137.1182  155.6003 H   0  0  0  0  0  0  0  0  0  0  0  0
  148.7220  137.3626  154.9913 H   0  0  0  0  0  0  0  0  0  0  0  0
  150.3990  138.7425  153.7423 H   0  0  0  0  0  0  0  0  0  0  0  0
  149.1952  139.7396  154.5222 H   0  0  0  0  0  0  0  0  0  0  0  0
  151.4391  140.6981  154.8902 H   0  0  0  0  0  0  0  0  0  0  0  0
  152.0195  139.1869  155.5491 H   0  0  0  0  0  0  0  0  0  0  0  0
  1  2  2  0  0  0  0
  2  3  1  0  0  0  0
  2 14  1  0  0  0  0
  3  4  1  0  0  0  0
  3 20  1  0  0  0  0
  4  8  1  0  0  0  0
  4  5  1  0  0  0  0
  4 21  1  0  0  0  0
  5  6  1  0  0  0  0
  5 22  1  0  0  0  0
  5 23  1  0  0  0  0
  6  7  1  0  0  0  0
  6 24  1  0  0  0  0
  6 25  1  0  0  0  0
  7  8  1  0  0  0  0
  7 26  1  0  0  0  0
  7 27  1  0  0  0  0
  8  9  1  0  0  0  0
  8 28  1  0  0  0  0
  9 13  1  0  0  0  0
  9 10  1  0  0  0  0
 10 11  2  0  0  0  0
 10 29  1  0  0  0  0
 11 12  1  0  0  0  0
 11 30  1  0  0  0  0
 12 13  2  0  0  0  0
 13 31  1  0  0  0  0
 14 19  1  0  0  0  0
 14 15  1  0  0  0  0
 14 32  1  0  0  0  0
 15 16  1  0  0  0  0
 15 33  1  0  0  0  0
 15 34  1  0  0  0  0
 16 17  1  0  0  0  0
 16 35  1  0  0  0  0
 16 36  1  0  0  0  0
 17 18  1  0  0  0  0
 17 37  1  0  0  0  0
 17 38  1  0  0  0  0
 18 19  1  0  0  0  0
 18 39  1  0  0  0  0
 18 40  1  0  0  0  0
 19 41  1  0  0  0  0
 19 42  1  0  0  0  0
M  END
> <s_m_source_file>
AV-unprocessed.smi

> <i_m_source_file_index>
942

> <i_lp_mmshare_version>
43012

> <i_f3d_flags>
0

> <s_epik_input>
W0NIMl0xW0NIMl1bQ0gyXVtDSDJdW0NIMl1bQ0hdMUMoPU8pW05IXVtDQEBIXTJbQ0gyXVtDSDJdW0NIMl1bQ0BIXTJuM1tjSF1bY0hdbltjSF0z

> <s_epik_cmdline>
J2VwaWtfcHl0aG9uJywgJy1waCcsICc3LjAnLCAnLXRuJywgJzgnLCAnLW1hJywgJzIwMCcsICctbWV0YWxfYmluZGluZycsICctaW1hZScsICc8aW5maWxlLm1hZT4nLCAnLW9tYWUnLCAnPG91dGZpbGUubWFlPic=

> <r_lp_tautomer_probability>
1

> <r_epik_Ionization_Penalty>
0.778458

> <r_epik_Ionization_Penalty_Charging>
0.778458

> <r_epik_Ionization_Penalty_Neutral>
2.79355e-08

> <r_epik_State_Penalty>
0.807804

> <r_epik_Charging_Adjusted_Penalty>
1.58626

> <i_epik_Tot_Q>
0

> <i_epik_Tot_abs_Q>
0

> <r_epik_Metal_State_Penalty>
0.343007

> <b_epik_Metal_Only>
0

> <s_lp_Force_Field>
OPLS_2005

> <r_lp_Energy>
31.6658

> <b_lp_Chiralities_Consistent>
1

> <s_lp_Variant>
AV-unprocessed.smi:942-8

> <Gold.Version>
5.8.1

> <Gold.Id.Protein>
6NUR|6NUR_protein|mol2

> <Gold.PLP.Fitness>
47.1521

> <Gold.PLP.PLP>
-46.3170

> <Gold.PLP.part.hbond>
-2.0000

> <Gold.PLP.part.metal>
0.0000

> <Gold.PLP.part.buried>
-3.4006

> <Gold.PLP.part.nonpolar>
-40.3758

> <Gold.PLP.part.repulsive>
0.0488

> <Gold.PLP.ligand.clash>
0.0000

> <Gold.PLP.ligand.torsion>
0.8862

> <Gold.PLP.Chemscore.Hbond>
0.8640

> <Gold.PLP.Chemscore.CHOScore>
0.0000

> <Gold.PLP.Chemscore.Metal>
0.0000

> <Gold.Chemscore.Hbonds>
donor molecule, donor type, donor heavy atom, donor atom, acceptor molecule, acceptor atom, score
      P1  H  7997  8009       L1     1  0.86

> <Gold.PLP.Chemscore.Internal.Correction>
0.0155

> <Gold.Rescore>
     Score         DG    S(hbond)    S(metal)    S(lipo)     H(rot)  DE(clash)    DE(int)     intcor
     15.55     -17.38       0.97        0.00     105.61       1.44       0.05       1.77       ----

> <Gold.Chemscore.Fitness>
15.5523

> <Gold.Chemscore.DG>
-17.3806

> <Gold.Chemscore.ZeroCoef>
-5.4800

> <Gold.Chemscore.Hbond>
0.9669

> <Gold.Chemscore.Metal>
0.0000

> <Gold.Chemscore.Lipo>
105.6104

> <Gold.Chemscore.Internal_Hbond>
0.0000

> <Gold.Chemscore.DEClash>
0.0545

> <Gold.Chemscore.DEInternal>
1.7738

> <Gold.Chemscore.Rot>
1.4395

> <Gold.Chemscore.Internal.Correction>
   9.000000E+99

> <Gold.Chemscore.Hbonds>
donor molecule, donor type, donor heavy atom, donor atom, acceptor molecule, acceptor atom, score
      P1  H  7997  8009       L1     1  0.78

> <Gold.Chemscore.Hbond.Weighted>
-3.2294

> <Gold.Chemscore.Metal.Weighted>
-0.0000

> <Gold.Chemscore.Lipo.Weighted>
-12.3564

> <Gold.Chemscore.Internal_Hbond.Weighted>
0.0000

> <Gold.Chemscore.DEClash.Weighted>
0.0545

> <Gold.Chemscore.DEInternal.Weighted>
1.7738

> <Gold.Chemscore.Rot.Weighted>
3.6852

> <Gold.Chemscore.Internal.Correction.Weighted>
   9.000000E+99

> <Gold.Protein.RotatedTorsions>
[ 6907 6896 6895 6894 ] final -141.47 input  -60.11 | X-H torsion
[ 7974 7965 7964 7962 ] final   58.16 input  175.53 | X-H torsion
[ 8008 7997 7996 7995 ] final  166.74 input   59.86 | X-H torsion
[ 10167 10162 10161 10158 ] final  138.74 input  -65.29 | X-H torsion
[ 10718 10713 10712 10709 ] final   16.72 input   66.30 | X-H torsion
[ 10763 10752 10751 10750 ] final -140.76 input  -60.55 | X-H torsion
[ 11005 11000 10999 10996 ] final  -94.50 input  -57.11 | X-H torsion

> <Gold.Protein.ActiveResidues>
 VAL166  LYS551  ARG553  GLY616  TRP617  ASP618  TYR619  PRO620  LYS621  CYS622 
 ASP623  PHE694  ASN695  SER759  ASP760  ASP761  ALA762  ILE779  LEU786  VAL792 
 PHE793  MET794  SER795  GLU796  ALA797  LYS798  CYS799  TRP800  GLU811  SER814 

> <Gold.Protein.RotatedAtoms>
  151.0742  133.5442  159.2624 H   0  0  0  0  0  0  0  0  0  0  0  0  # atno 6907 bound_to 6896
  151.2369  135.0574  159.9020 H   0  0  0  0  0  0  0  0  0  0  0  0  # atno 6908 bound_to 6896
  152.5415  134.0523  159.8169 H   0  0  0  0  0  0  0  0  0  0  0  0  # atno 6909 bound_to 6896
  145.9212  139.3731  143.0477 H   0  0  0  0  0  0  0  0  0  0  0  0  # atno 7974 bound_to 7965
  156.1693  140.1635  156.8476 H   0  0  0  0  0  0  0  0  0  0  0  0  # atno 8008 bound_to 7997
  154.5240  140.0772  156.8258 H   0  0  0  0  0  0  0  0  0  0  0  0  # atno 8009 bound_to 7997
  155.3547  140.3392  155.4242 H   0  0  0  0  0  0  0  0  0  0  0  0  # atno 8010 bound_to 7997
  139.5101  144.6336  151.5755 H   0  0  0  0  0  0  0  0  0  0  0  0  # atno 10167 bound_to 10162
  157.0719  130.6352  149.5807 H   0  0  0  0  0  0  0  0  0  0  0  0  # atno 10718 bound_to 10713
  154.8568  135.3544  154.5759 H   0  0  0  0  0  0  0  0  0  0  0  0  # atno 10763 bound_to 10752
  153.6370  135.7000  153.5259 H   0  0  0  0  0  0  0  0  0  0  0  0  # atno 10764 bound_to 10752
  153.3002  135.4208  155.1205 H   0  0  0  0  0  0  0  0  0  0  0  0  # atno 10765 bound_to 10752
  141.1468  133.7961  157.0307 H   0  0  0  0  0  0  0  0  0  0  0  0  # atno 11005 bound_to 11000
  145.8547  140.9509  143.0731 LP  0  0  0  0  0  0  0  0  0  0  0  0  # atno 17320 bound_to 7965
  144.6753  140.0453  143.7480 LP  0  0  0  0  0  0  0  0  0  0  0  0  # atno 17321 bound_to 7965
  140.6077  143.9494  150.6430 LP  0  0  0  0  0  0  0  0  0  0  0  0  # atno 17342 bound_to 10162
  140.2726  143.3445  152.1224 LP  0  0  0  0  0  0  0  0  0  0  0  0  # atno 17343 bound_to 10162
  155.9948  130.5013  150.7434 LP  0  0  0  0  0  0  0  0  0  0  0  0  # atno 17370 bound_to 10713
  157.4871  131.0907  151.0470 LP  0  0  0  0  0  0  0  0  0  0  0  0  # atno 17371 bound_to 10713
  140.0756  134.9677  157.1540 LP  0  0  0  0  0  0  0  0  0  0  0  0  # atno 17394 bound_to 11000
  140.3649  134.2454  155.7183 LP  0  0  0  0  0  0  0  0  0  0  0  0  # atno 17395 bound_to 11000

$$$$
