AV-unprocessed.smi:1330|AV-procd|sdf|5486|dock2
  -GOLD-   22720 5 63D 1   1.00000     0.00000
 Structure written by MMmdl.
 42 43  0  0  0  0  0  0  0  0  1 V2000
  148.0251  133.6826  153.9059 C   0  0  0  0  0  0  0  0  0  0  0  0
  149.2741  133.9793  154.6911 C   0  0  0  0  0  0  0  0  0  0  0  0
  149.4681  135.2114  155.0304 N   0  0  0  0  0  0  0  0  0  0  0  0
  150.5835  135.5923  155.7495 N   0  0  0  0  0  0  0  0  0  0  0  0
  150.6488  137.0323  156.0291 C   0  0  0  0  0  0  0  0  0  0  0  0
  151.1393  137.8366  154.8045 C   0  0  1  0  0  0  0  0  0  0  0  0
  150.4658  137.3397  153.6643 O   0  0  0  0  0  0  0  0  0  0  0  0
  150.7961  139.3311  154.9210 C   0  0  0  0  0  0  0  0  0  0  0  0
  151.1201  139.7750  156.2283 O   0  0  0  0  0  0  0  0  0  0  0  0
  150.9910  141.1775  156.3842 C   0  0  0  0  0  0  0  0  0  0  0  0
  151.5424  141.6308  157.7204 C   0  0  0  0  0  0  0  0  0  0  0  0
  152.1907  140.7112  158.5712 C   0  0  0  0  0  0  0  0  0  0  0  0
  152.7104  141.1381  159.8090 C   0  0  0  0  0  0  0  0  0  0  0  0
  152.5842  142.4857  160.1996 C   0  0  0  0  0  0  0  0  0  0  0  0
  153.2221  143.0083  161.7152 Cl  0  0  0  0  0  0  0  0  0  0  0  0
  151.9382  143.4064  159.3513 C   0  0  0  0  0  0  0  0  0  0  0  0
  151.4186  142.9797  158.1134 C   0  0  0  0  0  0  0  0  0  0  0  0
  151.5648  134.7429  156.1689 C   0  0  0  0  0  0  0  0  0  0  0  0
  152.5464  135.1277  156.8059 O   0  0  0  0  0  0  0  0  0  0  0  0
  151.3383  133.3483  155.7829 C   0  0  0  0  0  0  0  0  0  0  0  0
  152.3440  132.4252  156.1999 C   0  0  0  0  0  0  0  0  0  0  0  0
  153.1605  131.6862  156.5568 N   0  0  0  0  0  0  0  0  0  0  0  0
  150.2480  132.9620  155.0739 C   0  0  0  0  0  0  0  0  0  0  0  0
  149.9677  131.5283  154.6454 C   0  0  0  0  0  0  0  0  0  0  0  0
  147.3840  132.9869  154.4473 H   0  0  0  0  0  0  0  0  0  0  0  0
  148.2705  133.2370  152.9419 H   0  0  0  0  0  0  0  0  0  0  0  0
  147.4421  134.5842  153.7118 H   0  0  0  0  0  0  0  0  0  0  0  0
  149.6832  137.4088  156.3736 H   0  0  0  0  0  0  0  0  0  0  0  0
  151.3231  137.1894  156.8729 H   0  0  0  0  0  0  0  0  0  0  0  0
  152.2168  137.7227  154.6789 H   0  0  0  0  0  0  0  0  0  0  0  0
  151.1114  137.0995  153.0173 H   0  0  0  0  0  0  0  0  0  0  0  0
  151.3116  139.9186  154.1589 H   0  0  0  0  0  0  0  0  0  0  0  0
  149.7250  139.4775  154.7721 H   0  0  0  0  0  0  0  0  0  0  0  0
  151.5269  141.6930  155.5855 H   0  0  0  0  0  0  0  0  0  0  0  0
  149.9422  141.4687  156.3063 H   0  0  0  0  0  0  0  0  0  0  0  0
  152.2946  139.6774  158.2759 H   0  0  0  0  0  0  0  0  0  0  0  0
  153.2070  140.4306  160.4568 H   0  0  0  0  0  0  0  0  0  0  0  0
  151.8413  144.4404  159.6479 H   0  0  0  0  0  0  0  0  0  0  0  0
  150.9276  143.6907  157.4648 H   0  0  0  0  0  0  0  0  0  0  0  0
  150.7357  130.8365  154.9901 H   0  0  0  0  0  0  0  0  0  0  0  0
  149.9250  131.4558  153.5582 H   0  0  0  0  0  0  0  0  0  0  0  0
  149.0149  131.1865  155.0509 H   0  0  0  0  0  0  0  0  0  0  0  0
  1  2  1  0  0  0  0
  1 25  1  0  0  0  0
  1 26  1  0  0  0  0
  1 27  1  0  0  0  0
  2 23  1  0  0  0  0
  2  3  2  0  0  0  0
  3  4  1  0  0  0  0
  4  5  1  0  0  0  0
  4 18  1  0  0  0  0
  5  6  1  0  0  0  0
  5 28  1  0  0  0  0
  5 29  1  0  0  0  0
  6  7  1  0  0  0  0
  6  8  1  0  0  0  0
  6 30  1  0  0  0  0
  7 31  1  0  0  0  0
  8  9  1  0  0  0  0
  8 32  1  0  0  0  0
  8 33  1  0  0  0  0
  9 10  1  0  0  0  0
 10 11  1  0  0  0  0
 10 34  1  0  0  0  0
 10 35  1  0  0  0  0
 11 17  1  0  0  0  0
 11 12  2  0  0  0  0
 12 13  1  0  0  0  0
 12 36  1  0  0  0  0
 13 14  2  0  0  0  0
 13 37  1  0  0  0  0
 14 15  1  0  0  0  0
 14 16  1  0  0  0  0
 16 17  2  0  0  0  0
 16 38  1  0  0  0  0
 17 39  1  0  0  0  0
 18 19  2  0  0  0  0
 18 20  1  0  0  0  0
 20 21  1  0  0  0  0
 20 23  2  0  0  0  0
 21 22  3  0  0  0  0
 23 24  1  0  0  0  0
 24 40  1  0  0  0  0
 24 41  1  0  0  0  0
 24 42  1  0  0  0  0
M  END
> <s_m_source_file>
AV-unprocessed.smi

> <i_m_source_file_index>
1330

> <i_lp_mmshare_version>
43012

> <i_f3d_flags>
0

> <s_epik_input>
TiNDYyhjMVtDSDNdKWMoPU8pbihuYzFbQ0gzXSlbQ0gyXVtDQEhdKFtPSF0pW0NIMl1PW0NIMl1jMltjSF1bY0hdYyhDbClbY0hdW2NIXTI=

> <s_epik_cmdline>
J2VwaWtfcHl0aG9uJywgJy1waCcsICc3LjAnLCAnLXRuJywgJzgnLCAnLW1hJywgJzIwMCcsICctbWV0YWxfYmluZGluZycsICctaW1hZScsICc8aW5maWxlLm1hZT4nLCAnLW9tYWUnLCAnPG91dGZpbGUubWFlPic=

> <r_lp_tautomer_probability>
1

> <r_epik_Ionization_Penalty>
6.27695e-08

> <r_epik_Ionization_Penalty_Charging>
2.19172e-10

> <r_epik_Ionization_Penalty_Neutral>
6.25504e-08

> <r_epik_State_Penalty>
-0

> <r_epik_Charging_Adjusted_Penalty>
2.19172e-10

> <i_epik_Tot_Q>
0

> <i_epik_Tot_abs_Q>
0

> <r_epik_Metal_State_Penalty>
-0

> <b_epik_Metal_Only>
0

> <s_lp_Force_Field>
OPLS_2005

> <r_lp_Energy>
31.5646

> <b_lp_Chiralities_Consistent>
1

> <s_lp_Variant>
AV-unprocessed.smi:1330-2

> <Gold.Version>
5.8.1

> <Gold.Id.Protein>
6NUR|6NUR_protein|mol2

> <Gold.PLP.Fitness>
47.5427

> <Gold.PLP.PLP>
-44.0440

> <Gold.PLP.part.hbond>
-3.3778

> <Gold.PLP.part.metal>
0.0000

> <Gold.PLP.part.buried>
-3.1698

> <Gold.PLP.part.nonpolar>
-35.4289

> <Gold.PLP.part.repulsive>
0.1495

> <Gold.PLP.ligand.clash>
0.0000

> <Gold.PLP.ligand.torsion>
0.5778

> <Gold.PLP.Chemscore.Hbond>
1.4762

> <Gold.PLP.Chemscore.CHOScore>
0.0000

> <Gold.PLP.Chemscore.Metal>
0.0000

> <Gold.Chemscore.Hbonds>
donor molecule, donor type, donor heavy atom, donor atom, acceptor molecule, acceptor atom, score
      L1  H     7    31       P1  7949  0.72
      P1  H 10752 10765       L1    19  0.75

> <Gold.PLP.Chemscore.Internal.Correction>
0.2257

> <Gold.Rescore>
     Score         DG    S(hbond)    S(metal)    S(lipo)     H(rot)  DE(clash)    DE(int)     intcor
     13.70     -14.59       0.39        0.00     120.80       2.48       0.29       0.59       ----

> <Gold.Chemscore.Fitness>
13.7021

> <Gold.Chemscore.DG>
-14.5872

> <Gold.Chemscore.ZeroCoef>
-5.4800

> <Gold.Chemscore.Hbond>
0.3940

> <Gold.Chemscore.Metal>
0.0000

> <Gold.Chemscore.Lipo>
120.8045

> <Gold.Chemscore.Internal_Hbond>
0.0000

> <Gold.Chemscore.DEClash>
0.2942

> <Gold.Chemscore.DEInternal>
0.5909

> <Gold.Chemscore.Rot>
2.4777

> <Gold.Chemscore.Internal.Correction>
   9.000000E+99

> <Gold.Chemscore.Hbonds>
donor molecule, donor type, donor heavy atom, donor atom, acceptor molecule, acceptor atom, score
      L1  H     7    31       P1  7949  0.32
      P1  H 10752 10765       L1    19  0.09

> <Gold.Chemscore.Hbond.Weighted>
-1.3159

> <Gold.Chemscore.Metal.Weighted>
-0.0000

> <Gold.Chemscore.Lipo.Weighted>
-14.1341

> <Gold.Chemscore.Internal_Hbond.Weighted>
0.0000

> <Gold.Chemscore.DEClash.Weighted>
0.2942

> <Gold.Chemscore.DEInternal.Weighted>
0.5909

> <Gold.Chemscore.Rot.Weighted>
6.3428

> <Gold.Chemscore.Internal.Correction.Weighted>
   9.000000E+99

> <Gold.Protein.RotatedTorsions>
[ 6907 6896 6895 6894 ] final   52.20 input  -60.11 | X-H torsion
[ 7974 7965 7964 7962 ] final -174.07 input  175.53 | X-H torsion
[ 8008 7997 7996 7995 ] final   54.18 input   59.86 | X-H torsion
[ 10167 10162 10161 10158 ] final   24.91 input  -65.29 | X-H torsion
[ 10718 10713 10712 10709 ] final   28.39 input   66.30 | X-H torsion
[ 10763 10752 10751 10750 ] final -117.67 input  -60.55 | X-H torsion
[ 11005 11000 10999 10996 ] final   18.08 input  -57.11 | X-H torsion

> <Gold.Protein.ActiveResidues>
 VAL166  LYS551  ARG553  GLY616  TRP617  ASP618  TYR619  PRO620  LYS621  CYS622 
 ASP623  PHE694  ASN695  SER759  ASP760  ASP761  ALA762  ILE779  LEU786  VAL792 
 PHE793  MET794  SER795  GLU796  ALA797  LYS798  CYS799  TRP800  GLU811  SER814 

> <Gold.Protein.RotatedAtoms>
  152.3207  134.7383  160.0314 H   0  0  0  0  0  0  0  0  0  0  0  0  # atno 6907 bound_to 6896
  151.7833  133.3346  159.3486 H   0  0  0  0  0  0  0  0  0  0  0  0  # atno 6908 bound_to 6896
  150.7368  134.5842  159.5998 H   0  0  0  0  0  0  0  0  0  0  0  0  # atno 6909 bound_to 6896
  144.7134  140.1527  143.6383 H   0  0  0  0  0  0  0  0  0  0  0  0  # atno 7974 bound_to 7965
  155.4804  140.3468  155.4339 H   0  0  0  0  0  0  0  0  0  0  0  0  # atno 8008 bound_to 7997
  156.1043  140.1443  156.9454 H   0  0  0  0  0  0  0  0  0  0  0  0  # atno 8009 bound_to 7997
  154.4714  140.0899  156.7131 H   0  0  0  0  0  0  0  0  0  0  0  0  # atno 8010 bound_to 7997
  140.5149  144.0098  150.6389 H   0  0  0  0  0  0  0  0  0  0  0  0  # atno 10167 bound_to 10162
  157.2329  130.7032  149.6322 H   0  0  0  0  0  0  0  0  0  0  0  0  # atno 10718 bound_to 10713
  154.8562  135.4301  154.2016 H   0  0  0  0  0  0  0  0  0  0  0  0  # atno 10763 bound_to 10752
  153.3061  135.6972  153.7164 H   0  0  0  0  0  0  0  0  0  0  0  0  # atno 10764 bound_to 10752
  153.6274  135.3491  155.3005 H   0  0  0  0  0  0  0  0  0  0  0  0  # atno 10765 bound_to 10752
  140.4288  134.1442  155.7679 H   0  0  0  0  0  0  0  0  0  0  0  0  # atno 11005 bound_to 11000
  145.9101  139.2482  143.1442 LP  0  0  0  0  0  0  0  0  0  0  0  0  # atno 17320 bound_to 7965
  145.9724  140.8749  143.0156 LP  0  0  0  0  0  0  0  0  0  0  0  0  # atno 17321 bound_to 7965
  140.3431  143.3007  152.0567 LP  0  0  0  0  0  0  0  0  0  0  0  0  # atno 17342 bound_to 10162
  139.4906  144.6428  151.6841 LP  0  0  0  0  0  0  0  0  0  0  0  0  # atno 17343 bound_to 10162
  155.9674  130.4483  150.5614 LP  0  0  0  0  0  0  0  0  0  0  0  0  # atno 17370 bound_to 10713
  157.3460  131.0725  151.1751 LP  0  0  0  0  0  0  0  0  0  0  0  0  # atno 17371 bound_to 10713
  141.1754  133.8524  157.1437 LP  0  0  0  0  0  0  0  0  0  0  0  0  # atno 17394 bound_to 11000
  140.0149  134.9972  157.0472 LP  0  0  0  0  0  0  0  0  0  0  0  0  # atno 17395 bound_to 11000

$$$$
