AV-unprocessed.smi:560|AV-procd|sdf|2929|dock4
  -GOLD-   2262023423D 1   1.00000     0.00000
 Structure written by MMmdl.
 42 43  0  0  0  0  0  0  0  0  2 V2000
  146.2610  131.8409  153.3658 C   0  0  0  0  0  0  0  0  0  0  0  0
  146.6287  131.3364  151.9554 C   0  0  1  0  0  0  0  0  0  0  0  0
  146.6887  129.8022  151.8612 C   0  0  0  0  0  0  0  0  0  0  0  0
  145.6646  129.1225  151.9420 O   0  0  0  0  0  0  0  0  0  0  0  0
  147.9084  129.2650  151.6961 N   0  0  0  0  0  0  0  0  0  0  0  0
  148.1894  127.8397  151.5592 C   0  0  2  0  0  0  0  0  0  0  0  0
  149.2328  127.3816  152.5951 C   0  0  0  0  0  0  0  0  0  0  0  0
  149.6159  125.9070  152.3854 C   0  0  0  0  0  0  0  0  0  0  0  0
  150.1105  125.6727  151.0047 N   0  3  1  0  0  0  0  0  0  0  0  0
  150.6245  124.2923  150.8116 C   0  0  0  0  0  0  0  0  0  0  0  0
  152.0323  124.0925  151.3830 C   0  0  0  0  0  0  0  0  0  0  0  0
  152.7297  125.1952  151.6652 N   0  0  0  0  0  0  0  0  0  0  0  0
  152.4915  122.9644  151.5542 O   0  0  0  0  0  0  0  0  0  0  0  0
  149.0976  126.0671  149.9887 C   0  0  0  0  0  0  0  0  0  0  0  0
  148.7074  127.5464  150.1420 C   0  0  0  0  0  0  0  0  0  0  0  0
  145.7385  131.8789  150.9347 N   0  0  0  0  0  0  0  0  0  0  0  0
  145.8498  131.7652  149.5634 C   0  0  0  0  0  0  0  0  0  0  0  0
  144.7763  132.4016  149.0096 C   0  0  0  0  0  0  0  0  0  0  0  0
  144.0461  132.8740  150.1353 C   0  0  0  0  0  0  0  0  0  0  0  0
  144.6186  132.5540  151.2841 N   0  0  0  0  0  0  0  0  0  0  0  0
  146.9746  131.4847  154.1099 H   0  0  0  0  0  0  0  0  0  0  0  0
  145.2683  131.5095  153.6739 H   0  0  0  0  0  0  0  0  0  0  0  0
  146.2702  132.9305  153.4021 H   0  0  0  0  0  0  0  0  0  0  0  0
  147.6317  131.7048  151.7348 H   0  0  0  0  0  0  0  0  0  0  0  0
  148.6961  129.8942  151.6407 H   0  0  0  0  0  0  0  0  0  0  0  0
  147.2652  127.2778  151.7093 H   0  0  0  0  0  0  0  0  0  0  0  0
  150.1271  128.0021  152.5200 H   0  0  0  0  0  0  0  0  0  0  0  0
  148.8474  127.5177  153.6063 H   0  0  0  0  0  0  0  0  0  0  0  0
  150.3885  125.6341  153.1053 H   0  0  0  0  0  0  0  0  0  0  0  0
  148.7574  125.2622  152.5805 H   0  0  0  0  0  0  0  0  0  0  0  0
  149.9761  123.5836  151.3288 H   0  0  0  0  0  0  0  0  0  0  0  0
  150.5983  124.0267  149.7532 H   0  0  0  0  0  0  0  0  0  0  0  0
  153.6614  125.1241  152.0485 H   0  0  0  0  0  0  0  0  0  0  0  0
  152.3192  126.1030  151.4980 H   0  0  0  0  0  0  0  0  0  0  0  0
  149.4884  125.9046  148.9839 H   0  0  0  0  0  0  0  0  0  0  0  0
  148.2142  125.4343  150.0884 H   0  0  0  0  0  0  0  0  0  0  0  0
  147.9457  127.8044  149.4048 H   0  0  0  0  0  0  0  0  0  0  0  0
  149.5740  128.1728  149.9241 H   0  0  0  0  0  0  0  0  0  0  0  0
  146.6759  131.2464  149.0998 H   0  0  0  0  0  0  0  0  0  0  0  0
  144.5461  132.5115  147.9602 H   0  0  0  0  0  0  0  0  0  0  0  0
  143.1216  133.4324  150.1523 H   0  0  0  0  0  0  0  0  0  0  0  0
  150.9051  126.2843  150.8805 H   0  0  0  0  0  0  0  0  0  0  0  0
  1  2  1  0  0  0  0
  1 21  1  0  0  0  0
  1 22  1  0  0  0  0
  1 23  1  0  0  0  0
  2  3  1  0  0  0  0
  2 16  1  0  0  0  0
  2 24  1  0  0  0  0
  3  4  2  0  0  0  0
  3  5  1  0  0  0  0
  5  6  1  0  0  0  0
  5 25  1  0  0  0  0
  6 15  1  0  0  0  0
  6  7  1  0  0  0  0
  6 26  1  0  0  0  0
  7  8  1  0  0  0  0
  7 27  1  0  0  0  0
  7 28  1  0  0  0  0
  8  9  1  0  0  0  0
  8 29  1  0  0  0  0
  8 30  1  0  0  0  0
  9 10  1  0  0  0  0
  9 14  1  0  0  0  0
  9 42  1  0  0  0  0
 10 11  1  0  0  0  0
 10 31  1  0  0  0  0
 10 32  1  0  0  0  0
 11 12  1  0  0  0  0
 11 13  2  0  0  0  0
 12 33  1  0  0  0  0
 12 34  1  0  0  0  0
 14 15  1  0  0  0  0
 14 35  1  0  0  0  0
 14 36  1  0  0  0  0
 15 37  1  0  0  0  0
 15 38  1  0  0  0  0
 16 20  1  0  0  0  0
 16 17  1  0  0  0  0
 17 18  2  0  0  0  0
 17 39  1  0  0  0  0
 18 19  1  0  0  0  0
 18 40  1  0  0  0  0
 19 20  2  0  0  0  0
 19 41  1  0  0  0  0
M  CHG  1   9   1
M  END
> <s_m_source_file>
AV-unprocessed.smi

> <i_m_source_file_index>
560

> <i_lp_mmshare_version>
43012

> <i_f3d_flags>
0

> <s_epik_input>
bjFbY0hdW2NIXVtjSF1uMVtDQEhdKFtDSDNdKUMoPU8pW05IXVtDSF0yW0NIMl1bQ0gyXU4oW0NIMl1bQ0gyXTIpW0NIMl1DKD1PKVtOSDJd

> <s_epik_cmdline>
J2VwaWtfcHl0aG9uJywgJy1waCcsICc3LjAnLCAnLXRuJywgJzgnLCAnLW1hJywgJzIwMCcsICctbWV0YWxfYmluZGluZycsICctaW1hZScsICc8aW5maWxlLm1hZT4nLCAnLW9tYWUnLCAnPG91dGZpbGUubWFlPic=

> <r_lp_tautomer_probability>
1

> <r_epik_Ionization_Penalty>
1.02943

> <r_epik_Ionization_Penalty_Charging>
1.02936

> <r_epik_Ionization_Penalty_Neutral>
7.4537e-05

> <r_epik_State_Penalty>
1.08036

> <r_epik_Charging_Adjusted_Penalty>
2.10972

> <i_epik_Tot_Q>
1

> <i_epik_Tot_abs_Q>
1

> <r_epik_Metal_State_Penalty>
1.09347

> <b_epik_Metal_Only>
0

> <s_lp_Force_Field>
OPLS_2005

> <r_lp_Energy>
15.5023

> <b_lp_Chiralities_Consistent>
1

> <s_lp_Variant>
AV-unprocessed.smi:560-4

> <Gold.Version>
5.8.1

> <Gold.Id.Protein>
6NUR|6NUR_protein|mol2

> <Gold.PLP.Fitness>
48.8013

> <Gold.PLP.PLP>
-36.7916

> <Gold.PLP.part.hbond>
-3.0000

> <Gold.PLP.part.metal>
0.0000

> <Gold.PLP.part.buried>
-4.1905

> <Gold.PLP.part.nonpolar>
-28.2421

> <Gold.PLP.part.repulsive>
0.3542

> <Gold.PLP.ligand.clash>
0.0000

> <Gold.PLP.ligand.torsion>
0.6428

> <Gold.PLP.Chemscore.Hbond>
2.3840

> <Gold.PLP.Chemscore.CHOScore>
2.0000

> <Gold.PLP.Chemscore.Metal>
0.0000

> <Gold.Chemscore.Hbonds>
donor molecule, donor type, donor heavy atom, donor atom, acceptor molecule, acceptor atom, score
      L1  H     5    25       P1 10747  0.40
      L1  H     9    42       P1 10737  0.94
      L1  H    12    34       P1 10737  1.00
      L1  C    17    39       P1 10747  0.78
      L1  C    19    41       P1 10186  1.00

> <Gold.PLP.Chemscore.Internal.Correction>
0.1431

> <Gold.Rescore>
     Score         DG    S(hbond)    S(metal)    S(lipo)     H(rot)  DE(clash)    DE(int)     intcor
     16.12     -17.09       2.33        0.00      87.99       2.52       0.26       0.71       ----

> <Gold.Chemscore.Fitness>
16.1191

> <Gold.Chemscore.DG>
-17.0898

> <Gold.Chemscore.ZeroCoef>
-5.4800

> <Gold.Chemscore.Hbond>
2.3287

> <Gold.Chemscore.Metal>
0.0000

> <Gold.Chemscore.Lipo>
87.9852

> <Gold.Chemscore.Internal_Hbond>
0.0000

> <Gold.Chemscore.DEClash>
0.2619

> <Gold.Chemscore.DEInternal>
0.7088

> <Gold.Chemscore.Rot>
2.5243

> <Gold.Chemscore.Internal.Correction>
   9.000000E+99

> <Gold.Chemscore.Hbonds>
donor molecule, donor type, donor heavy atom, donor atom, acceptor molecule, acceptor atom, score
      L1  H     5    25       P1 10747  0.08
      L1  H     9    42       P1 10737  0.88
      L1  H    12    34       P1 10737  0.87

> <Gold.Chemscore.Hbond.Weighted>
-7.7778

> <Gold.Chemscore.Metal.Weighted>
-0.0000

> <Gold.Chemscore.Lipo.Weighted>
-10.2943

> <Gold.Chemscore.Internal_Hbond.Weighted>
0.0000

> <Gold.Chemscore.DEClash.Weighted>
0.2619

> <Gold.Chemscore.DEInternal.Weighted>
0.7088

> <Gold.Chemscore.Rot.Weighted>
6.4622

> <Gold.Chemscore.Internal.Correction.Weighted>
   9.000000E+99

> <Gold.Protein.RotatedTorsions>
[ 6907 6896 6895 6894 ] final  129.31 input  -60.11 | X-H torsion
[ 7974 7965 7964 7962 ] final  -80.58 input  175.53 | X-H torsion
[ 8008 7997 7996 7995 ] final   78.39 input   59.86 | X-H torsion
[ 10167 10162 10161 10158 ] final -162.51 input  -65.29 | X-H torsion
[ 10718 10713 10712 10709 ] final  -87.33 input   66.30 | X-H torsion
[ 10763 10752 10751 10750 ] final  -62.40 input  -60.55 | X-H torsion
[ 11005 11000 10999 10996 ] final   81.87 input  -57.11 | X-H torsion

> <Gold.Protein.ActiveResidues>
 VAL166  LYS551  ARG553  GLY616  TRP617  ASP618  TYR619  PRO620  LYS621  CYS622 
 ASP623  PHE694  ASN695  SER759  ASP760  ASP761  ALA762  ILE779  LEU786  VAL792 
 PHE793  MET794  SER795  GLU796  ALA797  LYS798  CYS799  TRP800  GLU811  SER814 

> <Gold.Protein.RotatedAtoms>
  152.3636  133.6328  159.6033 H   0  0  0  0  0  0  0  0  0  0  0  0  # atno 6907 bound_to 6896
  150.7618  133.9384  159.3457 H   0  0  0  0  0  0  0  0  0  0  0  0  # atno 6908 bound_to 6896
  151.7218  135.0893  160.0336 H   0  0  0  0  0  0  0  0  0  0  0  0  # atno 6909 bound_to 6896
  145.5580  140.9486  143.1463 H   0  0  0  0  0  0  0  0  0  0  0  0  # atno 7974 bound_to 7965
  155.8551  140.3456  155.5719 H   0  0  0  0  0  0  0  0  0  0  0  0  # atno 8008 bound_to 7997
  155.7995  140.0883  157.1984 H   0  0  0  0  0  0  0  0  0  0  0  0  # atno 8009 bound_to 7997
  154.4009  140.1468  156.3245 H   0  0  0  0  0  0  0  0  0  0  0  0  # atno 8010 bound_to 7997
  139.6387  144.0301  152.2075 H   0  0  0  0  0  0  0  0  0  0  0  0  # atno 10167 bound_to 10162
  155.9986  130.4796  150.4850 H   0  0  0  0  0  0  0  0  0  0  0  0  # atno 10718 bound_to 10713
  154.2993  135.6238  153.5418 H   0  0  0  0  0  0  0  0  0  0  0  0  # atno 10763 bound_to 10752
  152.9842  135.5674  154.5302 H   0  0  0  0  0  0  0  0  0  0  0  0  # atno 10764 bound_to 10752
  154.4929  135.2868  155.1458 H   0  0  0  0  0  0  0  0  0  0  0  0  # atno 10765 bound_to 10752
  139.9083  134.8029  156.2098 H   0  0  0  0  0  0  0  0  0  0  0  0  # atno 11005 bound_to 11000
  144.7497  139.7227  143.7278 LP  0  0  0  0  0  0  0  0  0  0  0  0  # atno 17320 bound_to 7965
  146.1871  139.5091  142.9829 LP  0  0  0  0  0  0  0  0  0  0  0  0  # atno 17321 bound_to 7965
  139.9985  144.6311  150.7751 LP  0  0  0  0  0  0  0  0  0  0  0  0  # atno 17342 bound_to 10162
  140.7479  143.2914  151.3321 LP  0  0  0  0  0  0  0  0  0  0  0  0  # atno 17343 bound_to 10162
  157.2851  131.0615  151.2171 LP  0  0  0  0  0  0  0  0  0  0  0  0  # atno 17370 bound_to 10713
  157.3204  130.6934  149.6266 LP  0  0  0  0  0  0  0  0  0  0  0  0  # atno 17371 bound_to 10713
  141.0472  133.6907  156.1705 LP  0  0  0  0  0  0  0  0  0  0  0  0  # atno 17394 bound_to 11000
  140.6865  134.4711  157.5589 LP  0  0  0  0  0  0  0  0  0  0  0  0  # atno 17395 bound_to 11000

$$$$
