AV-unprocessed.smi:458|AV-procd|sdf|2620|dock8
  -GOLD-   2262023 23D 1   1.00000     0.00000
 Structure written by MMmdl.
 36 38  0  0  0  0  0  0  0  0  1 V2000
  153.5953  138.9432  157.7685 O   0  0  0  0  0  0  0  0  0  0  0  0
  152.2724  139.4296  157.8338 C   0  0  0  0  0  0  0  0  0  0  0  0
  152.1695  140.7627  158.5120 C   0  0  0  0  0  0  0  0  0  0  0  0
  152.5441  140.9305  159.7810 N   0  0  0  0  0  0  0  0  0  0  0  0
  152.3122  142.2750  159.9924 C   0  0  0  0  0  0  0  0  0  0  0  0
  152.5122  143.0711  161.1431 C   0  0  0  0  0  0  0  0  0  0  0  0
  152.2049  144.4472  161.1210 C   0  0  0  0  0  0  0  0  0  0  0  0
  151.6967  145.0464  159.9503 C   0  0  0  0  0  0  0  0  0  0  0  0
  151.4896  144.2709  158.7933 C   0  0  0  0  0  0  0  0  0  0  0  0
  151.7936  142.8964  158.8215 C   0  0  0  0  0  0  0  0  0  0  0  0
  151.7039  141.8729  157.8825 N   0  0  0  0  0  0  0  0  0  0  0  0
  151.2213  142.0112  156.5131 C   0  0  0  0  0  0  0  0  0  0  0  0
  150.2776  140.8662  156.0897 C   0  0  2  0  0  0  0  0  0  0  0  0
  150.8505  140.1277  155.0288 O   0  0  0  0  0  0  0  0  0  0  0  0
  148.8944  141.3928  155.7409 C   0  0  0  0  0  0  0  0  0  0  0  0
  148.0017  141.7662  156.7686 C   0  0  0  0  0  0  0  0  0  0  0  0
  146.7219  142.2622  156.4514 C   0  0  0  0  0  0  0  0  0  0  0  0
  146.3287  142.3896  155.1053 C   0  0  0  0  0  0  0  0  0  0  0  0
  145.0987  142.8669  154.8012 F   0  0  0  0  0  0  0  0  0  0  0  0
  147.2164  142.0224  154.0758 C   0  0  0  0  0  0  0  0  0  0  0  0
  148.4959  141.5265  154.3923 C   0  0  0  0  0  0  0  0  0  0  0  0
  153.6475  138.1457  158.2723 H   0  0  0  0  0  0  0  0  0  0  0  0
  151.8878  139.5135  156.8168 H   0  0  0  0  0  0  0  0  0  0  0  0
  151.6382  138.7058  158.3454 H   0  0  0  0  0  0  0  0  0  0  0  0
  152.9037  142.6221  162.0438 H   0  0  0  0  0  0  0  0  0  0  0  0
  152.3616  145.0465  162.0060 H   0  0  0  0  0  0  0  0  0  0  0  0
  151.4661  146.1016  159.9413 H   0  0  0  0  0  0  0  0  0  0  0  0
  151.1017  144.7279  157.8953 H   0  0  0  0  0  0  0  0  0  0  0  0
  150.6994  142.9660  156.4394 H   0  0  0  0  0  0  0  0  0  0  0  0
  152.0650  142.0749  155.8274 H   0  0  0  0  0  0  0  0  0  0  0  0
  150.1718  140.1694  156.9215 H   0  0  0  0  0  0  0  0  0  0  0  0
  150.2911  139.3901  154.8403 H   0  0  0  0  0  0  0  0  0  0  0  0
  148.2950  141.6753  157.8043 H   0  0  0  0  0  0  0  0  0  0  0  0
  146.0421  142.5463  157.2411 H   0  0  0  0  0  0  0  0  0  0  0  0
  146.9166  142.1224  153.0430 H   0  0  0  0  0  0  0  0  0  0  0  0
  149.1720  141.2509  153.5959 H   0  0  0  0  0  0  0  0  0  0  0  0
  1  2  1  0  0  0  0
  1 22  1  0  0  0  0
  2  3  1  0  0  0  0
  2 23  1  0  0  0  0
  2 24  1  0  0  0  0
  3 11  1  0  0  0  0
  3  4  2  0  0  0  0
  4  5  1  0  0  0  0
  5 10  2  0  0  0  0
  5  6  1  0  0  0  0
  6  7  2  0  0  0  0
  6 25  1  0  0  0  0
  7  8  1  0  0  0  0
  7 26  1  0  0  0  0
  8  9  2  0  0  0  0
  8 27  1  0  0  0  0
  9 10  1  0  0  0  0
  9 28  1  0  0  0  0
 10 11  1  0  0  0  0
 11 12  1  0  0  0  0
 12 13  1  0  0  0  0
 12 29  1  0  0  0  0
 12 30  1  0  0  0  0
 13 14  1  0  0  0  0
 13 15  1  0  0  0  0
 13 31  1  0  0  0  0
 14 32  1  0  0  0  0
 15 21  1  0  0  0  0
 15 16  2  0  0  0  0
 16 17  1  0  0  0  0
 16 33  1  0  0  0  0
 17 18  2  0  0  0  0
 17 34  1  0  0  0  0
 18 19  1  0  0  0  0
 18 20  1  0  0  0  0
 20 21  2  0  0  0  0
 20 35  1  0  0  0  0
 21 36  1  0  0  0  0
M  END
> <s_m_source_file>
AV-unprocessed.smi

> <i_m_source_file_index>
458

> <i_lp_mmshare_version>
43012

> <i_f3d_flags>
0

> <s_epik_input>
W2NIXTFbY0hdW2NIXVtjSF1jKGMxMiluKGMobjIpW0NIMl1bT0hdKVtDSDJdW0NASF0oW09IXSljM1tjSF1bY0hdYyhGKVtjSF1bY0hdMw==

> <s_epik_cmdline>
J2VwaWtfcHl0aG9uJywgJy1waCcsICc3LjAnLCAnLXRuJywgJzgnLCAnLW1hJywgJzIwMCcsICctbWV0YWxfYmluZGluZycsICctaW1hZScsICc8aW5maWxlLm1hZT4nLCAnLW9tYWUnLCAnPG91dGZpbGUubWFlPic=

> <r_epik_Ionization_Penalty>
0.0634724

> <r_epik_Ionization_Penalty_Charging>
0

> <r_epik_Ionization_Penalty_Neutral>
0.0634724

> <r_epik_State_Penalty>
0.0551572

> <r_epik_Charging_Adjusted_Penalty>
0.0551572

> <i_epik_Tot_Q>
0

> <i_epik_Tot_abs_Q>
0

> <r_epik_Metal_State_Penalty>
5.78034e-05

> <b_epik_Metal_Only>
0

> <s_lp_Force_Field>
OPLS_2005

> <r_lp_Energy>
12.4444

> <b_lp_Chiralities_Consistent>
1

> <s_lp_Variant>
AV-unprocessed.smi:458-1

> <Gold.Version>
5.8.1

> <Gold.Id.Protein>
6NUR|6NUR_protein|mol2

> <Gold.PLP.Fitness>
51.5854

> <Gold.PLP.PLP>
-48.4852

> <Gold.PLP.part.hbond>
-2.0000

> <Gold.PLP.part.metal>
0.0000

> <Gold.PLP.part.buried>
-7.7676

> <Gold.PLP.part.nonpolar>
-38.8242

> <Gold.PLP.part.repulsive>
0.0000

> <Gold.PLP.ligand.clash>
0.0000

> <Gold.PLP.ligand.torsion>
1.4715

> <Gold.PLP.Chemscore.Hbond>
2.0000

> <Gold.PLP.Chemscore.CHOScore>
0.0000

> <Gold.PLP.Chemscore.Metal>
0.0000

> <Gold.Chemscore.Hbonds>
donor molecule, donor type, donor heavy atom, donor atom, acceptor molecule, acceptor atom, score
      P1  H  7989  7998       L1    14  1.00
      P1  H  7997  8009       L1     1  1.00

> <Gold.PLP.Chemscore.Internal.Correction>
0.0433

> <Gold.Rescore>
     Score         DG    S(hbond)    S(metal)    S(lipo)     H(rot)  DE(clash)    DE(int)     intcor
     16.23     -18.70       1.93        0.00     118.17       2.75       0.01       2.45       ----

> <Gold.Chemscore.Fitness>
16.2341

> <Gold.Chemscore.DG>
-18.6964

> <Gold.Chemscore.ZeroCoef>
-5.4800

> <Gold.Chemscore.Hbond>
1.9254

> <Gold.Chemscore.Metal>
0.0000

> <Gold.Chemscore.Lipo>
118.1668

> <Gold.Chemscore.Internal_Hbond>
0.0000

> <Gold.Chemscore.DEClash>
0.0121

> <Gold.Chemscore.DEInternal>
2.4501

> <Gold.Chemscore.Rot>
2.7500

> <Gold.Chemscore.Internal.Correction>
   9.000000E+99

> <Gold.Chemscore.Hbonds>
donor molecule, donor type, donor heavy atom, donor atom, acceptor molecule, acceptor atom, score
      P1  H  7989  7998       L1    14  0.85
      P1  H  7997  8009       L1     1  0.54

> <Gold.Chemscore.Hbond.Weighted>
-6.4308

> <Gold.Chemscore.Metal.Weighted>
-0.0000

> <Gold.Chemscore.Lipo.Weighted>
-13.8255

> <Gold.Chemscore.Internal_Hbond.Weighted>
0.0000

> <Gold.Chemscore.DEClash.Weighted>
0.0121

> <Gold.Chemscore.DEInternal.Weighted>
2.4501

> <Gold.Chemscore.Rot.Weighted>
7.0399

> <Gold.Chemscore.Internal.Correction.Weighted>
   9.000000E+99

> <Gold.Protein.RotatedTorsions>
[ 6907 6896 6895 6894 ] final  162.95 input  -60.11 | X-H torsion
[ 7974 7965 7964 7962 ] final  177.11 input  175.53 | X-H torsion
[ 8008 7997 7996 7995 ] final  170.93 input   59.86 | X-H torsion
[ 10167 10162 10161 10158 ] final    5.10 input  -65.29 | X-H torsion
[ 10718 10713 10712 10709 ] final -162.52 input   66.30 | X-H torsion
[ 10763 10752 10751 10750 ] final   93.03 input  -60.55 | X-H torsion
[ 11005 11000 10999 10996 ] final -111.75 input  -57.11 | X-H torsion

> <Gold.Protein.ActiveResidues>
 VAL166  LYS551  ARG553  GLY616  TRP617  ASP618  TYR619  PRO620  LYS621  CYS622 
 ASP623  PHE694  ASN695  SER759  ASP760  ASP761  ALA762  ILE779  LEU786  VAL792 
 PHE793  MET794  SER795  GLU796  ALA797  LYS798  CYS799  TRP800  GLU811  SER814 

> <Gold.Protein.RotatedAtoms>
  151.9326  133.3615  159.3936 H   0  0  0  0  0  0  0  0  0  0  0  0  # atno 6907 bound_to 6896
  150.7014  134.4521  159.5350 H   0  0  0  0  0  0  0  0  0  0  0  0  # atno 6908 bound_to 6896
  152.2164  134.8453  160.0542 H   0  0  0  0  0  0  0  0  0  0  0  0  # atno 6909 bound_to 6896
  144.7174  140.0198  143.6440 H   0  0  0  0  0  0  0  0  0  0  0  0  # atno 7974 bound_to 7965
  156.1319  140.1525  156.9052 H   0  0  0  0  0  0  0  0  0  0  0  0  # atno 8008 bound_to 7997
  154.4916  140.0850  156.7646 H   0  0  0  0  0  0  0  0  0  0  0  0  # atno 8009 bound_to 7997
  155.4240  140.3424  155.4276 H   0  0  0  0  0  0  0  0  0  0  0  0  # atno 8010 bound_to 7997
  140.6500  143.7569  150.7559 H   0  0  0  0  0  0  0  0  0  0  0  0  # atno 10167 bound_to 10162
  156.6116  130.8853  151.2938 H   0  0  0  0  0  0  0  0  0  0  0  0  # atno 10718 bound_to 10713
  153.2257  135.4340  155.0539 H   0  0  0  0  0  0  0  0  0  0  0  0  # atno 10763 bound_to 10752
  154.8272  135.3367  154.6861 H   0  0  0  0  0  0  0  0  0  0  0  0  # atno 10764 bound_to 10752
  153.7291  135.7012  153.5050 H   0  0  0  0  0  0  0  0  0  0  0  0  # atno 10765 bound_to 10752
  141.0716  133.9371  157.2474 H   0  0  0  0  0  0  0  0  0  0  0  0  # atno 11005 bound_to 11000
  146.0190  139.3234  143.0824 LP  0  0  0  0  0  0  0  0  0  0  0  0  # atno 17320 bound_to 7965
  145.8591  140.9485  143.0709 LP  0  0  0  0  0  0  0  0  0  0  0  0  # atno 17321 bound_to 7965
  140.1218  143.4605  152.2309 LP  0  0  0  0  0  0  0  0  0  0  0  0  # atno 17342 bound_to 10162
  139.5714  144.7464  151.3881 LP  0  0  0  0  0  0  0  0  0  0  0  0  # atno 17343 bound_to 10162
  157.7252  130.9613  150.1606 LP  0  0  0  0  0  0  0  0  0  0  0  0  # atno 17370 bound_to 10713
  156.2385  130.3688  149.8364 LP  0  0  0  0  0  0  0  0  0  0  0  0  # atno 17371 bound_to 10713
  139.9529  135.0172  156.9045 LP  0  0  0  0  0  0  0  0  0  0  0  0  # atno 17394 bound_to 11000
  140.5662  134.0487  155.7415 LP  0  0  0  0  0  0  0  0  0  0  0  0  # atno 17395 bound_to 11000

$$$$
