AV-unprocessed.smi:38|AV-procd|sdf|339|dock10
  -GOLD-   2262016173D 1   1.00000     0.00000
 Structure written by MMmdl.
 28 29  0  0  0  0  0  0  0  0  1 V2000
  140.6515  134.3425  153.6352 O   0  0  0  0  0  0  0  0  0  0  0  0
  141.7376  134.8538  153.3695 C   0  0  0  0  0  0  0  0  0  0  0  0
  142.8381  134.0478  153.0636 N   0  0  0  0  0  0  0  0  0  0  0  0
  144.1186  134.5072  152.7486 C   0  0  0  0  0  0  0  0  0  0  0  0
  145.0085  133.7017  152.4794 O   0  0  0  0  0  0  0  0  0  0  0  0
  144.3189  135.9058  152.7489 N   0  0  0  0  0  0  0  0  0  0  0  0
  145.6839  136.4671  152.4231 C   0  0  1  0  0  0  0  0  0  0  0  0
  145.5717  137.8891  151.8636 C   0  0  0  0  0  0  0  0  0  0  0  0
  146.7507  138.5835  152.5158 C   0  0  2  0  0  0  0  0  0  0  0  0
  147.9203  138.4175  151.7360 O   0  0  0  0  0  0  0  0  0  0  0  0
  146.8421  137.8613  153.8678 C   0  0  2  0  0  0  0  0  0  0  0  0
  148.2018  137.8963  154.5867 C   0  0  0  0  0  0  0  0  0  0  0  0
  149.1738  137.2059  153.8305 O   0  0  0  0  0  0  0  0  0  0  0  0
  146.4429  136.5198  153.5960 O   0  0  0  0  0  0  0  0  0  0  0  0
  143.2503  136.7453  153.0341 C   0  0  0  0  0  0  0  0  0  0  0  0
  142.0122  136.2871  153.3341 C   0  0  0  0  0  0  0  0  0  0  0  0
  141.0264  137.1619  153.5966 F   0  0  0  0  0  0  0  0  0  0  0  0
  142.6934  133.0484  153.0671 H   0  0  0  0  0  0  0  0  0  0  0  0
  146.1843  135.7756  151.7438 H   0  0  0  0  0  0  0  0  0  0  0  0
  146.5721  139.6519  152.6408 H   0  0  0  0  0  0  0  0  0  0  0  0
  146.0853  138.2848  154.5299 H   0  0  0  0  0  0  0  0  0  0  0  0
  145.5886  137.8921  150.7731 H   0  0  0  0  0  0  0  0  0  0  0  0
  144.6398  138.3452  152.2013 H   0  0  0  0  0  0  0  0  0  0  0  0
  148.1935  137.5144  151.7954 H   0  0  0  0  0  0  0  0  0  0  0  0
  148.5314  138.9288  154.7042 H   0  0  0  0  0  0  0  0  0  0  0  0
  148.1390  137.4683  155.5873 H   0  0  0  0  0  0  0  0  0  0  0  0
  148.8738  137.1495  152.9360 H   0  0  0  0  0  0  0  0  0  0  0  0
  143.3978  137.8144  153.0141 H   0  0  0  0  0  0  0  0  0  0  0  0
  1  2  2  0  0  0  0
  2 16  1  0  0  0  0
  2  3  1  0  0  0  0
  3 18  1  0  0  0  0
  3  4  1  0  0  0  0
  4  5  2  0  0  0  0
  4  6  1  0  0  0  0
  6  7  1  0  0  0  0
  6 15  1  0  0  0  0
  7 19  1  0  0  0  0
  7 14  1  0  0  0  0
  7  8  1  0  0  0  0
  8  9  1  0  0  0  0
  8 22  1  0  0  0  0
  8 23  1  0  0  0  0
  9 20  1  0  0  0  0
  9 10  1  0  0  0  0
  9 11  1  0  0  0  0
 10 24  1  0  0  0  0
 11 21  1  0  0  0  0
 11 12  1  0  0  0  0
 11 14  1  0  0  0  0
 12 13  1  0  0  0  0
 12 25  1  0  0  0  0
 12 26  1  0  0  0  0
 13 27  1  0  0  0  0
 15 16  2  0  0  0  0
 15 28  1  0  0  0  0
 16 17  1  0  0  0  0
M  END
> <s_m_source_file>
AV-unprocessed.smi

> <i_m_source_file_index>
38

> <i_lp_mmshare_version>
43012

> <i_f3d_flags>
0

> <s_epik_input>
Tz1jMVtuSF1jKD1PKW4oW2NIXWMxRilbQ0BIXTJbQ0gyXVtDQEhdKFtPSF0pW0NASF0oTzIpW0NIMl1bT0hd

> <s_epik_cmdline>
J2VwaWtfcHl0aG9uJywgJy1waCcsICc3LjAnLCAnLXRuJywgJzgnLCAnLW1hJywgJzIwMCcsICctbWV0YWxfYmluZGluZycsICctaW1hZScsICc8aW5maWxlLm1hZT4nLCAnLW9tYWUnLCAnPG91dGZpbGUubWFlPic=

> <r_lp_tautomer_probability>
0.999537

> <r_epik_Ionization_Penalty>
0.0357432

> <r_epik_Ionization_Penalty_Charging>
0.0357431

> <r_epik_Ionization_Penalty_Neutral>
1.19946e-07

> <r_epik_State_Penalty>
0.0298169

> <r_epik_Charging_Adjusted_Penalty>
0.06556

> <i_epik_Tot_Q>
0

> <i_epik_Tot_abs_Q>
0

> <r_epik_Metal_State_Penalty>
2.348

> <b_epik_Metal_Only>
0

> <s_epik_Chemistry_Notes>
This compound contains an acetal/aminal-like group ( X-CH(R)-Y where X, Y are N, S, or O) that may be acid/base labile, releasing an aldehyde.

> <s_lp_Force_Field>
OPLS_2005

> <r_lp_Energy>
29.3974

> <b_lp_Chiralities_Consistent>
1

> <s_lp_Variant>
AV-unprocessed.smi:38-5

> <Gold.Version>
5.8.1

> <Gold.Id.Protein>
6NUR|6NUR_protein|mol2

> <Gold.PLP.Fitness>
37.5186

> <Gold.PLP.PLP>
-23.2696

> <Gold.PLP.part.hbond>
-5.7514

> <Gold.PLP.part.metal>
0.0000

> <Gold.PLP.part.buried>
-1.3453

> <Gold.PLP.part.nonpolar>
-16.9160

> <Gold.PLP.part.repulsive>
0.4292

> <Gold.PLP.ligand.clash>
0.0000

> <Gold.PLP.ligand.torsion>
0.7234

> <Gold.PLP.Chemscore.Hbond>
4.2312

> <Gold.PLP.Chemscore.CHOScore>
1.0000

> <Gold.PLP.Chemscore.Metal>
0.0000

> <Gold.Chemscore.Hbonds>
donor molecule, donor type, donor heavy atom, donor atom, acceptor molecule, acceptor atom, score
      L1  H     3    18       P1 10957  0.43
      L1  H    10    24       P1  7948  0.81
      L1  H    13    27       P1  7948  0.50
      P1  H 10995 11001       L1     1  0.22
      P1  H 11000 11005       L1     1  0.81
      L1  C    15    28       P1 10175  0.61

> <Gold.PLP.Chemscore.Internal.Correction>
0.0022

> <Gold.Rescore>
     Score         DG    S(hbond)    S(metal)    S(lipo)     H(rot)  DE(clash)    DE(int)     intcor
     13.47     -14.00       3.85        0.00      26.64       2.91       0.20       0.33       ----

> <Gold.Chemscore.Fitness>
13.4716

> <Gold.Chemscore.DG>
-14.0000

> <Gold.Chemscore.ZeroCoef>
-5.4800

> <Gold.Chemscore.Hbond>
3.8511

> <Gold.Chemscore.Metal>
0.0000

> <Gold.Chemscore.Lipo>
26.6434

> <Gold.Chemscore.Internal_Hbond>
0.0000

> <Gold.Chemscore.DEClash>
0.2000

> <Gold.Chemscore.DEInternal>
0.3284

> <Gold.Chemscore.Rot>
2.9141

> <Gold.Chemscore.Internal.Correction>
   9.000000E+99

> <Gold.Chemscore.Hbonds>
donor molecule, donor type, donor heavy atom, donor atom, acceptor molecule, acceptor atom, score
      L1  H     3    18       P1 10957  0.25
      L1  H    10    24       P1  7948  0.80
      L1  H    13    27       P1  7948  0.51
      P1  H 10995 11001       L1     1  0.21
      P1  H 11000 11005       L1     1  0.66

> <Gold.Chemscore.Hbond.Weighted>
-12.8628

> <Gold.Chemscore.Metal.Weighted>
-0.0000

> <Gold.Chemscore.Lipo.Weighted>
-3.1173

> <Gold.Chemscore.Internal_Hbond.Weighted>
0.0000

> <Gold.Chemscore.DEClash.Weighted>
0.2000

> <Gold.Chemscore.DEInternal.Weighted>
0.3284

> <Gold.Chemscore.Rot.Weighted>
7.4601

> <Gold.Chemscore.Internal.Correction.Weighted>
   9.000000E+99

> <Gold.Protein.RotatedTorsions>
[ 6907 6896 6895 6894 ] final  141.42 input  -60.11 | X-H torsion
[ 7974 7965 7964 7962 ] final  -33.08 input  175.53 | X-H torsion
[ 8008 7997 7996 7995 ] final  -86.82 input   59.86 | X-H torsion
[ 10167 10162 10161 10158 ] final -118.78 input  -65.29 | X-H torsion
[ 10718 10713 10712 10709 ] final    8.60 input   66.30 | X-H torsion
[ 10763 10752 10751 10750 ] final   43.02 input  -60.55 | X-H torsion
[ 11005 11000 10999 10996 ] final   31.16 input  -57.11 | X-H torsion

> <Gold.Protein.ActiveResidues>
 VAL166  LYS551  ARG553  GLY616  TRP617  ASP618  TYR619  PRO620  LYS621  CYS622 
 ASP623  PHE694  ASN695  SER759  ASP760  ASP761  ALA762  ILE779  LEU786  VAL792 
 PHE793  MET794  SER795  GLU796  ALA797  LYS798  CYS799  TRP800  GLU811  SER814 

> <Gold.Protein.RotatedAtoms>
  152.2312  133.5060  159.5216 H   0  0  0  0  0  0  0  0  0  0  0  0  # atno 6907 bound_to 6896
  150.7038  134.1214  159.4045 H   0  0  0  0  0  0  0  0  0  0  0  0  # atno 6908 bound_to 6896
  151.9135  135.0329  160.0567 H   0  0  0  0  0  0  0  0  0  0  0  0  # atno 6909 bound_to 6896
  146.0939  140.5872  142.8852 H   0  0  0  0  0  0  0  0  0  0  0  0  # atno 7974 bound_to 7965
  154.6563  140.0573  157.0012 H   0  0  0  0  0  0  0  0  0  0  0  0  # atno 8008 bound_to 7997
  155.1296  140.3255  155.4459 H   0  0  0  0  0  0  0  0  0  0  0  0  # atno 8009 bound_to 7997
  156.2598  140.1983  156.6416 H   0  0  0  0  0  0  0  0  0  0  0  0  # atno 8010 bound_to 7997
  140.0538  143.5034  152.2068 H   0  0  0  0  0  0  0  0  0  0  0  0  # atno 10167 bound_to 10162
  156.9539  130.5907  149.5658 H   0  0  0  0  0  0  0  0  0  0  0  0  # atno 10718 bound_to 10713
  152.9870  135.6114  154.3044 H   0  0  0  0  0  0  0  0  0  0  0  0  # atno 10763 bound_to 10752
  154.2763  135.2778  155.2718 H   0  0  0  0  0  0  0  0  0  0  0  0  # atno 10764 bound_to 10752
  154.5078  135.5849  153.6638 H   0  0  0  0  0  0  0  0  0  0  0  0  # atno 10765 bound_to 10752
  140.2868  134.2910  155.7786 H   0  0  0  0  0  0  0  0  0  0  0  0  # atno 11005 bound_to 11000
  144.7381  140.4865  143.6889 LP  0  0  0  0  0  0  0  0  0  0  0  0  # atno 17320 bound_to 7965
  145.5986  139.1501  143.3142 LP  0  0  0  0  0  0  0  0  0  0  0  0  # atno 17321 bound_to 7965
  139.5936  144.7559  151.3339 LP  0  0  0  0  0  0  0  0  0  0  0  0  # atno 17342 bound_to 10162
  140.7204  143.7150  150.7739 LP  0  0  0  0  0  0  0  0  0  0  0  0  # atno 17343 bound_to 10162
  156.0351  130.5439  150.8632 LP  0  0  0  0  0  0  0  0  0  0  0  0  # atno 17370 bound_to 10713
  157.5703  131.0946  150.9428 LP  0  0  0  0  0  0  0  0  0  0  0  0  # atno 17371 bound_to 10713
  141.2153  133.7560  156.9564 LP  0  0  0  0  0  0  0  0  0  0  0  0  # atno 17394 bound_to 11000
  140.1232  134.9403  157.2233 LP  0  0  0  0  0  0  0  0  0  0  0  0  # atno 17395 bound_to 11000

$$$$
