AV-unprocessed.smi:517|AV-procd|sdf|2790|dock9
  -GOLD-   2262023263D 1   1.00000     0.00000
 Structure written by MMmdl.
 36 37  0  0  0  0  0  0  0  0  2 V2000
  154.4767  140.2299  160.6752 C   0  0  0  0  0  0  0  0  0  0  0  0
  153.4057  139.4909  159.8698 C   0  0  0  0  0  0  0  0  0  0  0  0
  153.5604  139.8212  158.5011 O   0  0  0  0  0  0  0  0  0  0  0  0
  152.5067  139.3290  157.6889 C   0  0  0  0  0  0  0  0  0  0  0  0
  151.1725  139.9004  158.1891 C   0  0  0  0  0  0  0  0  0  0  0  0
  151.0009  141.3108  157.8119 N   0  0  0  0  0  0  0  0  0  0  0  0
  150.3653  141.8707  156.7413 C   0  0  0  0  0  0  0  0  0  0  0  0
  149.6704  141.1525  155.6258 C   0  0  2  0  0  0  0  0  0  0  0  0
  150.5900  140.0961  155.0000 C   0  0  0  0  0  0  0  0  0  0  0  0
  149.2369  142.0369  154.6138 O   0  0  0  0  0  0  0  0  0  0  0  0
  150.4941  143.2234  156.8618 N   0  3  0  0  0  0  0  0  0  0  0  0
  151.2042  143.5310  158.0224 C   0  0  0  0  0  0  0  0  0  0  0  0
  151.5767  144.7568  158.5659 C   0  0  0  0  0  0  0  0  0  0  0  0
  152.3003  144.7188  159.7759 C   0  0  0  0  0  0  0  0  0  0  0  0
  152.6241  143.4963  160.3997 C   0  0  0  0  0  0  0  0  0  0  0  0
  152.2406  142.2600  159.8393 C   0  0  0  0  0  0  0  0  0  0  0  0
  151.5293  142.3065  158.6405 C   0  0  0  0  0  0  0  0  0  0  0  0
  154.3920  140.0020  161.7380 H   0  0  0  0  0  0  0  0  0  0  0  0
  154.3803  141.3093  160.5556 H   0  0  0  0  0  0  0  0  0  0  0  0
  155.4772  139.9441  160.3497 H   0  0  0  0  0  0  0  0  0  0  0  0
  153.5094  138.4143  160.0124 H   0  0  0  0  0  0  0  0  0  0  0  0
  152.4122  139.7778  160.2171 H   0  0  0  0  0  0  0  0  0  0  0  0
  152.6713  139.6182  156.6498 H   0  0  0  0  0  0  0  0  0  0  0  0
  152.4808  138.2391  157.7250 H   0  0  0  0  0  0  0  0  0  0  0  0
  150.3295  139.3228  157.8089 H   0  0  0  0  0  0  0  0  0  0  0  0
  151.1200  139.8364  159.2762 H   0  0  0  0  0  0  0  0  0  0  0  0
  148.7815  140.6597  156.0193 H   0  0  0  0  0  0  0  0  0  0  0  0
  150.9090  139.3657  155.7444 H   0  0  0  0  0  0  0  0  0  0  0  0
  151.4856  140.5485  154.5726 H   0  0  0  0  0  0  0  0  0  0  0  0
  150.0794  139.5525  154.2044 H   0  0  0  0  0  0  0  0  0  0  0  0
  149.4433  142.9202  154.8798 H   0  0  0  0  0  0  0  0  0  0  0  0
  151.3274  145.6945  158.0909 H   0  0  0  0  0  0  0  0  0  0  0  0
  152.6122  145.6455  160.2356 H   0  0  0  0  0  0  0  0  0  0  0  0
  153.1780  143.5067  161.3273 H   0  0  0  0  0  0  0  0  0  0  0  0
  152.4919  141.3296  160.3265 H   0  0  0  0  0  0  0  0  0  0  0  0
  150.1154  143.8838  156.1950 H   0  0  0  0  0  0  0  0  0  0  0  0
  1  2  1  0  0  0  0
  1 18  1  0  0  0  0
  1 19  1  0  0  0  0
  1 20  1  0  0  0  0
  2  3  1  0  0  0  0
  2 21  1  0  0  0  0
  2 22  1  0  0  0  0
  3  4  1  0  0  0  0
  4  5  1  0  0  0  0
  4 23  1  0  0  0  0
  4 24  1  0  0  0  0
  5  6  1  0  0  0  0
  5 25  1  0  0  0  0
  5 26  1  0  0  0  0
  6 17  1  0  0  0  0
  6  7  1  0  0  0  0
  7  8  1  0  0  0  0
  7 11  2  0  0  0  0
  8  9  1  0  0  0  0
  8 10  1  0  0  0  0
  8 27  1  0  0  0  0
  9 28  1  0  0  0  0
  9 29  1  0  0  0  0
  9 30  1  0  0  0  0
 10 31  1  0  0  0  0
 11 12  1  0  0  0  0
 11 36  1  0  0  0  0
 12 17  2  0  0  0  0
 12 13  1  0  0  0  0
 13 14  2  0  0  0  0
 13 32  1  0  0  0  0
 14 15  1  0  0  0  0
 14 33  1  0  0  0  0
 15 16  2  0  0  0  0
 15 34  1  0  0  0  0
 16 17  1  0  0  0  0
 16 35  1  0  0  0  0
M  CHG  1  11   1
M  END
> <s_m_source_file>
AV-unprocessed.smi

> <i_m_source_file_index>
517

> <i_lp_mmshare_version>
43012

> <i_f3d_flags>
0

> <s_epik_input>
W0NIM11bQ0gyXU9bQ0gyXVtDSDJdbihjKG4xKVtDQEhdKFtDSDNdKVtPSF0pYyhjMTIpW2NIXVtjSF1bY0hdW2NIXTI=

> <s_epik_cmdline>
J2VwaWtfcHl0aG9uJywgJy1waCcsICc3LjAnLCAnLXRuJywgJzgnLCAnLW1hJywgJzIwMCcsICctbWV0YWxfYmluZGluZycsICctaW1hZScsICc8aW5maWxlLm1hZT4nLCAnLW9tYWUnLCAnPG91dGZpbGUubWFlPic=

> <r_epik_Ionization_Penalty>
1.46962

> <r_epik_Ionization_Penalty_Charging>
1.46959

> <r_epik_Ionization_Penalty_Neutral>
2.92192e-05

> <r_epik_State_Penalty>
1.55729

> <r_epik_Charging_Adjusted_Penalty>
3.02688

> <i_epik_Tot_Q>
1

> <i_epik_Tot_abs_Q>
1

> <r_epik_Metal_State_Penalty>
5.60569

> <b_epik_Metal_Only>
0

> <s_lp_Force_Field>
OPLS_2005

> <r_lp_Energy>
10.0589

> <b_lp_Chiralities_Consistent>
1

> <s_lp_Variant>
AV-unprocessed.smi:517-3

> <Gold.Version>
5.8.1

> <Gold.Id.Protein>
6NUR|6NUR_protein|mol2

> <Gold.PLP.Fitness>
50.6229

> <Gold.PLP.PLP>
-39.5254

> <Gold.PLP.part.hbond>
-3.8944

> <Gold.PLP.part.metal>
0.0000

> <Gold.PLP.part.buried>
-2.9223

> <Gold.PLP.part.nonpolar>
-32.7903

> <Gold.PLP.part.repulsive>
0.0283

> <Gold.PLP.ligand.clash>
0.0000

> <Gold.PLP.ligand.torsion>
0.5092

> <Gold.PLP.Chemscore.Hbond>
4.0338

> <Gold.PLP.Chemscore.CHOScore>
0.0000

> <Gold.PLP.Chemscore.Metal>
0.0000

> <Gold.Chemscore.Hbonds>
donor molecule, donor type, donor heavy atom, donor atom, acceptor molecule, acceptor atom, score
      L1  H    10    31       P1  8028  1.00
      L1  H    11    36       P1  8028  2.00
      P1  H  7997  8009       L1     3  1.00
      P1  H  8011  8017       L1    10  0.03

> <Gold.PLP.Chemscore.Internal.Correction>
0.0145

> <Gold.Rescore>
     Score         DG    S(hbond)    S(metal)    S(lipo)     H(rot)  DE(clash)    DE(int)     intcor
     20.96     -21.45       2.94        0.00     100.31       2.18       0.01       0.48       ----

> <Gold.Chemscore.Fitness>
20.9618

> <Gold.Chemscore.DG>
-21.4460

> <Gold.Chemscore.ZeroCoef>
-5.4800

> <Gold.Chemscore.Hbond>
2.9370

> <Gold.Chemscore.Metal>
0.0000

> <Gold.Chemscore.Lipo>
100.3130

> <Gold.Chemscore.Internal_Hbond>
0.0000

> <Gold.Chemscore.DEClash>
0.0088

> <Gold.Chemscore.DEInternal>
0.4754

> <Gold.Chemscore.Rot>
2.1797

> <Gold.Chemscore.Internal.Correction>
   9.000000E+99

> <Gold.Chemscore.Hbonds>
donor molecule, donor type, donor heavy atom, donor atom, acceptor molecule, acceptor atom, score
      L1  H    10    31       P1  8028  0.89
      L1  H    11    36       P1  8028  0.91
      P1  H  7997  8009       L1     3  0.28

> <Gold.Chemscore.Hbond.Weighted>
-9.8095

> <Gold.Chemscore.Metal.Weighted>
-0.0000

> <Gold.Chemscore.Lipo.Weighted>
-11.7366

> <Gold.Chemscore.Internal_Hbond.Weighted>
0.0000

> <Gold.Chemscore.DEClash.Weighted>
0.0088

> <Gold.Chemscore.DEInternal.Weighted>
0.4754

> <Gold.Chemscore.Rot.Weighted>
5.5801

> <Gold.Chemscore.Internal.Correction.Weighted>
   9.000000E+99

> <Gold.Protein.RotatedTorsions>
[ 6907 6896 6895 6894 ] final  -78.10 input  -60.11 | X-H torsion
[ 7974 7965 7964 7962 ] final   47.56 input  175.53 | X-H torsion
[ 8008 7997 7996 7995 ] final  131.72 input   59.86 | X-H torsion
[ 10167 10162 10161 10158 ] final    5.49 input  -65.29 | X-H torsion
[ 10718 10713 10712 10709 ] final -131.62 input   66.30 | X-H torsion
[ 10763 10752 10751 10750 ] final  -12.87 input  -60.55 | X-H torsion
[ 11005 11000 10999 10996 ] final   70.37 input  -57.11 | X-H torsion

> <Gold.Protein.ActiveResidues>
 VAL166  LYS551  ARG553  GLY616  TRP617  ASP618  TYR619  PRO620  LYS621  CYS622 
 ASP623  PHE694  ASN695  SER759  ASP760  ASP761  ALA762  ILE779  LEU786  VAL792 
 PHE793  MET794  SER795  GLU796  ALA797  LYS798  CYS799  TRP800  GLU811  SER814 

> <Gold.Protein.RotatedAtoms>
  150.6981  134.4323  159.5253 H   0  0  0  0  0  0  0  0  0  0  0  0  # atno 6907 bound_to 6896
  152.2047  134.8553  160.0513 H   0  0  0  0  0  0  0  0  0  0  0  0  # atno 6908 bound_to 6896
  151.9460  133.3617  159.4019 H   0  0  0  0  0  0  0  0  0  0  0  0  # atno 6909 bound_to 6896
  146.0286  139.4736  142.9852 H   0  0  0  0  0  0  0  0  0  0  0  0  # atno 7974 bound_to 7965
  156.2973  140.2564  156.2971 H   0  0  0  0  0  0  0  0  0  0  0  0  # atno 8008 bound_to 7997
  154.9453  140.0395  157.2136 H   0  0  0  0  0  0  0  0  0  0  0  0  # atno 8009 bound_to 7997
  154.8087  140.2840  155.5873 H   0  0  0  0  0  0  0  0  0  0  0  0  # atno 8010 bound_to 7997
  140.6479  143.7617  150.7528 H   0  0  0  0  0  0  0  0  0  0  0  0  # atno 10167 bound_to 10162
  156.2263  130.7009  151.0810 H   0  0  0  0  0  0  0  0  0  0  0  0  # atno 10718 bound_to 10713
  153.5049  135.7017  153.5812 H   0  0  0  0  0  0  0  0  0  0  0  0  # atno 10763 bound_to 10752
  153.3927  135.3892  155.1934 H   0  0  0  0  0  0  0  0  0  0  0  0  # atno 10764 bound_to 10752
  154.8708  135.3862  154.4523 H   0  0  0  0  0  0  0  0  0  0  0  0  # atno 10765 bound_to 10752
  139.9602  134.7075  156.0664 H   0  0  0  0  0  0  0  0  0  0  0  0  # atno 11005 bound_to 11000
  145.7077  141.0116  143.1470 LP  0  0  0  0  0  0  0  0  0  0  0  0  # atno 17320 bound_to 7965
  144.7020  139.8720  143.7441 LP  0  0  0  0  0  0  0  0  0  0  0  0  # atno 17321 bound_to 7965
  140.1262  143.4567  152.2283 LP  0  0  0  0  0  0  0  0  0  0  0  0  # atno 17342 bound_to 10162
  139.5691  144.7452  151.3940 LP  0  0  0  0  0  0  0  0  0  0  0  0  # atno 17343 bound_to 10162
  157.7112  131.0733  150.6495 LP  0  0  0  0  0  0  0  0  0  0  0  0  # atno 17370 bound_to 10713
  156.6560  130.4498  149.5703 LP  0  0  0  0  0  0  0  0  0  0  0  0  # atno 17371 bound_to 10713
  141.1278  133.6594  156.3383 LP  0  0  0  0  0  0  0  0  0  0  0  0  # atno 17394 bound_to 11000
  140.5518  134.6020  157.5410 LP  0  0  0  0  0  0  0  0  0  0  0  0  # atno 17395 bound_to 11000

$$$$
