AV-unprocessed.smi:1389|AV-procd|sdf|5653|dock6
  -GOLD-   22720 5273D 1   1.00000     0.00000
 Structure written by MMmdl.
 53 55  0  0  0  0  0  0  0  0  3 V2000
  146.9127  135.5135  156.9376 C   0  0  0  0  0  0  0  0  0  0  0  0
  147.6230  135.2718  158.2875 C   0  0  1  0  0  0  0  0  0  0  0  0
  149.0750  135.8167  158.2228 C   0  0  0  0  0  0  0  0  0  0  0  0
  149.1804  137.1431  157.6142 N   0  0  0  0  0  0  0  0  0  0  0  0
  149.8736  138.1731  158.1209 C   0  0  0  0  0  0  0  0  0  0  0  0
  150.5583  138.0966  159.1403 O   0  0  0  0  0  0  0  0  0  0  0  0
  149.7033  139.2879  157.3899 N   0  0  0  0  0  0  0  0  0  0  0  0
  150.2141  140.5899  157.6601 C   0  0  0  0  0  0  0  0  0  0  0  0
  151.2241  140.7921  158.6359 C   0  0  0  0  0  0  0  0  0  0  0  0
  151.6951  142.0914  158.9023 C   0  0  0  0  0  0  0  0  0  0  0  0
  151.1527  143.1712  158.1853 C   0  0  0  0  0  0  0  0  0  0  0  0
  150.2084  142.9448  157.2490 N   0  3  0  0  0  0  0  0  0  0  0  0
  149.7244  141.7165  156.9365 C   0  0  0  0  0  0  0  0  0  0  0  0
  148.7427  141.6332  155.9228 N   0  0  0  0  0  0  0  0  0  0  0  0
  149.1178  141.2741  154.5600 C   0  0  0  0  0  0  0  0  0  0  0  0
  147.8018  140.9414  153.8622 C   0  0  0  0  0  0  0  0  0  0  0  0
  146.9928  140.2937  154.9818 C   0  0  0  0  0  0  0  0  0  0  0  0
  147.4452  141.0445  156.2390 C   0  0  0  0  0  0  0  0  0  0  0  0
  146.8427  135.8101  159.4496 N   0  3  0  0  0  0  0  0  0  0  0  0
  147.6317  135.9059  160.7093 C   0  0  0  0  0  0  0  0  0  0  0  0
  146.7812  136.4593  161.8650 C   0  0  0  0  0  0  0  0  0  0  0  0
  146.2467  137.7240  161.5062 O   0  0  0  0  0  0  0  0  0  0  0  0
  145.3923  137.6229  160.3778 C   0  0  0  0  0  0  0  0  0  0  0  0
  146.1938  137.1202  159.1656 C   0  0  0  0  0  0  0  0  0  0  0  0
  147.5556  135.2382  156.1011 H   0  0  0  0  0  0  0  0  0  0  0  0
  146.6369  136.5606  156.8095 H   0  0  0  0  0  0  0  0  0  0  0  0
  146.0105  134.9108  156.8351 H   0  0  0  0  0  0  0  0  0  0  0  0
  147.6942  134.1905  158.4156 H   0  0  0  0  0  0  0  0  0  0  0  0
  149.4961  135.8817  159.2258 H   0  0  0  0  0  0  0  0  0  0  0  0
  149.7221  135.1065  157.7051 H   0  0  0  0  0  0  0  0  0  0  0  0
  148.6391  137.3014  156.7768 H   0  0  0  0  0  0  0  0  0  0  0  0
  149.0334  139.2293  156.6372 H   0  0  0  0  0  0  0  0  0  0  0  0
  151.6490  139.9650  159.1847 H   0  0  0  0  0  0  0  0  0  0  0  0
  152.4596  142.2563  159.6476 H   0  0  0  0  0  0  0  0  0  0  0  0
  151.4485  144.2013  158.3240 H   0  0  0  0  0  0  0  0  0  0  0  0
  149.6450  142.0889  154.0629 H   0  0  0  0  0  0  0  0  0  0  0  0
  149.7635  140.3949  154.5605 H   0  0  0  0  0  0  0  0  0  0  0  0
  147.3117  141.8578  153.5305 H   0  0  0  0  0  0  0  0  0  0  0  0
  147.9316  140.2919  152.9962 H   0  0  0  0  0  0  0  0  0  0  0  0
  145.9163  140.3508  154.8177 H   0  0  0  0  0  0  0  0  0  0  0  0
  147.2638  139.2402  155.0647 H   0  0  0  0  0  0  0  0  0  0  0  0
  147.4935  140.3794  157.1022 H   0  0  0  0  0  0  0  0  0  0  0  0
  146.7429  141.8472  156.4654 H   0  0  0  0  0  0  0  0  0  0  0  0
  148.0011  134.9279  161.0138 H   0  0  0  0  0  0  0  0  0  0  0  0
  148.5010  136.5452  160.5478 H   0  0  0  0  0  0  0  0  0  0  0  0
  145.9768  135.7686  162.1235 H   0  0  0  0  0  0  0  0  0  0  0  0
  147.3956  136.5783  162.7577 H   0  0  0  0  0  0  0  0  0  0  0  0
  144.5542  136.9586  160.5953 H   0  0  0  0  0  0  0  0  0  0  0  0
  144.9712  138.6062  160.1666 H   0  0  0  0  0  0  0  0  0  0  0  0
  146.9552  137.8533  158.8944 H   0  0  0  0  0  0  0  0  0  0  0  0
  145.5091  137.0423  158.3228 H   0  0  0  0  0  0  0  0  0  0  0  0
  146.0993  135.1502  159.6282 H   0  0  0  0  0  0  0  0  0  0  0  0
  149.8413  143.7484  156.7390 H   0  0  0  0  0  0  0  0  0  0  0  0
  1  2  1  0  0  0  0
  1 25  1  0  0  0  0
  1 26  1  0  0  0  0
  1 27  1  0  0  0  0
  2  3  1  0  0  0  0
  2 19  1  0  0  0  0
  2 28  1  0  0  0  0
  3  4  1  0  0  0  0
  3 29  1  0  0  0  0
  3 30  1  0  0  0  0
  4  5  1  0  0  0  0
  4 31  1  0  0  0  0
  5  6  2  0  0  0  0
  5  7  1  0  0  0  0
  7  8  1  0  0  0  0
  7 32  1  0  0  0  0
  8 13  1  0  0  0  0
  8  9  2  0  0  0  0
  9 10  1  0  0  0  0
  9 33  1  0  0  0  0
 10 11  2  0  0  0  0
 10 34  1  0  0  0  0
 11 12  1  0  0  0  0
 11 35  1  0  0  0  0
 12 13  2  0  0  0  0
 12 53  1  0  0  0  0
 13 14  1  0  0  0  0
 14 18  1  0  0  0  0
 14 15  1  0  0  0  0
 15 16  1  0  0  0  0
 15 36  1  0  0  0  0
 15 37  1  0  0  0  0
 16 17  1  0  0  0  0
 16 38  1  0  0  0  0
 16 39  1  0  0  0  0
 17 18  1  0  0  0  0
 17 40  1  0  0  0  0
 17 41  1  0  0  0  0
 18 42  1  0  0  0  0
 18 43  1  0  0  0  0
 19 24  1  0  0  0  0
 19 20  1  0  0  0  0
 19 52  1  0  0  0  0
 20 21  1  0  0  0  0
 20 44  1  0  0  0  0
 20 45  1  0  0  0  0
 21 22  1  0  0  0  0
 21 46  1  0  0  0  0
 21 47  1  0  0  0  0
 22 23  1  0  0  0  0
 23 24  1  0  0  0  0
 23 48  1  0  0  0  0
 23 49  1  0  0  0  0
 24 50  1  0  0  0  0
 24 51  1  0  0  0  0
M  CHG  1  12   1
M  CHG  1  19   1
M  END
> <s_m_source_file>
AV-unprocessed.smi

> <i_m_source_file_index>
1389

> <i_lp_mmshare_version>
43012

> <i_f3d_flags>
0

> <s_epik_input>
W0NIMl0xW0NIMl1PW0NIMl1bQ0gyXU4xW0NASF0oW0NIM10pW0NIMl1bTkhdQyg9TylbTkhdYzJbY0hdW2NIXVtjSF1uYzJOM1tDSDJdW0NIMl1bQ0gyXVtDSDJdMw==

> <s_epik_cmdline>
J2VwaWtfcHl0aG9uJywgJy1waCcsICc3LjAnLCAnLXRuJywgJzgnLCAnLW1hJywgJzIwMCcsICctbWV0YWxfYmluZGluZycsICctaW1hZScsICc8aW5maWxlLm1hZT4nLCAnLW9tYWUnLCAnPG91dGZpbGUubWFlPic=

> <r_lp_tautomer_probability>
0.999994

> <r_epik_Ionization_Penalty>
1.80872

> <r_epik_Ionization_Penalty_Charging>
1.8087

> <r_epik_Ionization_Penalty_Neutral>
2.02981e-05

> <r_epik_State_Penalty>
1.84892

> <r_epik_Charging_Adjusted_Penalty>
3.65762

> <i_epik_Tot_Q>
2

> <i_epik_Tot_abs_Q>
2

> <r_epik_Metal_State_Penalty>
1.9311

> <b_epik_Metal_Only>
0

> <s_lp_Force_Field>
OPLS_2005

> <r_lp_Energy>
68.1678

> <b_lp_Chiralities_Consistent>
1

> <s_lp_Variant>
AV-unprocessed.smi:1389-8

> <Gold.Version>
5.8.1

> <Gold.Id.Protein>
6NUR|6NUR_protein|mol2

> <Gold.PLP.Fitness>
34.9041

> <Gold.PLP.PLP>
-27.4809

> <Gold.PLP.part.hbond>
-2.5619

> <Gold.PLP.part.metal>
0.0000

> <Gold.PLP.part.buried>
-5.3865

> <Gold.PLP.part.nonpolar>
-20.4779

> <Gold.PLP.part.repulsive>
0.4234

> <Gold.PLP.ligand.clash>
0.0000

> <Gold.PLP.ligand.torsion>
0.9763

> <Gold.PLP.Chemscore.Hbond>
2.9760

> <Gold.PLP.Chemscore.CHOScore>
0.0000

> <Gold.PLP.Chemscore.Metal>
0.0000

> <Gold.Chemscore.Hbonds>
donor molecule, donor type, donor heavy atom, donor atom, acceptor molecule, acceptor atom, score
      L1  H    12    53       P1  8028  2.00
      P1  H  6934  6947       L1    22  0.84

> <Gold.PLP.Chemscore.Internal.Correction>
0.4478

> <Gold.Rescore>
     Score         DG    S(hbond)    S(metal)    S(lipo)     H(rot)  DE(clash)    DE(int)     intcor
     13.36     -15.53       1.89        0.00      68.37       1.66       0.02       2.14       ----

> <Gold.Chemscore.Fitness>
13.3630

> <Gold.Chemscore.DG>
-15.5264

> <Gold.Chemscore.ZeroCoef>
-5.4800

> <Gold.Chemscore.Hbond>
1.8869

> <Gold.Chemscore.Metal>
0.0000

> <Gold.Chemscore.Lipo>
68.3661

> <Gold.Chemscore.Internal_Hbond>
0.0000

> <Gold.Chemscore.DEClash>
0.0197

> <Gold.Chemscore.DEInternal>
2.1437

> <Gold.Chemscore.Rot>
1.6620

> <Gold.Chemscore.Internal.Correction>
   9.000000E+99

> <Gold.Chemscore.Hbonds>
donor molecule, donor type, donor heavy atom, donor atom, acceptor molecule, acceptor atom, score
      L1  H    12    53       P1  8028  0.99
      P1  H  6934  6947       L1    22  0.14

> <Gold.Chemscore.Hbond.Weighted>
-6.3022

> <Gold.Chemscore.Metal.Weighted>
-0.0000

> <Gold.Chemscore.Lipo.Weighted>
-7.9988

> <Gold.Chemscore.Internal_Hbond.Weighted>
0.0000

> <Gold.Chemscore.DEClash.Weighted>
0.0197

> <Gold.Chemscore.DEInternal.Weighted>
2.1437

> <Gold.Chemscore.Rot.Weighted>
4.2547

> <Gold.Chemscore.Internal.Correction.Weighted>
   9.000000E+99

> <Gold.Protein.RotatedTorsions>
[ 6907 6896 6895 6894 ] final -103.31 input  -60.11 | X-H torsion
[ 7974 7965 7964 7962 ] final  -97.56 input  175.53 | X-H torsion
[ 8008 7997 7996 7995 ] final    8.89 input   59.86 | X-H torsion
[ 10167 10162 10161 10158 ] final  -35.98 input  -65.29 | X-H torsion
[ 10718 10713 10712 10709 ] final    7.76 input   66.30 | X-H torsion
[ 10763 10752 10751 10750 ] final  -95.77 input  -60.55 | X-H torsion
[ 11005 11000 10999 10996 ] final  -52.31 input  -57.11 | X-H torsion

> <Gold.Protein.ActiveResidues>
 VAL166  LYS551  ARG553  GLY616  TRP617  ASP618  TYR619  PRO620  LYS621  CYS622 
 ASP623  PHE694  ASN695  SER759  ASP760  ASP761  ALA762  ILE779  LEU786  VAL792 
 PHE793  MET794  SER795  GLU796  ALA797  LYS798  CYS799  TRP800  GLU811  SER814 

> <Gold.Protein.RotatedAtoms>
  150.7235  134.0448  159.3777 H   0  0  0  0  0  0  0  0  0  0  0  0  # atno 6907 bound_to 6896
  151.8423  135.0584  160.0459 H   0  0  0  0  0  0  0  0  0  0  0  0  # atno 6908 bound_to 6896
  152.2853  133.5473  159.5560 H   0  0  0  0  0  0  0  0  0  0  0  0  # atno 6909 bound_to 6896
  145.3321  140.9443  143.2655 H   0  0  0  0  0  0  0  0  0  0  0  0  # atno 7974 bound_to 7965
  154.7728  140.2805  155.6124 H   0  0  0  0  0  0  0  0  0  0  0  0  # atno 8008 bound_to 7997
  156.2937  140.2638  156.2463 H   0  0  0  0  0  0  0  0  0  0  0  0  # atno 8009 bound_to 7997
  154.9878  140.0374  157.2296 H   0  0  0  0  0  0  0  0  0  0  0  0  # atno 8010 bound_to 7997
  140.7153  143.3440  151.2296 H   0  0  0  0  0  0  0  0  0  0  0  0  # atno 10167 bound_to 10162
  156.9417  130.5863  149.5653 H   0  0  0  0  0  0  0  0  0  0  0  0  # atno 10718 bound_to 10713
  154.7178  135.5108  153.8765 H   0  0  0  0  0  0  0  0  0  0  0  0  # atno 10763 bound_to 10752
  153.0836  135.6638  154.0004 H   0  0  0  0  0  0  0  0  0  0  0  0  # atno 10764 bound_to 10752
  153.9833  135.3027  155.3398 H   0  0  0  0  0  0  0  0  0  0  0  0  # atno 10765 bound_to 10752
  141.0917  133.6631  156.4005 H   0  0  0  0  0  0  0  0  0  0  0  0  # atno 11005 bound_to 11000
  144.8856  139.4844  143.6702 LP  0  0  0  0  0  0  0  0  0  0  0  0  # atno 17320 bound_to 7965
  146.3041  139.7522  142.9069 LP  0  0  0  0  0  0  0  0  0  0  0  0  # atno 17321 bound_to 7965
  139.6955  143.9621  152.2880 LP  0  0  0  0  0  0  0  0  0  0  0  0  # atno 17342 bound_to 10162
  139.9296  144.6749  150.8376 LP  0  0  0  0  0  0  0  0  0  0  0  0  # atno 17343 bound_to 10162
  156.0401  130.5485  150.8751 LP  0  0  0  0  0  0  0  0  0  0  0  0  # atno 17370 bound_to 10713
  157.5781  131.0946  150.9314 LP  0  0  0  0  0  0  0  0  0  0  0  0  # atno 17371 bound_to 10713
  140.5236  134.6281  157.5326 LP  0  0  0  0  0  0  0  0  0  0  0  0  # atno 17394 bound_to 11000
  139.9745  134.7239  155.9977 LP  0  0  0  0  0  0  0  0  0  0  0  0  # atno 17395 bound_to 11000

$$$$
