AV-unprocessed.smi:1115|AV-procd|sdf|4806|dock7
  -GOLD-   22720 3353D 1   1.00000     0.00000
 Structure written by MMmdl.
 51 52  0  0  0  0  0  0  0  0  4 V2000
  151.5537  145.0690  158.1595 C   0  0  0  0  0  0  0  0  0  0  0  0
  151.8898  143.7280  158.6188 N   0  0  0  0  0  0  0  0  0  0  0  0
  152.9617  143.5313  159.5882 C   0  0  0  0  0  0  0  0  0  0  0  0
  151.2873  142.6081  158.0057 C   0  0  0  0  0  0  0  0  0  0  0  0
  151.4473  141.2839  158.4825 C   0  0  0  0  0  0  0  0  0  0  0  0
  150.8113  140.2166  157.8159 C   0  0  0  0  0  0  0  0  0  0  0  0
  150.0274  140.4709  156.6722 C   0  0  0  0  0  0  0  0  0  0  0  0
  149.3869  139.3657  156.0491 N   0  0  0  0  0  0  0  0  0  0  0  0
  148.9472  139.2388  154.7841 C   0  0  0  0  0  0  0  0  0  0  0  0
  149.1189  140.1509  153.9678 O   0  0  0  0  0  0  0  0  0  0  0  0
  148.3528  138.0351  154.5690 N   0  5  0  0  0  0  0  0  0  0  0  0
  147.6817  137.2440  155.6067 C   0  0  0  0  0  0  0  0  0  0  0  0
  148.1985  135.7619  155.6099 C   0  0  0  0  0  0  0  0  0  0  0  0
  149.7528  135.7348  155.6043 C   0  0  0  0  0  0  0  0  0  0  0  0
  147.7702  135.0923  156.9534 C   0  0  0  0  0  0  0  0  0  0  0  0
  147.6396  135.0390  154.3999 N   0  3  0  0  0  0  0  0  0  0  0  0
  148.0112  133.5978  154.2574 C   0  0  0  0  0  0  0  0  0  0  0  0
  147.5997  133.0693  152.8762 C   0  0  0  0  0  0  0  0  0  0  0  0
  146.1958  133.2173  152.7212 O   0  0  0  0  0  0  0  0  0  0  0  0
  145.8054  134.5818  152.7744 C   0  0  0  0  0  0  0  0  0  0  0  0
  146.1806  135.1937  154.1360 C   0  0  0  0  0  0  0  0  0  0  0  0
  149.8874  141.8111  156.2415 C   0  0  0  0  0  0  0  0  0  0  0  0
  150.5139  142.8036  156.9098 N   0  3  0  0  0  0  0  0  0  0  0  0
  151.7496  145.1696  157.0918 H   0  0  0  0  0  0  0  0  0  0  0  0
  152.1425  145.8255  158.6786 H   0  0  0  0  0  0  0  0  0  0  0  0
  150.5006  145.2834  158.3429 H   0  0  0  0  0  0  0  0  0  0  0  0
  153.8138  143.0369  159.1209 H   0  0  0  0  0  0  0  0  0  0  0  0
  152.6177  142.9184  160.4215 H   0  0  0  0  0  0  0  0  0  0  0  0
  153.3068  144.4817  159.9959 H   0  0  0  0  0  0  0  0  0  0  0  0
  152.0489  141.0659  159.3520 H   0  0  0  0  0  0  0  0  0  0  0  0
  150.9314  139.2070  158.1810 H   0  0  0  0  0  0  0  0  0  0  0  0
  149.2960  138.5384  156.6202 H   0  0  0  0  0  0  0  0  0  0  0  0
  147.8508  137.6765  156.5934 H   0  0  0  0  0  0  0  0  0  0  0  0
  146.5990  137.2463  155.4760 H   0  0  0  0  0  0  0  0  0  0  0  0
  150.1734  136.1693  156.5137 H   0  0  0  0  0  0  0  0  0  0  0  0
  150.1977  136.2748  154.7663 H   0  0  0  0  0  0  0  0  0  0  0  0
  150.1209  134.7095  155.5535 H   0  0  0  0  0  0  0  0  0  0  0  0
  148.1273  135.6416  157.8276 H   0  0  0  0  0  0  0  0  0  0  0  0
  148.1918  134.0914  157.0529 H   0  0  0  0  0  0  0  0  0  0  0  0
  146.6874  134.9970  157.0579 H   0  0  0  0  0  0  0  0  0  0  0  0
  149.0836  133.4476  154.3802 H   0  0  0  0  0  0  0  0  0  0  0  0
  147.5154  133.0039  155.0263 H   0  0  0  0  0  0  0  0  0  0  0  0
  148.1311  133.5942  152.0804 H   0  0  0  0  0  0  0  0  0  0  0  0
  147.8536  132.0128  152.7877 H   0  0  0  0  0  0  0  0  0  0  0  0
  146.2750  135.1356  151.9599 H   0  0  0  0  0  0  0  0  0  0  0  0
  144.7283  134.6457  152.6196 H   0  0  0  0  0  0  0  0  0  0  0  0
  145.6095  134.7215  154.9365 H   0  0  0  0  0  0  0  0  0  0  0  0
  145.8870  136.2413  154.0976 H   0  0  0  0  0  0  0  0  0  0  0  0
  149.2918  142.1345  155.4012 H   0  0  0  0  0  0  0  0  0  0  0  0
  150.3928  143.7577  156.5702 H   0  0  0  0  0  0  0  0  0  0  0  0
  148.0894  135.5125  153.6279 H   0  0  0  0  0  0  0  0  0  0  0  0
  1  2  1  0  0  0  0
  1 24  1  0  0  0  0
  1 25  1  0  0  0  0
  1 26  1  0  0  0  0
  2  3  1  0  0  0  0
  2  4  1  0  0  0  0
  3 27  1  0  0  0  0
  3 28  1  0  0  0  0
  3 29  1  0  0  0  0
  4 23  1  0  0  0  0
  4  5  2  0  0  0  0
  5  6  1  0  0  0  0
  5 30  1  0  0  0  0
  6  7  2  0  0  0  0
  6 31  1  0  0  0  0
  7  8  1  0  0  0  0
  7 22  1  0  0  0  0
  8  9  1  0  0  0  0
  8 32  1  0  0  0  0
  9 10  2  0  0  0  0
  9 11  1  0  0  0  0
 11 12  1  0  0  0  0
 12 13  1  0  0  0  0
 12 33  1  0  0  0  0
 12 34  1  0  0  0  0
 13 14  1  0  0  0  0
 13 15  1  0  0  0  0
 13 16  1  0  0  0  0
 14 35  1  0  0  0  0
 14 36  1  0  0  0  0
 14 37  1  0  0  0  0
 15 38  1  0  0  0  0
 15 39  1  0  0  0  0
 15 40  1  0  0  0  0
 16 21  1  0  0  0  0
 16 17  1  0  0  0  0
 16 51  1  0  0  0  0
 17 18  1  0  0  0  0
 17 41  1  0  0  0  0
 17 42  1  0  0  0  0
 18 19  1  0  0  0  0
 18 43  1  0  0  0  0
 18 44  1  0  0  0  0
 19 20  1  0  0  0  0
 20 21  1  0  0  0  0
 20 45  1  0  0  0  0
 20 46  1  0  0  0  0
 21 47  1  0  0  0  0
 21 48  1  0  0  0  0
 22 23  2  0  0  0  0
 22 49  1  0  0  0  0
 23 50  1  0  0  0  0
M  CHG  1  11  -1
M  CHG  1  16   1
M  CHG  1  23   1
M  END
> <s_m_source_file>
AV-unprocessed.smi

> <i_m_source_file_index>
1115

> <i_lp_mmshare_version>
43012

> <i_f3d_flags>
0

> <s_epik_input>
W0NIM11OKFtDSDNdKWMxW2NIXVtjSF1jKFtjSF1uMSlbTkhdQyg9TylbTkhdW0NIMl1DKFtDSDNdKShbQ0gzXSlOMltDSDJdW0NIMl1PW0NIMl1bQ0gyXTI=

> <s_epik_cmdline>
J2VwaWtfcHl0aG9uJywgJy1waCcsICc3LjAnLCAnLXRuJywgJzgnLCAnLW1hJywgJzIwMCcsICctbWV0YWxfYmluZGluZycsICctaW1hZScsICc8aW5maWxlLm1hZT4nLCAnLW9tYWUnLCAnPG91dGZpbGUubWFlPic=

> <r_lp_tautomer_probability>
0.999994

> <r_epik_Ionization_Penalty>
7.4335

> <r_epik_Ionization_Penalty_Charging>
7.4335

> <r_epik_Ionization_Penalty_Neutral>
3.43851e-06

> <r_epik_State_Penalty>
7.6346

> <r_epik_Charging_Adjusted_Penalty>
15.0681

> <i_epik_Tot_Q>
1

> <i_epik_Tot_abs_Q>
3

> <r_epik_Metal_State_Penalty>
3.83601

> <b_epik_Metal_Only>
1

> <s_lp_Force_Field>
OPLS_2005

> <r_lp_Energy>
31.3993

> <b_lp_Chiralities_Consistent>
1

> <s_lp_Variant>
AV-unprocessed.smi:1115-5

> <Gold.Version>
5.8.1

> <Gold.Id.Protein>
6NUR|6NUR_protein|mol2

> <Gold.PLP.Fitness>
44.6023

> <Gold.PLP.PLP>
-33.8528

> <Gold.PLP.part.hbond>
-2.0000

> <Gold.PLP.part.metal>
0.0000

> <Gold.PLP.part.buried>
-5.9122

> <Gold.PLP.part.nonpolar>
-27.8805

> <Gold.PLP.part.repulsive>
1.2866

> <Gold.PLP.ligand.clash>
0.0000

> <Gold.PLP.ligand.torsion>
0.6224

> <Gold.PLP.Chemscore.Hbond>
3.9200

> <Gold.PLP.Chemscore.CHOScore>
0.0000

> <Gold.PLP.Chemscore.Metal>
0.0000

> <Gold.Chemscore.Hbonds>
donor molecule, donor type, donor heavy atom, donor atom, acceptor molecule, acceptor atom, score
      L1  H    16    51       P1  7948  1.76
      L1  H    23    50       P1  8028  1.38

> <Gold.PLP.Chemscore.Internal.Correction>
0.2342

> <Gold.Rescore>
     Score         DG    S(hbond)    S(metal)    S(lipo)     H(rot)  DE(clash)    DE(int)     intcor
     14.87     -16.95       1.86        0.00      76.96       1.46       0.30       1.78       ----

> <Gold.Chemscore.Fitness>
14.8730

> <Gold.Chemscore.DG>
-16.9533

> <Gold.Chemscore.ZeroCoef>
-5.4800

> <Gold.Chemscore.Hbond>
1.8618

> <Gold.Chemscore.Metal>
0.0000

> <Gold.Chemscore.Lipo>
76.9638

> <Gold.Chemscore.Internal_Hbond>
0.0000

> <Gold.Chemscore.DEClash>
0.3030

> <Gold.Chemscore.DEInternal>
1.7773

> <Gold.Chemscore.Rot>
1.4648

> <Gold.Chemscore.Internal.Correction>
   9.000000E+99

> <Gold.Chemscore.Hbonds>
donor molecule, donor type, donor heavy atom, donor atom, acceptor molecule, acceptor atom, score
      L1  H    16    51       P1  7948  0.86
      L1  H    23    50       P1  8028  0.68

> <Gold.Chemscore.Hbond.Weighted>
-6.2184

> <Gold.Chemscore.Metal.Weighted>
-0.0000

> <Gold.Chemscore.Lipo.Weighted>
-9.0048

> <Gold.Chemscore.Internal_Hbond.Weighted>
0.0000

> <Gold.Chemscore.DEClash.Weighted>
0.3030

> <Gold.Chemscore.DEInternal.Weighted>
1.7773

> <Gold.Chemscore.Rot.Weighted>
3.7499

> <Gold.Chemscore.Internal.Correction.Weighted>
   9.000000E+99

> <Gold.Protein.RotatedTorsions>
[ 6907 6896 6895 6894 ] final  -15.91 input  -60.11 | X-H torsion
[ 7974 7965 7964 7962 ] final   51.68 input  175.53 | X-H torsion
[ 8008 7997 7996 7995 ] final  -68.44 input   59.86 | X-H torsion
[ 10167 10162 10161 10158 ] final -139.38 input  -65.29 | X-H torsion
[ 10718 10713 10712 10709 ] final   84.72 input   66.30 | X-H torsion
[ 10763 10752 10751 10750 ] final  109.98 input  -60.55 | X-H torsion
[ 11005 11000 10999 10996 ] final   11.21 input  -57.11 | X-H torsion

> <Gold.Protein.ActiveResidues>
 VAL166  LYS551  ARG553  GLY616  TRP617  ASP618  TYR619  PRO620  LYS621  CYS622 
 ASP623  PHE694  ASN695  SER759  ASP760  ASP761  ALA762  ILE779  LEU786  VAL792 
 PHE793  MET794  SER795  GLU796  ALA797  LYS798  CYS799  TRP800  GLU811  SER814 

> <Gold.Protein.RotatedAtoms>
  151.3167  135.0808  159.9290 H   0  0  0  0  0  0  0  0  0  0  0  0  # atno 6907 bound_to 6896
  152.5266  133.9681  159.7759 H   0  0  0  0  0  0  0  0  0  0  0  0  # atno 6908 bound_to 6896
  150.9994  133.6019  159.2727 H   0  0  0  0  0  0  0  0  0  0  0  0  # atno 6909 bound_to 6896
  145.9889  139.4318  143.0086 H   0  0  0  0  0  0  0  0  0  0  0  0  # atno 7974 bound_to 7965
  154.4868  140.0873  156.7504 H   0  0  0  0  0  0  0  0  0  0  0  0  # atno 8008 bound_to 7997
  155.4330  140.3450  155.4264 H   0  0  0  0  0  0  0  0  0  0  0  0  # atno 8009 bound_to 7997
  156.1273  140.1491  156.9106 H   0  0  0  0  0  0  0  0  0  0  0  0  # atno 8010 bound_to 7997
  139.8386  143.7352  152.2664 H   0  0  0  0  0  0  0  0  0  0  0  0  # atno 10167 bound_to 10162
  157.6903  131.0145  150.2714 H   0  0  0  0  0  0  0  0  0  0  0  0  # atno 10718 bound_to 10713
  153.4424  135.3763  155.2236 H   0  0  0  0  0  0  0  0  0  0  0  0  # atno 10763 bound_to 10752
  154.8754  135.3866  154.4136 H   0  0  0  0  0  0  0  0  0  0  0  0  # atno 10764 bound_to 10752
  153.4684  135.7087  153.6072 H   0  0  0  0  0  0  0  0  0  0  0  0  # atno 10765 bound_to 10752
  140.5058  134.0701  155.7805 H   0  0  0  0  0  0  0  0  0  0  0  0  # atno 11005 bound_to 11000
  145.7659  140.9916  143.1175 LP  0  0  0  0  0  0  0  0  0  0  0  0  # atno 17320 bound_to 7965
  144.6883  139.9388  143.7474 LP  0  0  0  0  0  0  0  0  0  0  0  0  # atno 17321 bound_to 7965
  139.7582  144.7514  151.0403 LP  0  0  0  0  0  0  0  0  0  0  0  0  # atno 17342 bound_to 10162
  140.7800  143.4781  151.0055 LP  0  0  0  0  0  0  0  0  0  0  0  0  # atno 17343 bound_to 10162
  156.3276  130.3795  149.7519 LP  0  0  0  0  0  0  0  0  0  0  0  0  # atno 17370 bound_to 10713
  156.5069  130.8154  151.3154 LP  0  0  0  0  0  0  0  0  0  0  0  0  # atno 17371 bound_to 10713
  141.1412  133.9135  157.2322 LP  0  0  0  0  0  0  0  0  0  0  0  0  # atno 17394 bound_to 11000
  139.9687  135.0134  156.9456 LP  0  0  0  0  0  0  0  0  0  0  0  0  # atno 17395 bound_to 11000

$$$$
