AV-unprocessed.smi:1793|AV-procd|sdf|7228|dock5
  -GOLD-   22720 8473D 1   1.00000     0.00000
 Structure written by MMmdl.
 47 49  0  0  0  0  0  0  0  0  2 V2000
  155.5589  137.8385  159.8120 C   0  0  0  0  0  0  0  0  0  0  0  0
  154.1048  137.4258  160.0989 C   0  0  2  0  0  0  0  0  0  0  0  0
  153.1901  138.3573  159.4442 N   0  0  0  0  0  0  0  0  0  0  0  0
  153.2312  139.6922  159.5538 C   0  0  0  0  0  0  0  0  0  0  0  0
  154.0378  140.2960  160.2607 O   0  0  0  0  0  0  0  0  0  0  0  0
  152.2973  140.2700  158.7801 N   0  0  0  0  0  0  0  0  0  0  0  0
  152.0636  141.6593  158.5765 C   0  0  0  0  0  0  0  0  0  0  0  0
  152.6501  142.6350  159.4231 C   0  0  0  0  0  0  0  0  0  0  0  0
  152.4204  144.0029  159.1845 C   0  0  0  0  0  0  0  0  0  0  0  0
  151.6030  144.3764  158.1044 C   0  0  0  0  0  0  0  0  0  0  0  0
  151.0425  143.4247  157.3301 N   0  3  0  0  0  0  0  0  0  0  0  0
  151.2133  142.0918  157.5172 C   0  0  0  0  0  0  0  0  0  0  0  0
  150.5508  141.2130  156.6296 N   0  0  0  0  0  0  0  0  0  0  0  0
  151.3104  140.2605  155.8279 C   0  0  0  0  0  0  0  0  0  0  0  0
  150.3266  139.7539  154.7769 C   0  0  0  0  0  0  0  0  0  0  0  0
  149.4766  140.9902  154.4996 C   0  0  0  0  0  0  0  0  0  0  0  0
  149.4125  141.6995  155.8564 C   0  0  0  0  0  0  0  0  0  0  0  0
  153.7932  137.3956  161.6073 C   0  0  2  0  0  0  0  0  0  0  0  0
  154.5389  138.4436  162.4386 C   0  0  0  0  0  0  0  0  0  0  0  0
  154.6998  137.7909  163.8047 C   0  0  0  0  0  0  0  0  0  0  0  0
  154.2218  136.3537  163.5931 C   0  0  0  0  0  0  0  0  0  0  0  0
  154.2389  136.1775  162.1855 O   0  0  0  0  0  0  0  0  0  0  0  0
  156.2653  137.1403  160.2614 H   0  0  0  0  0  0  0  0  0  0  0  0
  155.7752  138.8313  160.2079 H   0  0  0  0  0  0  0  0  0  0  0  0
  155.7607  137.8561  158.7405 H   0  0  0  0  0  0  0  0  0  0  0  0
  153.9403  136.4239  159.6974 H   0  0  0  0  0  0  0  0  0  0  0  0
  152.4952  137.9502  158.8357 H   0  0  0  0  0  0  0  0  0  0  0  0
  151.7725  139.6475  158.1836 H   0  0  0  0  0  0  0  0  0  0  0  0
  153.2721  142.3542  160.2596 H   0  0  0  0  0  0  0  0  0  0  0  0
  152.8673  144.7531  159.8204 H   0  0  0  0  0  0  0  0  0  0  0  0
  151.3739  145.3994  157.8424 H   0  0  0  0  0  0  0  0  0  0  0  0
  152.1471  140.7581  155.3358 H   0  0  0  0  0  0  0  0  0  0  0  0
  151.7030  139.4477  156.4398 H   0  0  0  0  0  0  0  0  0  0  0  0
  150.8190  139.3638  153.8859 H   0  0  0  0  0  0  0  0  0  0  0  0
  149.7046  138.9620  155.1969 H   0  0  0  0  0  0  0  0  0  0  0  0
  149.9853  141.6279  153.7752 H   0  0  0  0  0  0  0  0  0  0  0  0
  148.4911  140.7487  154.1005 H   0  0  0  0  0  0  0  0  0  0  0  0
  148.4941  141.4250  156.3760 H   0  0  0  0  0  0  0  0  0  0  0  0
  149.4273  142.7839  155.7378 H   0  0  0  0  0  0  0  0  0  0  0  0
  152.7183  137.4877  161.7762 H   0  0  0  0  0  0  0  0  0  0  0  0
  155.5239  138.6397  162.0126 H   0  0  0  0  0  0  0  0  0  0  0  0
  154.0018  139.3913  162.4859 H   0  0  0  0  0  0  0  0  0  0  0  0
  155.7451  137.8146  164.1149 H   0  0  0  0  0  0  0  0  0  0  0  0
  154.1104  138.2925  164.5730 H   0  0  0  0  0  0  0  0  0  0  0  0
  154.8545  135.6209  164.0944 H   0  0  0  0  0  0  0  0  0  0  0  0
  153.2010  136.2298  163.9579 H   0  0  0  0  0  0  0  0  0  0  0  0
  150.4464  143.7272  156.5597 H   0  0  0  0  0  0  0  0  0  0  0  0
  1  2  1  0  0  0  0
  1 23  1  0  0  0  0
  1 24  1  0  0  0  0
  1 25  1  0  0  0  0
  2  3  1  0  0  0  0
  2 18  1  0  0  0  0
  2 26  1  0  0  0  0
  3  4  1  0  0  0  0
  3 27  1  0  0  0  0
  4  5  2  0  0  0  0
  4  6  1  0  0  0  0
  6  7  1  0  0  0  0
  6 28  1  0  0  0  0
  7 12  1  0  0  0  0
  7  8  2  0  0  0  0
  8  9  1  0  0  0  0
  8 29  1  0  0  0  0
  9 10  2  0  0  0  0
  9 30  1  0  0  0  0
 10 11  1  0  0  0  0
 10 31  1  0  0  0  0
 11 12  2  0  0  0  0
 11 47  1  0  0  0  0
 12 13  1  0  0  0  0
 13 17  1  0  0  0  0
 13 14  1  0  0  0  0
 14 15  1  0  0  0  0
 14 32  1  0  0  0  0
 14 33  1  0  0  0  0
 15 16  1  0  0  0  0
 15 34  1  0  0  0  0
 15 35  1  0  0  0  0
 16 17  1  0  0  0  0
 16 36  1  0  0  0  0
 16 37  1  0  0  0  0
 17 38  1  0  0  0  0
 17 39  1  0  0  0  0
 18 22  1  0  0  0  0
 18 19  1  0  0  0  0
 18 40  1  0  0  0  0
 19 20  1  0  0  0  0
 19 41  1  0  0  0  0
 19 42  1  0  0  0  0
 20 21  1  0  0  0  0
 20 43  1  0  0  0  0
 20 44  1  0  0  0  0
 21 22  1  0  0  0  0
 21 45  1  0  0  0  0
 21 46  1  0  0  0  0
M  CHG  1  11   1
M  END
> <s_m_source_file>
AV-unprocessed.smi

> <i_m_source_file_index>
1793

> <i_lp_mmshare_version>
43012

> <i_f3d_flags>
0

> <s_epik_input>
TzFbQ0gyXVtDSDJdW0NIMl1bQ0BIXTFbQ0BIXShbQ0gzXSlbTkhdQyg9TylbTkhdYzJbY0hdW2NIXVtjSF1uYzJOM1tDSDJdW0NIMl1bQ0gyXVtDSDJdMw==

> <s_epik_cmdline>
J2VwaWtfcHl0aG9uJywgJy1waCcsICc3LjAnLCAnLXRuJywgJzgnLCAnLW1hJywgJzIwMCcsICctbWV0YWxfYmluZGluZycsICctaW1hZScsICc8aW5maWxlLm1hZT4nLCAnLW9tYWUnLCAnPG91dGZpbGUubWFlPic=

> <r_lp_tautomer_probability>
0.999994

> <r_epik_Ionization_Penalty>
1.11092

> <r_epik_Ionization_Penalty_Charging>
1.1109

> <r_epik_Ionization_Penalty_Neutral>
1.9363e-05

> <r_epik_State_Penalty>
1.16888

> <r_epik_Charging_Adjusted_Penalty>
2.27978

> <i_epik_Tot_Q>
1

> <i_epik_Tot_abs_Q>
1

> <r_epik_Metal_State_Penalty>
1.25472

> <b_epik_Metal_Only>
0

> <s_lp_Force_Field>
OPLS_2005

> <r_lp_Energy>
52.5047

> <b_lp_Chiralities_Consistent>
1

> <s_lp_Variant>
AV-unprocessed.smi:1793-5

> <Gold.Version>
5.8.1

> <Gold.Id.Protein>
6NUR|6NUR_protein|mol2

> <Gold.PLP.Fitness>
46.4233

> <Gold.PLP.PLP>
-41.9187

> <Gold.PLP.part.hbond>
-1.0000

> <Gold.PLP.part.metal>
0.0000

> <Gold.PLP.part.buried>
-4.0183

> <Gold.PLP.part.nonpolar>
-37.4958

> <Gold.PLP.part.repulsive>
0.2528

> <Gold.PLP.ligand.clash>
0.0000

> <Gold.PLP.ligand.torsion>
0.9661

> <Gold.PLP.Chemscore.Hbond>
2.0000

> <Gold.PLP.Chemscore.CHOScore>
0.0000

> <Gold.PLP.Chemscore.Metal>
0.0000

> <Gold.Chemscore.Hbonds>
donor molecule, donor type, donor heavy atom, donor atom, acceptor molecule, acceptor atom, score
      L1  H    11    47       P1  8028  1.95

> <Gold.PLP.Chemscore.Internal.Correction>
0.4367

> <Gold.Rescore>
     Score         DG    S(hbond)    S(metal)    S(lipo)     H(rot)  DE(clash)    DE(int)     intcor
     13.15     -17.82       0.99        0.00     107.26       1.38       0.05       4.62       ----

> <Gold.Chemscore.Fitness>
13.1503

> <Gold.Chemscore.DG>
-17.8170

> <Gold.Chemscore.ZeroCoef>
-5.4800

> <Gold.Chemscore.Hbond>
0.9941

> <Gold.Chemscore.Metal>
0.0000

> <Gold.Chemscore.Lipo>
107.2641

> <Gold.Chemscore.Internal_Hbond>
0.0000

> <Gold.Chemscore.DEClash>
0.0491

> <Gold.Chemscore.DEInternal>
4.6176

> <Gold.Chemscore.Rot>
1.3802

> <Gold.Chemscore.Internal.Correction>
   9.000000E+99

> <Gold.Chemscore.Hbonds>
donor molecule, donor type, donor heavy atom, donor atom, acceptor molecule, acceptor atom, score
      L1  H    11    47       P1  8028  0.90

> <Gold.Chemscore.Hbond.Weighted>
-3.3203

> <Gold.Chemscore.Metal.Weighted>
-0.0000

> <Gold.Chemscore.Lipo.Weighted>
-12.5499

> <Gold.Chemscore.Internal_Hbond.Weighted>
0.0000

> <Gold.Chemscore.DEClash.Weighted>
0.0491

> <Gold.Chemscore.DEInternal.Weighted>
4.6176

> <Gold.Chemscore.Rot.Weighted>
3.5332

> <Gold.Chemscore.Internal.Correction.Weighted>
   9.000000E+99

> <Gold.Protein.RotatedTorsions>
[ 6907 6896 6895 6894 ] final  122.05 input  -60.11 | X-H torsion
[ 7974 7965 7964 7962 ] final  113.68 input  175.53 | X-H torsion
[ 8008 7997 7996 7995 ] final -175.68 input   59.86 | X-H torsion
[ 10167 10162 10161 10158 ] final   64.47 input  -65.29 | X-H torsion
[ 10718 10713 10712 10709 ] final  -18.96 input   66.30 | X-H torsion
[ 10763 10752 10751 10750 ] final -107.57 input  -60.55 | X-H torsion
[ 11005 11000 10999 10996 ] final   42.63 input  -57.11 | X-H torsion

> <Gold.Protein.ActiveResidues>
 VAL166  LYS551  ARG553  GLY616  TRP617  ASP618  TYR619  PRO620  LYS621  CYS622 
 ASP623  PHE694  ASN695  SER759  ASP760  ASP761  ALA762  ILE779  LEU786  VAL792 
 PHE793  MET794  SER795  GLU796  ALA797  LYS798  CYS799  TRP800  GLU811  SER814 

> <Gold.Protein.RotatedAtoms>
  152.4274  133.7218  159.6537 H   0  0  0  0  0  0  0  0  0  0  0  0  # atno 6907 bound_to 6896
  150.8151  133.8341  159.3170 H   0  0  0  0  0  0  0  0  0  0  0  0  # atno 6908 bound_to 6896
  151.6039  135.1047  160.0118 H   0  0  0  0  0  0  0  0  0  0  0  0  # atno 6909 bound_to 6896
  145.2139  139.2893  143.4254 H   0  0  0  0  0  0  0  0  0  0  0  0  # atno 7974 bound_to 7965
  155.9856  140.1190  157.0686 H   0  0  0  0  0  0  0  0  0  0  0  0  # atno 8008 bound_to 7997
  154.4196  140.1136  156.5563 H   0  0  0  0  0  0  0  0  0  0  0  0  # atno 8009 bound_to 7997
  155.6412  140.3473  155.4718 H   0  0  0  0  0  0  0  0  0  0  0  0  # atno 8010 bound_to 7997
  140.1218  144.4724  150.6916 H   0  0  0  0  0  0  0  0  0  0  0  0  # atno 10167 bound_to 10162
  156.5522  130.4704  149.6446 H   0  0  0  0  0  0  0  0  0  0  0  0  # atno 10718 bound_to 10713
  154.8083  135.4670  154.0450 H   0  0  0  0  0  0  0  0  0  0  0  0  # atno 10763 bound_to 10752
  153.1901  135.6854  153.8371 H   0  0  0  0  0  0  0  0  0  0  0  0  # atno 10764 bound_to 10752
  153.7891  135.3245  155.3353 H   0  0  0  0  0  0  0  0  0  0  0  0  # atno 10765 bound_to 10752
  140.1721  134.4209  155.8251 H   0  0  0  0  0  0  0  0  0  0  0  0  # atno 11005 bound_to 11000
  146.3391  140.2424  142.8596 LP  0  0  0  0  0  0  0  0  0  0  0  0  # atno 17320 bound_to 7965
  144.9829  140.8476  143.5386 LP  0  0  0  0  0  0  0  0  0  0  0  0  # atno 17321 bound_to 7965
  140.6867  143.2354  151.5240 LP  0  0  0  0  0  0  0  0  0  0  0  0  # atno 17342 bound_to 10162
  139.5565  144.2264  152.1620 LP  0  0  0  0  0  0  0  0  0  0  0  0  # atno 17343 bound_to 10162
  156.2874  130.7105  151.1945 LP  0  0  0  0  0  0  0  0  0  0  0  0  # atno 17370 bound_to 10713
  157.7385  131.0540  150.5290 LP  0  0  0  0  0  0  0  0  0  0  0  0  # atno 17371 bound_to 10713
  141.2218  133.6961  156.7782 LP  0  0  0  0  0  0  0  0  0  0  0  0  # atno 17394 bound_to 11000
  140.2365  134.8646  157.3530 LP  0  0  0  0  0  0  0  0  0  0  0  0  # atno 17395 bound_to 11000

$$$$
