AV-unprocessed.smi:418|AV-procd|sdf|2528|dock3
  -GOLD-   2262022483D 1   1.00000     0.00000
 Structure written by MMmdl.
 40 42  0  0  0  0  0  0  0  0  1 V2000
  154.7994  138.7054  161.1899 C   0  0  0  0  0  0  0  0  0  0  0  0
  153.6369  138.9502  160.3447 N   0  0  0  0  0  0  0  0  0  0  0  0
  152.8812  138.0250  159.7083 C   0  0  0  0  0  0  0  0  0  0  0  0
  153.0520  136.8063  159.7345 O   0  0  0  0  0  0  0  0  0  0  0  0
  151.9054  138.6754  159.0304 N   0  0  0  0  0  0  0  0  0  0  0  0
  150.8660  138.0646  158.2043 C   0  0  0  0  0  0  0  0  0  0  0  0
  150.1465  136.9199  158.9462 C   0  0  2  0  0  0  0  0  0  0  0  0
  150.1896  135.7607  158.1387 O   0  0  0  0  0  0  0  0  0  0  0  0
  148.6668  137.2399  159.2065 C   0  0  0  0  0  0  0  0  0  0  0  0
  148.3672  136.9418  160.5638 O   0  0  0  0  0  0  0  0  0  0  0  0
  148.1693  135.6243  160.9178 C   0  0  0  0  0  0  0  0  0  0  0  0
  148.1726  134.5446  159.9982 C   0  0  0  0  0  0  0  0  0  0  0  0
  147.9565  133.2263  160.4451 C   0  0  0  0  0  0  0  0  0  0  0  0
  147.7369  132.9699  161.8109 C   0  0  0  0  0  0  0  0  0  0  0  0
  147.7351  134.0342  162.7309 C   0  0  0  0  0  0  0  0  0  0  0  0
  147.9510  135.3528  162.2855 C   0  0  0  0  0  0  0  0  0  0  0  0
  147.9459  136.3685  163.1819 F   0  0  0  0  0  0  0  0  0  0  0  0
  152.0464  140.0557  159.2335 C   0  0  0  0  0  0  0  0  0  0  0  0
  151.3040  141.1459  158.7465 C   0  0  0  0  0  0  0  0  0  0  0  0
  151.7169  142.4388  159.1454 C   0  0  0  0  0  0  0  0  0  0  0  0
  152.8352  142.6134  160.0017 C   0  0  0  0  0  0  0  0  0  0  0  0
  153.5662  141.4988  160.4757 C   0  0  0  0  0  0  0  0  0  0  0  0
  153.1352  140.2268  160.0623 C   0  0  0  0  0  0  0  0  0  0  0  0
  155.0380  137.6436  161.2633 H   0  0  0  0  0  0  0  0  0  0  0  0
  154.6173  139.0805  162.1972 H   0  0  0  0  0  0  0  0  0  0  0  0
  155.6727  139.2185  160.7867 H   0  0  0  0  0  0  0  0  0  0  0  0
  150.1486  138.8466  157.9503 H   0  0  0  0  0  0  0  0  0  0  0  0
  151.2708  137.7243  157.2503 H   0  0  0  0  0  0  0  0  0  0  0  0
  150.6344  136.7016  159.8972 H   0  0  0  0  0  0  0  0  0  0  0  0
  149.5030  135.8211  157.4921 H   0  0  0  0  0  0  0  0  0  0  0  0
  148.4675  138.2899  158.9846 H   0  0  0  0  0  0  0  0  0  0  0  0
  148.0362  136.6293  158.5575 H   0  0  0  0  0  0  0  0  0  0  0  0
  148.3394  134.7008  158.9435 H   0  0  0  0  0  0  0  0  0  0  0  0
  147.9592  132.4106  159.7371 H   0  0  0  0  0  0  0  0  0  0  0  0
  147.5705  131.9589  162.1524 H   0  0  0  0  0  0  0  0  0  0  0  0
  147.5668  133.8401  163.7801 H   0  0  0  0  0  0  0  0  0  0  0  0
  150.4546  141.0087  158.0938 H   0  0  0  0  0  0  0  0  0  0  0  0
  151.1742  143.3037  158.7937 H   0  0  0  0  0  0  0  0  0  0  0  0
  153.1325  143.6095  160.2946 H   0  0  0  0  0  0  0  0  0  0  0  0
  154.4194  141.6231  161.1263 H   0  0  0  0  0  0  0  0  0  0  0  0
  1  2  1  0  0  0  0
  1 24  1  0  0  0  0
  1 25  1  0  0  0  0
  1 26  1  0  0  0  0
  2 23  1  0  0  0  0
  2  3  1  0  0  0  0
  3  4  2  0  0  0  0
  3  5  1  0  0  0  0
  5  6  1  0  0  0  0
  5 18  1  0  0  0  0
  6  7  1  0  0  0  0
  6 27  1  0  0  0  0
  6 28  1  0  0  0  0
  7  8  1  0  0  0  0
  7  9  1  0  0  0  0
  7 29  1  0  0  0  0
  8 30  1  0  0  0  0
  9 10  1  0  0  0  0
  9 31  1  0  0  0  0
  9 32  1  0  0  0  0
 10 11  1  0  0  0  0
 11 16  1  0  0  0  0
 11 12  2  0  0  0  0
 12 13  1  0  0  0  0
 12 33  1  0  0  0  0
 13 14  2  0  0  0  0
 13 34  1  0  0  0  0
 14 15  1  0  0  0  0
 14 35  1  0  0  0  0
 15 16  2  0  0  0  0
 15 36  1  0  0  0  0
 16 17  1  0  0  0  0
 18 23  2  0  0  0  0
 18 19  1  0  0  0  0
 19 20  2  0  0  0  0
 19 37  1  0  0  0  0
 20 21  1  0  0  0  0
 20 38  1  0  0  0  0
 21 22  2  0  0  0  0
 21 39  1  0  0  0  0
 22 23  1  0  0  0  0
 22 40  1  0  0  0  0
M  END
> <s_m_source_file>
AV-unprocessed.smi

> <i_m_source_file_index>
418

> <i_lp_mmshare_version>
43012

> <i_f3d_flags>
0

> <s_epik_input>
W2NIXTFbY0hdW2NIXVtjSF1jKGMxMiluKFtDSDNdKWMoPU8pbjJbQ0gyXVtDQEhdKFtPSF0pW0NIMl1PYzNbY0hdW2NIXVtjSF1bY0hdYzNG

> <s_epik_cmdline>
J2VwaWtfcHl0aG9uJywgJy1waCcsICc3LjAnLCAnLXRuJywgJzgnLCAnLW1hJywgJzIwMCcsICctbWV0YWxfYmluZGluZycsICctaW1hZScsICc8aW5maWxlLm1hZT4nLCAnLW9tYWUnLCAnPG91dGZpbGUubWFlPic=

> <r_lp_tautomer_probability>
1

> <r_epik_Ionization_Penalty>
2.40171e-06

> <r_epik_Ionization_Penalty_Charging>
2.41238e-09

> <r_epik_Ionization_Penalty_Neutral>
2.3993e-06

> <r_epik_State_Penalty>
-0

> <r_epik_Charging_Adjusted_Penalty>
2.41238e-09

> <i_epik_Tot_Q>
0

> <i_epik_Tot_abs_Q>
0

> <r_epik_Metal_State_Penalty>
-0

> <b_epik_Metal_Only>
0

> <s_lp_Force_Field>
OPLS_2005

> <r_lp_Energy>
46.4637

> <b_lp_Chiralities_Consistent>
1

> <s_lp_Variant>
AV-unprocessed.smi:418-1

> <Gold.Version>
5.8.1

> <Gold.Id.Protein>
6NUR|6NUR_protein|mol2

> <Gold.PLP.Fitness>
57.4394

> <Gold.PLP.PLP>
-51.4291

> <Gold.PLP.part.hbond>
-4.0000

> <Gold.PLP.part.metal>
0.0000

> <Gold.PLP.part.buried>
-4.6441

> <Gold.PLP.part.nonpolar>
-42.7088

> <Gold.PLP.part.repulsive>
0.0000

> <Gold.PLP.ligand.clash>
0.0000

> <Gold.PLP.ligand.torsion>
1.5999

> <Gold.PLP.Chemscore.Hbond>
3.0329

> <Gold.PLP.Chemscore.CHOScore>
0.0000

> <Gold.PLP.Chemscore.Metal>
0.0000

> <Gold.Chemscore.Hbonds>
donor molecule, donor type, donor heavy atom, donor atom, acceptor molecule, acceptor atom, score
      P1  H  6896  6908       L1     8  0.68
      P1  H  6896  6909       L1     4  0.81
      P1  H  6931  6943       L1    10  0.86
      P1  H  6934  6947       L1    10  0.02

> <Gold.PLP.Chemscore.Internal.Correction>
0.1116

> <Gold.Rescore>
     Score         DG    S(hbond)    S(metal)    S(lipo)     H(rot)  DE(clash)    DE(int)     intcor
     19.95     -22.03       2.74        0.00     112.98       2.27       0.50       1.57       ----

> <Gold.Chemscore.Fitness>
19.9541

> <Gold.Chemscore.DG>
-22.0272

> <Gold.Chemscore.ZeroCoef>
-5.4800

> <Gold.Chemscore.Hbond>
2.7369

> <Gold.Chemscore.Metal>
0.0000

> <Gold.Chemscore.Lipo>
112.9799

> <Gold.Chemscore.Internal_Hbond>
0.0000

> <Gold.Chemscore.DEClash>
0.5046

> <Gold.Chemscore.DEInternal>
1.5686

> <Gold.Chemscore.Rot>
2.2706

> <Gold.Chemscore.Internal.Correction>
   9.000000E+99

> <Gold.Chemscore.Hbonds>
donor molecule, donor type, donor heavy atom, donor atom, acceptor molecule, acceptor atom, score
      P1  H  6896  6908       L1     8  0.12
      P1  H  6896  6909       L1     4  0.78
      P1  H  6931  6943       L1    10  0.74

> <Gold.Chemscore.Hbond.Weighted>
-9.1414

> <Gold.Chemscore.Metal.Weighted>
-0.0000

> <Gold.Chemscore.Lipo.Weighted>
-13.2186

> <Gold.Chemscore.Internal_Hbond.Weighted>
0.0000

> <Gold.Chemscore.DEClash.Weighted>
0.5046

> <Gold.Chemscore.DEInternal.Weighted>
1.5686

> <Gold.Chemscore.Rot.Weighted>
5.8128

> <Gold.Chemscore.Internal.Correction.Weighted>
   9.000000E+99

> <Gold.Protein.RotatedTorsions>
[ 6907 6896 6895 6894 ] final  166.48 input  -60.11 | X-H torsion
[ 7974 7965 7964 7962 ] final -176.17 input  175.53 | X-H torsion
[ 8008 7997 7996 7995 ] final  -81.57 input   59.86 | X-H torsion
[ 10167 10162 10161 10158 ] final   63.54 input  -65.29 | X-H torsion
[ 10718 10713 10712 10709 ] final   23.19 input   66.30 | X-H torsion
[ 10763 10752 10751 10750 ] final  -15.46 input  -60.55 | X-H torsion
[ 11005 11000 10999 10996 ] final  162.87 input  -57.11 | X-H torsion

> <Gold.Protein.ActiveResidues>
 VAL166  LYS551  ARG553  GLY616  TRP617  ASP618  TYR619  PRO620  LYS621  CYS622 
 ASP623  PHE694  ASN695  SER759  ASP760  ASP761  ALA762  ILE779  LEU786  VAL792 
 PHE793  MET794  SER795  GLU796  ALA797  LYS798  CYS799  TRP800  GLU811  SER814 

> <Gold.Protein.RotatedAtoms>
  151.8783  133.3490  159.3757 H   0  0  0  0  0  0  0  0  0  0  0  0  # atno 6907 bound_to 6896
  150.7134  134.5044  159.5586 H   0  0  0  0  0  0  0  0  0  0  0  0  # atno 6908 bound_to 6896
  152.2590  134.8054  160.0484 H   0  0  0  0  0  0  0  0  0  0  0  0  # atno 6909 bound_to 6896
  144.7127  140.1210  143.6405 H   0  0  0  0  0  0  0  0  0  0  0  0  # atno 7974 bound_to 7965
  154.5997  140.0646  156.9351 H   0  0  0  0  0  0  0  0  0  0  0  0  # atno 8008 bound_to 7997
  155.2153  140.3326  155.4304 H   0  0  0  0  0  0  0  0  0  0  0  0  # atno 8009 bound_to 7997
  156.2310  140.1841  156.7226 H   0  0  0  0  0  0  0  0  0  0  0  0  # atno 8010 bound_to 7997
  140.1320  144.4634  150.6859 H   0  0  0  0  0  0  0  0  0  0  0  0  # atno 10167 bound_to 10162
  157.1626  130.6724  149.6049 H   0  0  0  0  0  0  0  0  0  0  0  0  # atno 10718 bound_to 10713
  153.5437  135.7013  153.5624 H   0  0  0  0  0  0  0  0  0  0  0  0  # atno 10763 bound_to 10752
  153.3579  135.3978  155.1695 H   0  0  0  0  0  0  0  0  0  0  0  0  # atno 10764 bound_to 10752
  154.8670  135.3781  154.4943 H   0  0  0  0  0  0  0  0  0  0  0  0  # atno 10765 bound_to 10752
  140.2300  134.8131  157.3308 H   0  0  0  0  0  0  0  0  0  0  0  0  # atno 11005 bound_to 11000
  145.9371  139.2644  143.1291 LP  0  0  0  0  0  0  0  0  0  0  0  0  # atno 17320 bound_to 7965
  145.9462  140.8942  143.0282 LP  0  0  0  0  0  0  0  0  0  0  0  0  # atno 17321 bound_to 7965
  140.6811  143.2327  151.5380 LP  0  0  0  0  0  0  0  0  0  0  0  0  # atno 17342 bound_to 10162
  139.5515  144.2384  152.1538 LP  0  0  0  0  0  0  0  0  0  0  0  0  # atno 17343 bound_to 10162
  155.9751  130.4706  150.6436 LP  0  0  0  0  0  0  0  0  0  0  0  0  # atno 17370 bound_to 10713
  157.4118  131.0824  151.1214 LP  0  0  0  0  0  0  0  0  0  0  0  0  # atno 17371 bound_to 10713
  140.1760  134.4549  155.7801 LP  0  0  0  0  0  0  0  0  0  0  0  0  # atno 17394 bound_to 11000
  141.2218  133.6962  156.7788 LP  0  0  0  0  0  0  0  0  0  0  0  0  # atno 17395 bound_to 11000

$$$$
