AV-unprocessed.smi:1834|AV-procd|sdf|7472|dock6
  -GOLD-   22720 9163D 1   1.00000     0.00000
 Structure written by MMmdl.
 46 47  0  0  0  0  0  0  0  0  2 V2000
  145.7375  131.9580  149.9599 C   0  0  0  0  0  0  0  0  0  0  0  0
  146.0377  132.7527  151.2395 C   0  0  0  0  0  0  0  0  0  0  0  0
  147.1705  132.1848  152.0140 N   0  3  2  0  0  0  0  0  0  0  0  0
  146.8171  130.8910  152.6512 C   0  0  0  0  0  0  0  0  0  0  0  0
  148.0419  130.2572  153.3264 C   0  0  0  0  0  0  0  0  0  0  0  0
  148.6541  131.2153  154.3547 C   0  0  0  0  0  0  0  0  0  0  0  0
  148.9973  132.5660  153.7012 C   0  0  2  0  0  0  0  0  0  0  0  0
  149.6020  133.5304  154.7456 C   0  0  0  0  0  0  0  0  0  0  0  0
  149.5639  134.9273  154.3195 N   0  0  0  0  0  0  0  0  0  0  0  0
  150.0707  135.9634  155.0043 C   0  0  0  0  0  0  0  0  0  0  0  0
  150.6150  135.8467  156.1025 O   0  0  0  0  0  0  0  0  0  0  0  0
  149.8920  137.1187  154.3407 N   0  0  0  0  0  0  0  0  0  0  0  0
  150.2229  138.3796  154.7271 C   0  0  0  0  0  0  0  0  0  0  0  0
  149.4132  139.3744  155.2037 C   0  0  0  0  0  0  0  0  0  0  0  0
  150.3287  140.4437  155.4270 C   0  0  0  0  0  0  0  0  0  0  0  0
  150.0338  141.8178  155.9516 C   0  0  0  0  0  0  0  0  0  0  0  0
  151.5786  140.1224  155.1124 N   0  0  0  0  0  0  0  0  0  0  0  0
  151.5179  138.8451  154.6780 N   0  0  0  0  0  0  0  0  0  0  0  0
  152.7255  138.1669  154.2489 C   0  0  0  0  0  0  0  0  0  0  0  0
  147.7452  133.1414  152.9979 C   0  0  0  0  0  0  0  0  0  0  0  0
  144.8392  132.3410  149.4753 H   0  0  0  0  0  0  0  0  0  0  0  0
  145.5680  130.9037  150.1809 H   0  0  0  0  0  0  0  0  0  0  0  0
  146.5464  132.0255  149.2330 H   0  0  0  0  0  0  0  0  0  0  0  0
  146.2309  133.8007  151.0060 H   0  0  0  0  0  0  0  0  0  0  0  0
  145.1381  132.7353  151.8565 H   0  0  0  0  0  0  0  0  0  0  0  0
  146.0214  131.0476  153.3815 H   0  0  0  0  0  0  0  0  0  0  0  0
  146.4279  130.2019  151.9004 H   0  0  0  0  0  0  0  0  0  0  0  0
  147.7577  129.3230  153.8118 H   0  0  0  0  0  0  0  0  0  0  0  0
  148.7871  130.0002  152.5723 H   0  0  0  0  0  0  0  0  0  0  0  0
  147.9524  131.3669  155.1762 H   0  0  0  0  0  0  0  0  0  0  0  0
  149.5484  130.7664  154.7885 H   0  0  0  0  0  0  0  0  0  0  0  0
  149.7570  132.3831  152.9391 H   0  0  0  0  0  0  0  0  0  0  0  0
  149.1081  133.4060  155.7111 H   0  0  0  0  0  0  0  0  0  0  0  0
  150.6494  133.2766  154.9112 H   0  0  0  0  0  0  0  0  0  0  0  0
  149.1354  135.1158  153.4248 H   0  0  0  0  0  0  0  0  0  0  0  0
  149.4368  137.0514  153.4423 H   0  0  0  0  0  0  0  0  0  0  0  0
  148.3472  139.3622  155.3725 H   0  0  0  0  0  0  0  0  0  0  0  0
  148.9735  141.9344  156.1768 H   0  0  0  0  0  0  0  0  0  0  0  0
  150.3038  142.5825  155.2230 H   0  0  0  0  0  0  0  0  0  0  0  0
  150.5906  142.0166  156.8676 H   0  0  0  0  0  0  0  0  0  0  0  0
  152.5655  137.7146  153.2695 H   0  0  0  0  0  0  0  0  0  0  0  0
  152.9793  137.3858  154.9660 H   0  0  0  0  0  0  0  0  0  0  0  0
  153.5570  138.8699  154.1808 H   0  0  0  0  0  0  0  0  0  0  0  0
  148.0156  134.0590  152.4793 H   0  0  0  0  0  0  0  0  0  0  0  0
  146.9863  133.4070  153.7358 H   0  0  0  0  0  0  0  0  0  0  0  0
  147.8981  131.9780  151.3448 H   0  0  0  0  0  0  0  0  0  0  0  0
  1  2  1  0  0  0  0
  1 21  1  0  0  0  0
  1 22  1  0  0  0  0
  1 23  1  0  0  0  0
  2  3  1  0  0  0  0
  2 24  1  0  0  0  0
  2 25  1  0  0  0  0
  3 20  1  0  0  0  0
  3  4  1  0  0  0  0
  3 46  1  0  0  0  0
  4  5  1  0  0  0  0
  4 26  1  0  0  0  0
  4 27  1  0  0  0  0
  5  6  1  0  0  0  0
  5 28  1  0  0  0  0
  5 29  1  0  0  0  0
  6  7  1  0  0  0  0
  6 30  1  0  0  0  0
  6 31  1  0  0  0  0
  7  8  1  0  0  0  0
  7 20  1  0  0  0  0
  7 32  1  0  0  0  0
  8  9  1  0  0  0  0
  8 33  1  0  0  0  0
  8 34  1  0  0  0  0
  9 10  1  0  0  0  0
  9 35  1  0  0  0  0
 10 11  2  0  0  0  0
 10 12  1  0  0  0  0
 12 13  1  0  0  0  0
 12 36  1  0  0  0  0
 13 18  1  0  0  0  0
 13 14  2  0  0  0  0
 14 15  1  0  0  0  0
 14 37  1  0  0  0  0
 15 16  1  0  0  0  0
 15 17  2  0  0  0  0
 16 38  1  0  0  0  0
 16 39  1  0  0  0  0
 16 40  1  0  0  0  0
 17 18  1  0  0  0  0
 18 19  1  0  0  0  0
 19 41  1  0  0  0  0
 19 42  1  0  0  0  0
 19 43  1  0  0  0  0
 20 44  1  0  0  0  0
 20 45  1  0  0  0  0
M  CHG  1   3   1
M  END
> <s_m_source_file>
AV-unprocessed.smi

> <i_m_source_file_index>
1834

> <i_lp_mmshare_version>
43012

> <i_f3d_flags>
0

> <s_epik_input>
W0NIM11bQ0gyXU4xW0NIMl1bQ0gyXVtDSDJdW0NASF0oW0NIMl0xKVtDSDJdW05IXUMoPU8pW05IXWMyW2NIXWMoW0NIM10pbm4yW0NIM10=

> <s_epik_cmdline>
J2VwaWtfcHl0aG9uJywgJy1waCcsICc3LjAnLCAnLXRuJywgJzgnLCAnLW1hJywgJzIwMCcsICctbWV0YWxfYmluZGluZycsICctaW1hZScsICc8aW5maWxlLm1hZT4nLCAnLW9tYWUnLCAnPG91dGZpbGUubWFlPic=

> <r_lp_tautomer_probability>
1

> <r_epik_Ionization_Penalty>
0.000466842

> <r_epik_Ionization_Penalty_Charging>
0.000378984

> <r_epik_Ionization_Penalty_Neutral>
8.78572e-05

> <r_epik_State_Penalty>
0.000231434

> <r_epik_Charging_Adjusted_Penalty>
0.000610418

> <i_epik_Tot_Q>
1

> <i_epik_Tot_abs_Q>
1

> <r_epik_Metal_State_Penalty>
-0

> <b_epik_Metal_Only>
0

> <s_lp_Force_Field>
OPLS_2005

> <r_lp_Energy>
19.5344

> <b_lp_Chiralities_Consistent>
1

> <s_lp_Variant>
AV-unprocessed.smi:1834-4

> <Gold.Version>
5.8.1

> <Gold.Id.Protein>
6NUR|6NUR_protein|mol2

> <Gold.PLP.Fitness>
48.3513

> <Gold.PLP.PLP>
-39.1510

> <Gold.PLP.part.hbond>
-4.0434

> <Gold.PLP.part.metal>
0.0000

> <Gold.PLP.part.buried>
-2.5151

> <Gold.PLP.part.nonpolar>
-32.5857

> <Gold.PLP.part.repulsive>
0.1416

> <Gold.PLP.ligand.clash>
0.0000

> <Gold.PLP.ligand.torsion>
1.0018

> <Gold.PLP.Chemscore.Hbond>
3.7225

> <Gold.PLP.Chemscore.CHOScore>
0.0000

> <Gold.PLP.Chemscore.Metal>
0.0000

> <Gold.Chemscore.Hbonds>
donor molecule, donor type, donor heavy atom, donor atom, acceptor molecule, acceptor atom, score
      L1  H     3    46       P1 10747  1.00
      L1  H     9    35       P1  7948  0.99
      L1  H    12    36       P1  7948  1.00
      P1  H  7989  7998       L1    17  0.76

> <Gold.PLP.Chemscore.Internal.Correction>
0.0364

> <Gold.Rescore>
     Score         DG    S(hbond)    S(metal)    S(lipo)     H(rot)  DE(clash)    DE(int)     intcor
     17.34     -18.36       2.20        0.00      78.40       1.43       0.06       0.96       ----

> <Gold.Chemscore.Fitness>
17.3372

> <Gold.Chemscore.DG>
-18.3593

> <Gold.Chemscore.ZeroCoef>
-5.4800

> <Gold.Chemscore.Hbond>
2.2050

> <Gold.Chemscore.Metal>
0.0000

> <Gold.Chemscore.Lipo>
78.4025

> <Gold.Chemscore.Internal_Hbond>
0.0000

> <Gold.Chemscore.DEClash>
0.0579

> <Gold.Chemscore.DEInternal>
0.9641

> <Gold.Chemscore.Rot>
1.4291

> <Gold.Chemscore.Internal.Correction>
   9.000000E+99

> <Gold.Chemscore.Hbonds>
donor molecule, donor type, donor heavy atom, donor atom, acceptor molecule, acceptor atom, score
      L1  H     3    46       P1 10747  0.98
      L1  H     9    35       P1  7948  0.24
      L1  H    12    36       P1  7948  0.89
      P1  H  7989  7998       L1    17  0.02

> <Gold.Chemscore.Hbond.Weighted>
-7.3646

> <Gold.Chemscore.Metal.Weighted>
-0.0000

> <Gold.Chemscore.Lipo.Weighted>
-9.1731

> <Gold.Chemscore.Internal_Hbond.Weighted>
0.0000

> <Gold.Chemscore.DEClash.Weighted>
0.0579

> <Gold.Chemscore.DEInternal.Weighted>
0.9641

> <Gold.Chemscore.Rot.Weighted>
3.6584

> <Gold.Chemscore.Internal.Correction.Weighted>
   9.000000E+99

> <Gold.Protein.RotatedTorsions>
[ 6907 6896 6895 6894 ] final -179.89 input  -60.11 | X-H torsion
[ 7974 7965 7964 7962 ] final  -10.36 input  175.53 | X-H torsion
[ 8008 7997 7996 7995 ] final  146.16 input   59.86 | X-H torsion
[ 10167 10162 10161 10158 ] final  174.38 input  -65.29 | X-H torsion
[ 10718 10713 10712 10709 ] final    3.07 input   66.30 | X-H torsion
[ 10763 10752 10751 10750 ] final  101.62 input  -60.55 | X-H torsion
[ 11005 11000 10999 10996 ] final    3.00 input  -57.11 | X-H torsion

> <Gold.Protein.ActiveResidues>
 VAL166  LYS551  ARG553  GLY616  TRP617  ASP618  TYR619  PRO620  LYS621  CYS622 
 ASP623  PHE694  ASN695  SER759  ASP760  ASP761  ALA762  ILE779  LEU786  VAL792 
 PHE793  MET794  SER795  GLU796  ALA797  LYS798  CYS799  TRP800  GLU811  SER814 

> <Gold.Protein.RotatedAtoms>
  151.6607  133.3317  159.3173 H   0  0  0  0  0  0  0  0  0  0  0  0  # atno 6907 bound_to 6896
  150.7915  134.6946  159.6525 H   0  0  0  0  0  0  0  0  0  0  0  0  # atno 6908 bound_to 6896
  152.3995  134.6313  160.0128 H   0  0  0  0  0  0  0  0  0  0  0  0  # atno 6909 bound_to 6896
  146.2223  140.2752  142.8359 H   0  0  0  0  0  0  0  0  0  0  0  0  # atno 7974 bound_to 7965
  156.2863  140.2190  156.5332 H   0  0  0  0  0  0  0  0  0  0  0  0  # atno 8008 bound_to 7997
  154.7432  140.0486  157.0851 H   0  0  0  0  0  0  0  0  0  0  0  0  # atno 8009 bound_to 7997
  155.0204  140.3123  155.4798 H   0  0  0  0  0  0  0  0  0  0  0  0  # atno 8010 bound_to 7997
  139.5140  144.3153  152.0253 H   0  0  0  0  0  0  0  0  0  0  0  0  # atno 10167 bound_to 10162
  156.8724  130.5624  149.5657 H   0  0  0  0  0  0  0  0  0  0  0  0  # atno 10718 bound_to 10713
  153.3290  135.4038  155.1480 H   0  0  0  0  0  0  0  0  0  0  0  0  # atno 10763 bound_to 10752
  154.8618  135.3606  154.5495 H   0  0  0  0  0  0  0  0  0  0  0  0  # atno 10764 bound_to 10752
  153.5933  135.7073  153.5473 H   0  0  0  0  0  0  0  0  0  0  0  0  # atno 10765 bound_to 10752
  140.5980  133.9862  155.8119 H   0  0  0  0  0  0  0  0  0  0  0  0  # atno 11005 bound_to 11000
  144.9238  140.7898  143.5732 LP  0  0  0  0  0  0  0  0  0  0  0  0  # atno 17320 bound_to 7965
  145.2691  139.1962  143.4851 LP  0  0  0  0  0  0  0  0  0  0  0  0  # atno 17321 bound_to 7965
  140.2597  144.4081  150.6190 LP  0  0  0  0  0  0  0  0  0  0  0  0  # atno 17342 bound_to 10162
  140.6166  143.2173  151.6779 LP  0  0  0  0  0  0  0  0  0  0  0  0  # atno 17343 bound_to 10162
  156.0720  130.5750  150.9401 LP  0  0  0  0  0  0  0  0  0  0  0  0  # atno 17370 bound_to 10713
  157.6188  131.0931  150.8660 LP  0  0  0  0  0  0  0  0  0  0  0  0  # atno 17371 bound_to 10713
  141.0891  133.9944  157.3266 LP  0  0  0  0  0  0  0  0  0  0  0  0  # atno 17394 bound_to 11000
  139.9245  135.0201  156.8184 LP  0  0  0  0  0  0  0  0  0  0  0  0  # atno 17395 bound_to 11000

$$$$
