#       Name:                AV-unprocessed.smi:2999
#       Creating user name   scv26
#       Creation time:       Fri Mar 27 16:34:50 2020


#       File generated by GOLD software.
#

@<TRIPOS>MOLECULE
AV-unprocessed.smi:2999
    43    45     1
SMALL
NO_CHARGES


@<TRIPOS>ATOM
      1 ****        -2.1125   2.6299  -1.4214 O.2            1 S1                 0.0000
      2 ****        -2.2216   2.2185  -0.2638 C.2            1 S1                 0.0000
      3 ****        -1.3793   1.2820   0.1919 N.am           1 S1                 0.0000
      4 ****        -0.3013   0.6788  -0.5810 C.3            1 S1                 0.0000
      5 ****         0.3637  -0.4612   0.2031 C.3            1 S1                 0.0000
      6 ****         1.4232  -1.1952  -0.6425 C.3            1 S1                 0.0000
      7 ****         2.0994  -2.2396   0.1174 N.3            1 S1                 0.0000
      8 ****         3.1061  -2.9066  -0.6948 C.3            1 S1                 0.0000
      9 ****         2.6923  -4.0234  -1.6180 C.3            1 S1                 0.0000
     10 ****         3.5000  -4.3240  -0.3686 C.3            1 S1                 0.0000
     11 ****         2.6959  -1.6421   1.3055 C.3            1 S1                 0.0000
     12 ****         1.6501  -0.9014   2.1558 C.3            1 S1                 0.0000
     13 ****         1.0018   0.0836   1.3572 O.3            1 S1                 0.0000
     14 ****        -3.1382   2.6196   0.6465 N.pl3          1 S1                -1.0000
     15 ****        -4.0468   3.5521   0.3167 C.2            1 S1                 0.0000
     16 ****        -3.9156   4.8448   0.6367 N.2            1 S1                 0.0000
     17 ****        -4.9784   5.6361   0.1970 C.2            1 S1                 0.0000
     18 ****        -5.9469   4.9276  -0.4637 C.2            1 S1                 0.0000
     19 ****        -5.5495   3.2353  -0.5552 S.3            1 S1                 0.0000
     20 ****        -1.4934   0.9701   1.1453 H              1 S1                 0.0000
     21 ****        -0.7087   0.2913  -1.5162 H              1 S1                 0.0000
     22 ****         0.4334   1.4424  -0.8406 H              1 S1                 0.0000
     23 ****        -0.4020  -1.1729   0.5184 H              1 S1                 0.0000
     24 ****         0.9456  -1.6328  -1.5198 H              1 S1                 0.0000
     25 ****         2.1542  -0.4746  -1.0136 H              1 S1                 0.0000
     26 ****         3.8830  -2.2240  -1.0360 H              1 S1                 0.0000
     27 ****         1.6451  -4.3197  -1.6217 H              1 S1                 0.0000
     28 ****         3.2023  -4.0965  -2.5764 H              1 S1                 0.0000
     29 ****         4.5450  -4.5976  -0.4991 H              1 S1                 0.0000
     30 ****         2.9859  -4.8197   0.4529 H              1 S1                 0.0000
     31 ****         3.1730  -2.4157   1.9083 H              1 S1                 0.0000
     32 ****         3.4827  -0.9437   1.0154 H              1 S1                 0.0000
     33 ****         0.9124  -1.5980   2.5567 H              1 S1                 0.0000
     34 ****         2.1273  -0.4143   3.0062 H              1 S1                 0.0000
     35 ****        -4.9635   6.6967   0.3998 H              1 S1                 0.0000
     36 ****        -6.8641   5.2944  -0.8993 H              1 S1                 0.0000
     37 ****        -1.3969   2.2644  -2.0166 LP             1 S1                 0.0000
     38 ****        -2.7397   3.3290  -1.7648 LP             1 S1                 0.0000
     39 ****         1.4358  -2.9353   0.3925 LP             1 S1                 0.0000
     40 ****         0.3107   0.5418   1.9162 LP             1 S1                 0.0000
     41 ****         1.6844   0.7504   1.0583 LP             1 S1                 0.0000
     42 ****        -3.1393   2.2222   1.5642 LP             1 S1                 0.0000
     43 ****        -3.1327   5.2085   1.1415 LP             1 S1                 0.0000
@<TRIPOS>BOND
    1    1    2 2     
    2    2    3 am    
    3    2   14 1     
    4    3    4 1     
    5    3   20 1     
    6    4    5 1     
    7    4   21 1     
    8    4   22 1     
    9    5   13 1     
   10    5    6 1     
   11    5   23 1     
   12    6    7 1     
   13    6   24 1     
   14    6   25 1     
   15    7    8 1     
   16    7   11 1     
   17    8   10 1     
   18    8    9 1     
   19    8   26 1     
   20    9   10 1     
   21    9   27 1     
   22    9   28 1     
   23   10   29 1     
   24   10   30 1     
   25   11   12 1     
   26   11   31 1     
   27   11   32 1     
   28   12   13 1     
   29   12   33 1     
   30   12   34 1     
   31   14   15 1     
   32   15   19 1     
   33   15   16 2     
   34   16   17 1     
   35   17   18 2     
   36   17   35 1     
   37   18   19 1     
   38   18   36 1     
   39    1   37 1     
   40    1   38 1     
   41    7   39 1     
   42   13   40 1     
   43   13   41 1     
   44   14   42 1     
   45   16   43 1     
@<TRIPOS>SUBSTRUCTURE
      1 S1             1
@<TRIPOS>SET
LONE_PAIRS      STATIC     ATOMS    <user>   **** ""
7 37 38 39 40 41 42 43
DONOR_HYDROGENS      STATIC     ATOMS    <user>   **** ""
1 20
ATOM$BLUE        STATIC     ATOMS    COLORGROUP SYSTEM
7 37 38 39 40 41 42 43
ATOM$RED        STATIC     ATOMS    COLORGROUP SYSTEM
1 20
