AV-unprocessed.smi:673|AV-procd|sdf|3298|dock3
  -GOLD-   22720 0263D 1   1.00000     0.00000
 Structure written by MMmdl.
 45 46  0  0  0  0  0  0  0  0  1 V2000
  153.8006  140.2686  160.2893 C   0  0  0  0  0  0  0  0  0  0  0  0
  152.8040  141.3480  159.8377 C   0  0  1  0  0  0  0  0  0  0  0  0
  153.4012  142.7753  159.8591 C   0  0  0  0  0  0  0  0  0  0  0  0
  152.4140  143.8239  159.6641 N   0  0  0  0  0  0  0  0  0  0  0  0
  152.3732  144.8264  158.7846 C   0  0  0  0  0  0  0  0  0  0  0  0
  151.3025  145.5990  158.9024 N   0  0  0  0  0  0  0  0  0  0  0  0
  150.6858  144.9760  159.9504 C   0  0  0  0  0  0  0  0  0  0  0  0
  151.3111  143.9080  160.4451 N   0  0  0  0  0  0  0  0  0  0  0  0
  152.2959  141.0057  158.5116 N   0  0  0  0  0  0  0  0  0  0  0  0
  151.1833  141.4992  157.9400 C   0  0  0  0  0  0  0  0  0  0  0  0
  150.4601  142.3144  158.5156 O   0  0  0  0  0  0  0  0  0  0  0  0
  150.9661  141.0793  156.6651 N   0  0  0  0  0  0  0  0  0  0  0  0
  151.9070  140.2288  155.9076 C   0  0  0  0  0  0  0  0  0  0  0  0
  151.2475  139.2474  154.9181 C   0  0  0  0  0  0  0  0  0  0  0  0
  150.0613  138.4468  155.4976 C   0  0  0  0  0  0  0  0  0  0  0  0
  148.6651  139.1243  155.4277 C   0  0  0  0  0  0  0  0  0  0  0  0
  148.2404  139.3744  153.9627 C   0  0  0  0  0  0  0  0  0  0  0  0
  147.6394  138.1466  156.0372 C   0  0  0  0  0  0  0  0  0  0  0  0
  148.5988  140.4425  156.2409 C   0  0  0  0  0  0  0  0  0  0  0  0
  149.7270  141.4570  155.9699 C   0  0  0  0  0  0  0  0  0  0  0  0
  154.2106  140.5021  161.2723 H   0  0  0  0  0  0  0  0  0  0  0  0
  154.6348  140.1702  159.5938 H   0  0  0  0  0  0  0  0  0  0  0  0
  153.3150  139.2945  160.3589 H   0  0  0  0  0  0  0  0  0  0  0  0
  151.9666  141.3274  160.5370 H   0  0  0  0  0  0  0  0  0  0  0  0
  153.9292  142.9613  160.7956 H   0  0  0  0  0  0  0  0  0  0  0  0
  154.1478  142.8684  159.0696 H   0  0  0  0  0  0  0  0  0  0  0  0
  153.1387  144.9908  158.0404 H   0  0  0  0  0  0  0  0  0  0  0  0
  149.7484  145.3201  160.3615 H   0  0  0  0  0  0  0  0  0  0  0  0
  152.8512  140.3610  157.9682 H   0  0  0  0  0  0  0  0  0  0  0  0
  152.6137  140.8692  155.3786 H   0  0  0  0  0  0  0  0  0  0  0  0
  152.5003  139.6136  156.5854 H   0  0  0  0  0  0  0  0  0  0  0  0
  150.9693  139.7603  153.9997 H   0  0  0  0  0  0  0  0  0  0  0  0
  152.0163  138.5381  154.6094 H   0  0  0  0  0  0  0  0  0  0  0  0
  150.0051  137.5035  154.9525 H   0  0  0  0  0  0  0  0  0  0  0  0
  150.2897  138.1677  156.5273 H   0  0  0  0  0  0  0  0  0  0  0  0
  147.2116  139.7320  153.9072 H   0  0  0  0  0  0  0  0  0  0  0  0
  148.2964  138.4590  153.3727 H   0  0  0  0  0  0  0  0  0  0  0  0
  148.8568  140.1208  153.4647 H   0  0  0  0  0  0  0  0  0  0  0  0
  146.6315  138.5631  156.0200 H   0  0  0  0  0  0  0  0  0  0  0  0
  147.8771  137.9137  157.0759 H   0  0  0  0  0  0  0  0  0  0  0  0
  147.6120  137.2033  155.4906 H   0  0  0  0  0  0  0  0  0  0  0  0
  147.6437  140.9285  156.0380 H   0  0  0  0  0  0  0  0  0  0  0  0
  148.5783  140.2174  157.3082 H   0  0  0  0  0  0  0  0  0  0  0  0
  149.4016  142.4438  156.3040 H   0  0  0  0  0  0  0  0  0  0  0  0
  149.9028  141.5880  154.9029 H   0  0  0  0  0  0  0  0  0  0  0  0
  1  2  1  0  0  0  0
  1 21  1  0  0  0  0
  1 22  1  0  0  0  0
  1 23  1  0  0  0  0
  2  3  1  0  0  0  0
  2  9  1  0  0  0  0
  2 24  1  0  0  0  0
  3  4  1  0  0  0  0
  3 25  1  0  0  0  0
  3 26  1  0  0  0  0
  4  8  1  0  0  0  0
  4  5  1  0  0  0  0
  5  6  2  0  0  0  0
  5 27  1  0  0  0  0
  6  7  1  0  0  0  0
  7  8  2  0  0  0  0
  7 28  1  0  0  0  0
  9 10  1  0  0  0  0
  9 29  1  0  0  0  0
 10 11  2  0  0  0  0
 10 12  1  0  0  0  0
 12 20  1  0  0  0  0
 12 13  1  0  0  0  0
 13 14  1  0  0  0  0
 13 30  1  0  0  0  0
 13 31  1  0  0  0  0
 14 15  1  0  0  0  0
 14 32  1  0  0  0  0
 14 33  1  0  0  0  0
 15 16  1  0  0  0  0
 15 34  1  0  0  0  0
 15 35  1  0  0  0  0
 16 17  1  0  0  0  0
 16 18  1  0  0  0  0
 16 19  1  0  0  0  0
 17 36  1  0  0  0  0
 17 37  1  0  0  0  0
 17 38  1  0  0  0  0
 18 39  1  0  0  0  0
 18 40  1  0  0  0  0
 18 41  1  0  0  0  0
 19 20  1  0  0  0  0
 19 42  1  0  0  0  0
 19 43  1  0  0  0  0
 20 44  1  0  0  0  0
 20 45  1  0  0  0  0
M  END
> <s_m_source_file>
AV-unprocessed.smi

> <i_m_source_file_index>
673

> <i_lp_mmshare_version>
43012

> <i_f3d_flags>
0

> <s_epik_input>
bjFbY0hdbltjSF1uMVtDSDJdW0NAQEhdKFtDSDNdKVtOSF1DKD1PKU4oW0NIMl1bQ0gyXTIpW0NIMl1bQ0gyXVtDSDJdQzIoW0NIM10pW0NIM10=

> <s_epik_cmdline>
J2VwaWtfcHl0aG9uJywgJy1waCcsICc3LjAnLCAnLXRuJywgJzgnLCAnLW1hJywgJzIwMCcsICctbWV0YWxfYmluZGluZycsICctaW1hZScsICc8aW5maWxlLm1hZT4nLCAnLW9tYWUnLCAnPG91dGZpbGUubWFlPic=

> <r_lp_tautomer_probability>
1

> <r_epik_Ionization_Penalty>
0.000118908

> <r_epik_Ionization_Penalty_Charging>
0

> <r_epik_Ionization_Penalty_Neutral>
0.000118908

> <r_epik_State_Penalty>
-0

> <r_epik_Charging_Adjusted_Penalty>
0

> <i_epik_Tot_Q>
0

> <i_epik_Tot_abs_Q>
0

> <r_epik_Metal_State_Penalty>
-0

> <b_epik_Metal_Only>
0

> <s_lp_Force_Field>
OPLS_2005

> <r_lp_Energy>
39.1702

> <b_lp_Chiralities_Consistent>
1

> <s_lp_Variant>
AV-unprocessed.smi:673-2

> <Gold.Version>
5.8.1

> <Gold.Id.Protein>
6NUR|6NUR_protein|mol2

> <Gold.PLP.Fitness>
38.1844

> <Gold.PLP.PLP>
-38.8446

> <Gold.PLP.part.hbond>
-1.0000

> <Gold.PLP.part.metal>
0.0000

> <Gold.PLP.part.buried>
-4.3240

> <Gold.PLP.part.nonpolar>
-33.4355

> <Gold.PLP.part.repulsive>
0.4196

> <Gold.PLP.ligand.clash>
0.1764

> <Gold.PLP.ligand.torsion>
0.2851

> <Gold.PLP.Chemscore.Hbond>
0.0000

> <Gold.PLP.Chemscore.CHOScore>
0.0000

> <Gold.PLP.Chemscore.Metal>
0.0000

> <Gold.PLP.Chemscore.Internal.Correction>
0.0864

> <Gold.Rescore>
     Score         DG    S(hbond)    S(metal)    S(lipo)     H(rot)  DE(clash)    DE(int)     intcor
      6.80      -8.55       0.00        0.00      66.96       1.86       0.05       1.69       ----

> <Gold.Chemscore.Fitness>
6.8004

> <Gold.Chemscore.DG>
-8.5496

> <Gold.Chemscore.ZeroCoef>
-5.4800

> <Gold.Chemscore.Hbond>
0.0000

> <Gold.Chemscore.Metal>
0.0000

> <Gold.Chemscore.Lipo>
66.9649

> <Gold.Chemscore.Internal_Hbond>
0.0000

> <Gold.Chemscore.DEClash>
0.0546

> <Gold.Chemscore.DEInternal>
1.6945

> <Gold.Chemscore.Rot>
1.8614

> <Gold.Chemscore.Internal.Correction>
   9.000000E+99

> <Gold.Chemscore.Hbond.Weighted>
-0.0000

> <Gold.Chemscore.Metal.Weighted>
-0.0000

> <Gold.Chemscore.Lipo.Weighted>
-7.8349

> <Gold.Chemscore.Internal_Hbond.Weighted>
0.0000

> <Gold.Chemscore.DEClash.Weighted>
0.0546

> <Gold.Chemscore.DEInternal.Weighted>
1.6945

> <Gold.Chemscore.Rot.Weighted>
4.7653

> <Gold.Chemscore.Internal.Correction.Weighted>
   9.000000E+99

> <Gold.Protein.RotatedTorsions>
[ 6907 6896 6895 6894 ] final   65.40 input  -60.11 | X-H torsion
[ 7974 7965 7964 7962 ] final  109.29 input  175.53 | X-H torsion
[ 8008 7997 7996 7995 ] final  122.99 input   59.86 | X-H torsion
[ 10167 10162 10161 10158 ] final  111.07 input  -65.29 | X-H torsion
[ 10718 10713 10712 10709 ] final   31.88 input   66.30 | X-H torsion
[ 10763 10752 10751 10750 ] final -124.49 input  -60.55 | X-H torsion
[ 11005 11000 10999 10996 ] final -170.74 input  -57.11 | X-H torsion

> <Gold.Protein.ActiveResidues>
 VAL166  LYS551  ARG553  GLY616  TRP617  ASP618  TYR619  PRO620  LYS621  CYS622 
 ASP623  PHE694  ASN695  SER759  ASP760  ASP761  ALA762  ILE779  LEU786  VAL792 
 PHE793  MET794  SER795  GLU796  ALA797  LYS798  CYS799  TRP800  GLU811  SER814 

> <Gold.Protein.RotatedAtoms>
  152.4404  134.5602  159.9891 H   0  0  0  0  0  0  0  0  0  0  0  0  # atno 6907 bound_to 6896
  151.5701  133.3385  159.2996 H   0  0  0  0  0  0  0  0  0  0  0  0  # atno 6908 bound_to 6896
  150.8309  134.7596  159.6917 H   0  0  0  0  0  0  0  0  0  0  0  0  # atno 6909 bound_to 6896
  145.2697  139.2671  143.3973 H   0  0  0  0  0  0  0  0  0  0  0  0  # atno 7974 bound_to 7965
  156.2749  140.2773  156.1556 H   0  0  0  0  0  0  0  0  0  0  0  0  # atno 8008 bound_to 7997
  155.0807  140.0388  157.2656 H   0  0  0  0  0  0  0  0  0  0  0  0  # atno 8009 bound_to 7997
  154.6966  140.2640  155.6766 H   0  0  0  0  0  0  0  0  0  0  0  0  # atno 8010 bound_to 7997
  139.6639  144.7128  151.1813 H   0  0  0  0  0  0  0  0  0  0  0  0  # atno 10167 bound_to 10162
  157.2781  130.7241  149.6541 H   0  0  0  0  0  0  0  0  0  0  0  0  # atno 10718 bound_to 10713
  154.8724  135.4062  154.3114 H   0  0  0  0  0  0  0  0  0  0  0  0  # atno 10763 bound_to 10752
  153.3957  135.7016  153.6468 H   0  0  0  0  0  0  0  0  0  0  0  0  # atno 10764 bound_to 10752
  153.5231  135.3683  155.2612 H   0  0  0  0  0  0  0  0  0  0  0  0  # atno 10765 bound_to 10752
  140.5160  134.5755  157.5033 H   0  0  0  0  0  0  0  0  0  0  0  0  # atno 11005 bound_to 11000
  146.3250  140.3136  142.8628 LP  0  0  0  0  0  0  0  0  0  0  0  0  # atno 17320 bound_to 7965
  144.9346  140.8012  143.5668 LP  0  0  0  0  0  0  0  0  0  0  0  0  # atno 17321 bound_to 7965
  140.7591  143.5950  150.8758 LP  0  0  0  0  0  0  0  0  0  0  0  0  # atno 17342 bound_to 10162
  139.9609  143.6164  152.3002 LP  0  0  0  0  0  0  0  0  0  0  0  0  # atno 17343 bound_to 10162
  155.9664  130.4347  150.5059 LP  0  0  0  0  0  0  0  0  0  0  0  0  # atno 17370 bound_to 10713
  157.2997  131.0642  151.2077 LP  0  0  0  0  0  0  0  0  0  0  0  0  # atno 17371 bound_to 10713
  139.9632  134.7417  156.0193 LP  0  0  0  0  0  0  0  0  0  0  0  0  # atno 17394 bound_to 11000
  141.1360  133.6575  156.3594 LP  0  0  0  0  0  0  0  0  0  0  0  0  # atno 17395 bound_to 11000

$$$$
