AV-unprocessed.smi:3101|AV-procd|sdf|11809|dock2
  -GOLD-   2272017183D 1   1.00000     0.00000
 Structure written by MMmdl.
 28 29  0  0  0  0  0  0  0  0  1 V2000
  151.0308  145.3066  159.5311 C   0  0  0  0  0  0  0  0  0  0  0  0
  152.2003  144.3231  159.7124 C   0  0  1  0  0  0  0  0  0  0  0  0
  152.1148  143.4562  160.9583 C   0  0  0  0  0  0  0  0  0  0  0  0
  152.9588  142.2297  160.5958 C   0  0  0  0  0  0  0  0  0  0  0  0
  153.2687  142.3400  159.2054 O   0  0  0  0  0  0  0  0  0  0  0  0
  152.4277  143.3047  158.5813 C   0  0  1  0  0  0  0  0  0  0  0  0
  151.1727  142.5976  158.0289 C   0  0  0  0  0  0  0  0  0  0  0  0
  150.0615  142.8295  158.5070 O   0  0  0  0  0  0  0  0  0  0  0  0
  151.3981  141.7263  157.0282 N   0  0  0  0  0  0  0  0  0  0  0  0
  150.4511  140.9492  156.3107 C   0  0  0  0  0  0  0  0  0  0  0  0
  149.2548  140.6453  157.0028 C   0  0  0  0  0  0  0  0  0  0  0  0
  148.2610  139.9110  156.4550 N   0  0  0  0  0  0  0  0  0  0  0  0
  148.4609  139.4696  155.1950 C   0  0  0  0  0  0  0  0  0  0  0  0
  149.6459  139.7615  154.4903 C   0  0  0  0  0  0  0  0  0  0  0  0
  150.6350  140.4963  155.0439 N   0  0  0  0  0  0  0  0  0  0  0  0
  150.0662  144.7996  159.5135 H   0  0  0  0  0  0  0  0  0  0  0  0
  151.1325  145.8646  158.6002 H   0  0  0  0  0  0  0  0  0  0  0  0
  151.0039  146.0282  160.3477 H   0  0  0  0  0  0  0  0  0  0  0  0
  153.1137  144.9152  159.7896 H   0  0  0  0  0  0  0  0  0  0  0  0
  152.4853  143.9704  161.8457 H   0  0  0  0  0  0  0  0  0  0  0  0
  151.0850  143.1563  161.1562 H   0  0  0  0  0  0  0  0  0  0  0  0
  153.8853  142.1963  161.1696 H   0  0  0  0  0  0  0  0  0  0  0  0
  152.4109  141.3067  160.7878 H   0  0  0  0  0  0  0  0  0  0  0  0
  152.9687  143.7726  157.7572 H   0  0  0  0  0  0  0  0  0  0  0  0
  152.3604  141.6100  156.7457 H   0  0  0  0  0  0  0  0  0  0  0  0
  149.0901  140.9958  158.0114 H   0  0  0  0  0  0  0  0  0  0  0  0
  147.6737  138.8812  154.7472 H   0  0  0  0  0  0  0  0  0  0  0  0
  149.8007  139.4056  153.4825 H   0  0  0  0  0  0  0  0  0  0  0  0
  1  2  1  0  0  0  0
  1 16  1  0  0  0  0
  1 17  1  0  0  0  0
  1 18  1  0  0  0  0
  2  6  1  0  0  0  0
  2  3  1  0  0  0  0
  2 19  1  0  0  0  0
  3  4  1  0  0  0  0
  3 20  1  0  0  0  0
  3 21  1  0  0  0  0
  4  5  1  0  0  0  0
  4 22  1  0  0  0  0
  4 23  1  0  0  0  0
  5  6  1  0  0  0  0
  6  7  1  0  0  0  0
  6 24  1  0  0  0  0
  7  8  2  0  0  0  0
  7  9  1  0  0  0  0
  9 10  1  0  0  0  0
  9 25  1  0  0  0  0
 10 15  1  0  0  0  0
 10 11  2  0  0  0  0
 11 12  1  0  0  0  0
 11 26  1  0  0  0  0
 12 13  2  0  0  0  0
 13 14  1  0  0  0  0
 13 27  1  0  0  0  0
 14 15  2  0  0  0  0
 14 28  1  0  0  0  0
M  END
> <s_m_source_file>
AV-unprocessed.smi

> <i_m_source_file_index>
3101

> <i_lp_mmshare_version>
43012

> <i_f3d_flags>
0

> <s_epik_input>
W0NIM11bQ0BASF0xW0NIMl1bQ0gyXU9bQ0BIXTFDKD1PKVtOSF1jMltjSF1uW2NIXVtjSF1uMg==

> <s_epik_cmdline>
J2VwaWtfcHl0aG9uJywgJy1waCcsICc3LjAnLCAnLXRuJywgJzgnLCAnLW1hJywgJzIwMCcsICctbWV0YWxfYmluZGluZycsICctaW1hZScsICc8aW5maWxlLm1hZT4nLCAnLW9tYWUnLCAnPG91dGZpbGUubWFlPic=

> <r_lp_tautomer_probability>
1

> <r_epik_Ionization_Penalty>
2.83174e-06

> <r_epik_Ionization_Penalty_Charging>
0

> <r_epik_Ionization_Penalty_Neutral>
2.83174e-06

> <r_epik_State_Penalty>
-0

> <r_epik_Charging_Adjusted_Penalty>
0

> <i_epik_Tot_Q>
0

> <i_epik_Tot_abs_Q>
0

> <r_epik_Metal_State_Penalty>
-0

> <b_epik_Metal_Only>
0

> <s_lp_Force_Field>
OPLS_2005

> <r_lp_Energy>
27.517

> <b_lp_Chiralities_Consistent>
1

> <s_lp_Variant>
AV-unprocessed.smi:3101-2

> <Gold.Version>
5.8.1

> <Gold.Id.Protein>
6NUR|6NUR_protein|mol2

> <Gold.PLP.Fitness>
35.1626

> <Gold.PLP.PLP>
-29.5085

> <Gold.PLP.part.hbond>
-1.0000

> <Gold.PLP.part.metal>
0.0000

> <Gold.PLP.part.buried>
-4.0134

> <Gold.PLP.part.nonpolar>
-25.0984

> <Gold.PLP.part.repulsive>
0.2826

> <Gold.PLP.ligand.clash>
0.0000

> <Gold.PLP.ligand.torsion>
0.1854

> <Gold.PLP.Chemscore.Hbond>
1.0000

> <Gold.PLP.Chemscore.CHOScore>
1.0000

> <Gold.PLP.Chemscore.Metal>
0.0000

> <Gold.Chemscore.Hbonds>
donor molecule, donor type, donor heavy atom, donor atom, acceptor molecule, acceptor atom, score
      P1  H  7989  7998       L1    15  1.00
      L1  C    14    28       P1  7957  1.00

> <Gold.PLP.Chemscore.Internal.Correction>
0.0250

> <Gold.Rescore>
     Score         DG    S(hbond)    S(metal)    S(lipo)     H(rot)  DE(clash)    DE(int)     intcor
     10.14     -13.36       0.51        0.00      74.57       1.00       0.29       2.93       ----

> <Gold.Chemscore.Fitness>
10.1377

> <Gold.Chemscore.DG>
-13.3555

> <Gold.Chemscore.ZeroCoef>
-5.4800

> <Gold.Chemscore.Hbond>
0.5124

> <Gold.Chemscore.Metal>
0.0000

> <Gold.Chemscore.Lipo>
74.5654

> <Gold.Chemscore.Internal_Hbond>
0.0000

> <Gold.Chemscore.DEClash>
0.2910

> <Gold.Chemscore.DEInternal>
2.9269

> <Gold.Chemscore.Rot>
1.0000

> <Gold.Chemscore.Internal.Correction>
   9.000000E+99

> <Gold.Chemscore.Hbonds>
donor molecule, donor type, donor heavy atom, donor atom, acceptor molecule, acceptor atom, score
      P1  H  7989  7998       L1    15  0.24

> <Gold.Chemscore.Hbond.Weighted>
-1.7114

> <Gold.Chemscore.Metal.Weighted>
-0.0000

> <Gold.Chemscore.Lipo.Weighted>
-8.7242

> <Gold.Chemscore.Internal_Hbond.Weighted>
0.0000

> <Gold.Chemscore.DEClash.Weighted>
0.2910

> <Gold.Chemscore.DEInternal.Weighted>
2.9269

> <Gold.Chemscore.Rot.Weighted>
2.5600

> <Gold.Chemscore.Internal.Correction.Weighted>
   9.000000E+99

> <Gold.Protein.RotatedTorsions>
[ 6907 6896 6895 6894 ] final -168.03 input  -60.11 | X-H torsion
[ 7974 7965 7964 7962 ] final  -35.90 input  175.53 | X-H torsion
[ 8008 7997 7996 7995 ] final  163.58 input   59.86 | X-H torsion
[ 10167 10162 10161 10158 ] final  110.70 input  -65.29 | X-H torsion
[ 10718 10713 10712 10709 ] final  -36.20 input   66.30 | X-H torsion
[ 10763 10752 10751 10750 ] final -101.13 input  -60.55 | X-H torsion
[ 11005 11000 10999 10996 ] final   38.47 input  -57.11 | X-H torsion

> <Gold.Protein.ActiveResidues>
 VAL166  LYS551  ARG553  GLY616  TRP617  ASP618  TYR619  PRO620  LYS621  CYS622 
 ASP623  PHE694  ASN695  SER759  ASP760  ASP761  ALA762  ILE779  LEU786  VAL792 
 PHE793  MET794  SER795  GLU796  ALA797  LYS798  CYS799  TRP800  GLU811  SER814 

> <Gold.Protein.RotatedAtoms>
  151.4691  133.3573  159.2820 H   0  0  0  0  0  0  0  0  0  0  0  0  # atno 6907 bound_to 6896
  150.8973  134.8385  159.7346 H   0  0  0  0  0  0  0  0  0  0  0  0  # atno 6908 bound_to 6896
  152.4859  134.4607  159.9656 H   0  0  0  0  0  0  0  0  0  0  0  0  # atno 6909 bound_to 6896
  146.0707  140.6214  142.8954 H   0  0  0  0  0  0  0  0  0  0  0  0  # atno 7974 bound_to 7965
  156.1946  140.1720  156.8024 H   0  0  0  0  0  0  0  0  0  0  0  0  # atno 8008 bound_to 7997
  154.5514  140.0717  156.8705 H   0  0  0  0  0  0  0  0  0  0  0  0  # atno 8009 bound_to 7997
  155.3022  140.3362  155.4249 H   0  0  0  0  0  0  0  0  0  0  0  0  # atno 8010 bound_to 7997
  139.6668  144.7127  151.1762 H   0  0  0  0  0  0  0  0  0  0  0  0  # atno 10167 bound_to 10162
  156.3297  130.4277  149.7884 H   0  0  0  0  0  0  0  0  0  0  0  0  # atno 10718 bound_to 10713
  154.7634  135.4909  153.9507 H   0  0  0  0  0  0  0  0  0  0  0  0  # atno 10763 bound_to 10752
  153.1278  135.6746  153.9235 H   0  0  0  0  0  0  0  0  0  0  0  0  # atno 10764 bound_to 10752
  153.8948  135.3116  155.3426 H   0  0  0  0  0  0  0  0  0  0  0  0  # atno 10765 bound_to 10752
  140.2123  134.3740  155.8043 H   0  0  0  0  0  0  0  0  0  0  0  0  # atno 11005 bound_to 11000
  144.7230  140.4435  143.6994 LP  0  0  0  0  0  0  0  0  0  0  0  0  # atno 17320 bound_to 7965
  145.6396  139.1548  143.2923 LP  0  0  0  0  0  0  0  0  0  0  0  0  # atno 17321 bound_to 7965
  140.7602  143.5907  150.8799 LP  0  0  0  0  0  0  0  0  0  0  0  0  # atno 17342 bound_to 10162
  139.9569  143.6208  152.3013 LP  0  0  0  0  0  0  0  0  0  0  0  0  # atno 17343 bound_to 10162
  156.5161  130.8194  151.3187 LP  0  0  0  0  0  0  0  0  0  0  0  0  # atno 17370 bound_to 10713
  157.7428  130.9898  150.2543 LP  0  0  0  0  0  0  0  0  0  0  0  0  # atno 17371 bound_to 10713
  141.2226  133.7150  156.8439 LP  0  0  0  0  0  0  0  0  0  0  0  0  # atno 17394 bound_to 11000
  140.1937  134.8947  157.3090 LP  0  0  0  0  0  0  0  0  0  0  0  0  # atno 17395 bound_to 11000

$$$$
