AV-unprocessed.smi:2448|AV-procd|sdf|9657|dock3
  -GOLD-   2272013293D 1   1.00000     0.00000
 Structure written by MMmdl.
 38 39  0  0  0  0  0  0  0  0  2 V2000
  146.5773  135.3695  151.8789 O   0  0  0  0  0  0  0  0  0  0  0  0
  146.3600  134.1324  152.5358 C   0  0  1  0  0  0  0  0  0  0  0  0
  147.2259  134.1081  153.8117 C   0  0  0  0  0  0  0  0  0  0  0  0
  148.6694  134.1745  153.4907 N   0  3  0  0  0  0  0  0  0  0  0  0
  149.5633  134.5728  154.6032 C   0  0  1  0  0  0  0  0  0  0  0  0
  148.9898  135.8056  155.3448 C   0  0  0  0  0  0  0  0  0  0  0  0
  149.7658  137.0896  155.1140 C   0  0  0  0  0  0  0  0  0  0  0  0
  149.1350  138.2236  154.5612 C   0  0  0  0  0  0  0  0  0  0  0  0
  149.8992  139.3928  154.3732 C   0  0  0  0  0  0  0  0  0  0  0  0
  151.2077  139.4826  154.6944 N   0  0  0  0  0  0  0  0  0  0  0  0
  151.8063  138.3919  155.2189 C   0  0  0  0  0  0  0  0  0  0  0  0
  151.1336  137.1746  155.4479 C   0  0  0  0  0  0  0  0  0  0  0  0
  149.7994  133.3500  155.5198 C   0  0  0  0  0  0  0  0  0  0  0  0
  150.7677  133.6321  156.3923 F   0  0  0  0  0  0  0  0  0  0  0  0
  148.7069  133.0394  156.2161 F   0  0  0  0  0  0  0  0  0  0  0  0
  150.1723  132.2936  154.7971 F   0  0  0  0  0  0  0  0  0  0  0  0
  144.8588  134.0232  152.8505 C   0  0  0  0  0  0  0  0  0  0  0  0
  144.1236  133.7373  151.5370 C   0  0  0  0  0  0  0  0  0  0  0  0
  145.2101  132.7096  150.5175 S   0  0  0  0  0  0  0  0  0  0  0  0
  146.6638  132.9743  151.5675 C   0  0  0  0  0  0  0  0  0  0  0  0
  147.5011  135.4610  151.6999 H   0  0  0  0  0  0  0  0  0  0  0  0
  146.9587  134.9466  154.4564 H   0  0  0  0  0  0  0  0  0  0  0  0
  147.0200  133.1978  154.3747 H   0  0  0  0  0  0  0  0  0  0  0  0
  148.9744  133.2833  153.1261 H   0  0  0  0  0  0  0  0  0  0  0  0
  150.5278  134.8409  154.1694 H   0  0  0  0  0  0  0  0  0  0  0  0
  147.9629  135.9947  155.0325 H   0  0  0  0  0  0  0  0  0  0  0  0
  148.9444  135.6039  156.4159 H   0  0  0  0  0  0  0  0  0  0  0  0
  148.0897  138.2054  154.2898 H   0  0  0  0  0  0  0  0  0  0  0  0
  149.4463  140.2795  153.9546 H   0  0  0  0  0  0  0  0  0  0  0  0
  152.8531  138.4925  155.4645 H   0  0  0  0  0  0  0  0  0  0  0  0
  151.6586  136.3312  155.8718 H   0  0  0  0  0  0  0  0  0  0  0  0
  144.6919  133.1874  153.5316 H   0  0  0  0  0  0  0  0  0  0  0  0
  144.4698  134.9145  153.3447 H   0  0  0  0  0  0  0  0  0  0  0  0
  143.1626  133.2493  151.7009 H   0  0  0  0  0  0  0  0  0  0  0  0
  143.9351  134.6684  151.0016 H   0  0  0  0  0  0  0  0  0  0  0  0
  147.5543  133.1512  150.9628 H   0  0  0  0  0  0  0  0  0  0  0  0
  146.8284  132.0525  152.1265 H   0  0  0  0  0  0  0  0  0  0  0  0
  148.7742  134.8655  152.7607 H   0  0  0  0  0  0  0  0  0  0  0  0
  1  2  1  0  0  0  0
  1 21  1  0  0  0  0
  2 20  1  0  0  0  0
  2  3  1  0  0  0  0
  2 17  1  0  0  0  0
  3  4  1  0  0  0  0
  3 22  1  0  0  0  0
  3 23  1  0  0  0  0
  4  5  1  0  0  0  0
  4 24  1  0  0  0  0
  4 38  1  0  0  0  0
  5  6  1  0  0  0  0
  5 13  1  0  0  0  0
  5 25  1  0  0  0  0
  6  7  1  0  0  0  0
  6 26  1  0  0  0  0
  6 27  1  0  0  0  0
  7 12  1  0  0  0  0
  7  8  2  0  0  0  0
  8  9  1  0  0  0  0
  8 28  1  0  0  0  0
  9 10  2  0  0  0  0
  9 29  1  0  0  0  0
 10 11  1  0  0  0  0
 11 12  2  0  0  0  0
 11 30  1  0  0  0  0
 12 31  1  0  0  0  0
 13 14  1  0  0  0  0
 13 15  1  0  0  0  0
 13 16  1  0  0  0  0
 17 18  1  0  0  0  0
 17 32  1  0  0  0  0
 17 33  1  0  0  0  0
 18 19  1  0  0  0  0
 18 34  1  0  0  0  0
 18 35  1  0  0  0  0
 19 20  1  0  0  0  0
 20 36  1  0  0  0  0
 20 37  1  0  0  0  0
M  CHG  1   4   1
M  END
> <s_m_source_file>
AV-unprocessed.smi

> <i_m_source_file_index>
2448

> <i_lp_mmshare_version>
43012

> <i_f3d_flags>
0

> <s_epik_input>
W0NIMl0xU1tDSDJdW0NIMl1bQ0BAXTEoW09IXSlbQ0gyXVtOSF1bQ0BASF0oQyhGKShGKUYpW0NIMl1jMltjSF1bY0hdbltjSF1bY0hdMg==

> <s_epik_cmdline>
J2VwaWtfcHl0aG9uJywgJy1waCcsICc3LjAnLCAnLXRuJywgJzgnLCAnLW1hJywgJzIwMCcsICctbWV0YWxfYmluZGluZycsICctaW1hZScsICc8aW5maWxlLm1hZT4nLCAnLW9tYWUnLCAnPG91dGZpbGUubWFlPic=

> <r_epik_Ionization_Penalty>
1.19945

> <r_epik_Ionization_Penalty_Charging>
1.19892

> <r_epik_Ionization_Penalty_Neutral>
0.000532129

> <r_epik_State_Penalty>
0.752927

> <r_epik_Charging_Adjusted_Penalty>
1.95185

> <i_epik_Tot_Q>
1

> <i_epik_Tot_abs_Q>
1

> <r_epik_Metal_State_Penalty>
0.804507

> <b_epik_Metal_Only>
0

> <s_lp_Force_Field>
OPLS_2005

> <r_lp_Energy>
21.3844

> <b_lp_Chiralities_Consistent>
1

> <s_lp_Variant>
AV-unprocessed.smi:2448-7

> <Gold.Version>
5.8.1

> <Gold.Id.Protein>
6NUR|6NUR_protein|mol2

> <Gold.PLP.Fitness>
43.0958

> <Gold.PLP.PLP>
-30.7582

> <Gold.PLP.part.hbond>
-3.0000

> <Gold.PLP.part.metal>
0.0000

> <Gold.PLP.part.buried>
-1.5289

> <Gold.PLP.part.nonpolar>
-25.1987

> <Gold.PLP.part.repulsive>
0.1134

> <Gold.PLP.ligand.clash>
0.0000

> <Gold.PLP.ligand.torsion>
1.0326

> <Gold.PLP.Chemscore.Hbond>
4.0000

> <Gold.PLP.Chemscore.CHOScore>
0.5264

> <Gold.PLP.Chemscore.Metal>
0.0000

> <Gold.Chemscore.Hbonds>
donor molecule, donor type, donor heavy atom, donor atom, acceptor molecule, acceptor atom, score
      L1  H     1    21       P1  7948  1.00
      L1  H     4    38       P1  7948  1.60
      P1  H  7989  7998       L1    10  0.85
      L1  C     9    29       P1  7957  0.16

> <Gold.PLP.Chemscore.Internal.Correction>
0.8237

> <Gold.Rescore>
     Score         DG    S(hbond)    S(metal)    S(lipo)     H(rot)  DE(clash)    DE(int)     intcor
     13.24     -15.36       2.38        0.00      68.70       2.39       0.16       1.96       ----

> <Gold.Chemscore.Fitness>
13.2442

> <Gold.Chemscore.DG>
-15.3600

> <Gold.Chemscore.ZeroCoef>
-5.4800

> <Gold.Chemscore.Hbond>
2.3808

> <Gold.Chemscore.Metal>
0.0000

> <Gold.Chemscore.Lipo>
68.7001

> <Gold.Chemscore.Internal_Hbond>
0.0000

> <Gold.Chemscore.DEClash>
0.1605

> <Gold.Chemscore.DEInternal>
1.9553

> <Gold.Chemscore.Rot>
2.3866

> <Gold.Chemscore.Internal.Correction>
   9.000000E+99

> <Gold.Chemscore.Hbonds>
donor molecule, donor type, donor heavy atom, donor atom, acceptor molecule, acceptor atom, score
      L1  H     1    21       P1  7948  0.93
      L1  H     4    38       P1  7948  0.12
      P1  H  7989  7998       L1    10  0.15

> <Gold.Chemscore.Hbond.Weighted>
-7.9518

> <Gold.Chemscore.Metal.Weighted>
-0.0000

> <Gold.Chemscore.Lipo.Weighted>
-8.0379

> <Gold.Chemscore.Internal_Hbond.Weighted>
0.0000

> <Gold.Chemscore.DEClash.Weighted>
0.1605

> <Gold.Chemscore.DEInternal.Weighted>
1.9553

> <Gold.Chemscore.Rot.Weighted>
6.1096

> <Gold.Chemscore.Internal.Correction.Weighted>
   9.000000E+99

> <Gold.Protein.RotatedTorsions>
[ 6907 6896 6895 6894 ] final  -28.93 input  -60.11 | X-H torsion
[ 7974 7965 7964 7962 ] final   82.19 input  175.53 | X-H torsion
[ 8008 7997 7996 7995 ] final   90.08 input   59.86 | X-H torsion
[ 10167 10162 10161 10158 ] final   50.98 input  -65.29 | X-H torsion
[ 10718 10713 10712 10709 ] final  162.70 input   66.30 | X-H torsion
[ 10763 10752 10751 10750 ] final   92.74 input  -60.55 | X-H torsion
[ 11005 11000 10999 10996 ] final  -25.32 input  -57.11 | X-H torsion

> <Gold.Protein.ActiveResidues>
 VAL166  LYS551  ARG553  GLY616  TRP617  ASP618  TYR619  PRO620  LYS621  CYS622 
 ASP623  PHE694  ASN695  SER759  ASP760  ASP761  ALA762  ILE779  LEU786  VAL792 
 PHE793  MET794  SER795  GLU796  ALA797  LYS798  CYS799  TRP800  GLU811  SER814 

> <Gold.Protein.RotatedAtoms>
  151.1262  135.0106  159.8561 H   0  0  0  0  0  0  0  0  0  0  0  0  # atno 6907 bound_to 6896
  152.5449  134.1664  159.8589 H   0  0  0  0  0  0  0  0  0  0  0  0  # atno 6908 bound_to 6896
  151.1726  133.4729  159.2627 H   0  0  0  0  0  0  0  0  0  0  0  0  # atno 6909 bound_to 6896
  145.6284  139.2400  143.2099 H   0  0  0  0  0  0  0  0  0  0  0  0  # atno 7974 bound_to 7965
  156.0077  140.3353  155.6909 H   0  0  0  0  0  0  0  0  0  0  0  0  # atno 8008 bound_to 7997
  155.6202  140.0674  157.2698 H   0  0  0  0  0  0  0  0  0  0  0  0  # atno 8009 bound_to 7997
  154.4270  140.1778  156.1351 H   0  0  0  0  0  0  0  0  0  0  0  0  # atno 8010 bound_to 7997
  140.2668  144.3311  150.6302 H   0  0  0  0  0  0  0  0  0  0  0  0  # atno 10167 bound_to 10162
  157.1189  131.0487  151.2424 H   0  0  0  0  0  0  0  0  0  0  0  0  # atno 10718 bound_to 10713
  153.2225  135.4350  155.0505 H   0  0  0  0  0  0  0  0  0  0  0  0  # atno 10763 bound_to 10752
  154.8257  135.3360  154.6906 H   0  0  0  0  0  0  0  0  0  0  0  0  # atno 10764 bound_to 10752
  153.7337  135.7009  153.5039 H   0  0  0  0  0  0  0  0  0  0  0  0  # atno 10765 bound_to 10752
  140.8927  133.7577  156.0442 H   0  0  0  0  0  0  0  0  0  0  0  0  # atno 11005 bound_to 11000
  146.1376  140.7101  142.9382 LP  0  0  0  0  0  0  0  0  0  0  0  0  # atno 17320 bound_to 7965
  144.7203  140.4351  143.7013 LP  0  0  0  0  0  0  0  0  0  0  0  0  # atno 17321 bound_to 7965
  140.5922  143.2168  151.7231 LP  0  0  0  0  0  0  0  0  0  0  0  0  # atno 17342 bound_to 10162
  139.5000  144.3922  152.0268 LP  0  0  0  0  0  0  0  0  0  0  0  0  # atno 17343 bound_to 10162
  157.4494  130.7589  149.7138 LP  0  0  0  0  0  0  0  0  0  0  0  0  # atno 17370 bound_to 10713
  155.9833  130.4002  150.3371 LP  0  0  0  0  0  0  0  0  0  0  0  0  # atno 17371 bound_to 10713
  140.8327  134.3159  157.5343 LP  0  0  0  0  0  0  0  0  0  0  0  0  # atno 17394 bound_to 11000
  139.8731  134.9372  156.3681 LP  0  0  0  0  0  0  0  0  0  0  0  0  # atno 17395 bound_to 11000

$$$$
