AV-unprocessed.smi:1084|AV-procd|sdf|4716|dock7
  -GOLD-   22720 3243D 1   1.00000     0.00000
 Structure written by MMmdl.
 52 54  0  0  0  0  0  0  0  0  1 V2000
  146.5459  133.9556  155.6295 C   0  0  0  0  0  0  0  0  0  0  0  0
  146.9659  133.0049  154.4791 C   0  0  2  0  0  0  0  0  0  0  0  0
  148.4443  133.2984  154.1034 C   0  0  0  0  0  0  0  0  0  0  0  0
  148.7040  134.7250  153.9410 N   0  0  0  0  0  0  0  0  0  0  0  0
  149.1845  135.5279  154.8991 C   0  0  0  0  0  0  0  0  0  0  0  0
  149.4355  135.1474  156.0425 O   0  0  0  0  0  0  0  0  0  0  0  0
  149.3286  136.7865  154.4509 N   0  0  0  0  0  0  0  0  0  0  0  0
  149.8925  137.9005  155.1278 C   0  0  0  0  0  0  0  0  0  0  0  0
  150.2134  137.7577  156.4924 C   0  0  0  0  0  0  0  0  0  0  0  0
  150.7465  138.8574  157.1908 C   0  0  0  0  0  0  0  0  0  0  0  0
  150.9312  140.0759  156.4978 C   0  0  0  0  0  0  0  0  0  0  0  0
  151.4503  141.2116  157.1329 N   0  0  0  0  0  0  0  0  0  0  0  0
  152.1073  140.9157  158.3989 C   0  0  0  0  0  0  0  0  0  0  0  0
  152.7623  142.1895  158.9607 C   0  0  0  0  0  0  0  0  0  0  0  0
  151.7841  143.2192  159.0788 O   0  0  0  0  0  0  0  0  0  0  0  0
  151.2032  143.5531  157.8209 C   0  0  0  0  0  0  0  0  0  0  0  0
  150.5044  142.3156  157.2326 C   0  0  0  0  0  0  0  0  0  0  0  0
  150.6169  140.2240  155.1931 N   0  0  0  0  0  0  0  0  0  0  0  0
  150.1079  139.1651  154.5283 C   0  0  0  0  0  0  0  0  0  0  0  0
  146.0447  133.0695  153.3207 N   0  0  0  0  0  0  0  0  0  0  0  0
  146.4127  132.1297  152.2552 C   0  0  0  0  0  0  0  0  0  0  0  0
  145.4732  132.2063  151.0397 C   0  0  0  0  0  0  0  0  0  0  0  0
  145.4562  133.5332  150.5321 O   0  0  0  0  0  0  0  0  0  0  0  0
  145.0306  134.4721  151.5099 C   0  0  0  0  0  0  0  0  0  0  0  0
  145.9641  134.4110  152.7313 C   0  0  0  0  0  0  0  0  0  0  0  0
  147.2550  133.9523  156.4564 H   0  0  0  0  0  0  0  0  0  0  0  0
  145.5932  133.6711  156.0741 H   0  0  0  0  0  0  0  0  0  0  0  0
  146.4603  134.9843  155.2776 H   0  0  0  0  0  0  0  0  0  0  0  0
  146.9341  131.9893  154.8767 H   0  0  0  0  0  0  0  0  0  0  0  0
  149.1327  132.9649  154.8782 H   0  0  0  0  0  0  0  0  0  0  0  0
  148.7035  132.7594  153.1901 H   0  0  0  0  0  0  0  0  0  0  0  0
  148.5190  135.1219  153.0316 H   0  0  0  0  0  0  0  0  0  0  0  0
  148.9738  136.9749  153.5248 H   0  0  0  0  0  0  0  0  0  0  0  0
  150.0570  136.8173  157.0008 H   0  0  0  0  0  0  0  0  0  0  0  0
  151.0049  138.7628  158.2354 H   0  0  0  0  0  0  0  0  0  0  0  0
  151.3776  140.5287  159.1113 H   0  0  0  0  0  0  0  0  0  0  0  0
  152.8600  140.1400  158.2525 H   0  0  0  0  0  0  0  0  0  0  0  0
  153.1901  141.9907  159.9434 H   0  0  0  0  0  0  0  0  0  0  0  0
  153.5794  142.5219  158.3182 H   0  0  0  0  0  0  0  0  0  0  0  0
  150.4837  144.3594  157.9637 H   0  0  0  0  0  0  0  0  0  0  0  0
  151.9707  143.9264  157.1408 H   0  0  0  0  0  0  0  0  0  0  0  0
  150.1002  142.5459  156.2460 H   0  0  0  0  0  0  0  0  0  0  0  0
  149.6654  142.0311  157.8684 H   0  0  0  0  0  0  0  0  0  0  0  0
  149.8495  139.3601  153.4991 H   0  0  0  0  0  0  0  0  0  0  0  0
  147.4374  132.3195  151.9324 H   0  0  0  0  0  0  0  0  0  0  0  0
  146.3790  131.1041  152.6182 H   0  0  0  0  0  0  0  0  0  0  0  0
  145.8130  131.5300  150.2553 H   0  0  0  0  0  0  0  0  0  0  0  0
  144.4627  131.8975  151.3121 H   0  0  0  0  0  0  0  0  0  0  0  0
  145.0444  135.4708  151.0734 H   0  0  0  0  0  0  0  0  0  0  0  0
  143.9999  134.2646  151.8020 H   0  0  0  0  0  0  0  0  0  0  0  0
  145.5819  135.1285  153.4542 H   0  0  0  0  0  0  0  0  0  0  0  0
  146.9606  134.7492  152.4427 H   0  0  0  0  0  0  0  0  0  0  0  0
  1  2  1  0  0  0  0
  1 26  1  0  0  0  0
  1 27  1  0  0  0  0
  1 28  1  0  0  0  0
  2  3  1  0  0  0  0
  2 20  1  0  0  0  0
  2 29  1  0  0  0  0
  3  4  1  0  0  0  0
  3 30  1  0  0  0  0
  3 31  1  0  0  0  0
  4  5  1  0  0  0  0
  4 32  1  0  0  0  0
  5  6  2  0  0  0  0
  5  7  1  0  0  0  0
  7  8  1  0  0  0  0
  7 33  1  0  0  0  0
  8 19  1  0  0  0  0
  8  9  2  0  0  0  0
  9 10  1  0  0  0  0
  9 34  1  0  0  0  0
 10 11  2  0  0  0  0
 10 35  1  0  0  0  0
 11 12  1  0  0  0  0
 11 18  1  0  0  0  0
 12 17  1  0  0  0  0
 12 13  1  0  0  0  0
 13 14  1  0  0  0  0
 13 36  1  0  0  0  0
 13 37  1  0  0  0  0
 14 15  1  0  0  0  0
 14 38  1  0  0  0  0
 14 39  1  0  0  0  0
 15 16  1  0  0  0  0
 16 17  1  0  0  0  0
 16 40  1  0  0  0  0
 16 41  1  0  0  0  0
 17 42  1  0  0  0  0
 17 43  1  0  0  0  0
 18 19  2  0  0  0  0
 19 44  1  0  0  0  0
 20 25  1  0  0  0  0
 20 21  1  0  0  0  0
 21 22  1  0  0  0  0
 21 45  1  0  0  0  0
 21 46  1  0  0  0  0
 22 23  1  0  0  0  0
 22 47  1  0  0  0  0
 22 48  1  0  0  0  0
 23 24  1  0  0  0  0
 24 25  1  0  0  0  0
 24 49  1  0  0  0  0
 24 50  1  0  0  0  0
 25 51  1  0  0  0  0
 25 52  1  0  0  0  0
M  END
> <s_m_source_file>
AV-unprocessed.smi

> <i_m_source_file_index>
1084

> <i_lp_mmshare_version>
43012

> <i_f3d_flags>
0

> <s_epik_input>
W0NIMl0xW0NIMl1PW0NIMl1bQ0gyXU4xW0NASF0oW0NIM10pW0NIMl1bTkhdQyg9TylbTkhdYzJbY0hdW2NIXWMobltjSF0yKU4zW0NIMl1bQ0gyXU9bQ0gyXVtDSDJdMw==

> <s_epik_cmdline>
J2VwaWtfcHl0aG9uJywgJy1waCcsICc3LjAnLCAnLXRuJywgJzgnLCAnLW1hJywgJzIwMCcsICctbWV0YWxfYmluZGluZycsICctaW1hZScsICc8aW5maWxlLm1hZT4nLCAnLW9tYWUnLCAnPG91dGZpbGUubWFlPic=

> <r_lp_tautomer_probability>
1

> <r_epik_Ionization_Penalty>
0.268053

> <r_epik_Ionization_Penalty_Charging>
0

> <r_epik_Ionization_Penalty_Neutral>
0.268053

> <r_epik_State_Penalty>
0.269834

> <r_epik_Charging_Adjusted_Penalty>
0.269834

> <i_epik_Tot_Q>
0

> <i_epik_Tot_abs_Q>
0

> <r_epik_Metal_State_Penalty>
0.268436

> <b_epik_Metal_Only>
0

> <s_lp_Force_Field>
OPLS_2005

> <r_lp_Energy>
46.8762

> <b_lp_Chiralities_Consistent>
1

> <s_lp_Variant>
AV-unprocessed.smi:1084-1

> <Gold.Version>
5.8.1

> <Gold.Id.Protein>
6NUR|6NUR_protein|mol2

> <Gold.PLP.Fitness>
43.9392

> <Gold.PLP.PLP>
-33.3154

> <Gold.PLP.part.hbond>
-3.0000

> <Gold.PLP.part.metal>
0.0000

> <Gold.PLP.part.buried>
-6.1179

> <Gold.PLP.part.nonpolar>
-25.1071

> <Gold.PLP.part.repulsive>
0.9251

> <Gold.PLP.ligand.clash>
0.0971

> <Gold.PLP.ligand.torsion>
0.5496

> <Gold.PLP.Chemscore.Hbond>
2.8920

> <Gold.PLP.Chemscore.CHOScore>
1.0000

> <Gold.PLP.Chemscore.Metal>
0.0000

> <Gold.Chemscore.Hbonds>
donor molecule, donor type, donor heavy atom, donor atom, acceptor molecule, acceptor atom, score
      L1  H     4    32       P1  7948  0.96
      L1  H     7    33       P1  7948  0.78
      P1  H  7989  7998       L1    18  0.53
      L1  C    19    44       P1  7957  1.00

> <Gold.PLP.Chemscore.Internal.Correction>
0.1441

> <Gold.Rescore>
     Score         DG    S(hbond)    S(metal)    S(lipo)     H(rot)  DE(clash)    DE(int)     intcor
     16.84     -18.90       2.20        0.00      87.48       1.62       0.11       1.95       ----

> <Gold.Chemscore.Fitness>
16.8380

> <Gold.Chemscore.DG>
-18.8978

> <Gold.Chemscore.ZeroCoef>
-5.4800

> <Gold.Chemscore.Hbond>
2.1953

> <Gold.Chemscore.Metal>
0.0000

> <Gold.Chemscore.Lipo>
87.4833

> <Gold.Chemscore.Internal_Hbond>
0.0000

> <Gold.Chemscore.DEClash>
0.1085

> <Gold.Chemscore.DEInternal>
1.9513

> <Gold.Chemscore.Rot>
1.6211

> <Gold.Chemscore.Internal.Correction>
   9.000000E+99

> <Gold.Chemscore.Hbonds>
donor molecule, donor type, donor heavy atom, donor atom, acceptor molecule, acceptor atom, score
      L1  H     4    32       P1  7948  0.72
      L1  H     7    33       P1  7948  0.78
      P1  H  7989  7998       L1    18  0.04

> <Gold.Chemscore.Hbond.Weighted>
-7.3323

> <Gold.Chemscore.Metal.Weighted>
-0.0000

> <Gold.Chemscore.Lipo.Weighted>
-10.2356

> <Gold.Chemscore.Internal_Hbond.Weighted>
0.0000

> <Gold.Chemscore.DEClash.Weighted>
0.1085

> <Gold.Chemscore.DEInternal.Weighted>
1.9513

> <Gold.Chemscore.Rot.Weighted>
4.1501

> <Gold.Chemscore.Internal.Correction.Weighted>
   9.000000E+99

> <Gold.Protein.RotatedTorsions>
[ 6907 6896 6895 6894 ] final  -86.03 input  -60.11 | X-H torsion
[ 7974 7965 7964 7962 ] final   -9.35 input  175.53 | X-H torsion
[ 8008 7997 7996 7995 ] final   79.72 input   59.86 | X-H torsion
[ 10167 10162 10161 10158 ] final  161.68 input  -65.29 | X-H torsion
[ 10718 10713 10712 10709 ] final  -55.62 input   66.30 | X-H torsion
[ 10763 10752 10751 10750 ] final   43.67 input  -60.55 | X-H torsion
[ 11005 11000 10999 10996 ] final  -81.95 input  -57.11 | X-H torsion

> <Gold.Protein.ActiveResidues>
 VAL166  LYS551  ARG553  GLY616  TRP617  ASP618  TYR619  PRO620  LYS621  CYS622 
 ASP623  PHE694  ASN695  SER759  ASP760  ASP761  ALA762  ILE779  LEU786  VAL792 
 PHE793  MET794  SER795  GLU796  ALA797  LYS798  CYS799  TRP800  GLU811  SER814 

> <Gold.Protein.RotatedAtoms>
  150.6868  134.3114  159.4747 H   0  0  0  0  0  0  0  0  0  0  0  0  # atno 6907 bound_to 6896
  152.0999  134.9346  160.0579 H   0  0  0  0  0  0  0  0  0  0  0  0  # atno 6908 bound_to 6896
  152.0629  133.4036  159.4463 H   0  0  0  0  0  0  0  0  0  0  0  0  # atno 6909 bound_to 6896
  146.2254  140.2603  142.8351 H   0  0  0  0  0  0  0  0  0  0  0  0  # atno 7974 bound_to 7965
  155.8736  140.3448  155.5838 H   0  0  0  0  0  0  0  0  0  0  0  0  # atno 8008 bound_to 7997
  155.7799  140.0857  157.2084 H   0  0  0  0  0  0  0  0  0  0  0  0  # atno 8009 bound_to 7997
  154.4019  140.1502  156.3027 H   0  0  0  0  0  0  0  0  0  0  0  0  # atno 8010 bound_to 7997
  139.4852  144.4512  151.8827 H   0  0  0  0  0  0  0  0  0  0  0  0  # atno 10167 bound_to 10162
  156.1354  130.4157  150.0195 H   0  0  0  0  0  0  0  0  0  0  0  0  # atno 10718 bound_to 10713
  152.9856  135.6094  154.3148 H   0  0  0  0  0  0  0  0  0  0  0  0  # atno 10763 bound_to 10752
  154.2862  135.2776  155.2677 H   0  0  0  0  0  0  0  0  0  0  0  0  # atno 10764 bound_to 10752
  154.4993  135.5871  153.6575 H   0  0  0  0  0  0  0  0  0  0  0  0  # atno 10765 bound_to 10752
  141.1665  133.7221  156.8499 H   0  0  0  0  0  0  0  0  0  0  0  0  # atno 11005 bound_to 11000
  144.9344  140.8010  143.5669 LP  0  0  0  0  0  0  0  0  0  0  0  0  # atno 17320 bound_to 7965
  145.2550  139.2016  143.4922 LP  0  0  0  0  0  0  0  0  0  0  0  0  # atno 17321 bound_to 7965
  140.3969  144.2544  150.5895 LP  0  0  0  0  0  0  0  0  0  0  0  0  # atno 17342 bound_to 10162
  140.5094  143.2295  151.8559 LP  0  0  0  0  0  0  0  0  0  0  0  0  # atno 17343 bound_to 10162
  156.8096  130.9320  151.3644 LP  0  0  0  0  0  0  0  0  0  0  0  0  # atno 17370 bound_to 10713
  157.6527  130.8898  149.9666 LP  0  0  0  0  0  0  0  0  0  0  0  0  # atno 17371 bound_to 10713
  140.1923  134.8957  157.3074 LP  0  0  0  0  0  0  0  0  0  0  0  0  # atno 17394 bound_to 11000
  140.2277  134.3947  155.7536 LP  0  0  0  0  0  0  0  0  0  0  0  0  # atno 17395 bound_to 11000

$$$$
