#       Name:                AV-unprocessed.smi:2086
#       Creating user name   scv26
#       Creation time:       Fri Mar 27 11:23:25 2020


#       File generated by GOLD software.
#

@<TRIPOS>MOLECULE
AV-unprocessed.smi:2086
    40    41     1
SMALL
NO_CHARGES


@<TRIPOS>ATOM
      1 ****        -1.4576   2.0383  -1.5383 O.2            1 S1                 0.0000
      2 ****        -0.8307   1.0216  -1.2406 C.2            1 S1                 0.0000
      3 ****        -1.4129  -0.1630  -0.9956 N.am           1 S1                 0.0000
      4 ****        -2.8498  -0.4137  -0.9972 C.3            1 S1                 0.0000
      5 ****        -3.3659  -0.8119  -2.3900 C.3            1 S1                 0.0000
      6 ****        -4.6666  -1.0896  -2.3099 F              1 S1                 0.0000
      7 ****        -3.1963   0.1807  -3.2633 F              1 S1                 0.0000
      8 ****        -2.7241  -1.8956  -2.8270 F              1 S1                 0.0000
      9 ****         0.6752   1.0359  -1.1993 C.ar           1 S1                 0.0000
     10 ****         1.3700   1.7075  -2.2302 C.ar           1 S1                 0.0000
     11 ****         2.7758   1.7308  -2.2218 C.ar           1 S1                 0.0000
     12 ****         3.4445   1.0823  -1.1701 C.ar           1 S1                 0.0000
     13 ****         2.8017   0.4526  -0.1663 N.ar           1 S1                 0.0000
     14 ****         1.4456   0.4298  -0.1601 C.ar           1 S1                 0.0000
     15 ****         0.8368  -0.1850   0.9527 N.3            1 S1                 0.0000
     16 ****         0.3497   0.7538   1.9555 C.3            1 S1                 0.0000
     17 ****        -0.5500   0.0185   2.9634 C.3            1 S1                 0.0000
     18 ****         0.1636  -1.0748   3.5350 O.3            1 S1                 0.0000
     19 ****         0.5731  -2.0228   2.5528 C.3            1 S1                 0.0000
     20 ****         1.5059  -1.3427   1.5360 C.3            1 S1                 0.0000
     21 ****        -0.8142  -0.9483  -0.7853 H              1 S1                 0.0000
     22 ****        -3.0454  -1.2201  -0.2898 H              1 S1                 0.0000
     23 ****        -3.3909   0.4578  -0.6246 H              1 S1                 0.0000
     24 ****         0.8333   2.1933  -3.0326 H              1 S1                 0.0000
     25 ****         3.3272   2.2307  -3.0044 H              1 S1                 0.0000
     26 ****         4.5236   1.0747  -1.1284 H              1 S1                 0.0000
     27 ****         1.2018   1.2005   2.4698 H              1 S1                 0.0000
     28 ****        -0.2039   1.5688   1.4889 H              1 S1                 0.0000
     29 ****        -0.8574   0.6976   3.7586 H              1 S1                 0.0000
     30 ****        -1.4603  -0.3405   2.4799 H              1 S1                 0.0000
     31 ****         1.0900  -2.8460   3.0459 H              1 S1                 0.0000
     32 ****        -0.3008  -2.4465   2.0554 H              1 S1                 0.0000
     33 ****         1.7826  -2.0472   0.7507 H              1 S1                 0.0000
     34 ****         2.4251  -1.0272   2.0316 H              1 S1                 0.0000
     35 ****        -2.4547   2.0084  -1.6084 LP             1 S1                 0.0000
     36 ****        -0.9697   2.8942  -1.7101 LP             1 S1                 0.0000
     37 ****         3.3186   0.0076   0.5650 LP             1 S1                 0.0000
     38 ****         0.0345  -0.5985   0.5223 LP             1 S1                 0.0000
     39 ****        -0.4274  -1.5335   4.1985 LP             1 S1                 0.0000
     40 ****         0.9755  -0.7217   3.9999 LP             1 S1                 0.0000
@<TRIPOS>BOND
    1    1    2 2     
    2    2    3 am    
    3    2    9 1     
    4    3    4 1     
    5    3   21 1     
    6    4    5 1     
    7    4   22 1     
    8    4   23 1     
    9    5    6 1     
   10    5    7 1     
   11    5    8 1     
   12    9   14 ar    
   13    9   10 ar    
   14   10   11 ar    
   15   10   24 1     
   16   11   12 ar    
   17   11   25 1     
   18   12   13 ar    
   19   12   26 1     
   20   13   14 ar    
   21   14   15 1     
   22   15   20 1     
   23   15   16 1     
   24   16   17 1     
   25   16   27 1     
   26   16   28 1     
   27   17   18 1     
   28   17   29 1     
   29   17   30 1     
   30   18   19 1     
   31   19   20 1     
   32   19   31 1     
   33   19   32 1     
   34   20   33 1     
   35   20   34 1     
   36    1   35 1     
   37    1   36 1     
   38   13   37 1     
   39   15   38 1     
   40   18   39 1     
   41   18   40 1     
@<TRIPOS>SUBSTRUCTURE
      1 S1             1
@<TRIPOS>SET
LONE_PAIRS      STATIC     ATOMS    <user>   **** ""
6 35 36 37 38 39 40
DONOR_HYDROGENS      STATIC     ATOMS    <user>   **** ""
1 21
ATOM$BLUE        STATIC     ATOMS    COLORGROUP SYSTEM
6 35 36 37 38 39 40
ATOM$RED        STATIC     ATOMS    COLORGROUP SYSTEM
1 21
