AV-unprocessed.smi:1808|AV-procd|sdf|7308|dock1
  -GOLD-   22720 8563D 1   1.00000     0.00000
 Structure written by MMmdl.
 27 28  0  0  0  0  0  0  0  0  2 V2000
  152.6263  140.4604  158.7378 O   0  0  0  0  0  0  0  0  0  0  0  0
  152.1813  140.5509  157.5912 C   0  0  0  0  0  0  0  0  0  0  0  0
  151.0979  141.3020  157.3548 N   0  0  0  0  0  0  0  0  0  0  0  0
  150.3658  142.0586  158.3616 C   0  0  0  0  0  0  0  0  0  0  0  0
  151.2731  143.1113  159.0125 C   0  0  1  0  0  0  0  0  0  0  0  0
  151.8318  144.1385  158.0314 C   0  0  0  0  0  0  0  0  0  0  0  0
  152.1517  145.3294  158.9203 C   0  0  0  0  0  0  0  0  0  0  0  0
  151.3225  145.0837  160.1850 C   0  0  0  0  0  0  0  0  0  0  0  0
  150.5390  143.9303  159.9091 O   0  0  0  0  0  0  0  0  0  0  0  0
  152.6831  139.9534  156.4863 N   0  5  0  0  0  0  0  0  0  0  0  0
  151.8727  139.2589  155.6712 C   0  0  0  0  0  0  0  0  0  0  0  0
  151.0327  139.8405  154.8072 N   0  0  0  0  0  0  0  0  0  0  0  0
  150.2906  138.9282  154.0548 C   0  0  0  0  0  0  0  0  0  0  0  0
  150.5791  137.6214  154.3459 C   0  0  0  0  0  0  0  0  0  0  0  0
  151.7985  137.4970  155.5817 S   0  0  0  0  0  0  0  0  0  0  0  0
  150.7638  141.3575  156.4040 H   0  0  0  0  0  0  0  0  0  0  0  0
  149.5153  142.5471  157.8844 H   0  0  0  0  0  0  0  0  0  0  0  0
  149.9680  141.3806  159.1183 H   0  0  0  0  0  0  0  0  0  0  0  0
  152.0921  142.6318  159.5522 H   0  0  0  0  0  0  0  0  0  0  0  0
  152.6992  143.7711  157.4824 H   0  0  0  0  0  0  0  0  0  0  0  0
  151.0673  144.4197  157.3055 H   0  0  0  0  0  0  0  0  0  0  0  0
  153.2140  145.3630  159.1640 H   0  0  0  0  0  0  0  0  0  0  0  0
  151.8886  146.2689  158.4334 H   0  0  0  0  0  0  0  0  0  0  0  0
  151.9731  144.8822  161.0372 H   0  0  0  0  0  0  0  0  0  0  0  0
  150.6850  145.9312  160.4372 H   0  0  0  0  0  0  0  0  0  0  0  0
  149.5788  139.2980  153.3318 H   0  0  0  0  0  0  0  0  0  0  0  0
  150.1533  136.7297  153.9116 H   0  0  0  0  0  0  0  0  0  0  0  0
  1  2  2  0  0  0  0
  2  3  1  0  0  0  0
  2 10  1  0  0  0  0
  3  4  1  0  0  0  0
  3 16  1  0  0  0  0
  4  5  1  0  0  0  0
  4 17  1  0  0  0  0
  4 18  1  0  0  0  0
  5  9  1  0  0  0  0
  5  6  1  0  0  0  0
  5 19  1  0  0  0  0
  6  7  1  0  0  0  0
  6 20  1  0  0  0  0
  6 21  1  0  0  0  0
  7  8  1  0  0  0  0
  7 22  1  0  0  0  0
  7 23  1  0  0  0  0
  8  9  1  0  0  0  0
  8 24  1  0  0  0  0
  8 25  1  0  0  0  0
 10 11  1  0  0  0  0
 11 15  1  0  0  0  0
 11 12  2  0  0  0  0
 12 13  1  0  0  0  0
 13 14  2  0  0  0  0
 13 26  1  0  0  0  0
 14 15  1  0  0  0  0
 14 27  1  0  0  0  0
M  CHG  1  10  -1
M  END
> <s_m_source_file>
AV-unprocessed.smi

> <i_m_source_file_index>
1808

> <i_lp_mmshare_version>
43012

> <i_f3d_flags>
0

> <s_epik_input>
czFbY0hdW2NIXW5jMVtOSF1DKD1PKVtOSF1bQ0gyXVtDQEBIXTJbQ0gyXVtDSDJdW0NIMl1PMg==

> <s_epik_cmdline>
J2VwaWtfcHl0aG9uJywgJy1waCcsICc3LjAnLCAnLXRuJywgJzgnLCAnLW1hJywgJzIwMCcsICctbWV0YWxfYmluZGluZycsICctaW1hZScsICc8aW5maWxlLm1hZT4nLCAnLW9tYWUnLCAnPG91dGZpbGUubWFlPic=

> <r_lp_tautomer_probability>
0.999

> <r_epik_Ionization_Penalty>
8.26346

> <r_epik_Ionization_Penalty_Charging>
6.6559

> <r_epik_Ionization_Penalty_Neutral>
1.60756

> <r_epik_State_Penalty>
6.65607

> <r_epik_Charging_Adjusted_Penalty>
13.312

> <i_epik_Tot_Q>
-1

> <i_epik_Tot_abs_Q>
1

> <r_epik_Metal_State_Penalty>
2.5789

> <b_epik_Metal_Only>
1

> <s_lp_Force_Field>
OPLS_2005

> <r_lp_Energy>
13.0287

> <b_lp_Chiralities_Consistent>
1

> <s_lp_Variant>
AV-unprocessed.smi:1808-4

> <Gold.Version>
5.8.1

> <Gold.Id.Protein>
6NUR|6NUR_protein|mol2

> <Gold.PLP.Fitness>
44.3049

> <Gold.PLP.PLP>
-31.4737

> <Gold.PLP.part.hbond>
-2.0000

> <Gold.PLP.part.metal>
0.0000

> <Gold.PLP.part.buried>
-4.0018

> <Gold.PLP.part.nonpolar>
-25.4887

> <Gold.PLP.part.repulsive>
0.2353

> <Gold.PLP.ligand.clash>
0.0000

> <Gold.PLP.ligand.torsion>
1.1544

> <Gold.PLP.Chemscore.Hbond>
3.0000

> <Gold.PLP.Chemscore.CHOScore>
2.0312

> <Gold.PLP.Chemscore.Metal>
0.0000

> <Gold.Chemscore.Hbonds>
donor molecule, donor type, donor heavy atom, donor atom, acceptor molecule, acceptor atom, score
      P1  H  7989  7998       L1    12  0.95
      P1  H  7997  8010       L1    10  2.00
      L1  C    13    26       P1  7957  1.00
      L1  C    14    27       P1  7948  0.95
      L1  C    14    27       P1  7949  0.06

> <Gold.PLP.Chemscore.Internal.Correction>
0.0466

> <Gold.Rescore>
     Score         DG    S(hbond)    S(metal)    S(lipo)     H(rot)  DE(clash)    DE(int)     intcor
     14.06     -15.48       1.55        0.00      69.69       1.30       0.02       1.40       ----

> <Gold.Chemscore.Fitness>
14.0617

> <Gold.Chemscore.DG>
-15.4835

> <Gold.Chemscore.ZeroCoef>
-5.4800

> <Gold.Chemscore.Hbond>
1.5503

> <Gold.Chemscore.Metal>
0.0000

> <Gold.Chemscore.Lipo>
69.6879

> <Gold.Chemscore.Internal_Hbond>
0.0000

> <Gold.Chemscore.DEClash>
0.0247

> <Gold.Chemscore.DEInternal>
1.3970

> <Gold.Chemscore.Rot>
1.3000

> <Gold.Chemscore.Internal.Correction>
   9.000000E+99

> <Gold.Chemscore.Hbonds>
donor molecule, donor type, donor heavy atom, donor atom, acceptor molecule, acceptor atom, score
      P1  H  7989  7998       L1    12  0.21
      P1  H  7997  8010       L1    10  0.48

> <Gold.Chemscore.Hbond.Weighted>
-5.1780

> <Gold.Chemscore.Metal.Weighted>
-0.0000

> <Gold.Chemscore.Lipo.Weighted>
-8.1535

> <Gold.Chemscore.Internal_Hbond.Weighted>
0.0000

> <Gold.Chemscore.DEClash.Weighted>
0.0247

> <Gold.Chemscore.DEInternal.Weighted>
1.3970

> <Gold.Chemscore.Rot.Weighted>
3.3280

> <Gold.Chemscore.Internal.Correction.Weighted>
   9.000000E+99

> <Gold.Protein.RotatedTorsions>
[ 6907 6896 6895 6894 ] final -148.10 input  -60.11 | X-H torsion
[ 7974 7965 7964 7962 ] final   32.26 input  175.53 | X-H torsion
[ 8008 7997 7996 7995 ] final   59.01 input   59.86 | X-H torsion
[ 10167 10162 10161 10158 ] final   23.45 input  -65.29 | X-H torsion
[ 10718 10713 10712 10709 ] final -149.48 input   66.30 | X-H torsion
[ 10763 10752 10751 10750 ] final   98.96 input  -60.55 | X-H torsion
[ 11005 11000 10999 10996 ] final  122.76 input  -57.11 | X-H torsion

> <Gold.Protein.ActiveResidues>
 VAL166  LYS551  ARG553  GLY616  TRP617  ASP618  TYR619  PRO620  LYS621  CYS622 
 ASP623  PHE694  ASN695  SER759  ASP760  ASP761  ALA762  ILE779  LEU786  VAL792 
 PHE793  MET794  SER795  GLU796  ALA797  LYS798  CYS799  TRP800  GLU811  SER814 

> <Gold.Protein.RotatedAtoms>
  151.1651  133.4820  159.2593 H   0  0  0  0  0  0  0  0  0  0  0  0  # atno 6907 bound_to 6896
  151.1414  135.0181  159.8637 H   0  0  0  0  0  0  0  0  0  0  0  0  # atno 6908 bound_to 6896
  152.5462  134.1544  159.8585 H   0  0  0  0  0  0  0  0  0  0  0  0  # atno 6909 bound_to 6896
  146.1497  139.6549  142.9107 H   0  0  0  0  0  0  0  0  0  0  0  0  # atno 7974 bound_to 7965
  155.5592  140.3488  155.4487 H   0  0  0  0  0  0  0  0  0  0  0  0  # atno 8008 bound_to 7997
  156.0526  140.1321  157.0058 H   0  0  0  0  0  0  0  0  0  0  0  0  # atno 8009 bound_to 7997
  154.4441  140.1001  156.6384 H   0  0  0  0  0  0  0  0  0  0  0  0  # atno 8010 bound_to 7997
  140.5268  143.9909  150.6444 H   0  0  0  0  0  0  0  0  0  0  0  0  # atno 10167 bound_to 10162
  156.4336  130.8088  151.2315 H   0  0  0  0  0  0  0  0  0  0  0  0  # atno 10718 bound_to 10713
  153.2955  135.4130  155.1205 H   0  0  0  0  0  0  0  0  0  0  0  0  # atno 10763 bound_to 10752
  154.8533  135.3528  154.5923 H   0  0  0  0  0  0  0  0  0  0  0  0  # atno 10764 bound_to 10752
  153.6346  135.7059  153.5321 H   0  0  0  0  0  0  0  0  0  0  0  0  # atno 10765 bound_to 10752
  139.9282  134.9641  156.8157 H   0  0  0  0  0  0  0  0  0  0  0  0  # atno 11005 bound_to 11000
  145.4852  141.0438  143.2624 LP  0  0  0  0  0  0  0  0  0  0  0  0  # atno 17320 bound_to 7965
  144.7889  139.6368  143.7122 LP  0  0  0  0  0  0  0  0  0  0  0  0  # atno 17321 bound_to 7965
  140.3273  143.3099  152.0723 LP  0  0  0  0  0  0  0  0  0  0  0  0  # atno 17342 bound_to 10162
  139.4941  144.6533  151.6628 LP  0  0  0  0  0  0  0  0  0  0  0  0  # atno 17343 bound_to 10162
  157.7508  131.0190  150.3650 LP  0  0  0  0  0  0  0  0  0  0  0  0  # atno 17370 bound_to 10713
  156.3993  130.3913  149.6971 LP  0  0  0  0  0  0  0  0  0  0  0  0  # atno 17371 bound_to 10713
  140.6276  133.9936  155.7647 LP  0  0  0  0  0  0  0  0  0  0  0  0  # atno 17394 bound_to 11000
  141.0854  133.9998  157.3321 LP  0  0  0  0  0  0  0  0  0  0  0  0  # atno 17395 bound_to 11000

$$$$
