AV-unprocessed.smi:157|AV-procd|sdf|1294|dock7
  -GOLD-   2262018573D 1   1.00000     0.00000
 Structure written by MMmdl.
 35 37  0  0  0  0  0  0  0  0  1 V2000
  152.0166  136.9850  154.1154 O   0  0  0  0  0  0  0  0  0  0  0  0
  150.9209  137.5573  154.7992 C   0  0  0  0  0  0  0  0  0  0  0  0
  150.5380  138.9179  154.1802 C   0  0  2  0  0  0  0  0  0  0  0  0
  151.3254  139.9155  154.8340 O   0  0  0  0  0  0  0  0  0  0  0  0
  150.5192  140.7493  155.6134 C   0  0  2  0  0  0  0  0  0  0  0  0
  151.1427  140.9047  156.9649 N   0  0  0  0  0  0  0  0  0  0  0  0
  151.4607  139.9196  157.8157 C   0  0  0  0  0  0  0  0  0  0  0  0
  152.0012  140.3285  158.9512 N   0  0  0  0  0  0  0  0  0  0  0  0
  152.0269  141.7169  158.8310 C   0  0  0  0  0  0  0  0  0  0  0  0
  151.4888  142.0956  157.6093 C   0  0  0  0  0  0  0  0  0  0  0  0
  151.2530  143.2876  156.9510 N   0  0  0  0  0  0  0  0  0  0  0  0
  151.2335  144.3762  157.6536 C   0  0  0  0  0  0  0  0  0  0  0  0
  151.5105  144.5794  158.9980 N   0  0  0  0  0  0  0  0  0  0  0  0
  152.6927  144.0505  159.6566 C   0  0  0  0  0  0  0  0  0  0  0  0
  152.6158  142.5446  159.9370 C   0  0  1  0  0  0  0  0  0  0  0  0
  151.8231  142.3252  161.0858 O   0  0  0  0  0  0  0  0  0  0  0  0
  149.1590  140.0717  155.7340 C   0  0  0  0  0  0  0  0  0  0  0  0
  149.0826  139.3721  154.3962 C   0  0  2  0  0  0  0  0  0  0  0  0
  148.1289  138.3294  154.4089 O   0  0  0  0  0  0  0  0  0  0  0  0
  150.7884  138.9183  153.1184 H   0  0  0  0  0  0  0  0  0  0  0  0
  150.4809  141.7478  155.1764 H   0  0  0  0  0  0  0  0  0  0  0  0
  153.6184  142.1863  160.1725 H   0  0  0  0  0  0  0  0  0  0  0  0
  148.8094  140.0944  153.6257 H   0  0  0  0  0  0  0  0  0  0  0  0
  151.8269  136.9866  153.1897 H   0  0  0  0  0  0  0  0  0  0  0  0
  150.0780  136.8660  154.8052 H   0  0  0  0  0  0  0  0  0  0  0  0
  151.2235  137.6969  155.8374 H   0  0  0  0  0  0  0  0  0  0  0  0
  151.2951  138.8748  157.5975 H   0  0  0  0  0  0  0  0  0  0  0  0
  150.9710  145.3100  157.1544 H   0  0  0  0  0  0  0  0  0  0  0  0
  151.2097  145.4433  159.4254 H   0  0  0  0  0  0  0  0  0  0  0  0
  153.5419  144.2420  158.9990 H   0  0  0  0  0  0  0  0  0  0  0  0
  152.8876  144.6066  160.5739 H   0  0  0  0  0  0  0  0  0  0  0  0
  151.1555  141.6930  160.8666 H   0  0  0  0  0  0  0  0  0  0  0  0
  149.1731  139.3538  156.5560 H   0  0  0  0  0  0  0  0  0  0  0  0
  148.3654  140.8000  155.9037 H   0  0  0  0  0  0  0  0  0  0  0  0
  147.4793  138.5261  155.0668 H   0  0  0  0  0  0  0  0  0  0  0  0
  1  2  1  0  0  0  0
  1 24  1  0  0  0  0
  2  3  1  0  0  0  0
  2 25  1  0  0  0  0
  2 26  1  0  0  0  0
  3 20  1  0  0  0  0
  3 18  1  0  0  0  0
  3  4  1  0  0  0  0
  4  5  1  0  0  0  0
  5 21  1  0  0  0  0
  5  6  1  0  0  0  0
  5 17  1  0  0  0  0
  6 10  1  0  0  0  0
  6  7  1  0  0  0  0
  7  8  2  0  0  0  0
  7 27  1  0  0  0  0
  8  9  1  0  0  0  0
  9 15  1  0  0  0  0
  9 10  2  0  0  0  0
 10 11  1  0  0  0  0
 11 12  2  0  0  0  0
 12 13  1  0  0  0  0
 12 28  1  0  0  0  0
 13 14  1  0  0  0  0
 13 29  1  0  0  0  0
 14 15  1  0  0  0  0
 14 30  1  0  0  0  0
 14 31  1  0  0  0  0
 15 22  1  0  0  0  0
 15 16  1  0  0  0  0
 16 32  1  0  0  0  0
 17 18  1  0  0  0  0
 17 33  1  0  0  0  0
 17 34  1  0  0  0  0
 18 23  1  0  0  0  0
 18 19  1  0  0  0  0
 19 35  1  0  0  0  0
M  END
> <s_m_source_file>
AV-unprocessed.smi

> <i_m_source_file_index>
157

> <i_lp_mmshare_version>
43012

> <i_f3d_flags>
0

> <s_epik_input>
W09IXVtDSDJdW0NASF0xT1tDQEhdKFtDSDJdW0NAQEhdMVtPSF0pbihbY0hdbjIpYyhjMjMpTj1bQ0hdW05IXVtDSDJdW0NASF0zW09IXQ==

> <s_epik_cmdline>
J2VwaWtfcHl0aG9uJywgJy1waCcsICc3LjAnLCAnLXRuJywgJzgnLCAnLW1hJywgJzIwMCcsICctbWV0YWxfYmluZGluZycsICctaW1hZScsICc8aW5maWxlLm1hZT4nLCAnLW9tYWUnLCAnPG91dGZpbGUubWFlPic=

> <r_lp_tautomer_probability>
1

> <r_epik_Ionization_Penalty>
0.0357149

> <r_epik_Ionization_Penalty_Charging>
0.0355056

> <r_epik_Ionization_Penalty_Neutral>
0.000209255

> <r_epik_State_Penalty>
0.0296046

> <r_epik_Charging_Adjusted_Penalty>
0.0651102

> <i_epik_Tot_Q>
0

> <i_epik_Tot_abs_Q>
0

> <r_epik_Metal_State_Penalty>
3.03559e-05

> <b_epik_Metal_Only>
0

> <s_epik_Chemistry_Notes>
This compound has an imine and may undergo hydrolysis. This compound contains an acetal/aminal-like group ( X-CH(R)-Y where X, Y are N, S, or O) that may be acid/base labile, releasing an aldehyde.

> <s_lp_Force_Field>
OPLS_2005

> <r_lp_Energy>
46.7001

> <b_lp_Chiralities_Consistent>
1

> <s_lp_Variant>
AV-unprocessed.smi:157-4

> <Gold.Version>
5.8.1

> <Gold.Id.Protein>
6NUR|6NUR_protein|mol2

> <Gold.PLP.Fitness>
44.7931

> <Gold.PLP.PLP>
-35.1780

> <Gold.PLP.part.hbond>
-4.0000

> <Gold.PLP.part.metal>
0.0000

> <Gold.PLP.part.buried>
-5.3529

> <Gold.PLP.part.nonpolar>
-26.0369

> <Gold.PLP.part.repulsive>
0.6381

> <Gold.PLP.ligand.clash>
0.0000

> <Gold.PLP.ligand.torsion>
0.3183

> <Gold.PLP.Chemscore.Hbond>
2.9920

> <Gold.PLP.Chemscore.CHOScore>
0.4209

> <Gold.PLP.Chemscore.Metal>
0.0000

> <Gold.Chemscore.Hbonds>
donor molecule, donor type, donor heavy atom, donor atom, acceptor molecule, acceptor atom, score
      L1  H     1    24       P1  7949  0.89
      P1  H  7989  7998       L1     4  0.90
      P1  H 10752 10764       L1     1  1.00
      L1  C    12    28       P1  8028  0.47

> <Gold.PLP.Chemscore.Internal.Correction>
0.0131

> <Gold.Rescore>
     Score         DG    S(hbond)    S(metal)    S(lipo)     H(rot)  DE(clash)    DE(int)     intcor
      9.36      -9.71       2.10        0.00      55.75       3.64       0.04       0.30       ----

> <Gold.Chemscore.Fitness>
9.3650

> <Gold.Chemscore.DG>
-9.7066

> <Gold.Chemscore.ZeroCoef>
-5.4800

> <Gold.Chemscore.Hbond>
2.0997

> <Gold.Chemscore.Metal>
0.0000

> <Gold.Chemscore.Lipo>
55.7452

> <Gold.Chemscore.Internal_Hbond>
0.0000

> <Gold.Chemscore.DEClash>
0.0420

> <Gold.Chemscore.DEInternal>
0.2996

> <Gold.Chemscore.Rot>
3.6362

> <Gold.Chemscore.Internal.Correction>
   9.000000E+99

> <Gold.Chemscore.Hbonds>
donor molecule, donor type, donor heavy atom, donor atom, acceptor molecule, acceptor atom, score
      L1  H     1    24       P1  7949  0.80
      P1  H  7989  7998       L1     4  0.07
      P1  H 10752 10764       L1     1  0.25

> <Gold.Chemscore.Hbond.Weighted>
-7.0131

> <Gold.Chemscore.Metal.Weighted>
-0.0000

> <Gold.Chemscore.Lipo.Weighted>
-6.5222

> <Gold.Chemscore.Internal_Hbond.Weighted>
0.0000

> <Gold.Chemscore.DEClash.Weighted>
0.0420

> <Gold.Chemscore.DEInternal.Weighted>
0.2996

> <Gold.Chemscore.Rot.Weighted>
9.3087

> <Gold.Chemscore.Internal.Correction.Weighted>
   9.000000E+99

> <Gold.Protein.RotatedTorsions>
[ 6907 6896 6895 6894 ] final -142.88 input  -60.11 | X-H torsion
[ 7974 7965 7964 7962 ] final  146.64 input  175.53 | X-H torsion
[ 8008 7997 7996 7995 ] final   89.83 input   59.86 | X-H torsion
[ 10167 10162 10161 10158 ] final   54.13 input  -65.29 | X-H torsion
[ 10718 10713 10712 10709 ] final   36.59 input   66.30 | X-H torsion
[ 10763 10752 10751 10750 ] final  -82.74 input  -60.55 | X-H torsion
[ 11005 11000 10999 10996 ] final    4.89 input  -57.11 | X-H torsion

> <Gold.Protein.ActiveResidues>
 VAL166  LYS551  ARG553  GLY616  TRP617  ASP618  TYR619  PRO620  LYS621  CYS622 
 ASP623  PHE694  ASN695  SER759  ASP760  ASP761  ALA762  ILE779  LEU786  VAL792 
 PHE793  MET794  SER795  GLU796  ALA797  LYS798  CYS799  TRP800  GLU811  SER814 

> <Gold.Protein.RotatedAtoms>
  151.0929  133.5302  159.2613 H   0  0  0  0  0  0  0  0  0  0  0  0  # atno 6907 bound_to 6896
  151.2162  135.0500  159.8941 H   0  0  0  0  0  0  0  0  0  0  0  0  # atno 6908 bound_to 6896
  152.5436  134.0738  159.8259 H   0  0  0  0  0  0  0  0  0  0  0  0  # atno 6909 bound_to 6896
  144.8655  139.5930  143.5911 H   0  0  0  0  0  0  0  0  0  0  0  0  # atno 7974 bound_to 7965
  156.0047  140.3356  155.6880 H   0  0  0  0  0  0  0  0  0  0  0  0  # atno 8008 bound_to 7997
  155.6241  140.0678  157.2687 H   0  0  0  0  0  0  0  0  0  0  0  0  # atno 8009 bound_to 7997
  154.4261  140.1771  156.1391 H   0  0  0  0  0  0  0  0  0  0  0  0  # atno 8010 bound_to 7997
  140.2334  144.3662  150.6406 H   0  0  0  0  0  0  0  0  0  0  0  0  # atno 10167 bound_to 10162
  157.3367  130.7526  149.6884 H   0  0  0  0  0  0  0  0  0  0  0  0  # atno 10718 bound_to 10713
  154.5793  135.5581  153.7170 H   0  0  0  0  0  0  0  0  0  0  0  0  # atno 10763 bound_to 10752
  153.0076  135.6316  154.2004 H   0  0  0  0  0  0  0  0  0  0  0  0  # atno 10764 bound_to 10752
  154.1945  135.2881  155.2991 H   0  0  0  0  0  0  0  0  0  0  0  0  # atno 10765 bound_to 10752
  140.5768  134.0050  155.8031 H   0  0  0  0  0  0  0  0  0  0  0  0  # atno 11005 bound_to 11000
  146.2892  139.7091  142.9173 LP  0  0  0  0  0  0  0  0  0  0  0  0  # atno 17320 bound_to 7965
  145.4230  141.0408  143.2953 LP  0  0  0  0  0  0  0  0  0  0  0  0  # atno 17321 bound_to 7965
  140.6168  143.2173  151.6776 LP  0  0  0  0  0  0  0  0  0  0  0  0  # atno 17342 bound_to 10162
  139.5102  144.3551  152.0615 LP  0  0  0  0  0  0  0  0  0  0  0  0  # atno 17343 bound_to 10162
  155.9702  130.4179  150.4303 LP  0  0  0  0  0  0  0  0  0  0  0  0  # atno 17370 bound_to 10713
  157.2344  131.0511  151.2473 LP  0  0  0  0  0  0  0  0  0  0  0  0  # atno 17371 bound_to 10713
  141.1021  133.9751  157.3060 LP  0  0  0  0  0  0  0  0  0  0  0  0  # atno 17394 bound_to 11000
  139.9336  135.0198  156.8481 LP  0  0  0  0  0  0  0  0  0  0  0  0  # atno 17395 bound_to 11000

$$$$
