AV-unprocessed.smi:1424|AV-procd|sdf|5800|dock6
  -GOLD-   22720 5453D 1   1.00000     0.00000
 Structure written by MMmdl.
 45 47  0  0  0  0  0  0  0  0  1 V2000
  149.1165  133.0641  155.6657 O   0  0  0  0  0  0  0  0  0  0  0  0
  148.8561  133.7427  154.6725 C   0  0  0  0  0  0  0  0  0  0  0  0
  149.0683  135.0636  154.6078 N   0  0  0  0  0  0  0  0  0  0  0  0
  149.6116  135.8620  155.6993 C   0  0  0  0  0  0  0  0  0  0  0  0
  150.9713  136.4737  155.3206 C   0  0  1  0  0  0  0  0  0  0  0  0
  150.8231  137.7481  154.4667 C   0  0  0  0  0  0  0  0  0  0  0  0
  152.1904  138.4307  154.3675 C   0  0  0  0  0  0  0  0  0  0  0  0
  153.0040  138.1329  155.9802 S   0  0  0  0  0  0  0  0  0  0  0  0
  154.3344  137.5514  155.7459 O   0  0  0  0  0  0  0  0  0  0  0  0
  152.8344  139.3143  156.8396 O   0  0  0  0  0  0  0  0  0  0  0  0
  151.8479  136.8222  156.5370 C   0  0  0  0  0  0  0  0  0  0  0  0
  148.3457  133.2764  153.5201 N   0  0  0  0  0  0  0  0  0  0  0  0
  147.9852  131.9410  153.1758 C   0  0  0  0  0  0  0  0  0  0  0  0
  148.7506  130.8096  153.5515 C   0  0  0  0  0  0  0  0  0  0  0  0
  148.3054  129.5268  153.1842 C   0  0  0  0  0  0  0  0  0  0  0  0
  147.1050  129.4169  152.4602 C   0  0  0  0  0  0  0  0  0  0  0  0
  146.3571  130.4815  152.1063 N   0  0  0  0  0  0  0  0  0  0  0  0
  146.7815  131.7201  152.4576 C   0  0  0  0  0  0  0  0  0  0  0  0
  145.9820  132.8142  152.0809 N   0  0  0  0  0  0  0  0  0  0  0  0
  146.5851  133.7389  151.1362 C   0  0  0  0  0  0  0  0  0  0  0  0
  145.4295  134.6029  150.6284 C   0  0  0  0  0  0  0  0  0  0  0  0
  144.1760  133.7454  150.8436 C   0  0  0  0  0  0  0  0  0  0  0  0
  144.6773  132.4747  151.5372 C   0  0  0  0  0  0  0  0  0  0  0  0
  148.8368  135.5478  153.7527 H   0  0  0  0  0  0  0  0  0  0  0  0
  148.9051  136.6561  155.9462 H   0  0  0  0  0  0  0  0  0  0  0  0
  149.7127  135.2371  156.5881 H   0  0  0  0  0  0  0  0  0  0  0  0
  151.5199  135.7473  154.7186 H   0  0  0  0  0  0  0  0  0  0  0  0
  150.4164  137.5284  153.4790 H   0  0  0  0  0  0  0  0  0  0  0  0
  150.1245  138.4291  154.9551 H   0  0  0  0  0  0  0  0  0  0  0  0
  152.7986  137.9656  153.5916 H   0  0  0  0  0  0  0  0  0  0  0  0
  152.1240  139.5000  154.1672 H   0  0  0  0  0  0  0  0  0  0  0  0
  151.2477  137.2328  157.3498 H   0  0  0  0  0  0  0  0  0  0  0  0
  152.4069  135.9676  156.9180 H   0  0  0  0  0  0  0  0  0  0  0  0
  148.2663  133.9462  152.7688 H   0  0  0  0  0  0  0  0  0  0  0  0
  149.6597  130.8959  154.1252 H   0  0  0  0  0  0  0  0  0  0  0  0
  148.8693  128.6470  153.4563 H   0  0  0  0  0  0  0  0  0  0  0  0
  146.7322  128.4480  152.1626 H   0  0  0  0  0  0  0  0  0  0  0  0
  147.3585  134.3413  151.6137 H   0  0  0  0  0  0  0  0  0  0  0  0
  147.0418  133.1989  150.3057 H   0  0  0  0  0  0  0  0  0  0  0  0
  145.3573  135.5176  151.2182 H   0  0  0  0  0  0  0  0  0  0  0  0
  145.5664  134.8897  149.5855 H   0  0  0  0  0  0  0  0  0  0  0  0
  143.4657  134.2751  151.4795 H   0  0  0  0  0  0  0  0  0  0  0  0
  143.6714  133.5112  149.9057 H   0  0  0  0  0  0  0  0  0  0  0  0
  144.7621  131.6611  150.8153 H   0  0  0  0  0  0  0  0  0  0  0  0
  143.9969  132.1540  152.3265 H   0  0  0  0  0  0  0  0  0  0  0  0
  1  2  2  0  0  0  0
  2  3  1  0  0  0  0
  2 12  1  0  0  0  0
  3  4  1  0  0  0  0
  3 24  1  0  0  0  0
  4  5  1  0  0  0  0
  4 25  1  0  0  0  0
  4 26  1  0  0  0  0
  5 11  1  0  0  0  0
  5  6  1  0  0  0  0
  5 27  1  0  0  0  0
  6  7  1  0  0  0  0
  6 28  1  0  0  0  0
  6 29  1  0  0  0  0
  7  8  1  0  0  0  0
  7 30  1  0  0  0  0
  7 31  1  0  0  0  0
  8  9  2  0  0  0  0
  8 10  2  0  0  0  0
  8 11  1  0  0  0  0
 11 32  1  0  0  0  0
 11 33  1  0  0  0  0
 12 13  1  0  0  0  0
 12 34  1  0  0  0  0
 13 18  1  0  0  0  0
 13 14  2  0  0  0  0
 14 15  1  0  0  0  0
 14 35  1  0  0  0  0
 15 16  2  0  0  0  0
 15 36  1  0  0  0  0
 16 17  1  0  0  0  0
 16 37  1  0  0  0  0
 17 18  2  0  0  0  0
 18 19  1  0  0  0  0
 19 23  1  0  0  0  0
 19 20  1  0  0  0  0
 20 21  1  0  0  0  0
 20 38  1  0  0  0  0
 20 39  1  0  0  0  0
 21 22  1  0  0  0  0
 21 40  1  0  0  0  0
 21 41  1  0  0  0  0
 22 23  1  0  0  0  0
 22 42  1  0  0  0  0
 22 43  1  0  0  0  0
 23 44  1  0  0  0  0
 23 45  1  0  0  0  0
M  END
> <s_m_source_file>
AV-unprocessed.smi

> <i_m_source_file_index>
1424

> <i_lp_mmshare_version>
43012

> <i_f3d_flags>
0

> <s_epik_input>
Tz1TMSg9TylbQ0gyXVtDSDJdW0NASF0oW0NIMl0xKVtDSDJdW05IXUMoPU8pW05IXWMyW2NIXVtjSF1bY0hdbmMyTjNbQ0gyXVtDSDJdW0NIMl1bQ0gyXTM=

> <s_epik_cmdline>
J2VwaWtfcHl0aG9uJywgJy1waCcsICc3LjAnLCAnLXRuJywgJzgnLCAnLW1hJywgJzIwMCcsICctbWV0YWxfYmluZGluZycsICctaW1hZScsICc8aW5maWxlLm1hZT4nLCAnLW9tYWUnLCAnPG91dGZpbGUubWFlPic=

> <r_lp_tautomer_probability>
1

> <r_epik_Ionization_Penalty>
0.0965651

> <r_epik_Ionization_Penalty_Charging>
0

> <r_epik_Ionization_Penalty_Neutral>
0.0965651

> <r_epik_State_Penalty>
0.0861592

> <r_epik_Charging_Adjusted_Penalty>
0.0861592

> <i_epik_Tot_Q>
0

> <i_epik_Tot_abs_Q>
0

> <r_epik_Metal_State_Penalty>
0.0740444

> <b_epik_Metal_Only>
0

> <s_lp_Force_Field>
OPLS_2005

> <r_lp_Energy>
37.4342

> <b_lp_Chiralities_Consistent>
1

> <s_lp_Variant>
AV-unprocessed.smi:1424-2

> <Gold.Version>
5.8.1

> <Gold.Id.Protein>
6NUR|6NUR_protein|mol2

> <Gold.PLP.Fitness>
41.3390

> <Gold.PLP.PLP>
-36.4079

> <Gold.PLP.part.hbond>
-3.5677

> <Gold.PLP.part.metal>
0.0000

> <Gold.PLP.part.buried>
-4.4799

> <Gold.PLP.part.nonpolar>
-28.0152

> <Gold.PLP.part.repulsive>
0.2724

> <Gold.PLP.ligand.clash>
0.0166

> <Gold.PLP.ligand.torsion>
0.6584

> <Gold.PLP.Chemscore.Hbond>
2.0772

> <Gold.PLP.Chemscore.CHOScore>
0.0000

> <Gold.PLP.Chemscore.Metal>
0.0000

> <Gold.Chemscore.Hbonds>
donor molecule, donor type, donor heavy atom, donor atom, acceptor molecule, acceptor atom, score
      L1  H     3    24       P1  7948  1.00
      P1  H  7997  8009       L1    10  0.85
      P1  H 10752 10765       L1     9  0.08

> <Gold.PLP.Chemscore.Internal.Correction>
0.0329

> <Gold.Rescore>
     Score         DG    S(hbond)    S(metal)    S(lipo)     H(rot)  DE(clash)    DE(int)     intcor
     16.64     -17.78       2.05        0.00      78.79       1.47       0.23       0.92       ----

> <Gold.Chemscore.Fitness>
16.6382

> <Gold.Chemscore.DG>
-17.7817

> <Gold.Chemscore.ZeroCoef>
-5.4800

> <Gold.Chemscore.Hbond>
2.0532

> <Gold.Chemscore.Metal>
0.0000

> <Gold.Chemscore.Lipo>
78.7900

> <Gold.Chemscore.Internal_Hbond>
0.0000

> <Gold.Chemscore.DEClash>
0.2277

> <Gold.Chemscore.DEInternal>
0.9158

> <Gold.Chemscore.Rot>
1.4744

> <Gold.Chemscore.Internal.Correction>
   9.000000E+99

> <Gold.Chemscore.Hbonds>
donor molecule, donor type, donor heavy atom, donor atom, acceptor molecule, acceptor atom, score
      L1  H     3    24       P1  7948  0.89
      P1  H  7997  8009       L1    10  0.15
      P1  H 10752 10765       L1     9  0.07

> <Gold.Chemscore.Hbond.Weighted>
-6.8578

> <Gold.Chemscore.Metal.Weighted>
-0.0000

> <Gold.Chemscore.Lipo.Weighted>
-9.2184

> <Gold.Chemscore.Internal_Hbond.Weighted>
0.0000

> <Gold.Chemscore.DEClash.Weighted>
0.2277

> <Gold.Chemscore.DEInternal.Weighted>
0.9158

> <Gold.Chemscore.Rot.Weighted>
3.7744

> <Gold.Chemscore.Internal.Correction.Weighted>
   9.000000E+99

> <Gold.Protein.RotatedTorsions>
[ 6907 6896 6895 6894 ] final   21.23 input  -60.11 | X-H torsion
[ 7974 7965 7964 7962 ] final  -15.41 input  175.53 | X-H torsion
[ 8008 7997 7996 7995 ] final -166.54 input   59.86 | X-H torsion
[ 10167 10162 10161 10158 ] final   31.19 input  -65.29 | X-H torsion
[ 10718 10713 10712 10709 ] final  -54.54 input   66.30 | X-H torsion
[ 10763 10752 10751 10750 ] final  -85.55 input  -60.55 | X-H torsion
[ 11005 11000 10999 10996 ] final -143.16 input  -57.11 | X-H torsion

> <Gold.Protein.ActiveResidues>
 VAL166  LYS551  ARG553  GLY616  TRP617  ASP618  TYR619  PRO620  LYS621  CYS622 
 ASP623  PHE694  ASN695  SER759  ASP760  ASP761  ALA762  ILE779  LEU786  VAL792 
 PHE793  MET794  SER795  GLU796  ALA797  LYS798  CYS799  TRP800  GLU811  SER814 

> <Gold.Protein.RotatedAtoms>
  151.9086  135.0348  160.0512 H   0  0  0  0  0  0  0  0  0  0  0  0  # atno 6907 bound_to 6896
  152.2299  133.5045  159.5218 H   0  0  0  0  0  0  0  0  0  0  0  0  # atno 6908 bound_to 6896
  150.7022  134.1147  159.4055 H   0  0  0  0  0  0  0  0  0  0  0  0  # atno 6909 bound_to 6896
  146.2033  140.3489  142.8416 H   0  0  0  0  0  0  0  0  0  0  0  0  # atno 7974 bound_to 7965
  155.8653  140.0984  157.1586 H   0  0  0  0  0  0  0  0  0  0  0  0  # atno 8008 bound_to 7997
  154.3993  140.1357  156.4074 H   0  0  0  0  0  0  0  0  0  0  0  0  # atno 8009 bound_to 7997
  155.7811  140.3458  155.5300 H   0  0  0  0  0  0  0  0  0  0  0  0  # atno 8010 bound_to 7997
  140.4611  144.0905  150.6213 H   0  0  0  0  0  0  0  0  0  0  0  0  # atno 10167 bound_to 10162
  156.1442  130.4153  150.0052 H   0  0  0  0  0  0  0  0  0  0  0  0  # atno 10718 bound_to 10713
  154.6123  135.5481  153.7487 H   0  0  0  0  0  0  0  0  0  0  0  0  # atno 10763 bound_to 10752
  153.0201  135.6392  154.1560 H   0  0  0  0  0  0  0  0  0  0  0  0  # atno 10764 bound_to 10752
  154.1497  135.2903  155.3118 H   0  0  0  0  0  0  0  0  0  0  0  0  # atno 10765 bound_to 10752
  140.8153  134.2696  157.4923 H   0  0  0  0  0  0  0  0  0  0  0  0  # atno 11005 bound_to 11000
  144.8733  140.7302  143.6033 LP  0  0  0  0  0  0  0  0  0  0  0  0  # atno 17320 bound_to 7965
  145.3409  139.1732  143.4486 LP  0  0  0  0  0  0  0  0  0  0  0  0  # atno 17321 bound_to 7965
  140.4092  143.2665  151.9853 LP  0  0  0  0  0  0  0  0  0  0  0  0  # atno 17342 bound_to 10162
  139.4806  144.5930  151.7739 LP  0  0  0  0  0  0  0  0  0  0  0  0  # atno 17343 bound_to 10162
  156.7929  130.9262  151.3646 LP  0  0  0  0  0  0  0  0  0  0  0  0  # atno 17370 bound_to 10713
  157.6602  130.8959  149.9814 LP  0  0  0  0  0  0  0  0  0  0  0  0  # atno 17371 bound_to 10713
  139.8711  134.9506  156.4059 LP  0  0  0  0  0  0  0  0  0  0  0  0  # atno 17394 bound_to 11000
  140.9155  133.7681  155.9843 LP  0  0  0  0  0  0  0  0  0  0  0  0  # atno 17395 bound_to 11000

$$$$
