AV-unprocessed.smi:3209|AV-procd|sdf|12268|dock4
  -GOLD-   2272018103D 1   1.00000     0.00000
 Structure written by MMmdl.
 37 39  0  0  0  0  0  0  0  0  2 V2000
  146.5988  138.4532  153.0192 C   0  0  0  0  0  0  0  0  0  0  0  0
  147.1352  139.6682  153.6947 C   0  0  0  0  0  0  0  0  0  0  0  0
  148.3473  139.7272  154.2525 N   0  0  0  0  0  0  0  0  0  0  0  0
  148.6170  140.9745  154.8242 C   0  0  0  0  0  0  0  0  0  0  0  0
  149.9338  141.2173  155.4964 C   0  0  0  0  0  0  0  0  0  0  0  0
  149.7658  141.6721  156.9523 C   0  0  0  0  0  0  0  0  0  0  0  0
  151.0570  142.1016  157.5264 N   0  3  0  0  0  0  0  0  0  0  0  0
  150.9759  142.6093  158.9135 C   0  0  2  0  0  0  0  0  0  0  0  0
  149.9921  143.7852  159.1011 C   0  0  0  0  0  0  0  0  0  0  0  0
  150.8605  144.8420  159.8114 C   0  0  2  0  0  0  0  0  0  0  0  0
  151.8176  145.4720  158.7843 C   0  0  0  0  0  0  0  0  0  0  0  0
  152.8192  144.3336  158.5177 C   0  0  0  0  0  0  0  0  0  0  0  0
  152.3065  143.1979  159.4306 C   0  0  1  0  0  0  0  0  0  0  0  0
  151.8143  143.9864  160.6402 C   0  0  0  0  0  0  0  0  0  0  0  0
  147.5817  141.8660  154.6911 C   0  0  0  0  0  0  0  0  0  0  0  0
  146.2293  141.1692  153.8421 S   0  0  0  0  0  0  0  0  0  0  0  0
  147.4117  137.8616  152.5971 H   0  0  0  0  0  0  0  0  0  0  0  0
  145.9223  138.7392  152.2137 H   0  0  0  0  0  0  0  0  0  0  0  0
  146.0522  137.8398  153.7355 H   0  0  0  0  0  0  0  0  0  0  0  0
  150.5370  140.3088  155.4652 H   0  0  0  0  0  0  0  0  0  0  0  0
  150.4982  141.9701  154.9441 H   0  0  0  0  0  0  0  0  0  0  0  0
  149.0507  142.4941  157.0026 H   0  0  0  0  0  0  0  0  0  0  0  0
  149.3618  140.8564  157.5534 H   0  0  0  0  0  0  0  0  0  0  0  0
  151.6765  141.3037  157.5224 H   0  0  0  0  0  0  0  0  0  0  0  0
  150.6867  141.7835  159.5661 H   0  0  0  0  0  0  0  0  0  0  0  0
  149.5844  144.1633  158.1625 H   0  0  0  0  0  0  0  0  0  0  0  0
  149.1531  143.4821  159.7287 H   0  0  0  0  0  0  0  0  0  0  0  0
  150.2849  145.5747  160.3779 H   0  0  0  0  0  0  0  0  0  0  0  0
  151.3028  145.7969  157.8793 H   0  0  0  0  0  0  0  0  0  0  0  0
  152.3267  146.3387  159.2079 H   0  0  0  0  0  0  0  0  0  0  0  0
  152.8618  144.0527  157.4654 H   0  0  0  0  0  0  0  0  0  0  0  0
  153.8237  144.6384  158.8141 H   0  0  0  0  0  0  0  0  0  0  0  0
  153.0607  142.4427  159.6551 H   0  0  0  0  0  0  0  0  0  0  0  0
  152.5996  144.5651  161.1302 H   0  0  0  0  0  0  0  0  0  0  0  0
  151.3068  143.3713  161.3857 H   0  0  0  0  0  0  0  0  0  0  0  0
  147.5309  142.8872  155.0388 H   0  0  0  0  0  0  0  0  0  0  0  0
  151.4562  142.8219  156.9417 H   0  0  0  0  0  0  0  0  0  0  0  0
  1  2  1  0  0  0  0
  1 17  1  0  0  0  0
  1 18  1  0  0  0  0
  1 19  1  0  0  0  0
  2 16  1  0  0  0  0
  2  3  2  0  0  0  0
  3  4  1  0  0  0  0
  4  5  1  0  0  0  0
  4 15  2  0  0  0  0
  5  6  1  0  0  0  0
  5 20  1  0  0  0  0
  5 21  1  0  0  0  0
  6  7  1  0  0  0  0
  6 22  1  0  0  0  0
  6 23  1  0  0  0  0
  7  8  1  0  0  0  0
  7 24  1  0  0  0  0
  7 37  1  0  0  0  0
  8 13  1  0  0  0  0
  8  9  1  0  0  0  0
  8 25  1  0  0  0  0
  9 10  1  0  0  0  0
  9 26  1  0  0  0  0
  9 27  1  0  0  0  0
 10 14  1  0  0  0  0
 10 11  1  0  0  0  0
 10 28  1  0  0  0  0
 11 12  1  0  0  0  0
 11 29  1  0  0  0  0
 11 30  1  0  0  0  0
 12 13  1  0  0  0  0
 12 31  1  0  0  0  0
 12 32  1  0  0  0  0
 13 14  1  0  0  0  0
 13 33  1  0  0  0  0
 14 34  1  0  0  0  0
 14 35  1  0  0  0  0
 15 16  1  0  0  0  0
 15 36  1  0  0  0  0
M  CHG  1   7   1
M  END
> <s_m_source_file>
AV-unprocessed.smi

> <i_m_source_file_index>
3209

> <i_lp_mmshare_version>
43012

> <i_f3d_flags>
0

> <s_epik_input>
W0NIM11jMW5jKFtjSF1zMSlbQ0gyXVtDSDJdW05IXVtDQEhdKFtDSDJdW0NASF0yMylbQ0BIXShbQ0gyXTMpW0NIMl1bQ0gyXTI=

> <s_epik_cmdline>
J2VwaWtfcHl0aG9uJywgJy1waCcsICc3LjAnLCAnLXRuJywgJzgnLCAnLW1hJywgJzIwMCcsICctbWV0YWxfYmluZGluZycsICctaW1hZScsICc8aW5maWxlLm1hZT4nLCAnLW9tYWUnLCAnPG91dGZpbGUubWFlPic=

> <r_lp_tautomer_probability>
1

> <r_epik_Ionization_Penalty>
0.000342479

> <r_epik_Ionization_Penalty_Charging>
0.000317129

> <r_epik_Ionization_Penalty_Neutral>
2.535e-05

> <r_epik_State_Penalty>
-0

> <r_epik_Charging_Adjusted_Penalty>
0.000317129

> <i_epik_Tot_Q>
1

> <i_epik_Tot_abs_Q>
1

> <r_epik_Metal_State_Penalty>
-0

> <b_epik_Metal_Only>
0

> <s_lp_Force_Field>
OPLS_2005

> <r_lp_Energy>
49.3093

> <b_lp_Chiralities_Consistent>
1

> <s_lp_Variant>
AV-unprocessed.smi:3209-1

> <Gold.Version>
5.8.1

> <Gold.Id.Protein>
6NUR|6NUR_protein|mol2

> <Gold.PLP.Fitness>
42.0216

> <Gold.PLP.PLP>
-39.0994

> <Gold.PLP.part.hbond>
0.0000

> <Gold.PLP.part.metal>
0.0000

> <Gold.PLP.part.buried>
-3.0519

> <Gold.PLP.part.nonpolar>
-35.6723

> <Gold.PLP.part.repulsive>
0.2924

> <Gold.PLP.ligand.clash>
0.0000

> <Gold.PLP.ligand.torsion>
0.0473

> <Gold.PLP.Chemscore.Hbond>
0.0000

> <Gold.PLP.Chemscore.CHOScore>
1.0000

> <Gold.PLP.Chemscore.Metal>
0.0000

> <Gold.Chemscore.Hbonds>
donor molecule, donor type, donor heavy atom, donor atom, acceptor molecule, acceptor atom, score
      L1  C    15    36       P1  8028  1.00

> <Gold.PLP.Chemscore.Internal.Correction>
0.0168

> <Gold.Rescore>
     Score         DG    S(hbond)    S(metal)    S(lipo)     H(rot)  DE(clash)    DE(int)     intcor
     17.08     -17.22       0.00        0.00     129.03       1.31       0.12       0.03       ----

> <Gold.Chemscore.Fitness>
17.0782

> <Gold.Chemscore.DG>
-17.2210

> <Gold.Chemscore.ZeroCoef>
-5.4800

> <Gold.Chemscore.Hbond>
0.0000

> <Gold.Chemscore.Metal>
0.0000

> <Gold.Chemscore.Lipo>
129.0324

> <Gold.Chemscore.Internal_Hbond>
0.0000

> <Gold.Chemscore.DEClash>
0.1178

> <Gold.Chemscore.DEInternal>
0.0251

> <Gold.Chemscore.Rot>
1.3108

> <Gold.Chemscore.Internal.Correction>
   9.000000E+99

> <Gold.Chemscore.Hbond.Weighted>
-0.0000

> <Gold.Chemscore.Metal.Weighted>
-0.0000

> <Gold.Chemscore.Lipo.Weighted>
-15.0968

> <Gold.Chemscore.Internal_Hbond.Weighted>
0.0000

> <Gold.Chemscore.DEClash.Weighted>
0.1178

> <Gold.Chemscore.DEInternal.Weighted>
0.0251

> <Gold.Chemscore.Rot.Weighted>
3.3558

> <Gold.Chemscore.Internal.Correction.Weighted>
   9.000000E+99

> <Gold.Protein.RotatedTorsions>
[ 6907 6896 6895 6894 ] final   14.99 input  -60.11 | X-H torsion
[ 7974 7965 7964 7962 ] final   97.59 input  175.53 | X-H torsion
[ 8008 7997 7996 7995 ] final   71.31 input   59.86 | X-H torsion
[ 10167 10162 10161 10158 ] final -118.28 input  -65.29 | X-H torsion
[ 10718 10713 10712 10709 ] final  129.85 input   66.30 | X-H torsion
[ 10763 10752 10751 10750 ] final  114.81 input  -60.55 | X-H torsion
[ 11005 11000 10999 10996 ] final -116.00 input  -57.11 | X-H torsion

> <Gold.Protein.ActiveResidues>
 VAL166  LYS551  ARG553  GLY616  TRP617  ASP618  TYR619  PRO620  LYS621  CYS622 
 ASP623  PHE694  ASN695  SER759  ASP760  ASP761  ALA762  ILE779  LEU786  VAL792 
 PHE793  MET794  SER795  GLU796  ALA797  LYS798  CYS799  TRP800  GLU811  SER814 

> <Gold.Protein.RotatedAtoms>
  151.8110  135.0681  160.0412 H   0  0  0  0  0  0  0  0  0  0  0  0  # atno 6907 bound_to 6896
  152.3020  133.5661  159.5633 H   0  0  0  0  0  0  0  0  0  0  0  0  # atno 6908 bound_to 6896
  150.7278  134.0193  159.3738 H   0  0  0  0  0  0  0  0  0  0  0  0  # atno 6909 bound_to 6896
  145.4235  139.2318  143.3183 H   0  0  0  0  0  0  0  0  0  0  0  0  # atno 7974 bound_to 7965
  155.7520  140.3488  155.5155 H   0  0  0  0  0  0  0  0  0  0  0  0  # atno 8008 bound_to 7997
  155.8996  140.1031  157.1381 H   0  0  0  0  0  0  0  0  0  0  0  0  # atno 8009 bound_to 7997
  154.4042  140.1289  156.4406 H   0  0  0  0  0  0  0  0  0  0  0  0  # atno 8010 bound_to 7997
  140.0592  143.4984  152.2040 H   0  0  0  0  0  0  0  0  0  0  0  0  # atno 10167 bound_to 10162
  157.5116  131.1097  150.9284 H   0  0  0  0  0  0  0  0  0  0  0  0  # atno 10718 bound_to 10713
  153.5128  135.3614  155.2595 H   0  0  0  0  0  0  0  0  0  0  0  0  # atno 10763 bound_to 10752
  154.8741  135.4027  154.3349 H   0  0  0  0  0  0  0  0  0  0  0  0  # atno 10764 bound_to 10752
  153.4005  135.7075  153.6496 H   0  0  0  0  0  0  0  0  0  0  0  0  # atno 10765 bound_to 10752
  141.0451  133.9775  157.2931 H   0  0  0  0  0  0  0  0  0  0  0  0  # atno 11005 bound_to 11000
  146.2644  140.4963  142.8840 LP  0  0  0  0  0  0  0  0  0  0  0  0  # atno 17320 bound_to 7965
  144.8229  140.6581  143.6341 LP  0  0  0  0  0  0  0  0  0  0  0  0  # atno 17321 bound_to 7965
  139.5904  144.7548  151.3415 LP  0  0  0  0  0  0  0  0  0  0  0  0  # atno 17342 bound_to 10162
  140.7180  143.7214  150.7693 LP  0  0  0  0  0  0  0  0  0  0  0  0  # atno 17343 bound_to 10162
  156.9923  130.5568  149.5304 LP  0  0  0  0  0  0  0  0  0  0  0  0  # atno 17370 bound_to 10713
  156.0293  130.5385  150.8491 LP  0  0  0  0  0  0  0  0  0  0  0  0  # atno 17371 bound_to 10713
  139.9305  135.0200  156.8385 LP  0  0  0  0  0  0  0  0  0  0  0  0  # atno 17394 bound_to 11000
  140.6162  134.0037  155.7598 LP  0  0  0  0  0  0  0  0  0  0  0  0  # atno 17395 bound_to 11000

$$$$
