AV-unprocessed.smi:2368|AV-procd|sdf|9430|dock4
  -GOLD-   2272013 63D 1   1.00000     0.00000
 Structure written by MMmdl.
 36 37  0  0  0  0  0  0  0  0  2 V2000
  150.7148  141.4222  155.7751 C   0  0  0  0  0  0  0  0  0  0  0  0
  149.4489  141.1088  155.0007 C   0  0  0  0  0  0  0  0  0  0  0  0
  148.5877  142.1234  154.7669 N   0  3  0  0  0  0  0  0  0  0  0  0
  147.4282  141.9638  154.0957 C   0  0  0  0  0  0  0  0  0  0  0  0
  147.0737  140.6950  153.5977 C   0  0  0  0  0  0  0  0  0  0  0  0
  147.9491  139.5980  153.7987 C   0  0  0  0  0  0  0  0  0  0  0  0
  147.6590  138.2818  153.3429 N   0  0  0  0  0  0  0  0  0  0  0  0
  146.4803  137.6366  153.3511 C   0  0  0  0  0  0  0  0  0  0  0  0
  145.4253  138.0898  153.7945 O   0  0  0  0  0  0  0  0  0  0  0  0
  146.5871  136.4237  152.7912 N   0  0  0  0  0  0  0  0  0  0  0  0
  145.4848  135.4833  152.6242 C   0  0  1  0  0  0  0  0  0  0  0  0
  144.4175  136.0713  151.7406 C   0  0  0  0  0  0  0  0  0  0  0  0
  144.1545  135.3151  150.6773 C   0  0  0  0  0  0  0  0  0  0  0  0
  145.0085  134.0750  150.6223 C   0  0  2  0  0  0  0  0  0  0  0  0
  144.1851  132.7756  150.5369 C   0  0  0  0  0  0  0  0  0  0  0  0
  143.3653  132.7496  149.3850 O   0  0  0  0  0  0  0  0  0  0  0  0
  145.9046  134.1858  151.8829 C   0  0  0  0  0  0  0  0  0  0  0  0
  149.1473  139.8108  154.5249 C   0  0  0  0  0  0  0  0  0  0  0  0
  150.2404  138.5011  154.8231 Cl  0  0  0  0  0  0  0  0  0  0  0  0
  145.0373  135.2492  153.5918 H   0  0  0  0  0  0  0  0  0  0  0  0
  145.6342  134.1505  149.7319 H   0  0  0  0  0  0  0  0  0  0  0  0
  150.7606  140.8236  156.6854 H   0  0  0  0  0  0  0  0  0  0  0  0
  150.7589  142.4743  156.0596 H   0  0  0  0  0  0  0  0  0  0  0  0
  151.5941  141.1975  155.1707 H   0  0  0  0  0  0  0  0  0  0  0  0
  146.8194  142.8492  153.9829 H   0  0  0  0  0  0  0  0  0  0  0  0
  146.1321  140.5848  153.0816 H   0  0  0  0  0  0  0  0  0  0  0  0
  148.4166  137.8121  152.8684 H   0  0  0  0  0  0  0  0  0  0  0  0
  147.4906  136.1295  152.4497 H   0  0  0  0  0  0  0  0  0  0  0  0
  143.9231  137.0022  151.9771 H   0  0  0  0  0  0  0  0  0  0  0  0
  143.4219  135.5439  149.9174 H   0  0  0  0  0  0  0  0  0  0  0  0
  144.8479  131.9101  150.5119 H   0  0  0  0  0  0  0  0  0  0  0  0
  143.5551  132.6689  151.4205 H   0  0  0  0  0  0  0  0  0  0  0  0
  142.6826  133.3951  149.4867 H   0  0  0  0  0  0  0  0  0  0  0  0
  146.9552  134.2117  151.5900 H   0  0  0  0  0  0  0  0  0  0  0  0
  145.7891  133.3222  152.5389 H   0  0  0  0  0  0  0  0  0  0  0  0
  148.8224  143.0521  155.1187 H   0  0  0  0  0  0  0  0  0  0  0  0
  1  2  1  0  0  0  0
  1 22  1  0  0  0  0
  1 23  1  0  0  0  0
  1 24  1  0  0  0  0
  2 18  1  0  0  0  0
  2  3  2  0  0  0  0
  3  4  1  0  0  0  0
  3 36  1  0  0  0  0
  4  5  2  0  0  0  0
  4 25  1  0  0  0  0
  5  6  1  0  0  0  0
  5 26  1  0  0  0  0
  6  7  1  0  0  0  0
  6 18  2  0  0  0  0
  7  8  1  0  0  0  0
  7 27  1  0  0  0  0
  8  9  2  0  0  0  0
  8 10  1  0  0  0  0
 10 11  1  0  0  0  0
 10 28  1  0  0  0  0
 11 20  1  0  0  0  0
 11 17  1  0  0  0  0
 11 12  1  0  0  0  0
 12 13  2  0  0  0  0
 12 29  1  0  0  0  0
 13 14  1  0  0  0  0
 13 30  1  0  0  0  0
 14 21  1  0  0  0  0
 14 15  1  0  0  0  0
 14 17  1  0  0  0  0
 15 16  1  0  0  0  0
 15 31  1  0  0  0  0
 15 32  1  0  0  0  0
 16 33  1  0  0  0  0
 17 34  1  0  0  0  0
 17 35  1  0  0  0  0
 18 19  1  0  0  0  0
M  CHG  1   3   1
M  END
> <s_m_source_file>
AV-unprocessed.smi

> <i_m_source_file_index>
2368

> <i_lp_mmshare_version>
43012

> <i_f3d_flags>
0

> <s_epik_input>
W0NIM11jMW5bY0hdW2NIXWMoYzFDbClbTkhdQyg9TylbTkhdW0NAQEhdMltDSF09W0NIXVtDQEBIXShbQ0gyXTIpW0NIMl1bT0hd

> <s_epik_cmdline>
J2VwaWtfcHl0aG9uJywgJy1waCcsICc3LjAnLCAnLXRuJywgJzgnLCAnLW1hJywgJzIwMCcsICctbWV0YWxfYmluZGluZycsICctaW1hZScsICc8aW5maWxlLm1hZT4nLCAnLW9tYWUnLCAnPG91dGZpbGUubWFlPic=

> <r_epik_Ionization_Penalty>
2.4467

> <r_epik_Ionization_Penalty_Charging>
2.44668

> <r_epik_Ionization_Penalty_Neutral>
1.95078e-05

> <r_epik_State_Penalty>
2.60786

> <r_epik_Charging_Adjusted_Penalty>
5.05454

> <i_epik_Tot_Q>
1

> <i_epik_Tot_abs_Q>
1

> <r_epik_Metal_State_Penalty>
2.61736

> <b_epik_Metal_Only>
0

> <s_lp_Force_Field>
OPLS_2005

> <r_lp_Energy>
27.7863

> <b_lp_Chiralities_Consistent>
1

> <s_lp_Variant>
AV-unprocessed.smi:2368-6

> <Gold.Version>
5.8.1

> <Gold.Id.Protein>
6NUR|6NUR_protein|mol2

> <Gold.PLP.Fitness>
50.3371

> <Gold.PLP.PLP>
-36.1398

> <Gold.PLP.part.hbond>
-4.0000

> <Gold.PLP.part.metal>
0.0000

> <Gold.PLP.part.buried>
-5.1704

> <Gold.PLP.part.nonpolar>
-27.3761

> <Gold.PLP.part.repulsive>
0.4134

> <Gold.PLP.ligand.clash>
0.0000

> <Gold.PLP.ligand.torsion>
0.3225

> <Gold.PLP.Chemscore.Hbond>
4.9440

> <Gold.PLP.Chemscore.CHOScore>
0.0000

> <Gold.PLP.Chemscore.Metal>
0.0000

> <Gold.Chemscore.Hbonds>
donor molecule, donor type, donor heavy atom, donor atom, acceptor molecule, acceptor atom, score
      L1  H     3    36       P1  8028  2.00
      L1  H     7    27       P1  7948  0.94
      L1  H    10    28       P1  7948  1.00
      L1  H    16    33       P1 10186  1.00

> <Gold.PLP.Chemscore.Internal.Correction>
0.0103

> <Gold.Rescore>
     Score         DG    S(hbond)    S(metal)    S(lipo)     H(rot)  DE(clash)    DE(int)     intcor
     22.56     -23.64       3.91        0.00      83.02       1.81       0.13       0.95       ----

> <Gold.Chemscore.Fitness>
22.5621

> <Gold.Chemscore.DG>
-23.6433

> <Gold.Chemscore.ZeroCoef>
-5.4800

> <Gold.Chemscore.Hbond>
3.9143

> <Gold.Chemscore.Metal>
0.0000

> <Gold.Chemscore.Lipo>
83.0202

> <Gold.Chemscore.Internal_Hbond>
0.0000

> <Gold.Chemscore.DEClash>
0.1307

> <Gold.Chemscore.DEInternal>
0.9505

> <Gold.Chemscore.Rot>
1.8061

> <Gold.Chemscore.Internal.Correction>
   9.000000E+99

> <Gold.Chemscore.Hbonds>
donor molecule, donor type, donor heavy atom, donor atom, acceptor molecule, acceptor atom, score
      L1  H     3    36       P1  8028  1.00
      L1  H     7    27       P1  7948  0.90
      L1  H    10    28       P1  7948  0.96
      L1  H    16    33       P1 10186  0.98

> <Gold.Chemscore.Hbond.Weighted>
-13.0736

> <Gold.Chemscore.Metal.Weighted>
-0.0000

> <Gold.Chemscore.Lipo.Weighted>
-9.7134

> <Gold.Chemscore.Internal_Hbond.Weighted>
0.0000

> <Gold.Chemscore.DEClash.Weighted>
0.1307

> <Gold.Chemscore.DEInternal.Weighted>
0.9505

> <Gold.Chemscore.Rot.Weighted>
4.6237

> <Gold.Chemscore.Internal.Correction.Weighted>
   9.000000E+99

> <Gold.Protein.RotatedTorsions>
[ 6907 6896 6895 6894 ] final   -8.75 input  -60.11 | X-H torsion
[ 7974 7965 7964 7962 ] final   19.71 input  175.53 | X-H torsion
[ 8008 7997 7996 7995 ] final   59.29 input   59.86 | X-H torsion
[ 10167 10162 10161 10158 ] final -178.35 input  -65.29 | X-H torsion
[ 10718 10713 10712 10709 ] final   27.82 input   66.30 | X-H torsion
[ 10763 10752 10751 10750 ] final  -28.68 input  -60.55 | X-H torsion
[ 11005 11000 10999 10996 ] final   59.17 input  -57.11 | X-H torsion

> <Gold.Protein.ActiveResidues>
 VAL166  LYS551  ARG553  GLY616  TRP617  ASP618  TYR619  PRO620  LYS621  CYS622 
 ASP623  PHE694  ASN695  SER759  ASP760  ASP761  ALA762  ILE779  LEU786  VAL792 
 PHE793  MET794  SER795  GLU796  ALA797  LYS798  CYS799  TRP800  GLU811  SER814 

> <Gold.Protein.RotatedAtoms>
  151.4286  135.1007  159.9635 H   0  0  0  0  0  0  0  0  0  0  0  0  # atno 6907 bound_to 6896
  152.4964  133.8639  159.7274 H   0  0  0  0  0  0  0  0  0  0  0  0  # atno 6908 bound_to 6896
  150.9171  133.6867  159.2868 H   0  0  0  0  0  0  0  0  0  0  0  0  # atno 6909 bound_to 6896
  146.2139  139.8274  142.8667 H   0  0  0  0  0  0  0  0  0  0  0  0  # atno 7974 bound_to 7965
  155.5638  140.3488  155.4498 H   0  0  0  0  0  0  0  0  0  0  0  0  # atno 8008 bound_to 7997
  156.0494  140.1314  157.0092 H   0  0  0  0  0  0  0  0  0  0  0  0  # atno 8009 bound_to 7997
  154.4427  140.1008  156.6339 H   0  0  0  0  0  0  0  0  0  0  0  0  # atno 8010 bound_to 7997
  139.5436  144.2295  152.0945 H   0  0  0  0  0  0  0  0  0  0  0  0  # atno 10167 bound_to 10162
  157.2252  130.6998  149.6288 H   0  0  0  0  0  0  0  0  0  0  0  0  # atno 10718 bound_to 10713
  153.7523  135.6925  153.4943 H   0  0  0  0  0  0  0  0  0  0  0  0  # atno 10763 bound_to 10752
  153.1995  135.4442  155.0248 H   0  0  0  0  0  0  0  0  0  0  0  0  # atno 10764 bound_to 10752
  154.8183  135.3409  154.7043 H   0  0  0  0  0  0  0  0  0  0  0  0  # atno 10765 bound_to 10752
  140.0323  134.5993  155.9490 H   0  0  0  0  0  0  0  0  0  0  0  0  # atno 11005 bound_to 11000
  145.3033  141.0200  143.3596 LP  0  0  0  0  0  0  0  0  0  0  0  0  # atno 17320 bound_to 7965
  144.8990  139.4674  143.6641 LP  0  0  0  0  0  0  0  0  0  0  0  0  # atno 17321 bound_to 7965
  140.1778  144.4874  150.6544 LP  0  0  0  0  0  0  0  0  0  0  0  0  # atno 17342 bound_to 10162
  140.6676  143.2273  151.5704 LP  0  0  0  0  0  0  0  0  0  0  0  0  # atno 17343 bound_to 10162
  155.9679  130.4506  150.5706 LP  0  0  0  0  0  0  0  0  0  0  0  0  # atno 17370 bound_to 10713
  157.3534  131.0737  151.1694 LP  0  0  0  0  0  0  0  0  0  0  0  0  # atno 17371 bound_to 10713
  141.1838  133.6551  156.5131 LP  0  0  0  0  0  0  0  0  0  0  0  0  # atno 17394 bound_to 11000
  140.4204  134.7192  157.4887 LP  0  0  0  0  0  0  0  0  0  0  0  0  # atno 17395 bound_to 11000

$$$$
