AV-unprocessed.smi:1697|AV-procd|sdf|6803|dock9
  -GOLD-   22720 7573D 1   1.00000     0.00000
 Structure written by MMmdl.
 54 56  0  0  0  0  0  0  0  0  2 V2000
  142.6925  136.7728  153.7973 C   0  0  0  0  0  0  0  0  0  0  0  0
  143.5930  135.5473  153.6269 C   0  0  0  0  0  0  0  0  0  0  0  0
  144.6687  135.8902  152.7660 O   0  0  0  0  0  0  0  0  0  0  0  0
  145.3765  137.0648  153.1400 C   0  0  2  0  0  0  0  0  0  0  0  0
  146.0406  137.7311  151.9204 C   0  0  0  0  0  0  0  0  0  0  0  0
  146.9468  138.8977  152.3491 C   0  0  0  0  0  0  0  0  0  0  0  0
  147.9761  138.4471  153.3234 N   0  3  1  0  0  0  0  0  0  0  0  0
  148.9675  139.4998  153.6652 C   0  0  0  0  0  0  0  0  0  0  0  0
  148.4845  140.4083  154.8127 C   0  0  2  0  0  0  0  0  0  0  0  0
  147.2942  141.0583  154.4085 O   0  0  0  0  0  0  0  0  0  0  0  0
  149.5377  141.4667  155.1932 C   0  0  0  0  0  0  0  0  0  0  0  0
  150.5821  140.9234  156.0426 N   0  0  0  0  0  0  0  0  0  0  0  0
  151.1859  139.7244  155.9295 C   0  0  0  0  0  0  0  0  0  0  0  0
  152.1305  139.4325  156.8187 N   0  0  0  0  0  0  0  0  0  0  0  0
  152.1381  140.5735  157.6026 C   0  0  0  0  0  0  0  0  0  0  0  0
  152.9216  140.9078  158.7286 C   0  0  0  0  0  0  0  0  0  0  0  0
  152.7575  142.1496  159.3828 C   0  0  0  0  0  0  0  0  0  0  0  0
  153.6235  142.4691  160.5886 C   0  0  0  0  0  0  0  0  0  0  0  0
  151.7950  143.0790  158.9128 C   0  0  0  0  0  0  0  0  0  0  0  0
  151.5985  144.4173  159.6023 C   0  0  0  0  0  0  0  0  0  0  0  0
  151.0053  142.7620  157.7878 C   0  0  0  0  0  0  0  0  0  0  0  0
  151.1795  141.5239  157.1448 C   0  0  0  0  0  0  0  0  0  0  0  0
  147.3546  137.8388  154.5275 C   0  0  0  0  0  0  0  0  0  0  0  0
  146.4614  136.6479  154.1438 C   0  0  0  0  0  0  0  0  0  0  0  0
  141.8489  136.5486  154.4506 H   0  0  0  0  0  0  0  0  0  0  0  0
  142.2942  137.1024  152.8375 H   0  0  0  0  0  0  0  0  0  0  0  0
  143.2431  137.6056  154.2360 H   0  0  0  0  0  0  0  0  0  0  0  0
  143.9616  135.2261  154.6010 H   0  0  0  0  0  0  0  0  0  0  0  0
  143.0176  134.7234  153.2023 H   0  0  0  0  0  0  0  0  0  0  0  0
  144.7019  137.7692  153.6305 H   0  0  0  0  0  0  0  0  0  0  0  0
  146.6304  136.9938  151.3740 H   0  0  0  0  0  0  0  0  0  0  0  0
  145.2862  138.0999  151.2257 H   0  0  0  0  0  0  0  0  0  0  0  0
  147.4197  139.3204  151.4635 H   0  0  0  0  0  0  0  0  0  0  0  0
  146.3461  139.6927  152.7939 H   0  0  0  0  0  0  0  0  0  0  0  0
  149.9182  139.0292  153.9204 H   0  0  0  0  0  0  0  0  0  0  0  0
  149.1648  140.1240  152.7920 H   0  0  0  0  0  0  0  0  0  0  0  0
  148.2597  139.8119  155.6965 H   0  0  0  0  0  0  0  0  0  0  0  0
  147.3297  141.9603  154.6897 H   0  0  0  0  0  0  0  0  0  0  0  0
  150.0081  141.8701  154.2956 H   0  0  0  0  0  0  0  0  0  0  0  0
  149.0709  142.3092  155.7060 H   0  0  0  0  0  0  0  0  0  0  0  0
  150.9212  139.0284  155.1469 H   0  0  0  0  0  0  0  0  0  0  0  0
  153.6533  140.1989  159.0873 H   0  0  0  0  0  0  0  0  0  0  0  0
  153.0045  142.6294  161.4717 H   0  0  0  0  0  0  0  0  0  0  0  0
  154.2116  143.3693  160.4086 H   0  0  0  0  0  0  0  0  0  0  0  0
  154.3161  141.6561  160.8084 H   0  0  0  0  0  0  0  0  0  0  0  0
  150.8032  144.9951  159.1305 H   0  0  0  0  0  0  0  0  0  0  0  0
  152.5140  145.0077  159.5573 H   0  0  0  0  0  0  0  0  0  0  0  0
  151.3303  144.2728  160.6492 H   0  0  0  0  0  0  0  0  0  0  0  0
  150.2695  143.4609  157.4187 H   0  0  0  0  0  0  0  0  0  0  0  0
  148.1326  137.4931  155.2094 H   0  0  0  0  0  0  0  0  0  0  0  0
  146.7736  138.5922  155.0619 H   0  0  0  0  0  0  0  0  0  0  0  0
  145.9990  136.2274  155.0374 H   0  0  0  0  0  0  0  0  0  0  0  0
  147.0771  135.8566  153.7134 H   0  0  0  0  0  0  0  0  0  0  0  0
  148.5002  137.7074  152.8770 H   0  0  0  0  0  0  0  0  0  0  0  0
  1  2  1  0  0  0  0
  1 25  1  0  0  0  0
  1 26  1  0  0  0  0
  1 27  1  0  0  0  0
  2  3  1  0  0  0  0
  2 28  1  0  0  0  0
  2 29  1  0  0  0  0
  3  4  1  0  0  0  0
  4 24  1  0  0  0  0
  4  5  1  0  0  0  0
  4 30  1  0  0  0  0
  5  6  1  0  0  0  0
  5 31  1  0  0  0  0
  5 32  1  0  0  0  0
  6  7  1  0  0  0  0
  6 33  1  0  0  0  0
  6 34  1  0  0  0  0
  7  8  1  0  0  0  0
  7 23  1  0  0  0  0
  7 54  1  0  0  0  0
  8  9  1  0  0  0  0
  8 35  1  0  0  0  0
  8 36  1  0  0  0  0
  9 10  1  0  0  0  0
  9 11  1  0  0  0  0
  9 37  1  0  0  0  0
 10 38  1  0  0  0  0
 11 12  1  0  0  0  0
 11 39  1  0  0  0  0
 11 40  1  0  0  0  0
 12 22  1  0  0  0  0
 12 13  1  0  0  0  0
 13 14  2  0  0  0  0
 13 41  1  0  0  0  0
 14 15  1  0  0  0  0
 15 22  2  0  0  0  0
 15 16  1  0  0  0  0
 16 17  2  0  0  0  0
 16 42  1  0  0  0  0
 17 18  1  0  0  0  0
 17 19  1  0  0  0  0
 18 43  1  0  0  0  0
 18 44  1  0  0  0  0
 18 45  1  0  0  0  0
 19 20  1  0  0  0  0
 19 21  2  0  0  0  0
 20 46  1  0  0  0  0
 20 47  1  0  0  0  0
 20 48  1  0  0  0  0
 21 22  1  0  0  0  0
 21 49  1  0  0  0  0
 23 24  1  0  0  0  0
 23 50  1  0  0  0  0
 23 51  1  0  0  0  0
 24 52  1  0  0  0  0
 24 53  1  0  0  0  0
M  CHG  1   7   1
M  END
> <s_m_source_file>
AV-unprocessed.smi

> <i_m_source_file_index>
1697

> <i_lp_mmshare_version>
43012

> <i_f3d_flags>
0

> <s_epik_input>
W0NIM11bQ0gyXU9bQ0hdMVtDSDJdW0NIMl1OKFtDSDJdW0NIMl0xKVtDSDJdW0NASF0oW09IXSlbQ0gyXW4oW2NIXW4yKWMoYzIzKVtjSF1jKFtDSDNdKWMoW2NIXTMpW0NIM10=

> <s_epik_cmdline>
J2VwaWtfcHl0aG9uJywgJy1waCcsICc3LjAnLCAnLXRuJywgJzgnLCAnLW1hJywgJzIwMCcsICctbWV0YWxfYmluZGluZycsICctaW1hZScsICc8aW5maWxlLm1hZT4nLCAnLW9tYWUnLCAnPG91dGZpbGUubWFlPic=

> <r_epik_Ionization_Penalty>
0.112476

> <r_epik_Ionization_Penalty_Charging>
0.0244612

> <r_epik_Ionization_Penalty_Neutral>
0.0880147

> <r_epik_State_Penalty>
0.0961447

> <r_epik_Charging_Adjusted_Penalty>
0.120606

> <i_epik_Tot_Q>
1

> <i_epik_Tot_abs_Q>
1

> <r_epik_Metal_State_Penalty>
0.0206204

> <b_epik_Metal_Only>
0

> <s_lp_Force_Field>
OPLS_2005

> <r_lp_Energy>
22.6968

> <b_lp_Chiralities_Consistent>
1

> <s_lp_Variant>
AV-unprocessed.smi:1697-1

> <Gold.Version>
5.8.1

> <Gold.Id.Protein>
6NUR|6NUR_protein|mol2

> <Gold.PLP.Fitness>
49.4875

> <Gold.PLP.PLP>
-45.3307

> <Gold.PLP.part.hbond>
-2.0000

> <Gold.PLP.part.metal>
0.0000

> <Gold.PLP.part.buried>
4.7833

> <Gold.PLP.part.nonpolar>
-47.9722

> <Gold.PLP.part.repulsive>
0.2054

> <Gold.PLP.ligand.clash>
0.0000

> <Gold.PLP.ligand.torsion>
1.0079

> <Gold.PLP.Chemscore.Hbond>
2.0000

> <Gold.PLP.Chemscore.CHOScore>
0.0000

> <Gold.PLP.Chemscore.Metal>
0.0000

> <Gold.Chemscore.Hbonds>
donor molecule, donor type, donor heavy atom, donor atom, acceptor molecule, acceptor atom, score
      L1  H     7    54       P1  7948  2.00
      P1  H  7997  8010       L1    14  0.01

> <Gold.PLP.Chemscore.Internal.Correction>
0.1726

> <Gold.Rescore>
     Score         DG    S(hbond)    S(metal)    S(lipo)     H(rot)  DE(clash)    DE(int)     intcor
     15.25     -18.25       0.98        0.00     130.76       2.27       2.15       0.85       ----

> <Gold.Chemscore.Fitness>
15.2502

> <Gold.Chemscore.DG>
-18.2478

> <Gold.Chemscore.ZeroCoef>
-5.4800

> <Gold.Chemscore.Hbond>
0.9827

> <Gold.Chemscore.Metal>
0.0000

> <Gold.Chemscore.Lipo>
130.7625

> <Gold.Chemscore.Internal_Hbond>
0.0000

> <Gold.Chemscore.DEClash>
2.1463

> <Gold.Chemscore.DEInternal>
0.8513

> <Gold.Chemscore.Rot>
2.2710

> <Gold.Chemscore.Internal.Correction>
   9.000000E+99

> <Gold.Chemscore.Hbonds>
donor molecule, donor type, donor heavy atom, donor atom, acceptor molecule, acceptor atom, score
      L1  H     7    54       P1  7948  1.00

> <Gold.Chemscore.Hbond.Weighted>
-3.2822

> <Gold.Chemscore.Metal.Weighted>
-0.0000

> <Gold.Chemscore.Lipo.Weighted>
-15.2992

> <Gold.Chemscore.Internal_Hbond.Weighted>
0.0000

> <Gold.Chemscore.DEClash.Weighted>
2.1463

> <Gold.Chemscore.DEInternal.Weighted>
0.8513

> <Gold.Chemscore.Rot.Weighted>
5.8137

> <Gold.Chemscore.Internal.Correction.Weighted>
   9.000000E+99

> <Gold.Protein.RotatedTorsions>
[ 6907 6896 6895 6894 ] final  -28.68 input  -60.11 | X-H torsion
[ 7974 7965 7964 7962 ] final -121.87 input  175.53 | X-H torsion
[ 8008 7997 7996 7995 ] final   68.96 input   59.86 | X-H torsion
[ 10167 10162 10161 10158 ] final   80.14 input  -65.29 | X-H torsion
[ 10718 10713 10712 10709 ] final    8.65 input   66.30 | X-H torsion
[ 10763 10752 10751 10750 ] final  115.32 input  -60.55 | X-H torsion
[ 11005 11000 10999 10996 ] final  -40.49 input  -57.11 | X-H torsion

> <Gold.Protein.ActiveResidues>
 VAL166  LYS551  ARG553  GLY616  TRP617  ASP618  TYR619  PRO620  LYS621  CYS622 
 ASP623  PHE694  ASN695  SER759  ASP760  ASP761  ALA762  ILE779  LEU786  VAL792 
 PHE793  MET794  SER795  GLU796  ALA797  LYS798  CYS799  TRP800  GLU811  SER814 

> <Gold.Protein.RotatedAtoms>
  151.1296  135.0123  159.8576 H   0  0  0  0  0  0  0  0  0  0  0  0  # atno 6907 bound_to 6896
  152.5450  134.1626  159.8574 H   0  0  0  0  0  0  0  0  0  0  0  0  # atno 6908 bound_to 6896
  151.1691  133.4750  159.2627 H   0  0  0  0  0  0  0  0  0  0  0  0  # atno 6909 bound_to 6896
  145.0356  140.8103  143.4297 H   0  0  0  0  0  0  0  0  0  0  0  0  # atno 7974 bound_to 7965
  155.7163  140.3494  155.4996 H   0  0  0  0  0  0  0  0  0  0  0  0  # atno 8008 bound_to 7997
  155.9310  140.1084  157.1154 H   0  0  0  0  0  0  0  0  0  0  0  0  # atno 8009 bound_to 7997
  154.4085  140.1231  156.4789 H   0  0  0  0  0  0  0  0  0  0  0  0  # atno 8010 bound_to 7997
  139.9529  144.6014  150.8144 H   0  0  0  0  0  0  0  0  0  0  0  0  # atno 10167 bound_to 10162
  156.9548  130.5910  149.5658 H   0  0  0  0  0  0  0  0  0  0  0  0  # atno 10718 bound_to 10713
  153.5205  135.3599  155.2629 H   0  0  0  0  0  0  0  0  0  0  0  0  # atno 10763 bound_to 10752
  154.8735  135.4044  154.3266 H   0  0  0  0  0  0  0  0  0  0  0  0  # atno 10764 bound_to 10752
  153.3935  135.7072  153.6544 H   0  0  0  0  0  0  0  0  0  0  0  0  # atno 10765 bound_to 10752
  141.0178  133.6877  156.2329 H   0  0  0  0  0  0  0  0  0  0  0  0  # atno 11005 bound_to 11000
  145.1713  139.2402  143.5340 LP  0  0  0  0  0  0  0  0  0  0  0  0  # atno 17320 bound_to 7965
  146.3504  140.1465  142.8593 LP  0  0  0  0  0  0  0  0  0  0  0  0  # atno 17321 bound_to 7965
  140.7577  143.3092  151.2886 LP  0  0  0  0  0  0  0  0  0  0  0  0  # atno 17342 bound_to 10162
  139.6614  144.0182  152.2695 LP  0  0  0  0  0  0  0  0  0  0  0  0  # atno 17343 bound_to 10162
  156.0347  130.5436  150.8624 LP  0  0  0  0  0  0  0  0  0  0  0  0  # atno 17370 bound_to 10713
  157.5698  131.0946  150.9435 LP  0  0  0  0  0  0  0  0  0  0  0  0  # atno 17371 bound_to 10713
  140.6624  134.4954  157.5584 LP  0  0  0  0  0  0  0  0  0  0  0  0  # atno 17394 bound_to 11000
  139.9128  134.8309  156.1470 LP  0  0  0  0  0  0  0  0  0  0  0  0  # atno 17395 bound_to 11000

$$$$
