AV-unprocessed.smi:867|AV-procd|sdf|3994|dock8
  -GOLD-   22720 1473D 1   1.00000     0.00000
 Structure written by MMmdl.
 53 56  0  0  0  0  0  0  0  0  2 V2000
  148.5946  141.3027  155.3319 O   0  0  0  0  0  0  0  0  0  0  0  0
  149.5578  140.5516  155.1755 C   0  0  0  0  0  0  0  0  0  0  0  0
  150.7627  140.8023  155.7172 N   0  0  0  0  0  0  0  0  0  0  0  0
  151.1071  141.9636  156.5344 C   0  0  0  0  0  0  0  0  0  0  0  0
  150.6236  141.8143  157.9893 C   0  0  0  0  0  0  0  0  0  0  0  0
  151.0969  142.9301  158.9044 C   0  0  0  0  0  0  0  0  0  0  0  0
  150.6717  144.2604  158.7083 C   0  0  0  0  0  0  0  0  0  0  0  0
  151.1189  145.2540  159.5997 C   0  0  0  0  0  0  0  0  0  0  0  0
  151.9785  144.8743  160.6498 C   0  0  0  0  0  0  0  0  0  0  0  0
  152.3949  143.6048  160.8453 N   0  0  0  0  0  0  0  0  0  0  0  0
  151.9601  142.6577  159.9869 C   0  0  0  0  0  0  0  0  0  0  0  0
  149.5191  139.4586  154.3744 N   0  0  0  0  0  0  0  0  0  0  0  0
  150.6123  138.4981  154.1761 C   0  0  0  0  0  0  0  0  0  0  0  0
  150.2926  137.2099  154.9568 C   0  0  0  0  0  0  0  0  0  0  0  0
  148.9734  136.6362  154.5625 N   0  3  0  0  0  0  0  0  0  0  0  0
  148.6489  135.3834  155.3039 C   0  0  2  0  0  0  0  0  0  0  0  0
  149.6727  134.2387  155.1033 C   0  0  0  0  0  0  0  0  0  0  0  0
  148.7841  133.0311  154.7488 C   0  0  2  0  0  0  0  0  0  0  0  0
  148.3018  133.1800  153.2959 C   0  0  0  0  0  0  0  0  0  0  0  0
  147.2994  134.3435  153.3950 C   0  0  0  0  0  0  0  0  0  0  0  0
  147.3212  134.6946  154.8990 C   0  0  1  0  0  0  0  0  0  0  0  0
  147.5069  133.3182  155.5290 C   0  0  0  0  0  0  0  0  0  0  0  0
  147.8828  137.6518  154.6166 C   0  0  0  0  0  0  0  0  0  0  0  0
  148.2604  138.9292  153.8459 C   0  0  0  0  0  0  0  0  0  0  0  0
  151.5109  140.1546  155.5183 H   0  0  0  0  0  0  0  0  0  0  0  0
  152.1827  142.1461  156.5135 H   0  0  0  0  0  0  0  0  0  0  0  0
  150.6436  142.8425  156.0860 H   0  0  0  0  0  0  0  0  0  0  0  0
  149.5338  141.7847  158.0113 H   0  0  0  0  0  0  0  0  0  0  0  0
  150.9600  140.8574  158.3907 H   0  0  0  0  0  0  0  0  0  0  0  0
  150.0074  144.5155  157.8959 H   0  0  0  0  0  0  0  0  0  0  0  0
  150.8106  146.2821  159.4823 H   0  0  0  0  0  0  0  0  0  0  0  0
  152.3411  145.6104  161.3519 H   0  0  0  0  0  0  0  0  0  0  0  0
  152.3039  141.6512  160.1742 H   0  0  0  0  0  0  0  0  0  0  0  0
  150.7038  138.2771  153.1116 H   0  0  0  0  0  0  0  0  0  0  0  0
  151.5892  138.8735  154.4809 H   0  0  0  0  0  0  0  0  0  0  0  0
  151.0919  136.4893  154.7872 H   0  0  0  0  0  0  0  0  0  0  0  0
  150.2858  137.4229  156.0272 H   0  0  0  0  0  0  0  0  0  0  0  0
  148.5957  135.6283  156.3666 H   0  0  0  0  0  0  0  0  0  0  0  0
  150.3955  134.4334  154.3102 H   0  0  0  0  0  0  0  0  0  0  0  0
  150.2299  134.0604  156.0238 H   0  0  0  0  0  0  0  0  0  0  0  0
  149.2484  132.0669  154.9579 H   0  0  0  0  0  0  0  0  0  0  0  0
  149.1180  133.3883  152.6029 H   0  0  0  0  0  0  0  0  0  0  0  0
  147.8018  132.2710  152.9584 H   0  0  0  0  0  0  0  0  0  0  0  0
  147.5743  135.1831  152.7566 H   0  0  0  0  0  0  0  0  0  0  0  0
  146.3049  134.0132  153.0922 H   0  0  0  0  0  0  0  0  0  0  0  0
  146.4285  135.2191  155.2409 H   0  0  0  0  0  0  0  0  0  0  0  0
  146.6959  132.6238  155.3014 H   0  0  0  0  0  0  0  0  0  0  0  0
  147.6574  133.3494  156.6097 H   0  0  0  0  0  0  0  0  0  0  0  0
  146.9650  137.2500  154.1886 H   0  0  0  0  0  0  0  0  0  0  0  0
  147.6675  137.8968  155.6579 H   0  0  0  0  0  0  0  0  0  0  0  0
  147.4464  139.6542  153.8980 H   0  0  0  0  0  0  0  0  0  0  0  0
  148.3838  138.7037  152.7856 H   0  0  0  0  0  0  0  0  0  0  0  0
  149.0588  136.3753  153.5906 H   0  0  0  0  0  0  0  0  0  0  0  0
  1  2  2  0  0  0  0
  2  3  1  0  0  0  0
  2 12  1  0  0  0  0
  3  4  1  0  0  0  0
  3 25  1  0  0  0  0
  4  5  1  0  0  0  0
  4 26  1  0  0  0  0
  4 27  1  0  0  0  0
  5  6  1  0  0  0  0
  5 28  1  0  0  0  0
  5 29  1  0  0  0  0
  6 11  1  0  0  0  0
  6  7  2  0  0  0  0
  7  8  1  0  0  0  0
  7 30  1  0  0  0  0
  8  9  2  0  0  0  0
  8 31  1  0  0  0  0
  9 10  1  0  0  0  0
  9 32  1  0  0  0  0
 10 11  2  0  0  0  0
 11 33  1  0  0  0  0
 12 24  1  0  0  0  0
 12 13  1  0  0  0  0
 13 14  1  0  0  0  0
 13 34  1  0  0  0  0
 13 35  1  0  0  0  0
 14 15  1  0  0  0  0
 14 36  1  0  0  0  0
 14 37  1  0  0  0  0
 15 16  1  0  0  0  0
 15 23  1  0  0  0  0
 15 53  1  0  0  0  0
 16 21  1  0  0  0  0
 16 17  1  0  0  0  0
 16 38  1  0  0  0  0
 17 18  1  0  0  0  0
 17 39  1  0  0  0  0
 17 40  1  0  0  0  0
 18 22  1  0  0  0  0
 18 19  1  0  0  0  0
 18 41  1  0  0  0  0
 19 20  1  0  0  0  0
 19 42  1  0  0  0  0
 19 43  1  0  0  0  0
 20 21  1  0  0  0  0
 20 44  1  0  0  0  0
 20 45  1  0  0  0  0
 21 22  1  0  0  0  0
 21 46  1  0  0  0  0
 22 47  1  0  0  0  0
 22 48  1  0  0  0  0
 23 24  1  0  0  0  0
 23 49  1  0  0  0  0
 23 50  1  0  0  0  0
 24 51  1  0  0  0  0
 24 52  1  0  0  0  0
M  CHG  1  15   1
M  END
> <s_m_source_file>
AV-unprocessed.smi

> <i_m_source_file_index>
867

> <i_lp_mmshare_version>
43012

> <i_f3d_flags>
0

> <s_epik_input>
W0NIMl0xW0NIMl1bQ0BASF0oW0NIMl0yKVtDQEBIXShbQ0gyXVtDQEhdMTIpTihbQ0gyXVtDSDJdMylbQ0gyXVtDSDJdTjNDKD1PKVtOSF1bQ0gyXVtDSDJdYzRbY0hdW2NIXVtjSF1uW2NIXTQ=

> <s_epik_cmdline>
J2VwaWtfcHl0aG9uJywgJy1waCcsICc3LjAnLCAnLXRuJywgJzgnLCAnLW1hJywgJzIwMCcsICctbWV0YWxfYmluZGluZycsICctaW1hZScsICc8aW5maWxlLm1hZT4nLCAnLW9tYWUnLCAnPG91dGZpbGUubWFlPic=

> <r_epik_Ionization_Penalty>
0.0161279

> <r_epik_Ionization_Penalty_Charging>
0.00262064

> <r_epik_Ionization_Penalty_Neutral>
0.0135072

> <r_epik_State_Penalty>
0.0104914

> <r_epik_Charging_Adjusted_Penalty>
0.013112

> <i_epik_Tot_Q>
1

> <i_epik_Tot_abs_Q>
1

> <r_epik_Metal_State_Penalty>
0.0102536

> <b_epik_Metal_Only>
0

> <s_lp_Force_Field>
OPLS_2005

> <r_lp_Energy>
96.6143

> <b_lp_Chiralities_Consistent>
1

> <s_lp_Variant>
AV-unprocessed.smi:867-1

> <Gold.Version>
5.8.1

> <Gold.Id.Protein>
6NUR|6NUR_protein|mol2

> <Gold.PLP.Fitness>
48.0028

> <Gold.PLP.PLP>
-42.3287

> <Gold.PLP.part.hbond>
-1.0000

> <Gold.PLP.part.metal>
0.0000

> <Gold.PLP.part.buried>
-6.0036

> <Gold.PLP.part.nonpolar>
-36.5618

> <Gold.PLP.part.repulsive>
0.3052

> <Gold.PLP.ligand.clash>
0.0000

> <Gold.PLP.ligand.torsion>
0.2210

> <Gold.PLP.Chemscore.Hbond>
2.0000

> <Gold.PLP.Chemscore.CHOScore>
0.0000

> <Gold.PLP.Chemscore.Metal>
0.0000

> <Gold.Chemscore.Hbonds>
donor molecule, donor type, donor heavy atom, donor atom, acceptor molecule, acceptor atom, score
      L1  H    15    53       P1  7948  2.00

> <Gold.PLP.Chemscore.Internal.Correction>
0.1161

> <Gold.Rescore>
     Score         DG    S(hbond)    S(metal)    S(lipo)     H(rot)  DE(clash)    DE(int)     intcor
     18.82     -19.13       0.97        0.00     119.03       1.37       0.07       0.23       ----

> <Gold.Chemscore.Fitness>
18.8201

> <Gold.Chemscore.DG>
-19.1262

> <Gold.Chemscore.ZeroCoef>
-5.4800

> <Gold.Chemscore.Hbond>
0.9687

> <Gold.Chemscore.Metal>
0.0000

> <Gold.Chemscore.Lipo>
119.0266

> <Gold.Chemscore.Internal_Hbond>
0.0000

> <Gold.Chemscore.DEClash>
0.0714

> <Gold.Chemscore.DEInternal>
0.2348

> <Gold.Chemscore.Rot>
1.3731

> <Gold.Chemscore.Internal.Correction>
   9.000000E+99

> <Gold.Chemscore.Hbonds>
donor molecule, donor type, donor heavy atom, donor atom, acceptor molecule, acceptor atom, score
      L1  H    15    53       P1  7948  0.98

> <Gold.Chemscore.Hbond.Weighted>
-3.2353

> <Gold.Chemscore.Metal.Weighted>
-0.0000

> <Gold.Chemscore.Lipo.Weighted>
-13.9261

> <Gold.Chemscore.Internal_Hbond.Weighted>
0.0000

> <Gold.Chemscore.DEClash.Weighted>
0.0714

> <Gold.Chemscore.DEInternal.Weighted>
0.2348

> <Gold.Chemscore.Rot.Weighted>
3.5152

> <Gold.Chemscore.Internal.Correction.Weighted>
   9.000000E+99

> <Gold.Protein.RotatedTorsions>
[ 6907 6896 6895 6894 ] final  152.73 input  -60.11 | X-H torsion
[ 7974 7965 7964 7962 ] final   67.36 input  175.53 | X-H torsion
[ 8008 7997 7996 7995 ] final -157.84 input   59.86 | X-H torsion
[ 10167 10162 10161 10158 ] final -138.22 input  -65.29 | X-H torsion
[ 10718 10713 10712 10709 ] final   49.61 input   66.30 | X-H torsion
[ 10763 10752 10751 10750 ] final  127.91 input  -60.55 | X-H torsion
[ 11005 11000 10999 10996 ] final  164.07 input  -57.11 | X-H torsion

> <Gold.Protein.ActiveResidues>
 VAL166  LYS551  ARG553  GLY616  TRP617  ASP618  TYR619  PRO620  LYS621  CYS622 
 ASP623  PHE694  ASN695  SER759  ASP760  ASP761  ALA762  ILE779  LEU786  VAL792 
 PHE793  MET794  SER795  GLU796  ALA797  LYS798  CYS799  TRP800  GLU811  SER814 

> <Gold.Protein.RotatedAtoms>
  152.0827  133.4160  159.4508 H   0  0  0  0  0  0  0  0  0  0  0  0  # atno 6907 bound_to 6896
  150.6862  134.2964  159.4697 H   0  0  0  0  0  0  0  0  0  0  0  0  # atno 6908 bound_to 6896
  152.0807  134.9472  160.0624 H   0  0  0  0  0  0  0  0  0  0  0  0  # atno 6909 bound_to 6896
  145.8155  139.3056  143.1074 H   0  0  0  0  0  0  0  0  0  0  0  0  # atno 7974 bound_to 7965
  155.7386  140.0811  157.2256 H   0  0  0  0  0  0  0  0  0  0  0  0  # atno 8008 bound_to 7997
  154.4024  140.1582  156.2645 H   0  0  0  0  0  0  0  0  0  0  0  0  # atno 8009 bound_to 7997
  155.9042  140.3408  155.6052 H   0  0  0  0  0  0  0  0  0  0  0  0  # atno 8010 bound_to 7997
  139.8500  143.7211  152.2658 H   0  0  0  0  0  0  0  0  0  0  0  0  # atno 10167 bound_to 10162
  157.4803  130.8311  149.8086 H   0  0  0  0  0  0  0  0  0  0  0  0  # atno 10718 bound_to 10713
  153.7171  135.3259  155.3259 H   0  0  0  0  0  0  0  0  0  0  0  0  # atno 10763 bound_to 10752
  154.8367  135.4490  154.1255 H   0  0  0  0  0  0  0  0  0  0  0  0  # atno 10764 bound_to 10752
  153.2365  135.6966  153.7911 H   0  0  0  0  0  0  0  0  0  0  0  0  # atno 10765 bound_to 10752
  140.2422  134.8042  157.3421 H   0  0  0  0  0  0  0  0  0  0  0  0  # atno 11005 bound_to 11000
  145.9731  140.8744  143.0152 LP  0  0  0  0  0  0  0  0  0  0  0  0  # atno 17320 bound_to 7965
  144.6753  140.1974  143.7390 LP  0  0  0  0  0  0  0  0  0  0  0  0  # atno 17321 bound_to 7965
  139.7475  144.7543  151.0558 LP  0  0  0  0  0  0  0  0  0  0  0  0  # atno 17342 bound_to 10162
  140.7788  143.4899  150.9907 LP  0  0  0  0  0  0  0  0  0  0  0  0  # atno 17343 bound_to 10162
  156.0118  130.3830  150.2239 LP  0  0  0  0  0  0  0  0  0  0  0  0  # atno 17370 bound_to 10713
  157.0425  131.0039  151.3279 LP  0  0  0  0  0  0  0  0  0  0  0  0  # atno 17371 bound_to 10713
  140.1642  134.4690  155.7874 LP  0  0  0  0  0  0  0  0  0  0  0  0  # atno 17394 bound_to 11000
  141.2209  133.6914  156.7596 LP  0  0  0  0  0  0  0  0  0  0  0  0  # atno 17395 bound_to 11000

$$$$
