AV-unprocessed.smi:2850|AV-procd|sdf|10970|dock9
  -GOLD-   2272015423D 1   1.00000     0.00000
 Structure written by MMmdl.
 44 45  0  0  0  0  0  0  0  0  1 V2000
  153.0596  143.3079  162.5126 C   0  0  0  0  0  0  0  0  0  0  0  0
  153.8558  141.8636  161.7552 S   0  0  0  0  0  0  0  0  0  0  0  0
  153.0601  141.5829  160.2020 C   0  0  0  0  0  0  0  0  0  0  0  0
  152.1663  142.5310  159.6723 C   0  0  0  0  0  0  0  0  0  0  0  0
  151.5771  142.2296  158.4319 C   0  0  0  0  0  0  0  0  0  0  0  0
  151.9255  141.0081  157.8204 C   0  0  0  0  0  0  0  0  0  0  0  0
  151.3572  140.6821  156.5818 N   0  0  0  0  0  0  0  0  0  0  0  0
  150.6299  141.6865  155.8181 C   0  0  0  0  0  0  0  0  0  0  0  0
  149.2367  141.1918  155.4073 C   0  0  1  0  0  0  0  0  0  0  0  0
  148.1364  141.8153  156.2880 C   0  0  0  0  0  0  0  0  0  0  0  0
  146.7974  141.4168  155.8673 N   0  0  0  0  0  0  0  0  0  0  0  0
  145.7816  142.0200  156.7319 C   0  0  0  0  0  0  0  0  0  0  0  0
  145.6732  143.5589  156.6741 C   0  0  0  0  0  0  0  0  0  0  0  0
  145.0111  144.0965  157.9513 C   0  0  0  0  0  0  0  0  0  0  0  0
  144.9025  144.0298  155.4301 C   0  0  0  0  0  0  0  0  0  0  0  0
  146.6211  141.7657  154.4594 C   0  0  0  0  0  0  0  0  0  0  0  0
  147.7243  141.1588  153.5760 C   0  0  0  0  0  0  0  0  0  0  0  0
  149.0001  141.5722  154.0537 O   0  0  0  0  0  0  0  0  0  0  0  0
  152.7990  140.1417  158.3946 N   0  0  0  0  0  0  0  0  0  0  0  0
  153.3621  140.4239  159.5744 N   0  0  0  0  0  0  0  0  0  0  0  0
  153.5193  143.5262  163.4763 H   0  0  0  0  0  0  0  0  0  0  0  0
  151.9979  143.1190  162.6726 H   0  0  0  0  0  0  0  0  0  0  0  0
  153.1675  144.1841  161.8731 H   0  0  0  0  0  0  0  0  0  0  0  0
  151.9417  143.4501  160.1932 H   0  0  0  0  0  0  0  0  0  0  0  0
  150.8823  142.9143  157.9677 H   0  0  0  0  0  0  0  0  0  0  0  0
  151.5950  139.8094  156.1331 H   0  0  0  0  0  0  0  0  0  0  0  0
  150.5281  142.5813  156.4338 H   0  0  0  0  0  0  0  0  0  0  0  0
  151.2057  141.9664  154.9349 H   0  0  0  0  0  0  0  0  0  0  0  0
  149.1963  140.1042  155.4941 H   0  0  0  0  0  0  0  0  0  0  0  0
  148.2976  141.5188  157.3251 H   0  0  0  0  0  0  0  0  0  0  0  0
  148.2226  142.9029  156.2592 H   0  0  0  0  0  0  0  0  0  0  0  0
  144.8051  141.6104  156.4691 H   0  0  0  0  0  0  0  0  0  0  0  0
  145.9615  141.7103  157.7628 H   0  0  0  0  0  0  0  0  0  0  0  0
  146.6728  143.9906  156.6364 H   0  0  0  0  0  0  0  0  0  0  0  0
  143.9954  143.7152  158.0620 H   0  0  0  0  0  0  0  0  0  0  0  0
  144.9582  145.1856  157.9394 H   0  0  0  0  0  0  0  0  0  0  0  0
  145.5740  143.8054  158.8385 H   0  0  0  0  0  0  0  0  0  0  0  0
  143.8887  143.6288  155.4166 H   0  0  0  0  0  0  0  0  0  0  0  0
  145.3984  143.7117  154.5127 H   0  0  0  0  0  0  0  0  0  0  0  0
  144.8309  145.1174  155.4003 H   0  0  0  0  0  0  0  0  0  0  0  0
  145.6562  141.4129  154.0976 H   0  0  0  0  0  0  0  0  0  0  0  0
  146.6231  142.8507  154.3436 H   0  0  0  0  0  0  0  0  0  0  0  0
  147.6636  140.0693  153.5750 H   0  0  0  0  0  0  0  0  0  0  0  0
  147.6064  141.4873  152.5434 H   0  0  0  0  0  0  0  0  0  0  0  0
  1  2  1  0  0  0  0
  1 21  1  0  0  0  0
  1 22  1  0  0  0  0
  1 23  1  0  0  0  0
  2  3  1  0  0  0  0
  3 20  1  0  0  0  0
  3  4  2  0  0  0  0
  4  5  1  0  0  0  0
  4 24  1  0  0  0  0
  5  6  2  0  0  0  0
  5 25  1  0  0  0  0
  6  7  1  0  0  0  0
  6 19  1  0  0  0  0
  7  8  1  0  0  0  0
  7 26  1  0  0  0  0
  8  9  1  0  0  0  0
  8 27  1  0  0  0  0
  8 28  1  0  0  0  0
  9 18  1  0  0  0  0
  9 10  1  0  0  0  0
  9 29  1  0  0  0  0
 10 11  1  0  0  0  0
 10 30  1  0  0  0  0
 10 31  1  0  0  0  0
 11 12  1  0  0  0  0
 11 16  1  0  0  0  0
 12 13  1  0  0  0  0
 12 32  1  0  0  0  0
 12 33  1  0  0  0  0
 13 14  1  0  0  0  0
 13 15  1  0  0  0  0
 13 34  1  0  0  0  0
 14 35  1  0  0  0  0
 14 36  1  0  0  0  0
 14 37  1  0  0  0  0
 15 38  1  0  0  0  0
 15 39  1  0  0  0  0
 15 40  1  0  0  0  0
 16 17  1  0  0  0  0
 16 41  1  0  0  0  0
 16 42  1  0  0  0  0
 17 18  1  0  0  0  0
 17 43  1  0  0  0  0
 17 44  1  0  0  0  0
 19 20  2  0  0  0  0
M  END
> <s_m_source_file>
AV-unprocessed.smi

> <i_m_source_file_index>
2850

> <i_lp_mmshare_version>
43012

> <i_f3d_flags>
0

> <s_epik_input>
W0NIM11TYzFbY0hdW2NIXWMobm4xKVtOSF1bQ0gyXVtDQEBIXTJbQ0gyXU4oW0NIMl1bQ0gyXU8yKVtDSDJdW0NIXShbQ0gzXSlbQ0gzXQ==

> <s_epik_cmdline>
J2VwaWtfcHl0aG9uJywgJy1waCcsICc3LjAnLCAnLXRuJywgJzgnLCAnLW1hJywgJzIwMCcsICctbWV0YWxfYmluZGluZycsICctaW1hZScsICc8aW5maWxlLm1hZT4nLCAnLW9tYWUnLCAnPG91dGZpbGUubWFlPic=

> <r_lp_tautomer_probability>
0.999978

> <r_epik_Ionization_Penalty>
1.20939

> <r_epik_Ionization_Penalty_Charging>
0

> <r_epik_Ionization_Penalty_Neutral>
1.20939

> <r_epik_State_Penalty>
1.27042

> <r_epik_Charging_Adjusted_Penalty>
1.27042

> <i_epik_Tot_Q>
0

> <i_epik_Tot_abs_Q>
0

> <r_epik_Metal_State_Penalty>
1.26998

> <b_epik_Metal_Only>
0

> <s_lp_Force_Field>
OPLS_2005

> <r_lp_Energy>
30.7386

> <b_lp_Chiralities_Consistent>
1

> <s_lp_Variant>
AV-unprocessed.smi:2850-6

> <Gold.Version>
5.8.1

> <Gold.Id.Protein>
6NUR|6NUR_protein|mol2

> <Gold.PLP.Fitness>
39.0730

> <Gold.PLP.PLP>
-36.2158

> <Gold.PLP.part.hbond>
-2.1824

> <Gold.PLP.part.metal>
0.0000

> <Gold.PLP.part.buried>
-5.2376

> <Gold.PLP.part.nonpolar>
-28.1941

> <Gold.PLP.part.repulsive>
0.3843

> <Gold.PLP.ligand.clash>
0.0000

> <Gold.PLP.ligand.torsion>
0.9725

> <Gold.PLP.Chemscore.Hbond>
1.5760

> <Gold.PLP.Chemscore.CHOScore>
0.0000

> <Gold.PLP.Chemscore.Metal>
0.0000

> <Gold.Chemscore.Hbonds>
donor molecule, donor type, donor heavy atom, donor atom, acceptor molecule, acceptor atom, score
      P1  H  7997  8008       L1    19  0.41
      P1  H  8011  8017       L1    18  0.57

> <Gold.PLP.Chemscore.Internal.Correction>
0.0742

> <Gold.Rescore>
     Score         DG    S(hbond)    S(metal)    S(lipo)     H(rot)  DE(clash)    DE(int)     intcor
     13.01     -14.22       0.59        0.00      91.85       1.55       0.25       0.96       ----

> <Gold.Chemscore.Fitness>
13.0112

> <Gold.Chemscore.DG>
-14.2249

> <Gold.Chemscore.ZeroCoef>
-5.4800

> <Gold.Chemscore.Hbond>
0.5866

> <Gold.Chemscore.Metal>
0.0000

> <Gold.Chemscore.Lipo>
91.8514

> <Gold.Chemscore.Internal_Hbond>
0.0000

> <Gold.Chemscore.DEClash>
0.2515

> <Gold.Chemscore.DEInternal>
0.9622

> <Gold.Chemscore.Rot>
1.5473

> <Gold.Chemscore.Internal.Correction>
   9.000000E+99

> <Gold.Chemscore.Hbonds>
donor molecule, donor type, donor heavy atom, donor atom, acceptor molecule, acceptor atom, score
      P1  H  7997  8008       L1    19  0.07
      P1  H  8011  8017       L1    18  0.17

> <Gold.Chemscore.Hbond.Weighted>
-1.9593

> <Gold.Chemscore.Metal.Weighted>
-0.0000

> <Gold.Chemscore.Lipo.Weighted>
-10.7466

> <Gold.Chemscore.Internal_Hbond.Weighted>
0.0000

> <Gold.Chemscore.DEClash.Weighted>
0.2515

> <Gold.Chemscore.DEInternal.Weighted>
0.9622

> <Gold.Chemscore.Rot.Weighted>
3.9610

> <Gold.Chemscore.Internal.Correction.Weighted>
   9.000000E+99

> <Gold.Protein.RotatedTorsions>
[ 6907 6896 6895 6894 ] final    9.83 input  -60.11 | X-H torsion
[ 7974 7965 7964 7962 ] final -179.35 input  175.53 | X-H torsion
[ 8008 7997 7996 7995 ] final  -74.36 input   59.86 | X-H torsion
[ 10167 10162 10161 10158 ] final  168.61 input  -65.29 | X-H torsion
[ 10718 10713 10712 10709 ] final -162.13 input   66.30 | X-H torsion
[ 10763 10752 10751 10750 ] final   10.21 input  -60.55 | X-H torsion
[ 11005 11000 10999 10996 ] final  128.89 input  -57.11 | X-H torsion

> <Gold.Protein.ActiveResidues>
 VAL166  LYS551  ARG553  GLY616  TRP617  ASP618  TYR619  PRO620  LYS621  CYS622 
 ASP623  PHE694  ASN695  SER759  ASP760  ASP761  ALA762  ILE779  LEU786  VAL792 
 PHE793  MET794  SER795  GLU796  ALA797  LYS798  CYS799  TRP800  GLU811  SER814 

> <Gold.Protein.RotatedAtoms>
  151.7285  135.0880  160.0295 H   0  0  0  0  0  0  0  0  0  0  0  0  # atno 6907 bound_to 6896
  152.3556  133.6229  159.5986 H   0  0  0  0  0  0  0  0  0  0  0  0  # atno 6908 bound_to 6896
  150.7569  133.9421  159.3501 H   0  0  0  0  0  0  0  0  0  0  0  0  # atno 6909 bound_to 6896
  144.7136  140.0731  143.6428 H   0  0  0  0  0  0  0  0  0  0  0  0  # atno 7974 bound_to 7965
  154.5324  140.0763  156.8369 H   0  0  0  0  0  0  0  0  0  0  0  0  # atno 8008 bound_to 7997
  155.3346  140.3404  155.4221 H   0  0  0  0  0  0  0  0  0  0  0  0  # atno 8009 bound_to 7997
  156.1795  140.1647  156.8287 H   0  0  0  0  0  0  0  0  0  0  0  0  # atno 8010 bound_to 7997
  139.4972  144.3795  151.9637 H   0  0  0  0  0  0  0  0  0  0  0  0  # atno 10167 bound_to 10162
  156.6060  130.8831  151.2925 H   0  0  0  0  0  0  0  0  0  0  0  0  # atno 10718 bound_to 10713
  153.2056  135.6862  153.8176 H   0  0  0  0  0  0  0  0  0  0  0  0  # atno 10763 bound_to 10752
  153.7427  135.3235  155.3308 H   0  0  0  0  0  0  0  0  0  0  0  0  # atno 10764 bound_to 10752
  154.8195  135.4662  154.0842 H   0  0  0  0  0  0  0  0  0  0  0  0  # atno 10765 bound_to 10752
  139.9585  134.9607  156.9068 H   0  0  0  0  0  0  0  0  0  0  0  0  # atno 11005 bound_to 11000
  145.9766  139.2909  143.1067 LP  0  0  0  0  0  0  0  0  0  0  0  0  # atno 17320 bound_to 7965
  145.9057  140.9213  143.0480 LP  0  0  0  0  0  0  0  0  0  0  0  0  # atno 17321 bound_to 7965
  140.3232  144.3404  150.6004 LP  0  0  0  0  0  0  0  0  0  0  0  0  # atno 17342 bound_to 10162
  140.5706  143.2181  151.7606 LP  0  0  0  0  0  0  0  0  0  0  0  0  # atno 17343 bound_to 10162
  157.7267  130.9632  150.1666 LP  0  0  0  0  0  0  0  0  0  0  0  0  # atno 17370 bound_to 10713
  156.2429  130.3692  149.8317 LP  0  0  0  0  0  0  0  0  0  0  0  0  # atno 17371 bound_to 10713
  140.5553  134.0587  155.7382 LP  0  0  0  0  0  0  0  0  0  0  0  0  # atno 17394 bound_to 11000
  141.1260  133.9382  157.2634 LP  0  0  0  0  0  0  0  0  0  0  0  0  # atno 17395 bound_to 11000

$$$$
