AV-unprocessed.smi:36|AV-procd|sdf|300|dock10
  -GOLD-   2262016103D 1   1.00000     0.00000
 Structure written by MMmdl.
 63 66  0  0  0  0  0  0  0  0  2 V2000
  148.2601  136.2735  160.9427 C   0  0  0  0  0  0  0  0  0  0  0  0
  147.2222  135.8857  162.0088 C   0  0  0  0  0  0  0  0  0  0  0  0
  147.4537  134.4342  162.4616 C   0  0  0  0  0  0  0  0  0  0  0  0
  147.3355  136.8298  163.2172 C   0  0  0  0  0  0  0  0  0  0  0  0
  145.4676  136.0304  161.2680 Si  0  0  0  0  0  0  0  0  0  0  0  0
  144.1441  135.4563  162.5040 C   0  0  0  0  0  0  0  0  0  0  0  0
  145.1029  137.8163  160.7254 C   0  0  0  0  0  0  0  0  0  0  0  0
  145.3875  135.0246  159.9093 O   0  0  0  0  0  0  0  0  0  0  0  0
  146.5259  134.4385  159.3132 C   0  0  0  0  0  0  0  0  0  0  0  0
  146.4979  134.6589  157.7941 C   0  0  1  0  0  0  0  0  0  0  0  0
  147.0888  135.9357  157.5450 O   0  0  0  0  0  0  0  0  0  0  0  0
  148.1239  135.8091  156.6241 C   0  0  1  0  0  0  0  0  0  0  0  0
  149.1918  136.7914  156.9711 N   0  0  0  0  0  0  0  0  0  0  0  0
  149.9210  136.8495  158.1030 C   0  0  0  0  0  0  0  0  0  0  0  0
  150.8318  137.8161  158.1968 N   0  0  0  0  0  0  0  0  0  0  0  0
  150.6825  138.4617  156.9781 C   0  0  0  0  0  0  0  0  0  0  0  0
  151.3320  139.5896  156.4052 C   0  0  0  0  0  0  0  0  0  0  0  0
  152.3025  140.2657  157.0374 N   0  5  0  0  0  0  0  0  0  0  0  0
  152.1978  140.5160  158.3672 C   0  0  0  0  0  0  0  0  0  0  0  0
  152.0757  139.6996  159.2832 O   0  0  0  0  0  0  0  0  0  0  0  0
  152.1671  141.9851  158.6955 C   0  0  0  0  0  0  0  0  0  0  0  0
  151.6796  142.9060  157.7400 C   0  0  0  0  0  0  0  0  0  0  0  0
  151.6209  144.2819  158.0358 C   0  0  0  0  0  0  0  0  0  0  0  0
  152.0412  144.7514  159.2941 C   0  0  0  0  0  0  0  0  0  0  0  0
  152.5149  143.8427  160.2588 C   0  0  0  0  0  0  0  0  0  0  0  0
  152.5734  142.4666  159.9641 C   0  0  0  0  0  0  0  0  0  0  0  0
  150.9420  139.9573  155.1579 N   0  0  0  0  0  0  0  0  0  0  0  0
  149.9778  139.2801  154.5243 C   0  0  0  0  0  0  0  0  0  0  0  0
  149.2822  138.2193  154.9440 N   0  0  0  0  0  0  0  0  0  0  0  0
  149.6707  137.8347  156.1949 C   0  0  0  0  0  0  0  0  0  0  0  0
  148.6308  134.3753  156.7306 C   0  0  0  0  0  0  0  0  0  0  0  0
  147.3403  133.6339  157.0105 C   0  0  2  0  0  0  0  0  0  0  0  0
  146.6925  133.2900  155.8014 O   0  0  0  0  0  0  0  0  0  0  0  0
  149.2754  136.2030  161.3343 H   0  0  0  0  0  0  0  0  0  0  0  0
  148.1117  137.2968  160.5972 H   0  0  0  0  0  0  0  0  0  0  0  0
  148.1987  135.6202  160.0721 H   0  0  0  0  0  0  0  0  0  0  0  0
  147.3908  133.7403  161.6232 H   0  0  0  0  0  0  0  0  0  0  0  0
  146.7116  134.1259  163.1991 H   0  0  0  0  0  0  0  0  0  0  0  0
  148.4383  134.3122  162.9143 H   0  0  0  0  0  0  0  0  0  0  0  0
  148.3189  136.7610  163.6835 H   0  0  0  0  0  0  0  0  0  0  0  0
  146.5924  136.5892  163.9781 H   0  0  0  0  0  0  0  0  0  0  0  0
  147.1832  137.8693  162.9259 H   0  0  0  0  0  0  0  0  0  0  0  0
  144.1557  136.0582  163.4122 H   0  0  0  0  0  0  0  0  0  0  0  0
  144.2945  134.4183  162.7995 H   0  0  0  0  0  0  0  0  0  0  0  0
  143.1434  135.5297  162.0784 H   0  0  0  0  0  0  0  0  0  0  0  0
  145.1372  138.5046  161.5694 H   0  0  0  0  0  0  0  0  0  0  0  0
  144.1143  137.9063  160.2756 H   0  0  0  0  0  0  0  0  0  0  0  0
  145.8259  138.1694  159.9908 H   0  0  0  0  0  0  0  0  0  0  0  0
  147.4172  134.8950  159.7442 H   0  0  0  0  0  0  0  0  0  0  0  0
  146.5697  133.3748  159.5455 H   0  0  0  0  0  0  0  0  0  0  0  0
  145.4622  134.6657  157.4507 H   0  0  0  0  0  0  0  0  0  0  0  0
  147.7822  136.0753  155.6228 H   0  0  0  0  0  0  0  0  0  0  0  0
  149.7733  136.1437  158.9072 H   0  0  0  0  0  0  0  0  0  0  0  0
  151.3517  142.5625  156.7697 H   0  0  0  0  0  0  0  0  0  0  0  0
  151.2523  144.9771  157.2961 H   0  0  0  0  0  0  0  0  0  0  0  0
  151.9960  145.8062  159.5208 H   0  0  0  0  0  0  0  0  0  0  0  0
  152.8316  144.1999  161.2275 H   0  0  0  0  0  0  0  0  0  0  0  0
  152.9310  141.7851  160.7226 H   0  0  0  0  0  0  0  0  0  0  0  0
  149.7258  139.6413  153.5385 H   0  0  0  0  0  0  0  0  0  0  0  0
  149.1501  134.0628  155.8238 H   0  0  0  0  0  0  0  0  0  0  0  0
  149.3080  134.2781  157.5795 H   0  0  0  0  0  0  0  0  0  0  0  0
  147.5171  132.7158  157.5704 H   0  0  0  0  0  0  0  0  0  0  0  0
  145.7670  133.2039  155.9714 H   0  0  0  0  0  0  0  0  0  0  0  0
  1  2  1  0  0  0  0
  1 34  1  0  0  0  0
  1 35  1  0  0  0  0
  1 36  1  0  0  0  0
  2  3  1  0  0  0  0
  2  4  1  0  0  0  0
  2  5  1  0  0  0  0
  3 37  1  0  0  0  0
  3 38  1  0  0  0  0
  3 39  1  0  0  0  0
  4 40  1  0  0  0  0
  4 41  1  0  0  0  0
  4 42  1  0  0  0  0
  5  6  1  0  0  0  0
  5  7  1  0  0  0  0
  5  8  1  0  0  0  0
  6 43  1  0  0  0  0
  6 44  1  0  0  0  0
  6 45  1  0  0  0  0
  7 46  1  0  0  0  0
  7 47  1  0  0  0  0
  7 48  1  0  0  0  0
  8  9  1  0  0  0  0
  9 10  1  0  0  0  0
  9 49  1  0  0  0  0
  9 50  1  0  0  0  0
 10 32  1  0  0  0  0
 10 11  1  0  0  0  0
 10 51  1  0  0  0  0
 11 12  1  0  0  0  0
 12 13  1  0  0  0  0
 12 31  1  0  0  0  0
 12 52  1  0  0  0  0
 13 30  1  0  0  0  0
 13 14  1  0  0  0  0
 14 15  2  0  0  0  0
 14 53  1  0  0  0  0
 15 16  1  0  0  0  0
 16 30  2  0  0  0  0
 16 17  1  0  0  0  0
 17 18  1  0  0  0  0
 17 27  2  0  0  0  0
 18 19  1  0  0  0  0
 19 20  2  0  0  0  0
 19 21  1  0  0  0  0
 21 26  1  0  0  0  0
 21 22  2  0  0  0  0
 22 23  1  0  0  0  0
 22 54  1  0  0  0  0
 23 24  2  0  0  0  0
 23 55  1  0  0  0  0
 24 25  1  0  0  0  0
 24 56  1  0  0  0  0
 25 26  2  0  0  0  0
 25 57  1  0  0  0  0
 26 58  1  0  0  0  0
 27 28  1  0  0  0  0
 28 29  2  0  0  0  0
 28 59  1  0  0  0  0
 29 30  1  0  0  0  0
 31 32  1  0  0  0  0
 31 60  1  0  0  0  0
 31 61  1  0  0  0  0
 32 33  1  0  0  0  0
 32 62  1  0  0  0  0
 33 63  1  0  0  0  0
M  CHG  1  18  -1
M  END
> <s_m_source_file>
AV-unprocessed.smi

> <i_m_source_file_index>
36

> <i_lp_mmshare_version>
43012

> <i_f3d_flags>
0

> <s_epik_input>
W0NIM11DKFtDSDNdKShbQ0gzXSlbU2ldKFtDSDNdKShbQ0gzXSlPW0NIMl1bQ0BASF0xT1tDQEhdKFtDSDJdW0NASF0xW09IXSluKFtjSF1uMiljKGMyMyluW2NIXW5jM1tOSF1DKD1PKWM0W2NIXVtjSF1bY0hdW2NIXVtjSF00

> <s_epik_cmdline>
J2VwaWtfcHl0aG9uJywgJy1waCcsICc3LjAnLCAnLXRuJywgJzgnLCAnLW1hJywgJzIwMCcsICctbWV0YWxfYmluZGluZycsICctaW1hZScsICc8aW5maWxlLm1hZT4nLCAnLW9tYWUnLCAnPG91dGZpbGUubWFlPic=

> <r_lp_tautomer_probability>
1

> <r_epik_Ionization_Penalty>
4.75685

> <r_epik_Ionization_Penalty_Charging>
3.55822

> <r_epik_Ionization_Penalty_Neutral>
1.19863

> <r_epik_State_Penalty>
3.564

> <r_epik_Charging_Adjusted_Penalty>
7.12222

> <i_epik_Tot_Q>
-1

> <i_epik_Tot_abs_Q>
1

> <r_epik_Metal_State_Penalty>
0.523258

> <b_epik_Metal_Only>
1

> <s_epik_Chemistry_Notes>
This compound contains an acetal/aminal-like group ( X-CH(R)-Y where X, Y are N, S, or O) that may be acid/base labile, releasing an aldehyde.

> <s_lp_Force_Field>
OPLS_2005

> <r_lp_Energy>
29.6254

> <b_lp_Chiralities_Consistent>
1

> <s_lp_Variant>
AV-unprocessed.smi:36-22

> <Gold.Version>
5.8.1

> <Gold.Id.Protein>
6NUR|6NUR_protein|mol2

> <Gold.PLP.Fitness>
54.9707

> <Gold.PLP.PLP>
-48.2160

> <Gold.PLP.part.hbond>
-2.0000

> <Gold.PLP.part.metal>
0.0000

> <Gold.PLP.part.buried>
-5.6535

> <Gold.PLP.part.nonpolar>
-40.1978

> <Gold.PLP.part.repulsive>
0.2027

> <Gold.PLP.ligand.clash>
0.0000

> <Gold.PLP.ligand.torsion>
2.8399

> <Gold.PLP.Chemscore.Hbond>
2.9500

> <Gold.PLP.Chemscore.CHOScore>
1.0000

> <Gold.PLP.Chemscore.Metal>
0.0000

> <Gold.Chemscore.Hbonds>
donor molecule, donor type, donor heavy atom, donor atom, acceptor molecule, acceptor atom, score
      P1  H  7989  7998       L1    27  0.75
      P1  H  7997  8008       L1    18  1.56
      L1  C    28    59       P1  7957  1.00

> <Gold.PLP.Chemscore.Internal.Correction>
0.5845

> <Gold.Rescore>
     Score         DG    S(hbond)    S(metal)    S(lipo)     H(rot)  DE(clash)    DE(int)     intcor
      8.73     -15.47       0.85        0.00     119.70       2.67       0.26       6.48       ----

> <Gold.Chemscore.Fitness>
8.7257

> <Gold.Chemscore.DG>
-15.4715

> <Gold.Chemscore.ZeroCoef>
-5.4800

> <Gold.Chemscore.Hbond>
0.8451

> <Gold.Chemscore.Metal>
0.0000

> <Gold.Chemscore.Lipo>
119.6964

> <Gold.Chemscore.Internal_Hbond>
0.0000

> <Gold.Chemscore.DEClash>
0.2619

> <Gold.Chemscore.DEInternal>
6.4839

> <Gold.Chemscore.Rot>
2.6702

> <Gold.Chemscore.Internal.Correction>
   9.000000E+99

> <Gold.Chemscore.Hbonds>
donor molecule, donor type, donor heavy atom, donor atom, acceptor molecule, acceptor atom, score
      P1  H  7989  7998       L1    27  0.09
      P1  H  7997  8008       L1    18  0.55

> <Gold.Chemscore.Hbond.Weighted>
-2.8227

> <Gold.Chemscore.Metal.Weighted>
-0.0000

> <Gold.Chemscore.Lipo.Weighted>
-14.0045

> <Gold.Chemscore.Internal_Hbond.Weighted>
0.0000

> <Gold.Chemscore.DEClash.Weighted>
0.2619

> <Gold.Chemscore.DEInternal.Weighted>
6.4839

> <Gold.Chemscore.Rot.Weighted>
6.8358

> <Gold.Chemscore.Internal.Correction.Weighted>
   9.000000E+99

> <Gold.Protein.RotatedTorsions>
[ 6907 6896 6895 6894 ] final  127.75 input  -60.11 | X-H torsion
[ 7974 7965 7964 7962 ] final -137.03 input  175.53 | X-H torsion
[ 8008 7997 7996 7995 ] final  -50.12 input   59.86 | X-H torsion
[ 10167 10162 10161 10158 ] final  130.33 input  -65.29 | X-H torsion
[ 10718 10713 10712 10709 ] final   86.76 input   66.30 | X-H torsion
[ 10763 10752 10751 10750 ] final   33.15 input  -60.55 | X-H torsion
[ 11005 11000 10999 10996 ] final   81.52 input  -57.11 | X-H torsion

> <Gold.Protein.ActiveResidues>
 VAL166  LYS551  ARG553  GLY616  TRP617  ASP618  TYR619  PRO620  LYS621  CYS622 
 ASP623  PHE694  ASN695  SER759  ASP760  ASP761  ALA762  ILE779  LEU786  VAL792 
 PHE793  MET794  SER795  GLU796  ALA797  LYS798  CYS799  TRP800  GLU811  SER814 

> <Gold.Protein.RotatedAtoms>
  152.3784  133.6512  159.6141 H   0  0  0  0  0  0  0  0  0  0  0  0  # atno 6907 bound_to 6896
  150.7721  133.9155  159.3391 H   0  0  0  0  0  0  0  0  0  0  0  0  # atno 6908 bound_to 6896
  151.6965  135.0939  160.0294 H   0  0  0  0  0  0  0  0  0  0  0  0  # atno 6909 bound_to 6896
  144.8876  140.6597  143.5166 H   0  0  0  0  0  0  0  0  0  0  0  0  # atno 7974 bound_to 7965
  154.4056  140.1280  156.4614 H   0  0  0  0  0  0  0  0  0  0  0  0  # atno 8008 bound_to 7997
  155.7269  140.3492  155.5022 H   0  0  0  0  0  0  0  0  0  0  0  0  # atno 8009 bound_to 7997
  155.9163  140.1044  157.1231 H   0  0  0  0  0  0  0  0  0  0  0  0  # atno 8010 bound_to 7997
  139.5435  144.6752  151.4547 H   0  0  0  0  0  0  0  0  0  0  0  0  # atno 10167 bound_to 10162
  157.6932  131.0228  150.3022 H   0  0  0  0  0  0  0  0  0  0  0  0  # atno 10718 bound_to 10713
  153.0226  135.6394  154.1466 H   0  0  0  0  0  0  0  0  0  0  0  0  # atno 10763 bound_to 10752
  154.1198  135.2847  155.3212 H   0  0  0  0  0  0  0  0  0  0  0  0  # atno 10764 bound_to 10752
  154.6271  135.5505  153.7701 H   0  0  0  0  0  0  0  0  0  0  0  0  # atno 10765 bound_to 10752
  139.9095  134.8003  156.2053 H   0  0  0  0  0  0  0  0  0  0  0  0  # atno 11005 bound_to 11000
  145.3840  139.1630  143.4265 LP  0  0  0  0  0  0  0  0  0  0  0  0  # atno 17320 bound_to 7965
  146.3034  140.3924  142.8696 LP  0  0  0  0  0  0  0  0  0  0  0  0  # atno 17321 bound_to 7965
  140.6675  143.8367  150.6959 LP  0  0  0  0  0  0  0  0  0  0  0  0  # atno 17342 bound_to 10162
  140.1781  143.4138  152.1953 LP  0  0  0  0  0  0  0  0  0  0  0  0  # atno 17343 bound_to 10162
  156.3536  130.3835  149.7309 LP  0  0  0  0  0  0  0  0  0  0  0  0  # atno 17370 bound_to 10713
  156.4778  130.8027  151.3042 LP  0  0  0  0  0  0  0  0  0  0  0  0  # atno 17371 bound_to 10713
  141.0499  133.6894  156.1753 LP  0  0  0  0  0  0  0  0  0  0  0  0  # atno 17394 bound_to 11000
  140.6826  134.4751  157.5589 LP  0  0  0  0  0  0  0  0  0  0  0  0  # atno 17395 bound_to 11000

$$$$
