AV-unprocessed.smi:3306|AV-procd|sdf|12704|dock9
  -GOLD-   2272019 43D 1   1.00000     0.00000
 Structure written by MMmdl.
 44 45  0  0  0  0  0  0  0  0  2 V2000
  149.7113  133.3292  153.5622 C   0  0  0  0  0  0  0  0  0  0  0  0
  148.9313  134.3013  154.4733 C   0  0  0  0  0  0  0  0  0  0  0  0
  147.4319  134.1952  154.1238 C   0  0  0  0  0  0  0  0  0  0  0  0
  149.4261  135.7153  154.3896 N   0  3  2  0  0  0  0  0  0  0  0  0
  150.8672  135.8791  154.7423 C   0  0  0  0  0  0  0  0  0  0  0  0
  151.3488  137.3248  154.5380 C   0  0  0  0  0  0  0  0  0  0  0  0
  150.5077  138.3173  155.3501 C   0  0  1  0  0  0  0  0  0  0  0  0
  150.9603  139.6654  155.0335 N   0  0  0  0  0  0  0  0  0  0  0  0
  151.6397  140.2959  156.1579 C   0  0  0  0  0  0  0  0  0  0  0  0
  150.7537  141.3764  156.8017 C   0  0  0  0  0  0  0  0  0  0  0  0
  151.4151  142.0764  157.9778 C   0  0  0  0  0  0  0  0  0  0  0  0
  151.5903  143.4769  157.9699 C   0  0  0  0  0  0  0  0  0  0  0  0
  152.2236  144.0809  159.0734 C   0  0  0  0  0  0  0  0  0  0  0  0
  152.6564  143.2657  160.1369 C   0  0  0  0  0  0  0  0  0  0  0  0
  152.4354  141.8769  160.0491 C   0  0  0  0  0  0  0  0  0  0  0  0
  151.8300  141.2879  158.9954 N   0  0  0  0  0  0  0  0  0  0  0  0
  149.0289  138.1288  154.9733 C   0  0  0  0  0  0  0  0  0  0  0  0
  148.5860  136.6700  155.1704 C   0  0  0  0  0  0  0  0  0  0  0  0
  149.2503  132.3408  153.5572 H   0  0  0  0  0  0  0  0  0  0  0  0
  150.7360  133.1781  153.9014 H   0  0  0  0  0  0  0  0  0  0  0  0
  149.7380  133.6823  152.5306 H   0  0  0  0  0  0  0  0  0  0  0  0
  149.0634  133.9595  155.5013 H   0  0  0  0  0  0  0  0  0  0  0  0
  147.1131  133.1534  154.0788 H   0  0  0  0  0  0  0  0  0  0  0  0
  147.2177  134.6445  153.1535 H   0  0  0  0  0  0  0  0  0  0  0  0
  146.7924  134.6696  154.8667 H   0  0  0  0  0  0  0  0  0  0  0  0
  151.0292  135.5681  155.7754 H   0  0  0  0  0  0  0  0  0  0  0  0
  151.4965  135.2505  154.1147 H   0  0  0  0  0  0  0  0  0  0  0  0
  152.3986  137.4030  154.8240 H   0  0  0  0  0  0  0  0  0  0  0  0
  151.2995  137.5726  153.4760 H   0  0  0  0  0  0  0  0  0  0  0  0
  150.6567  138.1185  156.4126 H   0  0  0  0  0  0  0  0  0  0  0  0
  151.5930  139.6368  154.2462 H   0  0  0  0  0  0  0  0  0  0  0  0
  151.9136  139.5565  156.9099 H   0  0  0  0  0  0  0  0  0  0  0  0
  152.5642  140.7511  155.8006 H   0  0  0  0  0  0  0  0  0  0  0  0
  150.5005  142.1267  156.0517 H   0  0  0  0  0  0  0  0  0  0  0  0
  149.8050  140.9433  157.1224 H   0  0  0  0  0  0  0  0  0  0  0  0
  151.2506  144.0751  157.1372 H   0  0  0  0  0  0  0  0  0  0  0  0
  152.3759  145.1497  159.1029 H   0  0  0  0  0  0  0  0  0  0  0  0
  153.1458  143.6942  160.9990 H   0  0  0  0  0  0  0  0  0  0  0  0
  152.7548  141.2213  160.8458 H   0  0  0  0  0  0  0  0  0  0  0  0
  148.3902  138.7752  155.5747 H   0  0  0  0  0  0  0  0  0  0  0  0
  148.8689  138.4192  153.9336 H   0  0  0  0  0  0  0  0  0  0  0  0
  147.5423  136.6092  154.8693 H   0  0  0  0  0  0  0  0  0  0  0  0
  148.6252  136.4080  156.2289 H   0  0  0  0  0  0  0  0  0  0  0  0
  149.3439  135.9863  153.4200 H   0  0  0  0  0  0  0  0  0  0  0  0
  1  2  1  0  0  0  0
  1 19  1  0  0  0  0
  1 20  1  0  0  0  0
  1 21  1  0  0  0  0
  2  3  1  0  0  0  0
  2  4  1  0  0  0  0
  2 22  1  0  0  0  0
  3 23  1  0  0  0  0
  3 24  1  0  0  0  0
  3 25  1  0  0  0  0
  4 18  1  0  0  0  0
  4  5  1  0  0  0  0
  4 44  1  0  0  0  0
  5  6  1  0  0  0  0
  5 26  1  0  0  0  0
  5 27  1  0  0  0  0
  6  7  1  0  0  0  0
  6 28  1  0  0  0  0
  6 29  1  0  0  0  0
  7  8  1  0  0  0  0
  7 17  1  0  0  0  0
  7 30  1  0  0  0  0
  8  9  1  0  0  0  0
  8 31  1  0  0  0  0
  9 10  1  0  0  0  0
  9 32  1  0  0  0  0
  9 33  1  0  0  0  0
 10 11  1  0  0  0  0
 10 34  1  0  0  0  0
 10 35  1  0  0  0  0
 11 16  1  0  0  0  0
 11 12  2  0  0  0  0
 12 13  1  0  0  0  0
 12 36  1  0  0  0  0
 13 14  2  0  0  0  0
 13 37  1  0  0  0  0
 14 15  1  0  0  0  0
 14 38  1  0  0  0  0
 15 16  2  0  0  0  0
 15 39  1  0  0  0  0
 17 18  1  0  0  0  0
 17 40  1  0  0  0  0
 17 41  1  0  0  0  0
 18 42  1  0  0  0  0
 18 43  1  0  0  0  0
M  CHG  1   4   1
M  END
> <s_m_source_file>
AV-unprocessed.smi

> <i_m_source_file_index>
3306

> <i_lp_mmshare_version>
43012

> <i_f3d_flags>
0

> <s_epik_input>
W0NIM11bQ0hdKFtDSDNdKU4xW0NIMl1bQ0gyXVtDSF0oW0NIMl1bQ0gyXTEpW05IXVtDSDJdW0NIMl1jMltjSF1bY0hdW2NIXVtjSF1uMg==

> <s_epik_cmdline>
J2VwaWtfcHl0aG9uJywgJy1waCcsICc3LjAnLCAnLXRuJywgJzgnLCAnLW1hJywgJzIwMCcsICctbWV0YWxfYmluZGluZycsICctaW1hZScsICc8aW5maWxlLm1hZT4nLCAnLW9tYWUnLCAnPG91dGZpbGUubWFlPic=

> <r_epik_Ionization_Penalty>
2.29993

> <r_epik_Ionization_Penalty_Charging>
0.000386008

> <r_epik_Ionization_Penalty_Neutral>
2.29954

> <r_epik_State_Penalty>
2.40593

> <r_epik_Charging_Adjusted_Penalty>
2.40631

> <i_epik_Tot_Q>
1

> <i_epik_Tot_abs_Q>
1

> <r_epik_Metal_State_Penalty>
2.31593

> <b_epik_Metal_Only>
0

> <s_lp_Force_Field>
OPLS_2005

> <r_lp_Energy>
25.7367

> <b_lp_Chiralities_Consistent>
1

> <s_lp_Variant>
AV-unprocessed.smi:3306-4

> <Gold.Version>
5.8.1

> <Gold.Id.Protein>
6NUR|6NUR_protein|mol2

> <Gold.PLP.Fitness>
43.8946

> <Gold.PLP.PLP>
-39.9807

> <Gold.PLP.part.hbond>
-2.0000

> <Gold.PLP.part.metal>
0.0000

> <Gold.PLP.part.buried>
-3.9418

> <Gold.PLP.part.nonpolar>
-33.9461

> <Gold.PLP.part.repulsive>
0.0171

> <Gold.PLP.ligand.clash>
0.0000

> <Gold.PLP.ligand.torsion>
1.0676

> <Gold.PLP.Chemscore.Hbond>
2.0000

> <Gold.PLP.Chemscore.CHOScore>
0.0000

> <Gold.PLP.Chemscore.Metal>
0.0000

> <Gold.Chemscore.Hbonds>
donor molecule, donor type, donor heavy atom, donor atom, acceptor molecule, acceptor atom, score
      L1  H     4    44       P1  7948  2.00

> <Gold.PLP.Chemscore.Internal.Correction>
0.0492

> <Gold.Rescore>
     Score         DG    S(hbond)    S(metal)    S(lipo)     H(rot)  DE(clash)    DE(int)     intcor
     17.31     -18.58       0.98        0.00     114.91       1.41       0.28       0.99       ----

> <Gold.Chemscore.Fitness>
17.3140

> <Gold.Chemscore.DG>
-18.5838

> <Gold.Chemscore.ZeroCoef>
-5.4800

> <Gold.Chemscore.Hbond>
0.9769

> <Gold.Chemscore.Metal>
0.0000

> <Gold.Chemscore.Lipo>
114.9145

> <Gold.Chemscore.Internal_Hbond>
0.0000

> <Gold.Chemscore.DEClash>
0.2830

> <Gold.Chemscore.DEInternal>
0.9867

> <Gold.Chemscore.Rot>
1.4078

> <Gold.Chemscore.Internal.Correction>
   9.000000E+99

> <Gold.Chemscore.Hbonds>
donor molecule, donor type, donor heavy atom, donor atom, acceptor molecule, acceptor atom, score
      L1  H     4    44       P1  7948  0.59

> <Gold.Chemscore.Hbond.Weighted>
-3.2628

> <Gold.Chemscore.Metal.Weighted>
-0.0000

> <Gold.Chemscore.Lipo.Weighted>
-13.4450

> <Gold.Chemscore.Internal_Hbond.Weighted>
0.0000

> <Gold.Chemscore.DEClash.Weighted>
0.2830

> <Gold.Chemscore.DEInternal.Weighted>
0.9867

> <Gold.Chemscore.Rot.Weighted>
3.6041

> <Gold.Chemscore.Internal.Correction.Weighted>
   9.000000E+99

> <Gold.Protein.RotatedTorsions>
[ 6907 6896 6895 6894 ] final  167.97 input  -60.11 | X-H torsion
[ 7974 7965 7964 7962 ] final   88.27 input  175.53 | X-H torsion
[ 8008 7997 7996 7995 ] final   98.05 input   59.86 | X-H torsion
[ 10167 10162 10161 10158 ] final -119.95 input  -65.29 | X-H torsion
[ 10718 10713 10712 10709 ] final  -47.00 input   66.30 | X-H torsion
[ 10763 10752 10751 10750 ] final  170.92 input  -60.55 | X-H torsion
[ 11005 11000 10999 10996 ] final  -98.96 input  -57.11 | X-H torsion

> <Gold.Protein.ActiveResidues>
 VAL166  LYS551  ARG553  GLY616  TRP617  ASP618  TYR619  PRO620  LYS621  CYS622 
 ASP623  PHE694  ASN695  SER759  ASP760  ASP761  ALA762  ILE779  LEU786  VAL792 
 PHE793  MET794  SER795  GLU796  ALA797  LYS798  CYS799  TRP800  GLU811  SER814 

> <Gold.Protein.RotatedAtoms>
  151.8550  133.3446  159.3685 H   0  0  0  0  0  0  0  0  0  0  0  0  # atno 6907 bound_to 6896
  150.7195  134.5262  159.5687 H   0  0  0  0  0  0  0  0  0  0  0  0  # atno 6908 bound_to 6896
  152.2764  134.7878  160.0456 H   0  0  0  0  0  0  0  0  0  0  0  0  # atno 6909 bound_to 6896
  145.5479  139.2293  143.2529 H   0  0  0  0  0  0  0  0  0  0  0  0  # atno 7974 bound_to 7965
  156.0965  140.3249  155.7885 H   0  0  0  0  0  0  0  0  0  0  0  0  # atno 8008 bound_to 7997
  155.4909  140.0561  157.2971 H   0  0  0  0  0  0  0  0  0  0  0  0  # atno 8009 bound_to 7997
  154.4670  140.1993  156.0109 H   0  0  0  0  0  0  0  0  0  0  0  0  # atno 8010 bound_to 7997
  140.0411  143.5152  152.2129 H   0  0  0  0  0  0  0  0  0  0  0  0  # atno 10167 bound_to 10162
  156.2127  130.4161  149.9094 H   0  0  0  0  0  0  0  0  0  0  0  0  # atno 10718 bound_to 10713
  154.4045  135.2755  155.2076 H   0  0  0  0  0  0  0  0  0  0  0  0  # atno 10763 bound_to 10752
  154.4088  135.6027  153.5944 H   0  0  0  0  0  0  0  0  0  0  0  0  # atno 10764 bound_to 10752
  152.9831  135.5944  154.4317 H   0  0  0  0  0  0  0  0  0  0  0  0  # atno 10765 bound_to 10752
  141.1326  133.8285  157.0908 H   0  0  0  0  0  0  0  0  0  0  0  0  # atno 11005 bound_to 11000
  146.1937  140.6301  142.9134 LP  0  0  0  0  0  0  0  0  0  0  0  0  # atno 17320 bound_to 7965
  144.7544  140.5271  143.6779 LP  0  0  0  0  0  0  0  0  0  0  0  0  # atno 17321 bound_to 7965
  139.6013  144.7583  151.3165 LP  0  0  0  0  0  0  0  0  0  0  0  0  # atno 17342 bound_to 10162
  140.7259  143.7003  150.7850 LP  0  0  0  0  0  0  0  0  0  0  0  0  # atno 17343 bound_to 10162
  156.6766  130.8841  151.3570 LP  0  0  0  0  0  0  0  0  0  0  0  0  # atno 17370 bound_to 10713
  157.7047  130.9371  150.0893 LP  0  0  0  0  0  0  0  0  0  0  0  0  # atno 17371 bound_to 10713
  140.0393  134.9862  157.0932 LP  0  0  0  0  0  0  0  0  0  0  0  0  # atno 17394 bound_to 11000
  140.4160  134.1931  155.7163 LP  0  0  0  0  0  0  0  0  0  0  0  0  # atno 17395 bound_to 11000

$$$$
