#       Name:                AV-unprocessed.smi:657
#       Creating user name   scv26
#       Creation time:       Fri Mar 27 00:15:53 2020


#       File generated by GOLD software.
#

@<TRIPOS>MOLECULE
AV-unprocessed.smi:657
    50    51     1
SMALL
NO_CHARGES


@<TRIPOS>ATOM
      1 ****        -1.3356   2.9509   2.3162 C.3            1 S1                 0.0000
      2 ****        -0.6727   3.0623   0.9285 C.3            1 S1                 0.0000
      3 ****        -0.8450   4.4695   0.3306 C.3            1 S1                 0.0000
      4 ****        -1.1083   1.9962  -0.0368 N.4            1 S1                 1.0000
      5 ****        -2.5887   1.9555  -0.2319 C.3            1 S1                 0.0000
      6 ****        -2.9975   0.9999  -1.3595 C.3            1 S1                 0.0000
      7 ****        -2.4968  -0.4123  -1.0592 C.3            1 S1                 0.0000
      8 ****        -0.9789  -0.3768  -0.8762 C.3            1 S1                 0.0000
      9 ****        -0.5352   0.6298   0.2151 C.3            1 S1                 0.0000
     10 ****         1.0024   0.6035   0.2437 C.2            1 S1                 0.0000
     11 ****         1.6513   1.2787  -0.5561 O.2            1 S1                 0.0000
     12 ****         1.5652  -0.2138   1.1458 N.am           1 S1                 0.0000
     13 ****         2.9966  -0.4721   1.2708 C.3            1 S1                 0.0000
     14 ****         3.5335  -1.3874   0.1511 C.3            1 S1                 0.0000
     15 ****         2.6576  -2.5900  -0.0899 C.2            1 S1                 0.0000
     16 ****         2.3804  -3.6676   0.7991 C.2            1 S1                 0.0000
     17 ****         1.5358  -4.5495   0.2902 N.2            1 S1                 0.0000
     18 ****         1.2520  -4.0728  -0.9392 N.pl3          1 S1                 0.0000
     19 ****         0.3365  -4.7993  -1.7927 C.3            1 S1                 0.0000
     20 ****         1.9203  -2.8962  -1.1988 C.2            1 S1                 0.0000
     21 ****        -0.9057   3.6795   3.0042 H              1 S1                 0.0000
     22 ****        -1.1865   1.9665   2.7592 H              1 S1                 0.0000
     23 ****        -2.4073   3.1464   2.2772 H              1 S1                 0.0000
     24 ****         0.3992   2.9743   1.0948 H              1 S1                 0.0000
     25 ****        -0.3714   5.2178   0.9669 H              1 S1                 0.0000
     26 ****        -1.8919   4.7543   0.2304 H              1 S1                 0.0000
     27 ****        -0.3802   4.5389  -0.6534 H              1 S1                 0.0000
     28 ****        -3.0774   1.6388   0.6902 H              1 S1                 0.0000
     29 ****        -2.9725   2.9467  -0.4679 H              1 S1                 0.0000
     30 ****        -4.0826   0.9931  -1.4673 H              1 S1                 0.0000
     31 ****        -2.5915   1.3485  -2.3100 H              1 S1                 0.0000
     32 ****        -2.9745  -0.7983  -0.1577 H              1 S1                 0.0000
     33 ****        -2.7629  -1.0889  -1.8718 H              1 S1                 0.0000
     34 ****        -0.6265  -1.3797  -0.6296 H              1 S1                 0.0000
     35 ****        -0.5181  -0.1198  -1.8321 H              1 S1                 0.0000
     36 ****        -0.9099   0.2800   1.1783 H              1 S1                 0.0000
     37 ****         0.9564  -0.7377   1.7581 H              1 S1                 0.0000
     38 ****         3.5564   0.4637   1.3061 H              1 S1                 0.0000
     39 ****         3.1486  -0.9580   2.2349 H              1 S1                 0.0000
     40 ****         3.6263  -0.8026  -0.7648 H              1 S1                 0.0000
     41 ****         4.5495  -1.6945   0.4000 H              1 S1                 0.0000
     42 ****         2.7554  -3.8257   1.7995 H              1 S1                 0.0000
     43 ****         0.1286  -4.2224  -2.6941 H              1 S1                 0.0000
     44 ****        -0.6001  -4.9790  -1.2641 H              1 S1                 0.0000
     45 ****         0.7779  -5.7550  -2.0762 H              1 S1                 0.0000
     46 ****         1.8073  -2.3710  -2.1358 H              1 S1                 0.0000
     47 ****        -0.7200   2.2747  -0.9268 H              1 S1                 0.0000
     48 ****         1.1787   1.8480  -1.2288 LP             1 S1                 0.0000
     49 ****         2.6508   1.2577  -0.5328 LP             1 S1                 0.0000
     50 ****         1.1865  -5.3820   0.7202 LP             1 S1                 0.0000
@<TRIPOS>BOND
    1    1    2 1     
    2    1   21 1     
    3    1   22 1     
    4    1   23 1     
    5    2    3 1     
    6    2    4 1     
    7    2   24 1     
    8    3   25 1     
    9    3   26 1     
   10    3   27 1     
   11    4    9 1     
   12    4    5 1     
   13    4   47 1     
   14    5    6 1     
   15    5   28 1     
   16    5   29 1     
   17    6    7 1     
   18    6   30 1     
   19    6   31 1     
   20    7    8 1     
   21    7   32 1     
   22    7   33 1     
   23    8    9 1     
   24    8   34 1     
   25    8   35 1     
   26    9   10 1     
   27    9   36 1     
   28   10   11 2     
   29   10   12 am    
   30   12   13 1     
   31   12   37 1     
   32   13   14 1     
   33   13   38 1     
   34   13   39 1     
   35   14   15 1     
   36   14   40 1     
   37   14   41 1     
   38   15   20 2     
   39   15   16 1     
   40   16   17 2     
   41   16   42 1     
   42   17   18 1     
   43   18   19 1     
   44   18   20 1     
   45   19   43 1     
   46   19   44 1     
   47   19   45 1     
   48   20   46 1     
   49   11   48 1     
   50   11   49 1     
   51   17   50 1     
@<TRIPOS>SUBSTRUCTURE
      1 S1             1
@<TRIPOS>SET
LONE_PAIRS      STATIC     ATOMS    <user>   **** ""
3 48 49 50
DONOR_HYDROGENS      STATIC     ATOMS    <user>   **** ""
2 47 37
ATOM$BLUE        STATIC     ATOMS    COLORGROUP SYSTEM
3 48 49 50
ATOM$RED        STATIC     ATOMS    COLORGROUP SYSTEM
2 47 37
