AV-unprocessed.smi:2226|AV-procd|sdf|9011|dock1
  -GOLD-   2272012213D 1   1.00000     0.00000
 Structure written by MMmdl.
 40 42  0  0  0  0  0  0  0  0  2 V2000
  147.1821  142.3945  157.8311 C   0  0  0  0  0  0  0  0  0  0  0  0
  147.3437  142.2703  156.3628 N   0  3  1  0  0  0  0  0  0  0  0  0
  147.9532  140.9978  155.9084 C   0  0  2  0  0  0  0  0  0  0  0  0
  148.4460  141.1634  154.4519 C   0  0  0  0  0  0  0  0  0  0  0  0
  147.3717  141.6939  153.4826 C   0  0  0  0  0  0  0  0  0  0  0  0
  146.5191  142.8164  154.1036 C   0  0  0  0  0  0  0  0  0  0  0  0
  146.1216  142.5586  155.5753 C   0  0  1  0  0  0  0  0  0  0  0  0
  145.0403  141.4686  155.7842 C   0  0  0  0  0  0  0  0  0  0  0  0
  145.5334  139.9981  155.7133 C   0  0  1  0  0  0  0  0  0  0  0  0
  145.2727  139.3713  154.4196 N   0  0  0  0  0  0  0  0  0  0  0  0
  145.4638  138.0804  154.1079 C   0  0  0  0  0  0  0  0  0  0  0  0
  145.9004  137.2732  154.9345 O   0  0  0  0  0  0  0  0  0  0  0  0
  145.0844  137.8526  152.7937 N   0  0  0  0  0  0  0  0  0  0  0  0
  145.3149  136.6971  152.2514 C   0  0  0  0  0  0  0  0  0  0  0  0
  145.0147  136.2947  150.9599 N   0  0  0  0  0  0  0  0  0  0  0  0
  145.4250  134.9985  150.8119 C   0  0  0  0  0  0  0  0  0  0  0  0
  145.9612  134.6002  151.9619 C   0  0  0  0  0  0  0  0  0  0  0  0
  145.9079  135.6180  152.8655 O   0  0  0  0  0  0  0  0  0  0  0  0
  147.0050  139.7970  156.1513 C   0  0  0  0  0  0  0  0  0  0  0  0
  146.4749  141.6687  158.2321 H   0  0  0  0  0  0  0  0  0  0  0  0
  146.8255  143.3915  158.0907 H   0  0  0  0  0  0  0  0  0  0  0  0
  148.1388  142.2458  158.3324 H   0  0  0  0  0  0  0  0  0  0  0  0
  148.8461  140.8263  156.5115 H   0  0  0  0  0  0  0  0  0  0  0  0
  149.2772  141.8699  154.4538 H   0  0  0  0  0  0  0  0  0  0  0  0
  148.8558  140.2245  154.0784 H   0  0  0  0  0  0  0  0  0  0  0  0
  147.8519  142.0624  152.5755 H   0  0  0  0  0  0  0  0  0  0  0  0
  146.7359  140.8845  153.1407 H   0  0  0  0  0  0  0  0  0  0  0  0
  147.0966  143.7409  154.0649 H   0  0  0  0  0  0  0  0  0  0  0  0
  145.6326  142.9944  153.4938 H   0  0  0  0  0  0  0  0  0  0  0  0
  145.7049  143.4971  155.9443 H   0  0  0  0  0  0  0  0  0  0  0  0
  144.6144  141.6180  156.7769 H   0  0  0  0  0  0  0  0  0  0  0  0
  144.2050  141.6374  155.1036 H   0  0  0  0  0  0  0  0  0  0  0  0
  144.9322  139.4285  156.4250 H   0  0  0  0  0  0  0  0  0  0  0  0
  144.9124  139.9723  153.6925 H   0  0  0  0  0  0  0  0  0  0  0  0
  144.5708  136.8270  150.2254 H   0  0  0  0  0  0  0  0  0  0  0  0
  145.2861  134.4855  149.8717 H   0  0  0  0  0  0  0  0  0  0  0  0
  146.4036  133.6684  152.2819 H   0  0  0  0  0  0  0  0  0  0  0  0
  147.4207  138.8926  155.7047 H   0  0  0  0  0  0  0  0  0  0  0  0
  147.0016  139.5946  157.2229 H   0  0  0  0  0  0  0  0  0  0  0  0
  148.0044  142.9929  156.1144 H   0  0  0  0  0  0  0  0  0  0  0  0
  1  2  1  0  0  0  0
  1 20  1  0  0  0  0
  1 21  1  0  0  0  0
  1 22  1  0  0  0  0
  2  7  1  0  0  0  0
  2  3  1  0  0  0  0
  2 40  1  0  0  0  0
  3 19  1  0  0  0  0
  3  4  1  0  0  0  0
  3 23  1  0  0  0  0
  4  5  1  0  0  0  0
  4 24  1  0  0  0  0
  4 25  1  0  0  0  0
  5  6  1  0  0  0  0
  5 26  1  0  0  0  0
  5 27  1  0  0  0  0
  6  7  1  0  0  0  0
  6 28  1  0  0  0  0
  6 29  1  0  0  0  0
  7  8  1  0  0  0  0
  7 30  1  0  0  0  0
  8  9  1  0  0  0  0
  8 31  1  0  0  0  0
  8 32  1  0  0  0  0
  9 10  1  0  0  0  0
  9 19  1  0  0  0  0
  9 33  1  0  0  0  0
 10 34  1  0  0  0  0
 10 11  1  0  0  0  0
 11 13  1  0  0  0  0
 11 12  2  0  0  0  0
 13 14  2  0  0  0  0
 14 18  1  0  0  0  0
 14 15  1  0  0  0  0
 15 35  1  0  0  0  0
 15 16  1  0  0  0  0
 16 36  1  0  0  0  0
 16 17  2  0  0  0  0
 17 37  1  0  0  0  0
 17 18  1  0  0  0  0
 19 38  1  0  0  0  0
 19 39  1  0  0  0  0
M  CHG  1   2   1
M  END
> <s_m_source_file>
AV-unprocessed.smi

> <i_m_source_file_index>
2226

> <i_lp_mmshare_version>
43012

> <i_f3d_flags>
0

> <s_epik_input>
W0NIMl0xW0NIMl1bQ0gyXVtDQEhdKE4oW0NIM10pW0NIXTEyKVtDSDJdW0NASF0oW0NIMl0yKVtOSF1DKD1PKVtOSF1jM25bY0hdW2NIXW8z

> <s_epik_cmdline>
J2VwaWtfcHl0aG9uJywgJy1waCcsICc3LjAnLCAnLXRuJywgJzgnLCAnLW1hJywgJzIwMCcsICctbWV0YWxfYmluZGluZycsICctaW1hZScsICc8aW5maWxlLm1hZT4nLCAnLW9tYWUnLCAnPG91dGZpbGUubWFlPic=

> <r_lp_tautomer_probability>
0.107061

> <r_epik_Ionization_Penalty>
1.08307

> <r_epik_Ionization_Penalty_Charging>
1.08272

> <r_epik_Ionization_Penalty_Neutral>
0.000345913

> <r_epik_State_Penalty>
2.5744

> <r_epik_Charging_Adjusted_Penalty>
3.65713

> <i_epik_Tot_Q>
1

> <i_epik_Tot_abs_Q>
1

> <r_epik_Metal_State_Penalty>
3.72133

> <b_epik_Metal_Only>
0

> <s_lp_Force_Field>
OPLS_2005

> <r_lp_Energy>
58.9845

> <b_lp_Chiralities_Consistent>
1

> <s_lp_Variant>
AV-unprocessed.smi:2226-11

> <Gold.Version>
5.8.1

> <Gold.Id.Protein>
6NUR|6NUR_protein|mol2

> <Gold.PLP.Fitness>
38.3690

> <Gold.PLP.PLP>
-23.7600

> <Gold.PLP.part.hbond>
-3.0000

> <Gold.PLP.part.metal>
0.0000

> <Gold.PLP.part.buried>
-6.0139

> <Gold.PLP.part.nonpolar>
-16.6938

> <Gold.PLP.part.repulsive>
1.4776

> <Gold.PLP.ligand.clash>
0.0000

> <Gold.PLP.ligand.torsion>
0.0420

> <Gold.PLP.Chemscore.Hbond>
3.8800

> <Gold.PLP.Chemscore.CHOScore>
1.0000

> <Gold.PLP.Chemscore.Metal>
0.0000

> <Gold.Chemscore.Hbonds>
donor molecule, donor type, donor heavy atom, donor atom, acceptor molecule, acceptor atom, score
      L1  H     2    40       P1  8028  2.00
      L1  H    10    34       P1 10175  1.00
      L1  H    15    35       P1 10171  0.88
      L1  C    16    36       P1  7921  1.00

> <Gold.PLP.Chemscore.Internal.Correction>
0.0529

> <Gold.Rescore>
     Score         DG    S(hbond)    S(metal)    S(lipo)     H(rot)  DE(clash)    DE(int)     intcor
     14.48     -16.67       2.57        0.00      44.20       1.00       0.48       1.71       ----

> <Gold.Chemscore.Fitness>
14.4825

> <Gold.Chemscore.DG>
-16.6723

> <Gold.Chemscore.ZeroCoef>
-5.4800

> <Gold.Chemscore.Hbond>
2.5692

> <Gold.Chemscore.Metal>
0.0000

> <Gold.Chemscore.Lipo>
44.1991

> <Gold.Chemscore.Internal_Hbond>
0.0000

> <Gold.Chemscore.DEClash>
0.4774

> <Gold.Chemscore.DEInternal>
1.7124

> <Gold.Chemscore.Rot>
1.0000

> <Gold.Chemscore.Internal.Correction>
   9.000000E+99

> <Gold.Chemscore.Hbonds>
donor molecule, donor type, donor heavy atom, donor atom, acceptor molecule, acceptor atom, score
      L1  H     2    40       P1  8028  0.54
      L1  H    10    34       P1 10175  0.98
      L1  H    15    35       P1 10171  0.86

> <Gold.Chemscore.Hbond.Weighted>
-8.5810

> <Gold.Chemscore.Metal.Weighted>
-0.0000

> <Gold.Chemscore.Lipo.Weighted>
-5.1713

> <Gold.Chemscore.Internal_Hbond.Weighted>
0.0000

> <Gold.Chemscore.DEClash.Weighted>
0.4774

> <Gold.Chemscore.DEInternal.Weighted>
1.7124

> <Gold.Chemscore.Rot.Weighted>
2.5600

> <Gold.Chemscore.Internal.Correction.Weighted>
   9.000000E+99

> <Gold.Protein.RotatedTorsions>
[ 6907 6896 6895 6894 ] final  142.28 input  -60.11 | X-H torsion
[ 7974 7965 7964 7962 ] final   95.21 input  175.53 | X-H torsion
[ 8008 7997 7996 7995 ] final -142.50 input   59.86 | X-H torsion
[ 10167 10162 10161 10158 ] final -175.44 input  -65.29 | X-H torsion
[ 10718 10713 10712 10709 ] final -154.39 input   66.30 | X-H torsion
[ 10763 10752 10751 10750 ] final -135.34 input  -60.55 | X-H torsion
[ 11005 11000 10999 10996 ] final  -97.21 input  -57.11 | X-H torsion

> <Gold.Protein.ActiveResidues>
 VAL166  LYS551  ARG553  GLY616  TRP617  ASP618  TYR619  PRO620  LYS621  CYS622 
 ASP623  PHE694  ASN695  SER759  ASP760  ASP761  ALA762  ILE779  LEU786  VAL792 
 PHE793  MET794  SER795  GLU796  ALA797  LYS798  CYS799  TRP800  GLU811  SER814 

> <Gold.Protein.RotatedAtoms>
  152.2207  133.4981  159.5160 H   0  0  0  0  0  0  0  0  0  0  0  0  # atno 6907 bound_to 6896
  150.7012  134.1346  159.4091 H   0  0  0  0  0  0  0  0  0  0  0  0  # atno 6908 bound_to 6896
  151.9267  135.0274  160.0577 H   0  0  0  0  0  0  0  0  0  0  0  0  # atno 6909 bound_to 6896
  145.4552  139.2290  143.3018 H   0  0  0  0  0  0  0  0  0  0  0  0  # atno 7974 bound_to 7965
  155.4953  140.0571  157.2947 H   0  0  0  0  0  0  0  0  0  0  0  0  # atno 8008 bound_to 7997
  154.4607  140.1995  156.0202 H   0  0  0  0  0  0  0  0  0  0  0  0  # atno 8009 bound_to 7997
  156.0885  140.3237  155.7789 H   0  0  0  0  0  0  0  0  0  0  0  0  # atno 8010 bound_to 7997
  139.5581  144.1938  152.1193 H   0  0  0  0  0  0  0  0  0  0  0  0  # atno 10167 bound_to 10162
  156.4986  130.8381  151.2600 H   0  0  0  0  0  0  0  0  0  0  0  0  # atno 10718 bound_to 10713
  154.8704  135.3706  154.4882 H   0  0  0  0  0  0  0  0  0  0  0  0  # atno 10763 bound_to 10752
  153.5531  135.7024  153.5587 H   0  0  0  0  0  0  0  0  0  0  0  0  # atno 10764 bound_to 10752
  153.3697  135.4025  155.1743 H   0  0  0  0  0  0  0  0  0  0  0  0  # atno 10765 bound_to 10752
  141.1386  133.8154  157.0675 H   0  0  0  0  0  0  0  0  0  0  0  0  # atno 11005 bound_to 11000
  146.2482  140.5315  142.8905 LP  0  0  0  0  0  0  0  0  0  0  0  0  # atno 17320 bound_to 7965
  144.8037  140.6260  143.6461 LP  0  0  0  0  0  0  0  0  0  0  0  0  # atno 17321 bound_to 7965
  140.1446  144.5170  150.6723 LP  0  0  0  0  0  0  0  0  0  0  0  0  # atno 17342 bound_to 10162
  140.6857  143.2349  151.5267 LP  0  0  0  0  0  0  0  0  0  0  0  0  # atno 17343 bound_to 10162
  157.7465  130.9989  150.2871 LP  0  0  0  0  0  0  0  0  0  0  0  0  # atno 17370 bound_to 10713
  156.3355  130.3807  149.7454 LP  0  0  0  0  0  0  0  0  0  0  0  0  # atno 17371 bound_to 10713
  140.0532  134.9794  157.1173 LP  0  0  0  0  0  0  0  0  0  0  0  0  # atno 17394 bound_to 11000
  140.3959  134.2135  155.7164 LP  0  0  0  0  0  0  0  0  0  0  0  0  # atno 17395 bound_to 11000

$$$$
