AV-unprocessed.smi:3126|AV-procd|sdf|11913|dock5
  -GOLD-   2272017293D 1   1.00000     0.00000
 Structure written by MMmdl.
 42 43  0  0  0  0  0  0  0  0  2 V2000
  146.1281  142.7611  153.6778 C   0  0  0  0  0  0  0  0  0  0  0  0
  147.4204  141.9331  153.6787 C   0  0  0  0  0  0  0  0  0  0  0  0
  148.2016  141.9847  155.0076 C   0  0  1  0  0  0  0  0  0  0  0  0
  147.4787  141.2339  156.1461 C   0  0  0  0  0  0  0  0  0  0  0  0
  148.2818  141.2741  157.4556 C   0  0  0  0  0  0  0  0  0  0  0  0
  149.7007  140.7145  157.2637 C   0  0  0  0  0  0  0  0  0  0  0  0
  150.4535  141.4232  156.1224 C   0  0  2  0  0  0  0  0  0  0  0  0
  150.8179  142.8057  156.5073 N   0  3  0  0  0  0  0  0  0  0  0  0
  151.0737  143.0037  157.9474 C   0  0  0  0  0  0  0  0  0  0  0  0
  152.2505  142.1410  158.4205 C   0  0  0  0  0  0  0  0  0  0  0  0
  152.6049  142.4082  159.8698 C   0  0  0  0  0  0  0  0  0  0  0  0
  152.0504  143.5064  160.5593 C   0  0  0  0  0  0  0  0  0  0  0  0
  152.4134  143.7177  161.9030 C   0  0  0  0  0  0  0  0  0  0  0  0
  153.3190  142.8196  162.5023 C   0  0  0  0  0  0  0  0  0  0  0  0
  153.8571  141.7656  161.8515 N   0  0  0  0  0  0  0  0  0  0  0  0
  153.5028  141.5690  160.5637 C   0  0  0  0  0  0  0  0  0  0  0  0
  149.6261  141.4172  154.8222 C   0  0  0  0  0  0  0  0  0  0  0  0
  145.6619  142.7430  152.6924 H   0  0  0  0  0  0  0  0  0  0  0  0
  146.3265  143.8032  153.9293 H   0  0  0  0  0  0  0  0  0  0  0  0
  145.3989  142.3738  154.3888 H   0  0  0  0  0  0  0  0  0  0  0  0
  147.1912  140.8982  153.4214 H   0  0  0  0  0  0  0  0  0  0  0  0
  148.0574  142.3071  152.8764 H   0  0  0  0  0  0  0  0  0  0  0  0
  148.2939  143.0330  155.2960 H   0  0  0  0  0  0  0  0  0  0  0  0
  146.4949  141.6671  156.3244 H   0  0  0  0  0  0  0  0  0  0  0  0
  147.3098  140.1962  155.8548 H   0  0  0  0  0  0  0  0  0  0  0  0
  148.3346  142.3003  157.8212 H   0  0  0  0  0  0  0  0  0  0  0  0
  147.7614  140.7021  158.2244 H   0  0  0  0  0  0  0  0  0  0  0  0
  150.2644  140.7885  158.1946 H   0  0  0  0  0  0  0  0  0  0  0  0
  149.6314  139.6499  157.0361 H   0  0  0  0  0  0  0  0  0  0  0  0
  151.3708  140.8640  155.9306 H   0  0  0  0  0  0  0  0  0  0  0  0
  151.6527  143.0634  156.0003 H   0  0  0  0  0  0  0  0  0  0  0  0
  151.2827  144.0581  158.1349 H   0  0  0  0  0  0  0  0  0  0  0  0
  150.1736  142.7452  158.5073 H   0  0  0  0  0  0  0  0  0  0  0  0
  152.0109  141.0830  158.3038 H   0  0  0  0  0  0  0  0  0  0  0  0
  153.1279  142.3290  157.7996 H   0  0  0  0  0  0  0  0  0  0  0  0
  151.3602  144.1768  160.0683 H   0  0  0  0  0  0  0  0  0  0  0  0
  152.0078  144.5480  162.4622 H   0  0  0  0  0  0  0  0  0  0  0  0
  153.6191  142.9520  163.5313 H   0  0  0  0  0  0  0  0  0  0  0  0
  153.9518  140.7186  160.0721 H   0  0  0  0  0  0  0  0  0  0  0  0
  149.5541  140.3920  154.4558 H   0  0  0  0  0  0  0  0  0  0  0  0
  150.1561  141.9743  154.0482 H   0  0  0  0  0  0  0  0  0  0  0  0
  150.0698  143.4224  156.2234 H   0  0  0  0  0  0  0  0  0  0  0  0
  1  2  1  0  0  0  0
  1 18  1  0  0  0  0
  1 19  1  0  0  0  0
  1 20  1  0  0  0  0
  2  3  1  0  0  0  0
  2 21  1  0  0  0  0
  2 22  1  0  0  0  0
  3 17  1  0  0  0  0
  3  4  1  0  0  0  0
  3 23  1  0  0  0  0
  4  5  1  0  0  0  0
  4 24  1  0  0  0  0
  4 25  1  0  0  0  0
  5  6  1  0  0  0  0
  5 26  1  0  0  0  0
  5 27  1  0  0  0  0
  6  7  1  0  0  0  0
  6 28  1  0  0  0  0
  6 29  1  0  0  0  0
  7  8  1  0  0  0  0
  7 17  1  0  0  0  0
  7 30  1  0  0  0  0
  8  9  1  0  0  0  0
  8 31  1  0  0  0  0
  8 42  1  0  0  0  0
  9 10  1  0  0  0  0
  9 32  1  0  0  0  0
  9 33  1  0  0  0  0
 10 11  1  0  0  0  0
 10 34  1  0  0  0  0
 10 35  1  0  0  0  0
 11 16  1  0  0  0  0
 11 12  2  0  0  0  0
 12 13  1  0  0  0  0
 12 36  1  0  0  0  0
 13 14  2  0  0  0  0
 13 37  1  0  0  0  0
 14 15  1  0  0  0  0
 14 38  1  0  0  0  0
 15 16  2  0  0  0  0
 16 39  1  0  0  0  0
 17 40  1  0  0  0  0
 17 41  1  0  0  0  0
M  CHG  1   8   1
M  END
> <s_m_source_file>
AV-unprocessed.smi

> <i_m_source_file_index>
3126

> <i_lp_mmshare_version>
43012

> <i_f3d_flags>
0

> <s_epik_input>
W0NIM11bQ0gyXVtDQEBIXTFbQ0gyXVtDSDJdW0NIMl1bQ0BIXShbQ0gyXTEpW05IXVtDSDJdW0NIMl1jMltjSF1bY0hdW2NIXW5bY0hdMg==

> <s_epik_cmdline>
J2VwaWtfcHl0aG9uJywgJy1waCcsICc3LjAnLCAnLXRuJywgJzgnLCAnLW1hJywgJzIwMCcsICctbWV0YWxfYmluZGluZycsICctaW1hZScsICc8aW5maWxlLm1hZT4nLCAnLW9tYWUnLCAnPG91dGZpbGUubWFlPic=

> <r_lp_tautomer_probability>
1

> <r_epik_Ionization_Penalty>
0.000947364

> <r_epik_Ionization_Penalty_Charging>
0.000286103

> <r_epik_Ionization_Penalty_Neutral>
0.000661261

> <r_epik_State_Penalty>
-0

> <r_epik_Charging_Adjusted_Penalty>
0.000286103

> <i_epik_Tot_Q>
1

> <i_epik_Tot_abs_Q>
1

> <r_epik_Metal_State_Penalty>
-0

> <b_epik_Metal_Only>
0

> <s_lp_Force_Field>
OPLS_2005

> <r_lp_Energy>
19.3892

> <b_lp_Chiralities_Consistent>
1

> <s_lp_Variant>
AV-unprocessed.smi:3126-4

> <Gold.Version>
5.8.1

> <Gold.Id.Protein>
6NUR|6NUR_protein|mol2

> <Gold.PLP.Fitness>
47.5708

> <Gold.PLP.PLP>
-42.5474

> <Gold.PLP.part.hbond>
-1.1334

> <Gold.PLP.part.metal>
0.0000

> <Gold.PLP.part.buried>
-4.4315

> <Gold.PLP.part.nonpolar>
-35.8488

> <Gold.PLP.part.repulsive>
0.0708

> <Gold.PLP.ligand.clash>
0.0000

> <Gold.PLP.ligand.torsion>
0.5079

> <Gold.PLP.Chemscore.Hbond>
2.0000

> <Gold.PLP.Chemscore.CHOScore>
0.0000

> <Gold.PLP.Chemscore.Metal>
0.0000

> <Gold.Chemscore.Hbonds>
donor molecule, donor type, donor heavy atom, donor atom, acceptor molecule, acceptor atom, score
      L1  H     8    42       P1  8028  2.00

> <Gold.PLP.Chemscore.Internal.Correction>
0.0392

> <Gold.Rescore>
     Score         DG    S(hbond)    S(metal)    S(lipo)     H(rot)  DE(clash)    DE(int)     intcor
     18.28     -18.91       0.99        0.00     116.19       1.35       0.15       0.47       ----

> <Gold.Chemscore.Fitness>
18.2843

> <Gold.Chemscore.DG>
-18.9105

> <Gold.Chemscore.ZeroCoef>
-5.4800

> <Gold.Chemscore.Hbond>
0.9863

> <Gold.Chemscore.Metal>
0.0000

> <Gold.Chemscore.Lipo>
116.1880

> <Gold.Chemscore.Internal_Hbond>
0.0000

> <Gold.Chemscore.DEClash>
0.1550

> <Gold.Chemscore.DEInternal>
0.4712

> <Gold.Chemscore.Rot>
1.3507

> <Gold.Chemscore.Internal.Correction>
   9.000000E+99

> <Gold.Chemscore.Hbonds>
donor molecule, donor type, donor heavy atom, donor atom, acceptor molecule, acceptor atom, score
      L1  H     8    42       P1  8028  1.00

> <Gold.Chemscore.Hbond.Weighted>
-3.2944

> <Gold.Chemscore.Metal.Weighted>
-0.0000

> <Gold.Chemscore.Lipo.Weighted>
-13.5940

> <Gold.Chemscore.Internal_Hbond.Weighted>
0.0000

> <Gold.Chemscore.DEClash.Weighted>
0.1550

> <Gold.Chemscore.DEInternal.Weighted>
0.4712

> <Gold.Chemscore.Rot.Weighted>
3.4579

> <Gold.Chemscore.Internal.Correction.Weighted>
   9.000000E+99

> <Gold.Protein.RotatedTorsions>
[ 6907 6896 6895 6894 ] final -165.86 input  -60.11 | X-H torsion
[ 7974 7965 7964 7962 ] final  148.51 input  175.53 | X-H torsion
[ 8008 7997 7996 7995 ] final   78.65 input   59.86 | X-H torsion
[ 10167 10162 10161 10158 ] final  179.98 input  -65.29 | X-H torsion
[ 10718 10713 10712 10709 ] final  162.56 input   66.30 | X-H torsion
[ 10763 10752 10751 10750 ] final   33.95 input  -60.55 | X-H torsion
[ 11005 11000 10999 10996 ] final -170.77 input  -57.11 | X-H torsion

> <Gold.Protein.ActiveResidues>
 VAL166  LYS551  ARG553  GLY616  TRP617  ASP618  TYR619  PRO620  LYS621  CYS622 
 ASP623  PHE694  ASN695  SER759  ASP760  ASP761  ALA762  ILE779  LEU786  VAL792 
 PHE793  MET794  SER795  GLU796  ALA797  LYS798  CYS799  TRP800  GLU811  SER814 

> <Gold.Protein.RotatedAtoms>
  151.4343  133.3661  159.2772 H   0  0  0  0  0  0  0  0  0  0  0  0  # atno 6907 bound_to 6896
  150.9202  134.8622  159.7495 H   0  0  0  0  0  0  0  0  0  0  0  0  # atno 6908 bound_to 6896
  152.4978  134.4280  159.9555 H   0  0  0  0  0  0  0  0  0  0  0  0  # atno 6909 bound_to 6896
  144.8508  139.6163  143.5974 H   0  0  0  0  0  0  0  0  0  0  0  0  # atno 7974 bound_to 7965
  155.8586  140.3455  155.5741 H   0  0  0  0  0  0  0  0  0  0  0  0  # atno 8008 bound_to 7997
  155.7958  140.0878  157.2003 H   0  0  0  0  0  0  0  0  0  0  0  0  # atno 8009 bound_to 7997
  154.4010  140.1474  156.3204 H   0  0  0  0  0  0  0  0  0  0  0  0  # atno 8010 bound_to 7997
  139.5360  144.2496  152.0795 H   0  0  0  0  0  0  0  0  0  0  0  0  # atno 10167 bound_to 10162
  157.1208  131.0492  151.2416 H   0  0  0  0  0  0  0  0  0  0  0  0  # atno 10718 bound_to 10713
  153.0187  135.6373  154.1593 H   0  0  0  0  0  0  0  0  0  0  0  0  # atno 10763 bound_to 10752
  154.1329  135.2839  155.3182 H   0  0  0  0  0  0  0  0  0  0  0  0  # atno 10764 bound_to 10752
  154.6181  135.5534  153.7607 H   0  0  0  0  0  0  0  0  0  0  0  0  # atno 10765 bound_to 10752
  140.5157  134.5758  157.5032 H   0  0  0  0  0  0  0  0  0  0  0  0  # atno 11005 bound_to 11000
  146.2783  139.6811  142.9247 LP  0  0  0  0  0  0  0  0  0  0  0  0  # atno 17320 bound_to 7965
  145.4503  141.0428  143.2808 LP  0  0  0  0  0  0  0  0  0  0  0  0  # atno 17321 bound_to 7965
  140.1967  144.4698  150.6452 LP  0  0  0  0  0  0  0  0  0  0  0  0  # atno 17342 bound_to 10162
  140.6566  143.2239  151.5953 LP  0  0  0  0  0  0  0  0  0  0  0  0  # atno 17343 bound_to 10162
  157.4478  130.7581  149.7125 LP  0  0  0  0  0  0  0  0  0  0  0  0  # atno 17370 bound_to 10713
  155.9829  130.4005  150.3392 LP  0  0  0  0  0  0  0  0  0  0  0  0  # atno 17371 bound_to 10713
  139.9634  134.7414  156.0190 LP  0  0  0  0  0  0  0  0  0  0  0  0  # atno 17394 bound_to 11000
  141.1361  133.6575  156.3599 LP  0  0  0  0  0  0  0  0  0  0  0  0  # atno 17395 bound_to 11000

$$$$
