AV-unprocessed.smi:92|AV-procd|sdf|844|dock3
  -GOLD-   2262017283D 1   1.00000     0.00000
 Structure written by MMmdl.
 61 64  0  0  0  0  0  0  0  0  2 V2000
  151.9857  144.4413  158.2802 C   0  0  0  0  0  0  0  0  0  0  0  0
  150.7697  143.6185  158.7303 C   0  0  0  0  0  0  0  0  0  0  0  0
  150.0660  142.9730  157.5930 N   0  3  1  0  0  0  0  0  0  0  0  0
  150.9035  141.9790  156.8734 C   0  0  0  0  0  0  0  0  0  0  0  0
  150.1859  141.4686  155.6165 C   0  0  0  0  0  0  0  0  0  0  0  0
  148.8075  140.8687  155.9682 C   0  0  2  0  0  0  0  0  0  0  0  0
  148.1218  140.2920  154.8009 N   0  0  0  0  0  0  0  0  0  0  0  0
  147.6402  141.2068  153.7709 C   0  0  0  0  0  0  0  0  0  0  0  0
  147.4586  139.1051  154.8483 C   0  0  0  0  0  0  0  0  0  0  0  0
  147.3137  138.4463  156.0278 N   0  0  0  0  0  0  0  0  0  0  0  0
  146.6492  137.2885  156.0814 C   0  0  0  0  0  0  0  0  0  0  0  0
  146.0609  136.6185  155.0896 N   0  0  0  0  0  0  0  0  0  0  0  0
  146.2039  137.2694  153.9000 C   0  0  0  0  0  0  0  0  0  0  0  0
  146.8742  138.5089  153.6942 C   0  0  0  0  0  0  0  0  0  0  0  0
  146.8071  138.8632  152.3520 N   0  0  0  0  0  0  0  0  0  0  0  0
  146.1264  137.8969  151.7994 C   0  0  0  0  0  0  0  0  0  0  0  0
  145.7514  136.8819  152.6502 N   0  0  0  0  0  0  0  0  0  0  0  0
  144.9707  135.7268  152.3140 C   0  0  0  0  0  0  0  0  0  0  0  0
  145.4652  134.3152  152.6425 C   0  0  0  0  0  0  0  0  0  0  0  0
  144.8596  133.7810  151.3257 C   0  0  0  0  0  0  0  0  0  0  0  0
  145.7849  132.8684  150.5060 C   0  0  0  0  0  0  0  0  0  0  0  0
  145.2950  132.6845  149.1933 O   0  0  0  0  0  0  0  0  0  0  0  0
  143.4879  133.0752  151.4140 C   0  0  0  0  0  0  0  0  0  0  0  0
  142.9766  132.6858  150.1554 O   0  0  0  0  0  0  0  0  0  0  0  0
  144.8412  135.2547  150.8617 C   0  0  0  0  0  0  0  0  0  0  0  0
  147.9585  141.8799  156.7851 C   0  0  1  0  0  0  0  0  0  0  0  0
  146.6234  141.2741  157.2531 C   0  0  0  0  0  0  0  0  0  0  0  0
  148.7639  142.3852  158.0000 C   0  0  0  0  0  0  0  0  0  0  0  0
  152.4158  144.9802  159.1247 H   0  0  0  0  0  0  0  0  0  0  0  0
  151.7060  145.1785  157.5268 H   0  0  0  0  0  0  0  0  0  0  0  0
  152.7747  143.8158  157.8635 H   0  0  0  0  0  0  0  0  0  0  0  0
  151.0617  142.8682  159.4663 H   0  0  0  0  0  0  0  0  0  0  0  0
  150.0838  144.2977  159.2382 H   0  0  0  0  0  0  0  0  0  0  0  0
  151.8534  142.4220  156.5772 H   0  0  0  0  0  0  0  0  0  0  0  0
  151.1377  141.1459  157.5380 H   0  0  0  0  0  0  0  0  0  0  0  0
  150.0866  142.2940  154.9127 H   0  0  0  0  0  0  0  0  0  0  0  0
  150.8091  140.7218  155.1237 H   0  0  0  0  0  0  0  0  0  0  0  0
  148.9963  140.0247  156.6336 H   0  0  0  0  0  0  0  0  0  0  0  0
  148.1415  141.0080  152.8236 H   0  0  0  0  0  0  0  0  0  0  0  0
  147.8415  142.2445  154.0374 H   0  0  0  0  0  0  0  0  0  0  0  0
  146.5643  141.1057  153.6199 H   0  0  0  0  0  0  0  0  0  0  0  0
  146.5794  136.8332  157.0583 H   0  0  0  0  0  0  0  0  0  0  0  0
  145.8858  137.8955  150.7462 H   0  0  0  0  0  0  0  0  0  0  0  0
  143.9869  135.8986  152.7519 H   0  0  0  0  0  0  0  0  0  0  0  0
  146.5548  134.2545  152.6621 H   0  0  0  0  0  0  0  0  0  0  0  0
  145.0360  133.8897  153.5502 H   0  0  0  0  0  0  0  0  0  0  0  0
  146.7956  133.2746  150.4529 H   0  0  0  0  0  0  0  0  0  0  0  0
  145.8724  131.8843  150.9676 H   0  0  0  0  0  0  0  0  0  0  0  0
  145.4090  133.4921  148.7153 H   0  0  0  0  0  0  0  0  0  0  0  0
  143.5545  132.1803  152.0333 H   0  0  0  0  0  0  0  0  0  0  0  0
  142.7445  133.7219  151.8804 H   0  0  0  0  0  0  0  0  0  0  0  0
  142.1967  133.1896  149.9791 H   0  0  0  0  0  0  0  0  0  0  0  0
  143.9212  135.5697  150.3681 H   0  0  0  0  0  0  0  0  0  0  0  0
  145.7126  135.5203  150.2608 H   0  0  0  0  0  0  0  0  0  0  0  0
  147.7307  142.7522  156.1739 H   0  0  0  0  0  0  0  0  0  0  0  0
  146.7844  140.3882  157.8682 H   0  0  0  0  0  0  0  0  0  0  0  0
  145.9958  140.9834  156.4106 H   0  0  0  0  0  0  0  0  0  0  0  0
  146.0534  141.9905  157.8452 H   0  0  0  0  0  0  0  0  0  0  0  0
  148.9392  141.5718  158.7066 H   0  0  0  0  0  0  0  0  0  0  0  0
  148.1758  143.1381  158.5268 H   0  0  0  0  0  0  0  0  0  0  0  0
  149.8494  143.7093  156.9363 H   0  0  0  0  0  0  0  0  0  0  0  0
  1  2  1  0  0  0  0
  1 29  1  0  0  0  0
  1 30  1  0  0  0  0
  1 31  1  0  0  0  0
  2  3  1  0  0  0  0
  2 32  1  0  0  0  0
  2 33  1  0  0  0  0
  3 28  1  0  0  0  0
  3  4  1  0  0  0  0
  3 61  1  0  0  0  0
  4  5  1  0  0  0  0
  4 34  1  0  0  0  0
  4 35  1  0  0  0  0
  5  6  1  0  0  0  0
  5 36  1  0  0  0  0
  5 37  1  0  0  0  0
  6  7  1  0  0  0  0
  6 26  1  0  0  0  0
  6 38  1  0  0  0  0
  7  8  1  0  0  0  0
  7  9  1  0  0  0  0
  8 39  1  0  0  0  0
  8 40  1  0  0  0  0
  8 41  1  0  0  0  0
  9 14  1  0  0  0  0
  9 10  2  0  0  0  0
 10 11  1  0  0  0  0
 11 12  2  0  0  0  0
 11 42  1  0  0  0  0
 12 13  1  0  0  0  0
 13 17  1  0  0  0  0
 13 14  2  0  0  0  0
 14 15  1  0  0  0  0
 15 16  2  0  0  0  0
 16 17  1  0  0  0  0
 16 43  1  0  0  0  0
 17 18  1  0  0  0  0
 18 25  1  0  0  0  0
 18 19  1  0  0  0  0
 18 44  1  0  0  0  0
 19 20  1  0  0  0  0
 19 45  1  0  0  0  0
 19 46  1  0  0  0  0
 20 21  1  0  0  0  0
 20 23  1  0  0  0  0
 20 25  1  0  0  0  0
 21 22  1  0  0  0  0
 21 47  1  0  0  0  0
 21 48  1  0  0  0  0
 22 49  1  0  0  0  0
 23 24  1  0  0  0  0
 23 50  1  0  0  0  0
 23 51  1  0  0  0  0
 24 52  1  0  0  0  0
 25 53  1  0  0  0  0
 25 54  1  0  0  0  0
 26 27  1  0  0  0  0
 26 28  1  0  0  0  0
 26 55  1  0  0  0  0
 27 56  1  0  0  0  0
 27 57  1  0  0  0  0
 27 58  1  0  0  0  0
 28 59  1  0  0  0  0
 28 60  1  0  0  0  0
M  CHG  1   3   1
M  END
> <s_m_source_file>
AV-unprocessed.smi

> <i_m_source_file_index>
92

> <i_lp_mmshare_version>
43012

> <i_f3d_flags>
0

> <s_epik_input>
W0NIM11bQ0gyXU4xW0NIMl1bQ0gyXVtDQEhdKFtDQEBIXShbQ0gzXSlbQ0gyXTEpTihbQ0gzXSljKG5bY0hdbjIpYyhjMjMpbltjSF1uM1tDSF0oW0NIMl00KVtDSDJdQzQoW0NIMl1bT0hdKVtDSDJdW09IXQ==

> <s_epik_cmdline>
J2VwaWtfcHl0aG9uJywgJy1waCcsICc3LjAnLCAnLXRuJywgJzgnLCAnLW1hJywgJzIwMCcsICctbWV0YWxfYmluZGluZycsICctaW1hZScsICc8aW5maWxlLm1hZT4nLCAnLW9tYWUnLCAnPG91dGZpbGUubWFlPic=

> <r_lp_tautomer_probability>
1

> <r_epik_Ionization_Penalty>
0.00235514

> <r_epik_Ionization_Penalty_Charging>
0.00137877

> <r_epik_Ionization_Penalty_Neutral>
0.000976366

> <r_epik_State_Penalty>
-0

> <r_epik_Charging_Adjusted_Penalty>
0.00137877

> <i_epik_Tot_Q>
1

> <i_epik_Tot_abs_Q>
1

> <r_epik_Metal_State_Penalty>
-0

> <b_epik_Metal_Only>
0

> <s_lp_Force_Field>
OPLS_2005

> <r_lp_Energy>
51.4593

> <b_lp_Chiralities_Consistent>
1

> <s_lp_Variant>
AV-unprocessed.smi:92-4

> <Gold.Version>
5.8.1

> <Gold.Id.Protein>
6NUR|6NUR_protein|mol2

> <Gold.PLP.Fitness>
57.2098

> <Gold.PLP.PLP>
-43.0934

> <Gold.PLP.part.hbond>
-3.3769

> <Gold.PLP.part.metal>
0.0000

> <Gold.PLP.part.buried>
-6.5094

> <Gold.PLP.part.nonpolar>
-34.4578

> <Gold.PLP.part.repulsive>
0.3753

> <Gold.PLP.ligand.clash>
0.0000

> <Gold.PLP.ligand.torsion>
0.9875

> <Gold.PLP.Chemscore.Hbond>
4.0000

> <Gold.PLP.Chemscore.CHOScore>
0.9315

> <Gold.PLP.Chemscore.Metal>
0.0000

> <Gold.Chemscore.Hbonds>
donor molecule, donor type, donor heavy atom, donor atom, acceptor molecule, acceptor atom, score
      L1  H     3    61       P1  8028  2.00
      L1  H    22    49       P1  7921  1.00
      L1  H    24    52       P1 10186  1.00
      L1  C    16    43       P1 10171  0.93

> <Gold.PLP.Chemscore.Internal.Correction>
1.2968

> <Gold.Rescore>
     Score         DG    S(hbond)    S(metal)    S(lipo)     H(rot)  DE(clash)    DE(int)     intcor
     15.24     -17.83       2.76        0.00      97.16       3.22       0.20       2.39       ----

> <Gold.Chemscore.Fitness>
15.2374

> <Gold.Chemscore.DG>
-17.8288

> <Gold.Chemscore.ZeroCoef>
-5.4800

> <Gold.Chemscore.Hbond>
2.7633

> <Gold.Chemscore.Metal>
0.0000

> <Gold.Chemscore.Lipo>
97.1592

> <Gold.Chemscore.Internal_Hbond>
0.0000

> <Gold.Chemscore.DEClash>
0.2024

> <Gold.Chemscore.DEInternal>
2.3890

> <Gold.Chemscore.Rot>
3.2219

> <Gold.Chemscore.Internal.Correction>
   9.000000E+99

> <Gold.Chemscore.Hbonds>
donor molecule, donor type, donor heavy atom, donor atom, acceptor molecule, acceptor atom, score
      L1  H     3    61       P1  8028  0.97
      L1  H    22    49       P1  7921  0.35
      L1  H    24    52       P1 10186  1.00

> <Gold.Chemscore.Hbond.Weighted>
-9.2294

> <Gold.Chemscore.Metal.Weighted>
-0.0000

> <Gold.Chemscore.Lipo.Weighted>
-11.3676

> <Gold.Chemscore.Internal_Hbond.Weighted>
0.0000

> <Gold.Chemscore.DEClash.Weighted>
0.2024

> <Gold.Chemscore.DEInternal.Weighted>
2.3890

> <Gold.Chemscore.Rot.Weighted>
8.2482

> <Gold.Chemscore.Internal.Correction.Weighted>
   9.000000E+99

> <Gold.Protein.RotatedTorsions>
[ 6907 6896 6895 6894 ] final  160.11 input  -60.11 | X-H torsion
[ 7974 7965 7964 7962 ] final  -24.94 input  175.53 | X-H torsion
[ 8008 7997 7996 7995 ] final  120.30 input   59.86 | X-H torsion
[ 10167 10162 10161 10158 ] final  -35.13 input  -65.29 | X-H torsion
[ 10718 10713 10712 10709 ] final -162.35 input   66.30 | X-H torsion
[ 10763 10752 10751 10750 ] final  -98.03 input  -60.55 | X-H torsion
[ 11005 11000 10999 10996 ] final   83.65 input  -57.11 | X-H torsion

> <Gold.Protein.ActiveResidues>
 VAL166  LYS551  ARG553  GLY616  TRP617  ASP618  TYR619  PRO620  LYS621  CYS622 
 ASP623  PHE694  ASN695  SER759  ASP760  ASP761  ALA762  ILE779  LEU786  VAL792 
 PHE793  MET794  SER795  GLU796  ALA797  LYS798  CYS799  TRP800  GLU811  SER814 

> <Gold.Protein.RotatedAtoms>
  151.9756  133.3740  159.4087 H   0  0  0  0  0  0  0  0  0  0  0  0  # atno 6907 bound_to 6896
  150.6942  134.4094  159.5164 H   0  0  0  0  0  0  0  0  0  0  0  0  # atno 6908 bound_to 6896
  152.1804  134.8758  160.0577 H   0  0  0  0  0  0  0  0  0  0  0  0  # atno 6909 bound_to 6896
  146.1523  140.4820  142.8606 H   0  0  0  0  0  0  0  0  0  0  0  0  # atno 7974 bound_to 7965
  156.2636  140.2834  156.1128 H   0  0  0  0  0  0  0  0  0  0  0  0  # atno 8008 bound_to 7997
  155.1239  140.0392  157.2774 H   0  0  0  0  0  0  0  0  0  0  0  0  # atno 8009 bound_to 7997
  154.6650  140.2575  155.7074 H   0  0  0  0  0  0  0  0  0  0  0  0  # atno 8010 bound_to 7997
  140.7171  143.3499  151.2178 H   0  0  0  0  0  0  0  0  0  0  0  0  # atno 10167 bound_to 10162
  156.6092  130.8843  151.2932 H   0  0  0  0  0  0  0  0  0  0  0  0  # atno 10718 bound_to 10713
  154.7380  135.5024  153.9073 H   0  0  0  0  0  0  0  0  0  0  0  0  # atno 10763 bound_to 10752
  153.1014  135.6686  153.9674 H   0  0  0  0  0  0  0  0  0  0  0  0  # atno 10764 bound_to 10752
  153.9459  135.3063  155.3420 H   0  0  0  0  0  0  0  0  0  0  0  0  # atno 10765 bound_to 10752
  139.9024  134.8160  156.2339 H   0  0  0  0  0  0  0  0  0  0  0  0  # atno 11005 bound_to 11000
  144.7919  140.6048  143.6536 LP  0  0  0  0  0  0  0  0  0  0  0  0  # atno 17320 bound_to 7965
  145.4794  139.1496  143.3770 LP  0  0  0  0  0  0  0  0  0  0  0  0  # atno 17321 bound_to 7965
  139.7027  143.9506  152.2913 LP  0  0  0  0  0  0  0  0  0  0  0  0  # atno 17342 bound_to 10162
  139.9205  144.6803  150.8467 LP  0  0  0  0  0  0  0  0  0  0  0  0  # atno 17343 bound_to 10162
  157.7259  130.9622  150.1633 LP  0  0  0  0  0  0  0  0  0  0  0  0  # atno 17370 bound_to 10713
  156.2404  130.3690  149.8343 LP  0  0  0  0  0  0  0  0  0  0  0  0  # atno 17371 bound_to 10713
  141.0328  133.6979  156.1460 LP  0  0  0  0  0  0  0  0  0  0  0  0  # atno 17394 bound_to 11000
  140.7071  134.4501  157.5583 LP  0  0  0  0  0  0  0  0  0  0  0  0  # atno 17395 bound_to 11000

$$$$
