AV-unprocessed.smi:3281|AV-procd|sdf|12557|dock6
  -GOLD-   2272018473D 1   1.00000     0.00000
 Structure written by MMmdl.
 37 38  0  0  0  0  0  0  0  0  2 V2000
  149.6551  135.2502  154.9761 C   0  0  0  0  0  0  0  0  0  0  0  0
  151.0793  135.7368  155.2666 C   0  0  0  0  0  0  0  0  0  0  0  0
  151.2085  137.2247  155.2510 C   0  0  0  0  0  0  0  0  0  0  0  0
  151.0056  138.0718  154.1892 C   0  0  0  0  0  0  0  0  0  0  0  0
  151.2058  139.4198  154.4956 N   0  0  0  0  0  0  0  0  0  0  0  0
  151.5739  139.6041  155.7653 C   0  0  0  0  0  0  0  0  0  0  0  0
  151.8271  140.9478  156.3613 C   0  0  0  0  0  0  0  0  0  0  0  0
  150.6938  141.9401  156.0723 C   0  0  0  0  0  0  0  0  0  0  0  0
  150.9970  143.2690  156.6396 N   0  3  0  0  0  0  0  0  0  0  0  0
  151.0584  143.3156  158.1166 C   0  0  1  0  0  0  0  0  0  0  0  0
  152.4541  142.8689  158.5932 C   0  0  0  0  0  0  0  0  0  0  0  0
  152.5819  142.8429  160.1257 C   0  0  0  0  0  0  0  0  0  0  0  0
  152.3489  144.2221  160.7581 C   0  0  0  0  0  0  0  0  0  0  0  0
  150.6724  144.8219  160.4167 S   0  0  0  0  0  0  0  0  0  0  0  0
  150.7174  144.7342  158.6060 C   0  0  0  0  0  0  0  0  0  0  0  0
  151.6629  138.1076  156.6862 S   0  0  0  0  0  0  0  0  0  0  0  0
  149.6030  134.1617  155.0075 H   0  0  0  0  0  0  0  0  0  0  0  0
  149.3209  135.5699  153.9887 H   0  0  0  0  0  0  0  0  0  0  0  0
  148.9497  135.6393  155.7109 H   0  0  0  0  0  0  0  0  0  0  0  0
  151.3972  135.3541  156.2372 H   0  0  0  0  0  0  0  0  0  0  0  0
  151.7640  135.3073  154.5348 H   0  0  0  0  0  0  0  0  0  0  0  0
  150.7162  137.8020  153.1841 H   0  0  0  0  0  0  0  0  0  0  0  0
  151.9592  140.8293  157.4373 H   0  0  0  0  0  0  0  0  0  0  0  0
  152.7710  141.3308  155.9711 H   0  0  0  0  0  0  0  0  0  0  0  0
  150.5464  142.0355  154.9955 H   0  0  0  0  0  0  0  0  0  0  0  0
  149.7587  141.5730  156.4980 H   0  0  0  0  0  0  0  0  0  0  0  0
  151.8876  143.5761  156.2754 H   0  0  0  0  0  0  0  0  0  0  0  0
  150.3187  142.6259  158.5278 H   0  0  0  0  0  0  0  0  0  0  0  0
  152.6670  141.8716  158.2066 H   0  0  0  0  0  0  0  0  0  0  0  0
  153.2179  143.5266  158.1758 H   0  0  0  0  0  0  0  0  0  0  0  0
  151.8771  142.1229  160.5436 H   0  0  0  0  0  0  0  0  0  0  0  0
  153.5768  142.4880  160.3970 H   0  0  0  0  0  0  0  0  0  0  0  0
  152.4889  144.1713  161.8380 H   0  0  0  0  0  0  0  0  0  0  0  0
  153.0711  144.9444  160.3759 H   0  0  0  0  0  0  0  0  0  0  0  0
  151.4477  145.4552  158.2365 H   0  0  0  0  0  0  0  0  0  0  0  0
  149.7429  145.0439  158.2270 H   0  0  0  0  0  0  0  0  0  0  0  0
  150.2858  143.9166  156.3311 H   0  0  0  0  0  0  0  0  0  0  0  0
  1  2  1  0  0  0  0
  1 17  1  0  0  0  0
  1 18  1  0  0  0  0
  1 19  1  0  0  0  0
  2  3  1  0  0  0  0
  2 20  1  0  0  0  0
  2 21  1  0  0  0  0
  3 16  1  0  0  0  0
  3  4  2  0  0  0  0
  4  5  1  0  0  0  0
  4 22  1  0  0  0  0
  5  6  2  0  0  0  0
  6  7  1  0  0  0  0
  6 16  1  0  0  0  0
  7  8  1  0  0  0  0
  7 23  1  0  0  0  0
  7 24  1  0  0  0  0
  8  9  1  0  0  0  0
  8 25  1  0  0  0  0
  8 26  1  0  0  0  0
  9 10  1  0  0  0  0
  9 27  1  0  0  0  0
  9 37  1  0  0  0  0
 10 15  1  0  0  0  0
 10 11  1  0  0  0  0
 10 28  1  0  0  0  0
 11 12  1  0  0  0  0
 11 29  1  0  0  0  0
 11 30  1  0  0  0  0
 12 13  1  0  0  0  0
 12 31  1  0  0  0  0
 12 32  1  0  0  0  0
 13 14  1  0  0  0  0
 13 33  1  0  0  0  0
 13 34  1  0  0  0  0
 14 15  1  0  0  0  0
 15 35  1  0  0  0  0
 15 36  1  0  0  0  0
M  CHG  1   9   1
M  END
> <s_m_source_file>
AV-unprocessed.smi

> <i_m_source_file_index>
3281

> <i_lp_mmshare_version>
43012

> <i_f3d_flags>
0

> <s_epik_input>
W0NIM11bQ0gyXWMxW2NIXW5jKHMxKVtDSDJdW0NIMl1bTkhdW0NAQEhdMltDSDJdW0NIMl1bQ0gyXVNbQ0gyXTI=

> <s_epik_cmdline>
J2VwaWtfcHl0aG9uJywgJy1waCcsICc3LjAnLCAnLXRuJywgJzgnLCAnLW1hJywgJzIwMCcsICctbWV0YWxfYmluZGluZycsICctaW1hZScsICc8aW5maWxlLm1hZT4nLCAnLW9tYWUnLCAnPG91dGZpbGUubWFlPic=

> <r_epik_Ionization_Penalty>
0.00827702

> <r_epik_Ionization_Penalty_Charging>
0.00826679

> <r_epik_Ionization_Penalty_Neutral>
1.02314e-05

> <r_epik_State_Penalty>
0.00622064

> <r_epik_Charging_Adjusted_Penalty>
0.0144874

> <i_epik_Tot_Q>
1

> <i_epik_Tot_abs_Q>
1

> <r_epik_Metal_State_Penalty>
0.0062521

> <b_epik_Metal_Only>
0

> <s_lp_Force_Field>
OPLS_2005

> <r_lp_Energy>
0.380523

> <b_lp_Chiralities_Consistent>
1

> <s_lp_Variant>
AV-unprocessed.smi:3281-2

> <Gold.Version>
5.8.1

> <Gold.Id.Protein>
6NUR|6NUR_protein|mol2

> <Gold.PLP.Fitness>
46.9144

> <Gold.PLP.PLP>
-35.1387

> <Gold.PLP.part.hbond>
-2.0000

> <Gold.PLP.part.metal>
0.0000

> <Gold.PLP.part.buried>
-5.8653

> <Gold.PLP.part.nonpolar>
-28.5292

> <Gold.PLP.part.repulsive>
0.1632

> <Gold.PLP.ligand.clash>
0.0000

> <Gold.PLP.ligand.torsion>
0.3804

> <Gold.PLP.Chemscore.Hbond>
3.0000

> <Gold.PLP.Chemscore.CHOScore>
1.1692

> <Gold.PLP.Chemscore.Metal>
0.0000

> <Gold.Chemscore.Hbonds>
donor molecule, donor type, donor heavy atom, donor atom, acceptor molecule, acceptor atom, score
      L1  H     9    37       P1  8028  2.00
      P1  H  7989  7998       L1     5  1.00
      L1  C     4    22       P1  7948  0.33
      L1  C     4    22       P1  7949  0.75

> <Gold.PLP.Chemscore.Internal.Correction>
0.0287

> <Gold.Rescore>
     Score         DG    S(hbond)    S(metal)    S(lipo)     H(rot)  DE(clash)    DE(int)     intcor
     21.08     -21.73       1.93        0.00     114.09       1.38       0.15       0.51       ----

> <Gold.Chemscore.Fitness>
21.0776

> <Gold.Chemscore.DG>
-21.7347

> <Gold.Chemscore.ZeroCoef>
-5.4800

> <Gold.Chemscore.Hbond>
1.9253

> <Gold.Chemscore.Metal>
0.0000

> <Gold.Chemscore.Lipo>
114.0891

> <Gold.Chemscore.Internal_Hbond>
0.0000

> <Gold.Chemscore.DEClash>
0.1516

> <Gold.Chemscore.DEInternal>
0.5055

> <Gold.Chemscore.Rot>
1.3767

> <Gold.Chemscore.Internal.Correction>
   9.000000E+99

> <Gold.Chemscore.Hbonds>
donor molecule, donor type, donor heavy atom, donor atom, acceptor molecule, acceptor atom, score
      L1  H     9    37       P1  8028  1.00
      P1  H  7989  7998       L1     5  0.78

> <Gold.Chemscore.Hbond.Weighted>
-6.4306

> <Gold.Chemscore.Metal.Weighted>
-0.0000

> <Gold.Chemscore.Lipo.Weighted>
-13.3484

> <Gold.Chemscore.Internal_Hbond.Weighted>
0.0000

> <Gold.Chemscore.DEClash.Weighted>
0.1516

> <Gold.Chemscore.DEInternal.Weighted>
0.5055

> <Gold.Chemscore.Rot.Weighted>
3.5243

> <Gold.Chemscore.Internal.Correction.Weighted>
   9.000000E+99

> <Gold.Protein.RotatedTorsions>
[ 6907 6896 6895 6894 ] final   -1.43 input  -60.11 | X-H torsion
[ 7974 7965 7964 7962 ] final -175.55 input  175.53 | X-H torsion
[ 8008 7997 7996 7995 ] final  -12.37 input   59.86 | X-H torsion
[ 10167 10162 10161 10158 ] final  -73.85 input  -65.29 | X-H torsion
[ 10718 10713 10712 10709 ] final   97.70 input   66.30 | X-H torsion
[ 10763 10752 10751 10750 ] final -138.60 input  -60.55 | X-H torsion
[ 11005 11000 10999 10996 ] final   55.92 input  -57.11 | X-H torsion

> <Gold.Protein.ActiveResidues>
 VAL166  LYS551  ARG553  GLY616  TRP617  ASP618  TYR619  PRO620  LYS621  CYS622 
 ASP623  PHE694  ASN695  SER759  ASP760  ASP761  ALA762  ILE779  LEU786  VAL792 
 PHE793  MET794  SER795  GLU796  ALA797  LYS798  CYS799  TRP800  GLU811  SER814 

> <Gold.Protein.RotatedAtoms>
  151.5462  135.1068  159.9938 H   0  0  0  0  0  0  0  0  0  0  0  0  # atno 6907 bound_to 6896
  152.4513  133.7630  159.6767 H   0  0  0  0  0  0  0  0  0  0  0  0  # atno 6908 bound_to 6896
  150.8442  133.7821  159.3074 H   0  0  0  0  0  0  0  0  0  0  0  0  # atno 6909 bound_to 6896
  144.7128  140.1304  143.6399 H   0  0  0  0  0  0  0  0  0  0  0  0  # atno 7974 bound_to 7965
  154.5383  140.2278  155.8685 H   0  0  0  0  0  0  0  0  0  0  0  0  # atno 8008 bound_to 7997
  156.1833  140.3095  155.9153 H   0  0  0  0  0  0  0  0  0  0  0  0  # atno 8009 bound_to 7997
  155.3310  140.0445  157.3033 H   0  0  0  0  0  0  0  0  0  0  0  0  # atno 8010 bound_to 7997
  140.5076  143.2350  151.7648 H   0  0  0  0  0  0  0  0  0  0  0  0  # atno 10167 bound_to 10162
  157.6908  131.0617  150.4684 H   0  0  0  0  0  0  0  0  0  0  0  0  # atno 10718 bound_to 10713
  154.8632  135.3607  154.5412 H   0  0  0  0  0  0  0  0  0  0  0  0  # atno 10763 bound_to 10752
  153.6033  135.7012  153.5380 H   0  0  0  0  0  0  0  0  0  0  0  0  # atno 10764 bound_to 10752
  153.3272  135.4134  155.1426 H   0  0  0  0  0  0  0  0  0  0  0  0  # atno 10765 bound_to 10752
  140.0569  134.5657  155.9197 H   0  0  0  0  0  0  0  0  0  0  0  0  # atno 11005 bound_to 11000
  145.9292  139.2595  143.1335 LP  0  0  0  0  0  0  0  0  0  0  0  0  # atno 17320 bound_to 7965
  145.9541  140.8886  143.0244 LP  0  0  0  0  0  0  0  0  0  0  0  0  # atno 17321 bound_to 7965
  139.4887  144.4436  151.9736 LP  0  0  0  0  0  0  0  0  0  0  0  0  # atno 17342 bound_to 10162
  140.3527  144.3069  150.5946 LP  0  0  0  0  0  0  0  0  0  0  0  0  # atno 17343 bound_to 10162
  156.5023  130.4120  149.6346 LP  0  0  0  0  0  0  0  0  0  0  0  0  # atno 17370 bound_to 10713
  156.3316  130.7334  151.2265 LP  0  0  0  0  0  0  0  0  0  0  0  0  # atno 17371 bound_to 10713
  141.1956  133.6588  156.5650 LP  0  0  0  0  0  0  0  0  0  0  0  0  # atno 17394 bound_to 11000
  140.3830  134.7507  157.4673 LP  0  0  0  0  0  0  0  0  0  0  0  0  # atno 17395 bound_to 11000

$$$$
