#       Name:                AV-unprocessed.smi:2779
#       Creating user name   scv26
#       Creation time:       Fri Mar 27 15:14:58 2020


#       File generated by GOLD software.
#

@<TRIPOS>MOLECULE
AV-unprocessed.smi:2779
    45    46     1
SMALL
NO_CHARGES


@<TRIPOS>ATOM
      1 ****        -2.9328  -0.3115  -3.8538 O.2            1 S1                 0.0000
      2 ****        -3.1912  -0.1113  -2.6673 C.2            1 S1                 0.0000
      3 ****        -4.5530  -0.0799  -2.1395 C.2            1 S1                 0.0000
      4 ****        -4.8029   0.1372  -0.8305 C.2            1 S1                 0.0000
      5 ****        -3.6937   0.3485   0.0846 C.2            1 S1                 0.0000
      6 ****        -3.8682   0.5970   1.5626 C.3            1 S1                 0.0000
      7 ****        -5.1573   0.5827   1.9029 F              1 S1                 0.0000
      8 ****        -3.2350  -0.3440   2.2636 F              1 S1                 0.0000
      9 ****        -3.3570   1.7840   1.8906 F              1 S1                 0.0000
     10 ****        -2.4851   0.3243  -0.3773 N.2            1 S1                 0.0000
     11 ****        -2.2317   0.0996  -1.7201 N.am           1 S1                 0.0000
     12 ****        -0.8051   0.0755  -2.0629 C.3            1 S1                 0.0000
     13 ****        -0.1891  -1.3248  -1.8479 C.3            1 S1                 0.0000
     14 ****        -0.3847  -2.1012  -3.0129 O.3            1 S1                 0.0000
     15 ****         1.3259  -1.2660  -1.5987 C.3            1 S1                 0.0000
     16 ****         1.5673  -0.6611  -0.3387 O.3            1 S1                 0.0000
     17 ****         2.9453  -0.5937  -0.0150 C.3            1 S1                 0.0000
     18 ****         3.1651   0.1174   1.3044 C.ar           1 S1                 0.0000
     19 ****         3.1409   1.5266   1.3566 C.ar           1 S1                 0.0000
     20 ****         3.3448   2.1929   2.5807 C.ar           1 S1                 0.0000
     21 ****         3.5706   1.4519   3.7570 C.ar           1 S1                 0.0000
     22 ****         3.5920   0.0445   3.7088 C.ar           1 S1                 0.0000
     23 ****         3.3896  -0.6223   2.4845 C.ar           1 S1                 0.0000
     24 ****        -0.6646  -1.8327  -1.0076 H              1 S1                 0.0000
     25 ****        -5.3804  -0.2362  -2.8161 H              1 S1                 0.0000
     26 ****        -5.8182   0.1548  -0.4632 H              1 S1                 0.0000
     27 ****        -0.6175   0.4385  -3.0753 H              1 S1                 0.0000
     28 ****        -0.3007   0.7960  -1.4164 H              1 S1                 0.0000
     29 ****         0.0144  -1.6537  -3.7433 H              1 S1                 0.0000
     30 ****         1.7424  -2.2750  -1.5959 H              1 S1                 0.0000
     31 ****         1.8243  -0.7069  -2.3926 H              1 S1                 0.0000
     32 ****         3.3658  -1.5994   0.0365 H              1 S1                 0.0000
     33 ****         3.4884  -0.0592  -0.7962 H              1 S1                 0.0000
     34 ****         2.9659   2.0992   0.4575 H              1 S1                 0.0000
     35 ****         3.3278   3.2723   2.6175 H              1 S1                 0.0000
     36 ****         3.7268   1.9629   4.6957 H              1 S1                 0.0000
     37 ****         3.7634  -0.5238   4.6111 H              1 S1                 0.0000
     38 ****         3.4061  -1.7020   2.4551 H              1 S1                 0.0000
     39 ****        -1.9819  -0.3250  -4.1630 LP             1 S1                 0.0000
     40 ****        -3.6737  -0.4607  -4.5086 LP             1 S1                 0.0000
     41 ****        -1.7186   0.4708   0.2481 LP             1 S1                 0.0000
     42 ****        -1.3637  -2.2151  -3.1815 LP             1 S1                 0.0000
     43 ****         0.0399  -2.9989  -2.8948 LP             1 S1                 0.0000
     44 ****         1.0996  -1.1943   0.3663 LP             1 S1                 0.0000
     45 ****         1.1973   0.2678  -0.3544 LP             1 S1                 0.0000
@<TRIPOS>BOND
    1    1    2 2     
    2    2   11 am    
    3    2    3 1     
    4    3    4 2     
    5    3   25 1     
    6    4    5 1     
    7    4   26 1     
    8    5    6 1     
    9    5   10 2     
   10    6    7 1     
   11    6    8 1     
   12    6    9 1     
   13   10   11 1     
   14   11   12 1     
   15   12   13 1     
   16   12   27 1     
   17   12   28 1     
   18   13   24 1     
   19   13   14 1     
   20   13   15 1     
   21   14   29 1     
   22   15   16 1     
   23   15   30 1     
   24   15   31 1     
   25   16   17 1     
   26   17   18 1     
   27   17   32 1     
   28   17   33 1     
   29   18   23 ar    
   30   18   19 ar    
   31   19   20 ar    
   32   19   34 1     
   33   20   21 ar    
   34   20   35 1     
   35   21   22 ar    
   36   21   36 1     
   37   22   23 ar    
   38   22   37 1     
   39   23   38 1     
   40    1   39 1     
   41    1   40 1     
   42   10   41 1     
   43   14   42 1     
   44   14   43 1     
   45   16   44 1     
   46   16   45 1     
@<TRIPOS>SUBSTRUCTURE
      1 S1             1
@<TRIPOS>SET
LONE_PAIRS      STATIC     ATOMS    <user>   **** ""
7 39 40 41 42 43 44 45
DONOR_HYDROGENS      STATIC     ATOMS    <user>   **** ""
1 29
ATOM$BLUE        STATIC     ATOMS    COLORGROUP SYSTEM
7 39 40 41 42 43 44 45
ATOM$RED        STATIC     ATOMS    COLORGROUP SYSTEM
1 29
