AV-unprocessed.smi:1575|AV-procd|sdf|6339|dock2
  -GOLD-   22720 6553D 1   1.00000     0.00000
 Structure written by MMmdl.
 41 41  0  0  0  0  0  0  0  0  1 V2000
  151.0485  139.0169  154.4261 C   0  0  0  0  0  0  0  0  0  0  0  0
  149.8164  139.4840  153.8102 N   0  0  0  0  0  0  0  0  0  0  0  0
  148.6038  139.3762  154.3721 C   0  0  0  0  0  0  0  0  0  0  0  0
  148.4208  138.8758  155.4834 O   0  0  0  0  0  0  0  0  0  0  0  0
  147.4248  139.9359  153.5580 C   0  0  2  0  0  0  0  0  0  0  0  0
  146.3757  140.4824  154.5556 C   0  0  0  0  0  0  0  0  0  0  0  0
  146.5532  141.9678  154.9476 C   0  0  0  0  0  0  0  0  0  0  0  0
  145.6687  142.3733  156.1387 C   0  0  0  0  0  0  0  0  0  0  0  0
  146.2788  142.8805  153.7430 C   0  0  0  0  0  0  0  0  0  0  0  0
  146.8108  138.8668  152.7711 N   0  0  0  0  0  0  0  0  0  0  0  0
  146.1625  137.8053  153.2742 C   0  0  0  0  0  0  0  0  0  0  0  0
  146.0111  137.6176  154.4823 O   0  0  0  0  0  0  0  0  0  0  0  0
  145.5794  136.8225  152.2500 C   0  0  0  0  0  0  0  0  0  0  0  0
  144.2716  136.2883  152.6551 N   0  0  0  0  0  0  0  0  0  0  0  0
  143.1349  137.0804  152.5749 C   0  0  0  0  0  0  0  0  0  0  0  0
  141.9021  136.6536  152.9381 C   0  0  0  0  0  0  0  0  0  0  0  0
  141.7088  135.2995  153.4457 C   0  0  0  0  0  0  0  0  0  0  0  0
  140.6331  134.8206  153.7972 O   0  0  0  0  0  0  0  0  0  0  0  0
  142.8766  134.5349  153.5144 N   0  0  0  0  0  0  0  0  0  0  0  0
  144.1505  134.9694  153.1445 C   0  0  0  0  0  0  0  0  0  0  0  0
  145.1163  134.2143  153.2501 O   0  0  0  0  0  0  0  0  0  0  0  0
  142.7922  133.5909  153.8620 H   0  0  0  0  0  0  0  0  0  0  0  0
  151.8962  139.2414  153.7789 H   0  0  0  0  0  0  0  0  0  0  0  0
  151.0169  137.9382  154.5851 H   0  0  0  0  0  0  0  0  0  0  0  0
  151.2138  139.5066  155.3866 H   0  0  0  0  0  0  0  0  0  0  0  0
  149.8876  139.9104  152.8977 H   0  0  0  0  0  0  0  0  0  0  0  0
  147.7820  140.7345  152.9057 H   0  0  0  0  0  0  0  0  0  0  0  0
  145.3782  140.3511  154.1316 H   0  0  0  0  0  0  0  0  0  0  0  0
  146.3904  139.8797  155.4655 H   0  0  0  0  0  0  0  0  0  0  0  0
  147.5923  142.1315  155.2355 H   0  0  0  0  0  0  0  0  0  0  0  0
  144.6149  142.1831  155.9334 H   0  0  0  0  0  0  0  0  0  0  0  0
  145.7762  143.4353  156.3613 H   0  0  0  0  0  0  0  0  0  0  0  0
  145.9379  141.8302  157.0444 H   0  0  0  0  0  0  0  0  0  0  0  0
  145.2477  142.7863  153.4003 H   0  0  0  0  0  0  0  0  0  0  0  0
  146.9320  142.6351  152.9051 H   0  0  0  0  0  0  0  0  0  0  0  0
  146.4514  143.9272  153.9954 H   0  0  0  0  0  0  0  0  0  0  0  0
  146.8751  138.9498  151.7670 H   0  0  0  0  0  0  0  0  0  0  0  0
  145.4981  137.3416  151.2940 H   0  0  0  0  0  0  0  0  0  0  0  0
  146.2805  136.0038  152.0739 H   0  0  0  0  0  0  0  0  0  0  0  0
  143.2312  138.0924  152.2081 H   0  0  0  0  0  0  0  0  0  0  0  0
  141.0545  137.3182  152.8532 H   0  0  0  0  0  0  0  0  0  0  0  0
  1  2  1  0  0  0  0
  1 23  1  0  0  0  0
  1 24  1  0  0  0  0
  1 25  1  0  0  0  0
  2  3  1  0  0  0  0
  2 26  1  0  0  0  0
  3  4  2  0  0  0  0
  3  5  1  0  0  0  0
  5  6  1  0  0  0  0
  5 10  1  0  0  0  0
  5 27  1  0  0  0  0
  6  7  1  0  0  0  0
  6 28  1  0  0  0  0
  6 29  1  0  0  0  0
  7  8  1  0  0  0  0
  7  9  1  0  0  0  0
  7 30  1  0  0  0  0
  8 31  1  0  0  0  0
  8 32  1  0  0  0  0
  8 33  1  0  0  0  0
  9 34  1  0  0  0  0
  9 35  1  0  0  0  0
  9 36  1  0  0  0  0
 10 11  1  0  0  0  0
 10 37  1  0  0  0  0
 11 12  2  0  0  0  0
 11 13  1  0  0  0  0
 13 14  1  0  0  0  0
 13 38  1  0  0  0  0
 13 39  1  0  0  0  0
 14 20  1  0  0  0  0
 14 15  1  0  0  0  0
 15 16  2  0  0  0  0
 15 40  1  0  0  0  0
 16 17  1  0  0  0  0
 16 41  1  0  0  0  0
 17 18  2  0  0  0  0
 17 19  1  0  0  0  0
 19 22  1  0  0  0  0
 19 20  1  0  0  0  0
 20 21  2  0  0  0  0
M  END
> <s_m_source_file>
AV-unprocessed.smi

> <i_m_source_file_index>
1575

> <i_lp_mmshare_version>
43012

> <i_f3d_flags>
0

> <s_epik_input>
W0NIM11bTkhdQyg9TylbQ0BIXShbQ0gyXVtDSF0oW0NIM10pW0NIM10pW05IXUMoPU8pW0NIMl1uMVtjSF1bY0hdYyg9TylbbkhdYzE9Tw==

> <s_epik_cmdline>
J2VwaWtfcHl0aG9uJywgJy1waCcsICc3LjAnLCAnLXRuJywgJzgnLCAnLW1hJywgJzIwMCcsICctbWV0YWxfYmluZGluZycsICctaW1hZScsICc8aW5maWxlLm1hZT4nLCAnLW9tYWUnLCAnPG91dGZpbGUubWFlPic=

> <r_lp_tautomer_probability>
0.999537

> <r_epik_Ionization_Penalty>
0.00357166

> <r_epik_Ionization_Penalty_Charging>
0.00357161

> <r_epik_Ionization_Penalty_Neutral>
5.44484e-08

> <r_epik_State_Penalty>
0.00253761

> <r_epik_Charging_Adjusted_Penalty>
0.00610921

> <i_epik_Tot_Q>
0

> <i_epik_Tot_abs_Q>
0

> <r_epik_Metal_State_Penalty>
0.368734

> <b_epik_Metal_Only>
0

> <s_lp_Force_Field>
OPLS_2005

> <r_lp_Energy>
6.26633

> <b_lp_Chiralities_Consistent>
1

> <s_lp_Variant>
AV-unprocessed.smi:1575-1

> <Gold.Version>
5.8.1

> <Gold.Id.Protein>
6NUR|6NUR_protein|mol2

> <Gold.PLP.Fitness>
42.8003

> <Gold.PLP.PLP>
-31.5447

> <Gold.PLP.part.hbond>
-3.9873

> <Gold.PLP.part.metal>
0.0000

> <Gold.PLP.part.buried>
-6.5811

> <Gold.PLP.part.nonpolar>
-20.5942

> <Gold.PLP.part.repulsive>
0.6043

> <Gold.PLP.ligand.clash>
0.0000

> <Gold.PLP.ligand.torsion>
1.6869

> <Gold.PLP.Chemscore.Hbond>
3.0000

> <Gold.PLP.Chemscore.CHOScore>
1.8233

> <Gold.PLP.Chemscore.Metal>
0.0000

> <Gold.Chemscore.Hbonds>
donor molecule, donor type, donor heavy atom, donor atom, acceptor molecule, acceptor atom, score
      L1  H     2    26       P1  7957  1.00
      L1  H    19    22       P1 10957  0.96
      P1  H 11000 11005       L1    18  1.00
      L1  C    15    40       P1 10171  0.85
      L1  C    15    40       P1 10175  1.00

> <Gold.PLP.Chemscore.Internal.Correction>
0.1596

> <Gold.Rescore>
     Score         DG    S(hbond)    S(metal)    S(lipo)     H(rot)  DE(clash)    DE(int)     intcor
      9.70     -14.13       3.06        0.00      48.09       2.81       0.25       4.18       ----

> <Gold.Chemscore.Fitness>
9.6982

> <Gold.Chemscore.DG>
-14.1285

> <Gold.Chemscore.ZeroCoef>
-5.4800

> <Gold.Chemscore.Hbond>
3.0564

> <Gold.Chemscore.Metal>
0.0000

> <Gold.Chemscore.Lipo>
48.0884

> <Gold.Chemscore.Internal_Hbond>
0.0000

> <Gold.Chemscore.DEClash>
0.2462

> <Gold.Chemscore.DEInternal>
4.1841

> <Gold.Chemscore.Rot>
2.8072

> <Gold.Chemscore.Internal.Correction>
   9.000000E+99

> <Gold.Chemscore.Hbonds>
donor molecule, donor type, donor heavy atom, donor atom, acceptor molecule, acceptor atom, score
      L1  H     2    26       P1  7957  0.99
      L1  H    19    22       P1 10957  0.91
      P1  H 11000 11005       L1    18  0.92

> <Gold.Chemscore.Hbond.Weighted>
-10.2085

> <Gold.Chemscore.Metal.Weighted>
-0.0000

> <Gold.Chemscore.Lipo.Weighted>
-5.6263

> <Gold.Chemscore.Internal_Hbond.Weighted>
0.0000

> <Gold.Chemscore.DEClash.Weighted>
0.2462

> <Gold.Chemscore.DEInternal.Weighted>
4.1841

> <Gold.Chemscore.Rot.Weighted>
7.1864

> <Gold.Chemscore.Internal.Correction.Weighted>
   9.000000E+99

> <Gold.Protein.RotatedTorsions>
[ 6907 6896 6895 6894 ] final  127.24 input  -60.11 | X-H torsion
[ 7974 7965 7964 7962 ] final   67.21 input  175.53 | X-H torsion
[ 8008 7997 7996 7995 ] final   93.77 input   59.86 | X-H torsion
[ 10167 10162 10161 10158 ] final   57.12 input  -65.29 | X-H torsion
[ 10718 10713 10712 10709 ] final  -24.99 input   66.30 | X-H torsion
[ 10763 10752 10751 10750 ] final  129.58 input  -60.55 | X-H torsion
[ 11005 11000 10999 10996 ] final   36.86 input  -57.11 | X-H torsion

> <Gold.Protein.ActiveResidues>
 VAL166  LYS551  ARG553  GLY616  TRP617  ASP618  TYR619  PRO620  LYS621  CYS622 
 ASP623  PHE694  ASN695  SER759  ASP760  ASP761  ALA762  ILE779  LEU786  VAL792 
 PHE793  MET794  SER795  GLU796  ALA797  LYS798  CYS799  TRP800  GLU811  SER814 

> <Gold.Protein.RotatedAtoms>
  152.3831  133.6573  159.6176 H   0  0  0  0  0  0  0  0  0  0  0  0  # atno 6907 bound_to 6896
  150.7756  133.9081  159.3370 H   0  0  0  0  0  0  0  0  0  0  0  0  # atno 6908 bound_to 6896
  151.6883  135.0952  160.0280 H   0  0  0  0  0  0  0  0  0  0  0  0  # atno 6909 bound_to 6896
  145.8174  139.3066  143.1063 H   0  0  0  0  0  0  0  0  0  0  0  0  # atno 7974 bound_to 7965
  156.0505  140.3308  155.7346 H   0  0  0  0  0  0  0  0  0  0  0  0  # atno 8008 bound_to 7997
  155.5608  140.0619  157.2847 H   0  0  0  0  0  0  0  0  0  0  0  0  # atno 8009 bound_to 7997
  154.4433  140.1878  156.0769 H   0  0  0  0  0  0  0  0  0  0  0  0  # atno 8010 bound_to 7997
  140.2014  144.3984  150.6527 H   0  0  0  0  0  0  0  0  0  0  0  0  # atno 10167 bound_to 10162
  156.4704  130.4523  149.6873 H   0  0  0  0  0  0  0  0  0  0  0  0  # atno 10718 bound_to 10713
  153.7441  135.3219  155.3309 H   0  0  0  0  0  0  0  0  0  0  0  0  # atno 10763 bound_to 10752
  154.8285  135.4552  154.0997 H   0  0  0  0  0  0  0  0  0  0  0  0  # atno 10764 bound_to 10752
  153.2180  135.6944  153.8116 H   0  0  0  0  0  0  0  0  0  0  0  0  # atno 10765 bound_to 10752
  140.2283  134.3557  155.7974 H   0  0  0  0  0  0  0  0  0  0  0  0  # atno 11005 bound_to 11000
  145.9712  140.8759  143.0162 LP  0  0  0  0  0  0  0  0  0  0  0  0  # atno 17320 bound_to 7965
  144.6751  140.1948  143.7393 LP  0  0  0  0  0  0  0  0  0  0  0  0  # atno 17321 bound_to 7965
  140.6388  143.2199  151.6336 LP  0  0  0  0  0  0  0  0  0  0  0  0  # atno 17342 bound_to 10162
  139.5216  144.3189  152.0928 LP  0  0  0  0  0  0  0  0  0  0  0  0  # atno 17343 bound_to 10162
  156.3625  130.7488  151.2462 LP  0  0  0  0  0  0  0  0  0  0  0  0  # atno 17370 bound_to 10713
  157.7491  131.0346  150.4326 LP  0  0  0  0  0  0  0  0  0  0  0  0  # atno 17371 bound_to 10713
  141.2219  133.7231  156.8690 LP  0  0  0  0  0  0  0  0  0  0  0  0  # atno 17394 bound_to 11000
  140.1777  134.9055  157.2910 LP  0  0  0  0  0  0  0  0  0  0  0  0  # atno 17395 bound_to 11000

$$$$
