#       Name:                AV-unprocessed.smi:2639
#       Creating user name   scv26
#       Creation time:       Fri Mar 27 14:27:49 2020


#       File generated by GOLD software.
#

@<TRIPOS>MOLECULE
AV-unprocessed.smi:2639
    48    49     1
SMALL
NO_CHARGES


@<TRIPOS>ATOM
      1 ****         0.6452  -1.1513  -2.3734 C.3            1 S1                 0.0000
      2 ****         1.1248  -0.4452  -1.0785 C.3            1 S1                 0.0000
      3 ****         2.6600  -0.6294  -0.9297 C.3            1 S1                 0.0000
      4 ****         3.0398  -1.9923  -0.9482 O.3            1 S1                 0.0000
      5 ****         0.5166  -1.1011   0.0911 N.am           1 S1                 0.0000
      6 ****        -0.7849  -1.2692   0.3826 C.2            1 S1                 0.0000
      7 ****        -1.7070  -0.8650  -0.3248 O.2            1 S1                 0.0000
      8 ****        -0.9324  -1.9487   1.5333 N.am           1 S1                 0.0000
      9 ****        -2.1306  -2.3005   2.2127 C.ar           1 S1                 0.0000
     10 ****        -2.0663  -3.3444   3.1588 C.ar           1 S1                 0.0000
     11 ****        -3.2366  -3.6998   3.8590 C.ar           1 S1                 0.0000
     12 ****        -4.4244  -3.0849   3.6795 N.ar           1 S1                 0.0000
     13 ****        -4.4808  -2.0765   2.7840 C.ar           1 S1                 0.0000
     14 ****        -3.3711  -1.6423   2.0316 C.ar           1 S1                 0.0000
     15 ****         0.7388   1.0785  -1.1039 C.3            1 S1                 0.0000
     16 ****         1.3346   1.8728  -2.2948 C.3            1 S1                 0.0000
     17 ****         0.8177   3.3204  -2.3314 C.3            1 S1                 0.0000
     18 ****         1.1118   4.0505  -1.0137 C.3            1 S1                 0.0000
     19 ****         0.5291   3.2819   0.1803 C.3            1 S1                 0.0000
     20 ****         1.0415   1.8332   0.2179 C.3            1 S1                 0.0000
     21 ****         1.2506  -0.8687  -3.2345 H              1 S1                 0.0000
     22 ****        -0.3899  -0.9076  -2.6129 H              1 S1                 0.0000
     23 ****         0.7090  -2.2366  -2.2858 H              1 S1                 0.0000
     24 ****         3.1957  -0.1392  -1.7415 H              1 S1                 0.0000
     25 ****         3.0246  -0.1927  -0.0002 H              1 S1                 0.0000
     26 ****         3.9815  -2.0426  -0.8856 H              1 S1                 0.0000
     27 ****         1.1769  -1.4904   0.7480 H              1 S1                 0.0000
     28 ****        -0.0821  -2.2927   1.9546 H              1 S1                 0.0000
     29 ****        -1.1411  -3.8702   3.3444 H              1 S1                 0.0000
     30 ****        -3.2166  -4.4992   4.5848 H              1 S1                 0.0000
     31 ****        -5.4402  -1.5945   2.6673 H              1 S1                 0.0000
     32 ****        -3.4917  -0.8150   1.3498 H              1 S1                 0.0000
     33 ****        -0.3422   1.1264  -1.2381 H              1 S1                 0.0000
     34 ****         2.4223   1.8941  -2.2337 H              1 S1                 0.0000
     35 ****         1.0858   1.3967  -3.2423 H              1 S1                 0.0000
     36 ****         1.2756   3.8572  -3.1627 H              1 S1                 0.0000
     37 ****        -0.2568   3.3212  -2.5185 H              1 S1                 0.0000
     38 ****         2.1897   4.1608  -0.8883 H              1 S1                 0.0000
     39 ****         0.6980   5.0588  -1.0454 H              1 S1                 0.0000
     40 ****         0.7867   3.7906   1.1097 H              1 S1                 0.0000
     41 ****        -0.5599   3.2824   0.1201 H              1 S1                 0.0000
     42 ****         0.5839   1.3305   1.0695 H              1 S1                 0.0000
     43 ****         2.1143   1.8459   0.4085 H              1 S1                 0.0000
     44 ****         2.7355  -2.4156  -1.8016 LP             1 S1                 0.0000
     45 ****         2.6244  -2.4687  -0.1732 LP             1 S1                 0.0000
     46 ****        -1.5083  -0.3779  -1.1752 LP             1 S1                 0.0000
     47 ****        -2.6551  -1.0237  -0.0493 LP             1 S1                 0.0000
     48 ****        -5.2352  -3.3668   4.1925 LP             1 S1                 0.0000
@<TRIPOS>BOND
    1    1    2 1     
    2    1   21 1     
    3    1   22 1     
    4    1   23 1     
    5    2    3 1     
    6    2    5 1     
    7    2   15 1     
    8    3    4 1     
    9    3   24 1     
   10    3   25 1     
   11    4   26 1     
   12    5    6 am    
   13    5   27 1     
   14    6    7 2     
   15    6    8 am    
   16    8    9 1     
   17    8   28 1     
   18    9   14 ar    
   19    9   10 ar    
   20   10   11 ar    
   21   10   29 1     
   22   11   12 ar    
   23   11   30 1     
   24   12   13 ar    
   25   13   14 ar    
   26   13   31 1     
   27   14   32 1     
   28   15   20 1     
   29   15   16 1     
   30   15   33 1     
   31   16   17 1     
   32   16   34 1     
   33   16   35 1     
   34   17   18 1     
   35   17   36 1     
   36   17   37 1     
   37   18   19 1     
   38   18   38 1     
   39   18   39 1     
   40   19   20 1     
   41   19   40 1     
   42   19   41 1     
   43   20   42 1     
   44   20   43 1     
   45    4   44 1     
   46    4   45 1     
   47    7   46 1     
   48    7   47 1     
   49   12   48 1     
@<TRIPOS>SUBSTRUCTURE
      1 S1             1
@<TRIPOS>SET
LONE_PAIRS      STATIC     ATOMS    <user>   **** ""
5 44 45 46 47 48
DONOR_HYDROGENS      STATIC     ATOMS    <user>   **** ""
3 26 27 28
ATOM$BLUE        STATIC     ATOMS    COLORGROUP SYSTEM
5 44 45 46 47 48
ATOM$RED        STATIC     ATOMS    COLORGROUP SYSTEM
3 26 27 28
