#       Name:                AV-unprocessed.smi:1717
#       Creating user name   scv26
#       Creation time:       Fri Mar 27 08:12:21 2020


#       File generated by GOLD software.
#

@<TRIPOS>MOLECULE
AV-unprocessed.smi:1717
    46    47     1
SMALL
NO_CHARGES


@<TRIPOS>ATOM
      1 ****        -4.6510   4.1321  -1.5482 C.3            1 S1                 0.0000
      2 ****        -4.1061   2.7966  -1.3566 N.am           1 S1                 0.0000
      3 ****        -2.9459   2.3750  -1.8785 C.2            1 S1                 0.0000
      4 ****        -2.2260   3.0829  -2.5838 O.2            1 S1                 0.0000
      5 ****        -2.5485   0.9280  -1.5697 C.3            1 S1                 0.0000
      6 ****        -1.0880   0.6884  -1.6996 N.4            1 S1                 1.0000
      7 ****        -0.7691  -0.7362  -1.9728 C.3            1 S1                 0.0000
      8 ****         0.7338  -0.9292  -2.2474 C.3            1 S1                 0.0000
      9 ****         1.6064  -0.3837  -1.1036 C.3            1 S1                 0.0000
     10 ****         1.4988  -1.2428   0.0756 N.am           1 S1                 0.0000
     11 ****         2.3776  -1.2835   1.0875 C.2            1 S1                 0.0000
     12 ****         3.3833  -0.5765   1.1426 O.2            1 S1                 0.0000
     13 ****         2.0121  -2.1824   2.0156 N.am           1 S1                 0.0000
     14 ****         2.6921  -2.4968   3.2188 C.2            1 S1                 0.0000
     15 ****         3.9166  -1.9720   3.7276 C.2            1 S1                 0.0000
     16 ****         4.2268  -2.5229   4.8926 N.2            1 S1                 0.0000
     17 ****         3.2181  -3.3910   5.1310 N.pl3          1 S1                 0.0000
     18 ****         2.2639  -3.4076   4.1379 C.2            1 S1                 0.0000
     19 ****         1.2052   1.0727  -0.7948 C.3            1 S1                 0.0000
     20 ****        -0.3067   1.2130  -0.5479 C.3            1 S1                 0.0000
     21 ****         3.1961  -3.9587   5.9664 H              1 S1                 0.0000
     22 ****        -5.5956   4.2290  -1.0131 H              1 S1                 0.0000
     23 ****        -4.8362   4.3284  -2.6051 H              1 S1                 0.0000
     24 ****        -3.9653   4.8907  -1.1681 H              1 S1                 0.0000
     25 ****        -4.6464   2.1553  -0.7936 H              1 S1                 0.0000
     26 ****        -2.8883   0.6389  -0.5737 H              1 S1                 0.0000
     27 ****        -3.0887   0.3000  -2.2793 H              1 S1                 0.0000
     28 ****        -1.0846  -1.3496  -1.1274 H              1 S1                 0.0000
     29 ****        -1.3346  -1.0795  -2.8399 H              1 S1                 0.0000
     30 ****         0.9519  -1.9838  -2.4208 H              1 S1                 0.0000
     31 ****         0.9941  -0.4112  -3.1716 H              1 S1                 0.0000
     32 ****         2.6465  -0.3998  -1.4348 H              1 S1                 0.0000
     33 ****         0.7063  -1.8668   0.1148 H              1 S1                 0.0000
     34 ****         1.1591  -2.6947   1.8461 H              1 S1                 0.0000
     35 ****         4.5807  -1.2302   3.3094 H              1 S1                 0.0000
     36 ****         1.3932  -4.0459   4.1735 H              1 S1                 0.0000
     37 ****         1.7614   1.4535   0.0625 H              1 S1                 0.0000
     38 ****         1.4860   1.7059  -1.6376 H              1 S1                 0.0000
     39 ****        -0.5424   2.2645  -0.3818 H              1 S1                 0.0000
     40 ****        -0.5919   0.6818   0.3615 H              1 S1                 0.0000
     41 ****        -0.7929   1.2067  -2.5154 H              1 S1                 0.0000
     42 ****        -2.4984   4.0223  -2.7919 LP             1 S1                 0.0000
     43 ****        -1.3692   2.7183  -2.9482 LP             1 S1                 0.0000
     44 ****         3.5797   0.0717   0.4069 LP             1 S1                 0.0000
     45 ****         4.0041  -0.6501   1.9231 LP             1 S1                 0.0000
     46 ****         5.0255  -2.3383   5.4652 LP             1 S1                 0.0000
@<TRIPOS>BOND
    1    1    2 1     
    2    1   22 1     
    3    1   23 1     
    4    1   24 1     
    5    2    3 am    
    6    2   25 1     
    7    3    4 2     
    8    3    5 1     
    9    5    6 1     
   10    5   26 1     
   11    5   27 1     
   12    6   20 1     
   13    6    7 1     
   14    6   41 1     
   15    7    8 1     
   16    7   28 1     
   17    7   29 1     
   18    8    9 1     
   19    8   30 1     
   20    8   31 1     
   21    9   10 1     
   22    9   19 1     
   23    9   32 1     
   24   10   11 am    
   25   10   33 1     
   26   11   12 2     
   27   11   13 am    
   28   13   14 1     
   29   13   34 1     
   30   14   18 2     
   31   14   15 1     
   32   15   16 2     
   33   15   35 1     
   34   16   17 1     
   35   17   21 1     
   36   17   18 1     
   37   18   36 1     
   38   19   20 1     
   39   19   37 1     
   40   19   38 1     
   41   20   39 1     
   42   20   40 1     
   43    4   42 1     
   44    4   43 1     
   45   12   44 1     
   46   12   45 1     
   47   16   46 1     
@<TRIPOS>SUBSTRUCTURE
      1 S1             1
@<TRIPOS>SET
LONE_PAIRS      STATIC     ATOMS    <user>   **** ""
5 42 43 44 45 46
DONOR_HYDROGENS      STATIC     ATOMS    <user>   **** ""
5 25 41 33 34 21
ATOM$BLUE        STATIC     ATOMS    COLORGROUP SYSTEM
5 42 43 44 45 46
ATOM$RED        STATIC     ATOMS    COLORGROUP SYSTEM
5 25 41 33 34 21
