AV-unprocessed.smi:1720|AV-procd|sdf|6932|dock7
  -GOLD-   22720 8143D 1   1.00000     0.00000
 Structure written by MMmdl.
 32 33  0  0  0  0  0  0  0  0  1 V2000
  148.3174  140.6597  153.6881 C   0  0  0  0  0  0  0  0  0  0  0  0
  148.7731  139.3170  154.2780 C   0  0  1  0  0  0  0  0  0  0  0  0
  148.0237  138.2410  153.6311 N   0  0  0  0  0  0  0  0  0  0  0  0
  146.7142  137.9943  153.7815 C   0  0  0  0  0  0  0  0  0  0  0  0
  145.9716  138.6562  154.5067 O   0  0  0  0  0  0  0  0  0  0  0  0
  146.3321  136.9370  153.0469 N   0  0  0  0  0  0  0  0  0  0  0  0
  145.0319  136.3792  152.9521 C   0  0  0  0  0  0  0  0  0  0  0  0
  144.6929  135.0493  153.3214 C   0  0  0  0  0  0  0  0  0  0  0  0
  143.4050  134.8061  153.1251 N   0  0  0  0  0  0  0  0  0  0  0  0
  142.9188  135.9677  152.6322 N   0  0  0  0  0  0  0  0  0  0  0  0
  143.8734  136.9530  152.5087 C   0  0  0  0  0  0  0  0  0  0  0  0
  150.2906  139.0986  154.1058 C   0  0  2  0  0  0  0  0  0  0  0  0
  150.8347  137.8106  154.7297 C   0  0  0  0  0  0  0  0  0  0  0  0
  152.2863  138.1664  154.9509 C   0  0  0  0  0  0  0  0  0  0  0  0
  152.1808  139.6230  155.3897 C   0  0  0  0  0  0  0  0  0  0  0  0
  151.0217  140.1440  154.7445 O   0  0  0  0  0  0  0  0  0  0  0  0
  141.9441  136.0716  152.3881 H   0  0  0  0  0  0  0  0  0  0  0  0
  148.8176  141.4952  154.1787 H   0  0  0  0  0  0  0  0  0  0  0  0
  147.2439  140.8012  153.8175 H   0  0  0  0  0  0  0  0  0  0  0  0
  148.5361  140.7212  152.6214 H   0  0  0  0  0  0  0  0  0  0  0  0
  148.5481  139.3367  155.3460 H   0  0  0  0  0  0  0  0  0  0  0  0
  148.5482  137.6379  153.0143 H   0  0  0  0  0  0  0  0  0  0  0  0
  147.0472  136.4800  152.5004 H   0  0  0  0  0  0  0  0  0  0  0  0
  145.3252  134.2684  153.7181 H   0  0  0  0  0  0  0  0  0  0  0  0
  143.6426  137.9371  152.1285 H   0  0  0  0  0  0  0  0  0  0  0  0
  150.5537  139.1141  153.0467 H   0  0  0  0  0  0  0  0  0  0  0  0
  150.3516  137.6114  155.6875 H   0  0  0  0  0  0  0  0  0  0  0  0
  150.7013  136.9372  154.0908 H   0  0  0  0  0  0  0  0  0  0  0  0
  152.7788  137.5324  155.6889 H   0  0  0  0  0  0  0  0  0  0  0  0
  152.8370  138.0934  154.0120 H   0  0  0  0  0  0  0  0  0  0  0  0
  152.0318  139.6857  156.4683 H   0  0  0  0  0  0  0  0  0  0  0  0
  153.0712  140.1992  155.1376 H   0  0  0  0  0  0  0  0  0  0  0  0
  1  2  1  0  0  0  0
  1 18  1  0  0  0  0
  1 19  1  0  0  0  0
  1 20  1  0  0  0  0
  2  3  1  0  0  0  0
  2 12  1  0  0  0  0
  2 21  1  0  0  0  0
  3  4  1  0  0  0  0
  3 22  1  0  0  0  0
  4  5  2  0  0  0  0
  4  6  1  0  0  0  0
  6  7  1  0  0  0  0
  6 23  1  0  0  0  0
  7 11  2  0  0  0  0
  7  8  1  0  0  0  0
  8  9  2  0  0  0  0
  8 24  1  0  0  0  0
  9 10  1  0  0  0  0
 10 17  1  0  0  0  0
 10 11  1  0  0  0  0
 11 25  1  0  0  0  0
 12 16  1  0  0  0  0
 12 13  1  0  0  0  0
 12 26  1  0  0  0  0
 13 14  1  0  0  0  0
 13 27  1  0  0  0  0
 13 28  1  0  0  0  0
 14 15  1  0  0  0  0
 14 29  1  0  0  0  0
 14 30  1  0  0  0  0
 15 16  1  0  0  0  0
 15 31  1  0  0  0  0
 15 32  1  0  0  0  0
M  END
> <s_m_source_file>
AV-unprocessed.smi

> <i_m_source_file_index>
1720

> <i_lp_mmshare_version>
43012

> <i_f3d_flags>
0

> <s_epik_input>
TzFbQ0gyXVtDSDJdW0NIMl1bQ0BIXTFbQ0BIXShbQ0gzXSlbTkhdQyg9TylbTkhdYzJbY0hdbltuSF1bY0hdMg==

> <s_epik_cmdline>
J2VwaWtfcHl0aG9uJywgJy1waCcsICc3LjAnLCAnLXRuJywgJzgnLCAnLW1hJywgJzIwMCcsICctbWV0YWxfYmluZGluZycsICctaW1hZScsICc8aW5maWxlLm1hZT4nLCAnLW9tYWUnLCAnPG91dGZpbGUubWFlPic=

> <r_lp_tautomer_probability>
1

> <r_epik_Ionization_Penalty>
4.95841e-05

> <r_epik_Ionization_Penalty_Charging>
0

> <r_epik_Ionization_Penalty_Neutral>
4.95841e-05

> <r_epik_State_Penalty>
-0

> <r_epik_Charging_Adjusted_Penalty>
0

> <i_epik_Tot_Q>
0

> <i_epik_Tot_abs_Q>
0

> <r_epik_Metal_State_Penalty>
-0

> <b_epik_Metal_Only>
0

> <s_lp_Force_Field>
OPLS_2005

> <r_lp_Energy>
20.0519

> <b_lp_Chiralities_Consistent>
1

> <s_lp_Variant>
AV-unprocessed.smi:1720-2

> <Gold.Version>
5.8.1

> <Gold.Id.Protein>
6NUR|6NUR_protein|mol2

> <Gold.PLP.Fitness>
36.0622

> <Gold.PLP.PLP>
-22.8783

> <Gold.PLP.part.hbond>
-3.0000

> <Gold.PLP.part.metal>
0.0000

> <Gold.PLP.part.buried>
-1.6594

> <Gold.PLP.part.nonpolar>
-18.9045

> <Gold.PLP.part.repulsive>
0.3023

> <Gold.PLP.ligand.clash>
0.0000

> <Gold.PLP.ligand.torsion>
0.6847

> <Gold.PLP.Chemscore.Hbond>
3.0000

> <Gold.PLP.Chemscore.CHOScore>
1.8481

> <Gold.PLP.Chemscore.Metal>
0.0000

> <Gold.Chemscore.Hbonds>
donor molecule, donor type, donor heavy atom, donor atom, acceptor molecule, acceptor atom, score
      L1  H     3    22       P1  7948  1.00
      L1  H     6    23       P1  7948  1.00
      P1  H  7989  7998       L1    16  1.00
      L1  C    11    25       P1 10171  0.90
      L1  C    11    25       P1 10175  1.00

> <Gold.PLP.Chemscore.Internal.Correction>
0.0089

> <Gold.Rescore>
     Score         DG    S(hbond)    S(metal)    S(lipo)     H(rot)  DE(clash)    DE(int)     intcor
     14.34     -15.08       2.01        0.00      53.42       1.31       0.06       0.69       ----

> <Gold.Chemscore.Fitness>
14.3390

> <Gold.Chemscore.DG>
-15.0837

> <Gold.Chemscore.ZeroCoef>
-5.4800

> <Gold.Chemscore.Hbond>
2.0067

> <Gold.Chemscore.Metal>
0.0000

> <Gold.Chemscore.Lipo>
53.4172

> <Gold.Chemscore.Internal_Hbond>
0.0000

> <Gold.Chemscore.DEClash>
0.0585

> <Gold.Chemscore.DEInternal>
0.6863

> <Gold.Chemscore.Rot>
1.3079

> <Gold.Chemscore.Internal.Correction>
   9.000000E+99

> <Gold.Chemscore.Hbonds>
donor molecule, donor type, donor heavy atom, donor atom, acceptor molecule, acceptor atom, score
      L1  H     3    22       P1  7948  1.00
      L1  H     6    23       P1  7948  0.92
      P1  H  7989  7998       L1    16  0.10

> <Gold.Chemscore.Hbond.Weighted>
-6.7022

> <Gold.Chemscore.Metal.Weighted>
-0.0000

> <Gold.Chemscore.Lipo.Weighted>
-6.2498

> <Gold.Chemscore.Internal_Hbond.Weighted>
0.0000

> <Gold.Chemscore.DEClash.Weighted>
0.0585

> <Gold.Chemscore.DEInternal.Weighted>
0.6863

> <Gold.Chemscore.Rot.Weighted>
3.3483

> <Gold.Chemscore.Internal.Correction.Weighted>
   9.000000E+99

> <Gold.Protein.RotatedTorsions>
[ 6907 6896 6895 6894 ] final   60.01 input  -60.11 | X-H torsion
[ 7974 7965 7964 7962 ] final  -62.69 input  175.53 | X-H torsion
[ 8008 7997 7996 7995 ] final  174.24 input   59.86 | X-H torsion
[ 10167 10162 10161 10158 ] final  -71.62 input  -65.29 | X-H torsion
[ 10718 10713 10712 10709 ] final  -91.55 input   66.30 | X-H torsion
[ 10763 10752 10751 10750 ] final  -12.02 input  -60.55 | X-H torsion
[ 11005 11000 10999 10996 ] final  168.77 input  -57.11 | X-H torsion

> <Gold.Protein.ActiveResidues>
 VAL166  LYS551  ARG553  GLY616  TRP617  ASP618  TYR619  PRO620  LYS621  CYS622 
 ASP623  PHE694  ASN695  SER759  ASP760  ASP761  ALA762  ILE779  LEU786  VAL792 
 PHE793  MET794  SER795  GLU796  ALA797  LYS798  CYS799  TRP800  GLU811  SER814 

> <Gold.Protein.RotatedAtoms>
  152.3966  134.6356  160.0086 H   0  0  0  0  0  0  0  0  0  0  0  0  # atno 6907 bound_to 6896
  151.6574  133.3313  159.3174 H   0  0  0  0  0  0  0  0  0  0  0  0  # atno 6908 bound_to 6896
  150.7872  134.6910  159.6541 H   0  0  0  0  0  0  0  0  0  0  0  0  # atno 6909 bound_to 6896
  145.7882  140.8724  143.0295 H   0  0  0  0  0  0  0  0  0  0  0  0  # atno 7974 bound_to 7965
  156.0994  140.1439  156.9488 H   0  0  0  0  0  0  0  0  0  0  0  0  # atno 8008 bound_to 7997
  154.4692  140.0915  156.7146 H   0  0  0  0  0  0  0  0  0  0  0  0  # atno 8009 bound_to 7997
  155.4786  140.3444  155.4338 H   0  0  0  0  0  0  0  0  0  0  0  0  # atno 8010 bound_to 7997
  140.5258  143.2326  151.7350 H   0  0  0  0  0  0  0  0  0  0  0  0  # atno 10167 bound_to 10162
  155.9994  130.4952  150.5491 H   0  0  0  0  0  0  0  0  0  0  0  0  # atno 10718 bound_to 10713
  153.4923  135.7017  153.5877 H   0  0  0  0  0  0  0  0  0  0  0  0  # atno 10763 bound_to 10752
  153.4044  135.3864  155.2009 H   0  0  0  0  0  0  0  0  0  0  0  0  # atno 10764 bound_to 10752
  154.8716  135.3889  154.4385 H   0  0  0  0  0  0  0  0  0  0  0  0  # atno 10765 bound_to 10752
  140.2907  134.7675  157.3836 H   0  0  0  0  0  0  0  0  0  0  0  0  # atno 11005 bound_to 11000
  144.6786  140.0085  143.7484 LP  0  0  0  0  0  0  0  0  0  0  0  0  # atno 17320 bound_to 7965
  146.0004  139.3087  143.0931 LP  0  0  0  0  0  0  0  0  0  0  0  0  # atno 17321 bound_to 7965
  139.4938  144.4188  152.0001 LP  0  0  0  0  0  0  0  0  0  0  0  0  # atno 17342 bound_to 10162
  140.3287  144.3342  150.5992 LP  0  0  0  0  0  0  0  0  0  0  0  0  # atno 17343 bound_to 10162
  157.3416  131.0718  151.1783 LP  0  0  0  0  0  0  0  0  0  0  0  0  # atno 17370 bound_to 10713
  157.2629  130.6668  149.5983 LP  0  0  0  0  0  0  0  0  0  0  0  0  # atno 17371 bound_to 10713
  140.1198  134.5235  155.8193 LP  0  0  0  0  0  0  0  0  0  0  0  0  # atno 17394 bound_to 11000
  141.2147  133.6752  156.6844 LP  0  0  0  0  0  0  0  0  0  0  0  0  # atno 17395 bound_to 11000

$$$$
