AV-unprocessed.smi:244|AV-procd|sdf|1868|dock7
  -GOLD-   2262020503D 1   1.00000     0.00000
 Structure written by MMmdl.
 57 61  0  0  0  0  0  0  0  0  2 V2000
  149.3295  133.6518  153.7981 C   0  0  0  0  0  0  0  0  0  0  0  0
  148.0371  133.9602  153.1502 N   0  3  1  0  0  0  0  0  0  0  0  0
  147.7010  133.0013  152.0691 C   0  0  0  0  0  0  0  0  0  0  0  0
  146.4392  133.4504  151.3168 C   0  0  0  0  0  0  0  0  0  0  0  0
  145.2544  133.6489  152.2874 C   0  0  2  0  0  0  0  0  0  0  0  0
  144.0710  134.1029  151.6269 O   0  0  0  0  0  0  0  0  0  0  0  0
  144.1318  135.4449  151.1477 C   0  0  0  0  0  0  0  0  0  0  0  0
  144.4766  136.4010  152.2984 C   0  0  0  0  0  0  0  0  0  0  0  0
  145.7044  135.9743  152.9593 N   0  0  0  0  0  0  0  0  0  0  0  0
  146.1579  136.8879  153.8444 C   0  0  0  0  0  0  0  0  0  0  0  0
  146.1619  136.5259  155.1504 N   0  0  0  0  0  0  0  0  0  0  0  0
  146.5818  137.3905  156.0793 C   0  0  0  0  0  0  0  0  0  0  0  0
  147.0233  138.6397  155.9180 N   0  0  0  0  0  0  0  0  0  0  0  0
  147.0128  139.0066  154.6042 C   0  0  0  0  0  0  0  0  0  0  0  0
  146.5996  138.1985  153.5088 C   0  0  0  0  0  0  0  0  0  0  0  0
  146.7239  138.9078  152.3207 N   0  0  0  0  0  0  0  0  0  0  0  0
  147.1953  140.0671  152.6916 C   0  0  0  0  0  0  0  0  0  0  0  0
  147.3863  140.2168  154.0471 N   0  0  0  0  0  0  0  0  0  0  0  0
  147.8873  141.3982  154.7327 C   0  0  0  0  0  0  0  0  0  0  0  0
  149.2414  141.1828  155.4541 C   0  0  0  0  0  0  0  0  0  0  0  0
  149.9052  142.4334  155.5176 O   0  0  0  0  0  0  0  0  0  0  0  0
  149.0060  140.6827  156.8937 C   0  0  0  0  0  0  0  0  0  0  0  0
  150.3176  140.2856  157.5940 C   0  0  0  0  0  0  0  0  0  0  0  0
  151.0085  139.3158  156.8163 O   0  0  0  0  0  0  0  0  0  0  0  0
  151.3993  139.8109  155.5417 C   0  0  0  0  0  0  0  0  0  0  0  0
  150.1569  140.1835  154.7132 C   0  0  0  0  0  0  0  0  0  0  0  0
  145.6286  134.5955  153.4519 C   0  0  2  0  0  0  0  0  0  0  0  0
  146.9296  134.0944  154.1295 C   0  0  0  0  0  0  0  0  0  0  0  0
  149.2946  132.6848  154.3014 H   0  0  0  0  0  0  0  0  0  0  0  0
  149.5812  134.4145  154.5359 H   0  0  0  0  0  0  0  0  0  0  0  0
  150.1330  133.6265  153.0614 H   0  0  0  0  0  0  0  0  0  0  0  0
  148.5346  132.9304  151.3691 H   0  0  0  0  0  0  0  0  0  0  0  0
  147.5564  132.0058  152.4919 H   0  0  0  0  0  0  0  0  0  0  0  0
  146.6709  134.3738  150.7871 H   0  0  0  0  0  0  0  0  0  0  0  0
  146.1774  132.7154  150.5553 H   0  0  0  0  0  0  0  0  0  0  0  0
  145.0107  132.6734  152.7100 H   0  0  0  0  0  0  0  0  0  0  0  0
  144.8526  135.5360  150.3356 H   0  0  0  0  0  0  0  0  0  0  0  0
  143.1618  135.7081  150.7256 H   0  0  0  0  0  0  0  0  0  0  0  0
  144.5891  137.4168  151.9168 H   0  0  0  0  0  0  0  0  0  0  0  0
  143.6551  136.4166  153.0154 H   0  0  0  0  0  0  0  0  0  0  0  0
  146.5586  137.0322  157.0980 H   0  0  0  0  0  0  0  0  0  0  0  0
  147.4085  140.8546  151.9831 H   0  0  0  0  0  0  0  0  0  0  0  0
  147.9704  142.2070  154.0051 H   0  0  0  0  0  0  0  0  0  0  0  0
  147.1290  141.7151  155.4500 H   0  0  0  0  0  0  0  0  0  0  0  0
  149.2549  143.1160  155.5838 H   0  0  0  0  0  0  0  0  0  0  0  0
  148.4814  141.4377  157.4810 H   0  0  0  0  0  0  0  0  0  0  0  0
  148.3534  139.8089  156.8685 H   0  0  0  0  0  0  0  0  0  0  0  0
  150.9542  141.1555  157.7631 H   0  0  0  0  0  0  0  0  0  0  0  0
  150.1016  139.8590  158.5736 H   0  0  0  0  0  0  0  0  0  0  0  0
  152.0645  140.6676  155.6603 H   0  0  0  0  0  0  0  0  0  0  0  0
  151.9710  139.0388  155.0268 H   0  0  0  0  0  0  0  0  0  0  0  0
  149.5957  139.2728  154.5003 H   0  0  0  0  0  0  0  0  0  0  0  0
  150.4702  140.5833  153.7481 H   0  0  0  0  0  0  0  0  0  0  0  0
  144.8264  134.5578  154.1904 H   0  0  0  0  0  0  0  0  0  0  0  0
  146.7481  133.1219  154.5898 H   0  0  0  0  0  0  0  0  0  0  0  0
  147.2273  134.7559  154.9441 H   0  0  0  0  0  0  0  0  0  0  0  0
  148.1462  134.8652  152.7140 H   0  0  0  0  0  0  0  0  0  0  0  0
  1  2  1  0  0  0  0
  1 29  1  0  0  0  0
  1 30  1  0  0  0  0
  1 31  1  0  0  0  0
  2 28  1  0  0  0  0
  2  3  1  0  0  0  0
  2 57  1  0  0  0  0
  3  4  1  0  0  0  0
  3 32  1  0  0  0  0
  3 33  1  0  0  0  0
  4  5  1  0  0  0  0
  4 34  1  0  0  0  0
  4 35  1  0  0  0  0
  5 27  1  0  0  0  0
  5  6  1  0  0  0  0
  5 36  1  0  0  0  0
  6  7  1  0  0  0  0
  7  8  1  0  0  0  0
  7 37  1  0  0  0  0
  7 38  1  0  0  0  0
  8  9  1  0  0  0  0
  8 39  1  0  0  0  0
  8 40  1  0  0  0  0
  9 10  1  0  0  0  0
  9 27  1  0  0  0  0
 10 15  1  0  0  0  0
 10 11  2  0  0  0  0
 11 12  1  0  0  0  0
 12 13  2  0  0  0  0
 12 41  1  0  0  0  0
 13 14  1  0  0  0  0
 14 18  1  0  0  0  0
 14 15  2  0  0  0  0
 15 16  1  0  0  0  0
 16 17  2  0  0  0  0
 17 18  1  0  0  0  0
 17 42  1  0  0  0  0
 18 19  1  0  0  0  0
 19 20  1  0  0  0  0
 19 43  1  0  0  0  0
 19 44  1  0  0  0  0
 20 26  1  0  0  0  0
 20 21  1  0  0  0  0
 20 22  1  0  0  0  0
 21 45  1  0  0  0  0
 22 23  1  0  0  0  0
 22 46  1  0  0  0  0
 22 47  1  0  0  0  0
 23 24  1  0  0  0  0
 23 48  1  0  0  0  0
 23 49  1  0  0  0  0
 24 25  1  0  0  0  0
 25 26  1  0  0  0  0
 25 50  1  0  0  0  0
 25 51  1  0  0  0  0
 26 52  1  0  0  0  0
 26 53  1  0  0  0  0
 27 28  1  0  0  0  0
 27 54  1  0  0  0  0
 28 55  1  0  0  0  0
 28 56  1  0  0  0  0
M  CHG  1   2   1
M  END
> <s_m_source_file>
AV-unprocessed.smi

> <i_m_source_file_index>
244

> <i_lp_mmshare_version>
43012

> <i_f3d_flags>
0

> <s_epik_input>
W0NIMl0xW0NIMl1OKFtDSDNdKVtDSDJdW0NAQEhdKFtDQEhdMTIpTihbQ0gyXVtDSDJdTzIpYyhuW2NIXW4zKWMoYzM0KW5bY0hdbjRbQ0gyXUM1KFtPSF0pW0NIMl1bQ0gyXU9bQ0gyXVtDSDJdNQ==

> <s_epik_cmdline>
J2VwaWtfcHl0aG9uJywgJy1waCcsICc3LjAnLCAnLXRuJywgJzgnLCAnLW1hJywgJzIwMCcsICctbWV0YWxfYmluZGluZycsICctaW1hZScsICc8aW5maWxlLm1hZT4nLCAnLW9tYWUnLCAnPG91dGZpbGUubWFlPic=

> <r_lp_tautomer_probability>
1

> <r_epik_Ionization_Penalty>
0.0136215

> <r_epik_Ionization_Penalty_Charging>
0.0131385

> <r_epik_Ionization_Penalty_Neutral>
0.000483022

> <r_epik_State_Penalty>
0.0104001

> <r_epik_Charging_Adjusted_Penalty>
0.0235387

> <i_epik_Tot_Q>
1

> <i_epik_Tot_abs_Q>
1

> <r_epik_Metal_State_Penalty>
0.0104469

> <b_epik_Metal_Only>
0

> <s_lp_Force_Field>
OPLS_2005

> <r_lp_Energy>
48.7962

> <b_lp_Chiralities_Consistent>
1

> <s_lp_Variant>
AV-unprocessed.smi:244-5

> <Gold.Version>
5.8.1

> <Gold.Id.Protein>
6NUR|6NUR_protein|mol2

> <Gold.PLP.Fitness>
41.5275

> <Gold.PLP.PLP>
-32.7656

> <Gold.PLP.part.hbond>
-1.9296

> <Gold.PLP.part.metal>
0.0000

> <Gold.PLP.part.buried>
-2.1257

> <Gold.PLP.part.nonpolar>
-29.3547

> <Gold.PLP.part.repulsive>
0.6009

> <Gold.PLP.ligand.clash>
0.1226

> <Gold.PLP.ligand.torsion>
0.7276

> <Gold.PLP.Chemscore.Hbond>
2.9760

> <Gold.PLP.Chemscore.CHOScore>
0.4257

> <Gold.PLP.Chemscore.Metal>
0.0000

> <Gold.Chemscore.Hbonds>
donor molecule, donor type, donor heavy atom, donor atom, acceptor molecule, acceptor atom, score
      L1  H     2    57       P1  7948  2.00
      L1  H    21    45       P1  8028  0.99
      L1  C    17    42       P1  7957  0.40

> <Gold.PLP.Chemscore.Internal.Correction>
0.1345

> <Gold.Rescore>
     Score         DG    S(hbond)    S(metal)    S(lipo)     H(rot)  DE(clash)    DE(int)     intcor
     11.84     -14.27       1.82        0.00      68.78       2.09       0.13       2.29       ----

> <Gold.Chemscore.Fitness>
11.8426

> <Gold.Chemscore.DG>
-14.2667

> <Gold.Chemscore.ZeroCoef>
-5.4800

> <Gold.Chemscore.Hbond>
1.8240

> <Gold.Chemscore.Metal>
0.0000

> <Gold.Chemscore.Lipo>
68.7837

> <Gold.Chemscore.Internal_Hbond>
0.0000

> <Gold.Chemscore.DEClash>
0.1292

> <Gold.Chemscore.DEInternal>
2.2948

> <Gold.Chemscore.Rot>
2.0911

> <Gold.Chemscore.Internal.Correction>
   9.000000E+99

> <Gold.Chemscore.Hbonds>
donor molecule, donor type, donor heavy atom, donor atom, acceptor molecule, acceptor atom, score
      L1  H     2    57       P1  7948  0.74
      L1  H    21    45       P1  8028  0.94

> <Gold.Chemscore.Hbond.Weighted>
-6.0921

> <Gold.Chemscore.Metal.Weighted>
-0.0000

> <Gold.Chemscore.Lipo.Weighted>
-8.0477

> <Gold.Chemscore.Internal_Hbond.Weighted>
0.0000

> <Gold.Chemscore.DEClash.Weighted>
0.1292

> <Gold.Chemscore.DEInternal.Weighted>
2.2948

> <Gold.Chemscore.Rot.Weighted>
5.3531

> <Gold.Chemscore.Internal.Correction.Weighted>
   9.000000E+99

> <Gold.Protein.RotatedTorsions>
[ 6907 6896 6895 6894 ] final -117.86 input  -60.11 | X-H torsion
[ 7974 7965 7964 7962 ] final -114.39 input  175.53 | X-H torsion
[ 8008 7997 7996 7995 ] final   80.99 input   59.86 | X-H torsion
[ 10167 10162 10161 10158 ] final -155.33 input  -65.29 | X-H torsion
[ 10718 10713 10712 10709 ] final   10.70 input   66.30 | X-H torsion
[ 10763 10752 10751 10750 ] final    0.52 input  -60.55 | X-H torsion
[ 11005 11000 10999 10996 ] final  137.40 input  -57.11 | X-H torsion

> <Gold.Protein.ActiveResidues>
 VAL166  LYS551  ARG553  GLY616  TRP617  ASP618  TYR619  PRO620  LYS621  CYS622 
 ASP623  PHE694  ASN695  SER759  ASP760  ASP761  ALA762  ILE779  LEU786  VAL792 
 PHE793  MET794  SER795  GLU796  ALA797  LYS798  CYS799  TRP800  GLU811  SER814 

> <Gold.Protein.RotatedAtoms>
  150.8171  133.8318  159.3155 H   0  0  0  0  0  0  0  0  0  0  0  0  # atno 6907 bound_to 6896
  151.6087  135.1040  160.0086 H   0  0  0  0  0  0  0  0  0  0  0  0  # atno 6908 bound_to 6896
  152.4262  133.7158  159.6562 H   0  0  0  0  0  0  0  0  0  0  0  0  # atno 6909 bound_to 6896
  145.1207  140.8667  143.3815 H   0  0  0  0  0  0  0  0  0  0  0  0  # atno 7974 bound_to 7965
  155.8910  140.3439  155.5956 H   0  0  0  0  0  0  0  0  0  0  0  0  # atno 8008 bound_to 7997
  155.7611  140.0832  157.2174 H   0  0  0  0  0  0  0  0  0  0  0  0  # atno 8009 bound_to 7997
  154.4033  140.1536  156.2820 H   0  0  0  0  0  0  0  0  0  0  0  0  # atno 8010 bound_to 7997
  139.6940  143.9373  152.2398 H   0  0  0  0  0  0  0  0  0  0  0  0  # atno 10167 bound_to 10162
  156.9848  130.6019  149.5680 H   0  0  0  0  0  0  0  0  0  0  0  0  # atno 10718 bound_to 10713
  153.3196  135.6968  153.7042 H   0  0  0  0  0  0  0  0  0  0  0  0  # atno 10763 bound_to 10752
  153.5887  135.3484  155.2903 H   0  0  0  0  0  0  0  0  0  0  0  0  # atno 10764 bound_to 10752
  154.8594  135.4312  154.2357 H   0  0  0  0  0  0  0  0  0  0  0  0  # atno 10765 bound_to 10752
  140.0112  134.9438  157.0281 H   0  0  0  0  0  0  0  0  0  0  0  0  # atno 11005 bound_to 11000
  145.0743  139.3007  143.5816 LP  0  0  0  0  0  0  0  0  0  0  0  0  # atno 17320 bound_to 7965
  146.3521  140.0228  142.8657 LP  0  0  0  0  0  0  0  0  0  0  0  0  # atno 17321 bound_to 7965
  139.9197  144.6807  150.8474 LP  0  0  0  0  0  0  0  0  0  0  0  0  # atno 17342 bound_to 10162
  140.7691  143.3384  151.2261 LP  0  0  0  0  0  0  0  0  0  0  0  0  # atno 17343 bound_to 10162
  156.0230  130.5325  150.8329 LP  0  0  0  0  0  0  0  0  0  0  0  0  # atno 17370 bound_to 10713
  157.5501  131.0943  150.9708 LP  0  0  0  0  0  0  0  0  0  0  0  0  # atno 17371 bound_to 10713
  140.4552  134.1541  155.7185 LP  0  0  0  0  0  0  0  0  0  0  0  0  # atno 17394 bound_to 11000
  141.1712  133.8605  157.1565 LP  0  0  0  0  0  0  0  0  0  0  0  0  # atno 17395 bound_to 11000

$$$$
