AV-unprocessed.smi:2747|AV-procd|sdf|10579|dock5
  -GOLD-   2272015 33D 1   1.00000     0.00000
 Structure written by MMmdl.
 23 24  0  0  0  0  0  0  0  0  2 V2000
  152.6821  136.9383  160.2316 O   0  5  0  0  0  0  0  0  0  0  0  0
  153.2252  137.9634  160.8451 C   0  0  2  0  0  0  0  0  0  0  0  0
  154.0753  138.7396  159.8011 C   0  0  0  0  0  0  0  0  0  0  0  0
  153.3788  139.8471  159.1500 N   0  0  0  0  0  0  0  0  0  0  0  0
  152.9494  139.7139  157.8596 N   0  0  0  0  0  0  0  0  0  0  0  0
  152.3375  140.8052  157.5069 N   0  0  0  0  0  0  0  0  0  0  0  0
  152.3542  141.6731  158.5858 C   0  0  0  0  0  0  0  0  0  0  0  0
  151.8345  142.9760  158.7546 C   0  0  0  0  0  0  0  0  0  0  0  0
  151.9879  143.6524  159.9850 C   0  0  0  0  0  0  0  0  0  0  0  0
  151.3364  145.2440  160.1527 Cl  0  0  0  0  0  0  0  0  0  0  0  0
  152.6652  143.0315  161.0623 C   0  0  0  0  0  0  0  0  0  0  0  0
  152.8622  143.8449  162.5740 Cl  0  0  0  0  0  0  0  0  0  0  0  0
  153.1872  141.7321  160.9081 C   0  0  0  0  0  0  0  0  0  0  0  0
  153.0239  141.0767  159.6758 C   0  0  0  0  0  0  0  0  0  0  0  0
  154.1090  137.4124  161.9905 C   0  0  0  0  0  0  0  0  0  0  0  0
  154.9352  136.4719  161.5288 F   0  0  0  0  0  0  0  0  0  0  0  0
  154.8264  138.3796  162.5677 F   0  0  0  0  0  0  0  0  0  0  0  0
  153.3362  136.8529  162.9226 F   0  0  0  0  0  0  0  0  0  0  0  0
  152.5874  138.7151  161.3130 H   0  0  0  0  0  0  0  0  0  0  0  0
  154.9699  139.1418  160.2785 H   0  0  0  0  0  0  0  0  0  0  0  0
  154.4346  138.0642  159.0230 H   0  0  0  0  0  0  0  0  0  0  0  0
  151.3151  143.4544  157.9374 H   0  0  0  0  0  0  0  0  0  0  0  0
  153.7099  141.2462  161.7191 H   0  0  0  0  0  0  0  0  0  0  0  0
  1  2  1  0  0  0  0
  2  3  1  0  0  0  0
  2 15  1  0  0  0  0
  2 19  1  0  0  0  0
  3  4  1  0  0  0  0
  3 20  1  0  0  0  0
  3 21  1  0  0  0  0
  4 14  1  0  0  0  0
  4  5  1  0  0  0  0
  5  6  2  0  0  0  0
  6  7  1  0  0  0  0
  7 14  2  0  0  0  0
  7  8  1  0  0  0  0
  8  9  2  0  0  0  0
  8 22  1  0  0  0  0
  9 10  1  0  0  0  0
  9 11  1  0  0  0  0
 11 12  1  0  0  0  0
 11 13  2  0  0  0  0
 13 14  1  0  0  0  0
 13 23  1  0  0  0  0
 15 16  1  0  0  0  0
 15 17  1  0  0  0  0
 15 18  1  0  0  0  0
M  CHG  1   1  -1
M  END
> <s_m_source_file>
AV-unprocessed.smi

> <i_m_source_file_index>
2747

> <i_lp_mmshare_version>
43012

> <i_f3d_flags>
0

> <s_epik_input>
RkMoRikoRilbQ0BIXShbT0hdKVtDSDJdbihubjEpYyhjMTIpW2NIXWMoQ2wpYyhDbClbY0hdMg==

> <s_epik_cmdline>
J2VwaWtfcHl0aG9uJywgJy1waCcsICc3LjAnLCAnLXRuJywgJzgnLCAnLW1hJywgJzIwMCcsICctbWV0YWxfYmluZGluZycsICctaW1hZScsICc8aW5maWxlLm1hZT4nLCAnLW9tYWUnLCAnPG91dGZpbGUubWFlPic=

> <r_lp_tautomer_probability>
1

> <r_epik_Ionization_Penalty>
1.2724

> <r_epik_Ionization_Penalty_Charging>
1.2724

> <r_epik_Ionization_Penalty_Neutral>
1.57383e-10

> <r_epik_State_Penalty>
1.34397

> <r_epik_Charging_Adjusted_Penalty>
2.61637

> <i_epik_Tot_Q>
-1

> <i_epik_Tot_abs_Q>
1

> <r_epik_Metal_State_Penalty>
1.34397

> <b_epik_Metal_Only>
0

> <s_lp_Force_Field>
OPLS_2005

> <r_lp_Energy>
12.5023

> <b_lp_Chiralities_Consistent>
1

> <s_lp_Variant>
AV-unprocessed.smi:2747-3

> <Gold.Version>
5.8.1

> <Gold.Id.Protein>
6NUR|6NUR_protein|mol2

> <Gold.PLP.Fitness>
44.8600

> <Gold.PLP.PLP>
-37.4860

> <Gold.PLP.part.hbond>
-2.5847

> <Gold.PLP.part.metal>
0.0000

> <Gold.PLP.part.buried>
-2.9392

> <Gold.PLP.part.nonpolar>
-32.2435

> <Gold.PLP.part.repulsive>
0.0000

> <Gold.PLP.ligand.clash>
0.0000

> <Gold.PLP.ligand.torsion>
0.6684

> <Gold.PLP.Chemscore.Hbond>
2.9000

> <Gold.PLP.Chemscore.CHOScore>
0.0000

> <Gold.PLP.Chemscore.Metal>
0.0000

> <Gold.Chemscore.Hbonds>
donor molecule, donor type, donor heavy atom, donor atom, acceptor molecule, acceptor atom, score
      P1  H  6896  6907       L1     1  2.00
      P1  H  7997  8010       L1     5  0.80

> <Gold.PLP.Chemscore.Internal.Correction>
0.0107

> <Gold.Rescore>
     Score         DG    S(hbond)    S(metal)    S(lipo)     H(rot)  DE(clash)    DE(int)     intcor
     16.60     -17.34       1.02        0.00     101.74       1.35       0.24       0.50       ----

> <Gold.Chemscore.Fitness>
16.6039

> <Gold.Chemscore.DG>
-17.3371

> <Gold.Chemscore.ZeroCoef>
-5.4800

> <Gold.Chemscore.Hbond>
1.0189

> <Gold.Chemscore.Metal>
0.0000

> <Gold.Chemscore.Lipo>
101.7373

> <Gold.Chemscore.Internal_Hbond>
0.0000

> <Gold.Chemscore.DEClash>
0.2370

> <Gold.Chemscore.DEInternal>
0.4962

> <Gold.Chemscore.Rot>
1.3474

> <Gold.Chemscore.Internal.Correction>
   9.000000E+99

> <Gold.Chemscore.Hbonds>
donor molecule, donor type, donor heavy atom, donor atom, acceptor molecule, acceptor atom, score
      P1  H  6896  6907       L1     1  0.97
      P1  H  7997  8010       L1     5  0.04

> <Gold.Chemscore.Hbond.Weighted>
-3.4032

> <Gold.Chemscore.Metal.Weighted>
-0.0000

> <Gold.Chemscore.Lipo.Weighted>
-11.9033

> <Gold.Chemscore.Internal_Hbond.Weighted>
0.0000

> <Gold.Chemscore.DEClash.Weighted>
0.2370

> <Gold.Chemscore.DEInternal.Weighted>
0.4962

> <Gold.Chemscore.Rot.Weighted>
3.4494

> <Gold.Chemscore.Internal.Correction.Weighted>
   9.000000E+99

> <Gold.Protein.RotatedTorsions>
[ 6907 6896 6895 6894 ] final   21.12 input  -60.11 | X-H torsion
[ 7974 7965 7964 7962 ] final -153.44 input  175.53 | X-H torsion
[ 8008 7997 7996 7995 ] final   42.31 input   59.86 | X-H torsion
[ 10167 10162 10161 10158 ] final   35.55 input  -65.29 | X-H torsion
[ 10718 10713 10712 10709 ] final  137.19 input   66.30 | X-H torsion
[ 10763 10752 10751 10750 ] final  143.07 input  -60.55 | X-H torsion
[ 11005 11000 10999 10996 ] final   52.83 input  -57.11 | X-H torsion

> <Gold.Protein.ActiveResidues>
 VAL166  LYS551  ARG553  GLY616  TRP617  ASP618  TYR619  PRO620  LYS621  CYS622 
 ASP623  PHE694  ASN695  SER759  ASP760  ASP761  ALA762  ILE779  LEU786  VAL792 
 PHE793  MET794  SER795  GLU796  ALA797  LYS798  CYS799  TRP800  GLU811  SER814 

> <Gold.Protein.RotatedAtoms>
  151.9069  135.0355  160.0510 H   0  0  0  0  0  0  0  0  0  0  0  0  # atno 6907 bound_to 6896
  152.2312  133.5055  159.5225 H   0  0  0  0  0  0  0  0  0  0  0  0  # atno 6908 bound_to 6896
  150.7026  134.1130  159.4050 H   0  0  0  0  0  0  0  0  0  0  0  0  # atno 6909 bound_to 6896
  144.7741  140.4525  143.5886 H   0  0  0  0  0  0  0  0  0  0  0  0  # atno 7974 bound_to 7965
  155.2841  140.3374  155.4256 H   0  0  0  0  0  0  0  0  0  0  0  0  # atno 8008 bound_to 7997
  156.2076  140.1757  156.7806 H   0  0  0  0  0  0  0  0  0  0  0  0  # atno 8009 bound_to 7997
  154.5642  140.0682  156.8850 H   0  0  0  0  0  0  0  0  0  0  0  0  # atno 8010 bound_to 7997
  140.4211  144.1458  150.6148 H   0  0  0  0  0  0  0  0  0  0  0  0  # atno 10167 bound_to 10162
  157.4387  131.1055  151.0168 H   0  0  0  0  0  0  0  0  0  0  0  0  # atno 10718 bound_to 10713
  153.9663  135.2955  155.3430 H   0  0  0  0  0  0  0  0  0  0  0  0  # atno 10763 bound_to 10752
  154.7347  135.5052  153.9025 H   0  0  0  0  0  0  0  0  0  0  0  0  # atno 10764 bound_to 10752
  153.0922  135.6711  153.9943 H   0  0  0  0  0  0  0  0  0  0  0  0  # atno 10765 bound_to 10752
  140.0817  134.5330  155.8940 H   0  0  0  0  0  0  0  0  0  0  0  0  # atno 11005 bound_to 11000
  145.6238  139.1527  143.3007 LP  0  0  0  0  0  0  0  0  0  0  0  0  # atno 17320 bound_to 7965
  146.1908  140.6347  142.9146 LP  0  0  0  0  0  0  0  0  0  0  0  0  # atno 17321 bound_to 7965
  140.4532  143.2478  151.9320 LP  0  0  0  0  0  0  0  0  0  0  0  0  # atno 17342 bound_to 10162
  139.4782  144.5541  151.8340 LP  0  0  0  0  0  0  0  0  0  0  0  0  # atno 17343 bound_to 10162
  157.1039  130.5993  149.5466 LP  0  0  0  0  0  0  0  0  0  0  0  0  # atno 17370 bound_to 10713
  155.9940  130.5003  150.7404 LP  0  0  0  0  0  0  0  0  0  0  0  0  # atno 17371 bound_to 10713
  141.2049  133.6642  156.6147 LP  0  0  0  0  0  0  0  0  0  0  0  0  # atno 17394 bound_to 11000
  140.3478  134.7794  157.4445 LP  0  0  0  0  0  0  0  0  0  0  0  0  # atno 17395 bound_to 11000

$$$$
