AV-unprocessed.smi:1488|AV-procd|sdf|6024|dock2
  -GOLD-   22720 6123D 1   1.00000     0.00000
 Structure written by MMmdl.
 36 37  0  0  0  0  0  0  0  0  1 V2000
  153.7380  137.7276  156.9576 C   0  0  0  0  0  0  0  0  0  0  0  0
  152.6959  138.1800  155.9932 C   0  0  0  0  0  0  0  0  0  0  0  0
  151.6859  137.5289  155.3423 C   0  0  0  0  0  0  0  0  0  0  0  0
  151.0804  138.5614  154.5781 C   0  0  0  0  0  0  0  0  0  0  0  0
  149.9684  138.2900  153.7411 N   0  0  0  0  0  0  0  0  0  0  0  0
  148.7678  138.8933  153.7533 C   0  0  0  0  0  0  0  0  0  0  0  0
  148.4357  139.7990  154.5187 O   0  0  0  0  0  0  0  0  0  0  0  0
  147.9570  138.3786  152.8181 N   0  0  0  0  0  0  0  0  0  0  0  0
  146.5783  138.7958  152.5673 C   0  0  2  0  0  0  0  0  0  0  0  0
  145.5930  138.0909  153.5229 C   0  0  0  0  0  0  0  0  0  0  0  0
  145.4652  136.5873  153.2215 C   0  0  0  0  0  0  0  0  0  0  0  0
  145.0664  136.3289  151.7529 C   0  0  2  0  0  0  0  0  0  0  0  0
  144.9279  134.8229  151.4482 C   0  0  0  0  0  0  0  0  0  0  0  0
  146.1120  134.2139  151.5195 F   0  0  0  0  0  0  0  0  0  0  0  0
  144.0973  134.2541  152.3221 F   0  0  0  0  0  0  0  0  0  0  0  0
  144.4272  134.6490  150.2251 F   0  0  0  0  0  0  0  0  0  0  0  0
  146.0659  137.0198  150.8009 C   0  0  0  0  0  0  0  0  0  0  0  0
  146.1988  138.5239  151.0996 C   0  0  0  0  0  0  0  0  0  0  0  0
  151.6668  139.7365  154.7475 N   0  0  0  0  0  0  0  0  0  0  0  0
  152.7057  139.4980  155.6549 O   0  0  0  0  0  0  0  0  0  0  0  0
  153.4605  136.7764  157.4121 H   0  0  0  0  0  0  0  0  0  0  0  0
  153.8706  138.4571  157.7567 H   0  0  0  0  0  0  0  0  0  0  0  0
  154.6967  137.5966  156.4558 H   0  0  0  0  0  0  0  0  0  0  0  0
  151.4258  136.4826  155.4048 H   0  0  0  0  0  0  0  0  0  0  0  0
  150.1017  137.5577  153.0596 H   0  0  0  0  0  0  0  0  0  0  0  0
  148.3168  137.6366  152.2357 H   0  0  0  0  0  0  0  0  0  0  0  0
  146.5158  139.8728  152.7340 H   0  0  0  0  0  0  0  0  0  0  0  0
  145.8943  138.2388  154.5606 H   0  0  0  0  0  0  0  0  0  0  0  0
  144.6109  138.5557  153.4280 H   0  0  0  0  0  0  0  0  0  0  0  0
  146.4093  136.0885  153.4433 H   0  0  0  0  0  0  0  0  0  0  0  0
  144.7251  136.1498  153.8921 H   0  0  0  0  0  0  0  0  0  0  0  0
  144.0882  136.7848  151.5920 H   0  0  0  0  0  0  0  0  0  0  0  0
  147.0432  136.5431  150.8820 H   0  0  0  0  0  0  0  0  0  0  0  0
  145.7483  136.8872  149.7665 H   0  0  0  0  0  0  0  0  0  0  0  0
  145.2496  139.0145  150.8796 H   0  0  0  0  0  0  0  0  0  0  0  0
  146.9331  138.9741  150.4301 H   0  0  0  0  0  0  0  0  0  0  0  0
  1  2  1  0  0  0  0
  1 21  1  0  0  0  0
  1 22  1  0  0  0  0
  1 23  1  0  0  0  0
  2 20  1  0  0  0  0
  2  3  2  0  0  0  0
  3  4  1  0  0  0  0
  3 24  1  0  0  0  0
  4  5  1  0  0  0  0
  4 19  2  0  0  0  0
  5  6  1  0  0  0  0
  5 25  1  0  0  0  0
  6  7  2  0  0  0  0
  6  8  1  0  0  0  0
  8  9  1  0  0  0  0
  8 26  1  0  0  0  0
  9 18  1  0  0  0  0
  9 10  1  0  0  0  0
  9 27  1  0  0  0  0
 10 11  1  0  0  0  0
 10 28  1  0  0  0  0
 10 29  1  0  0  0  0
 11 12  1  0  0  0  0
 11 30  1  0  0  0  0
 11 31  1  0  0  0  0
 12 13  1  0  0  0  0
 12 17  1  0  0  0  0
 12 32  1  0  0  0  0
 13 14  1  0  0  0  0
 13 15  1  0  0  0  0
 13 16  1  0  0  0  0
 17 18  1  0  0  0  0
 17 33  1  0  0  0  0
 17 34  1  0  0  0  0
 18 35  1  0  0  0  0
 18 36  1  0  0  0  0
 19 20  1  0  0  0  0
M  END
> <s_m_source_file>
AV-unprocessed.smi

> <i_m_source_file_index>
1488

> <i_lp_mmshare_version>
43012

> <i_f3d_flags>
0

> <s_epik_input>
W0NIM11jMVtjSF1jKG5vMSlbTkhdQyg9TylbTkhdW0NAQEhdMltDSDJdW0NIMl1bQ0BASF0oQyhGKShGKUYpW0NIMl1bQ0gyXTI=

> <s_epik_cmdline>
J2VwaWtfcHl0aG9uJywgJy1waCcsICc3LjAnLCAnLXRuJywgJzgnLCAnLW1hJywgJzIwMCcsICctbWV0YWxfYmluZGluZycsICctaW1hZScsICc8aW5maWxlLm1hZT4nLCAnLW9tYWUnLCAnPG91dGZpbGUubWFlPic=

> <r_lp_tautomer_probability>
1

> <r_epik_Ionization_Penalty>
2.30349e-05

> <r_epik_Ionization_Penalty_Charging>
0

> <r_epik_Ionization_Penalty_Neutral>
2.30349e-05

> <r_epik_State_Penalty>
-0

> <r_epik_Charging_Adjusted_Penalty>
0

> <i_epik_Tot_Q>
0

> <i_epik_Tot_abs_Q>
0

> <r_epik_Metal_State_Penalty>
-0

> <b_epik_Metal_Only>
0

> <s_lp_Force_Field>
OPLS_2005

> <r_lp_Energy>
6.9589

> <b_lp_Chiralities_Consistent>
1

> <s_lp_Variant>
AV-unprocessed.smi:1488-2

> <Gold.Version>
5.8.1

> <Gold.Id.Protein>
6NUR|6NUR_protein|mol2

> <Gold.PLP.Fitness>
40.4371

> <Gold.PLP.PLP>
-31.2091

> <Gold.PLP.part.hbond>
-5.6793

> <Gold.PLP.part.metal>
0.0000

> <Gold.PLP.part.buried>
5.4072

> <Gold.PLP.part.nonpolar>
-32.3262

> <Gold.PLP.part.repulsive>
0.2859

> <Gold.PLP.ligand.clash>
0.0000

> <Gold.PLP.ligand.torsion>
0.9013

> <Gold.PLP.Chemscore.Hbond>
3.6692

> <Gold.PLP.Chemscore.CHOScore>
0.0000

> <Gold.PLP.Chemscore.Metal>
0.0000

> <Gold.Chemscore.Hbonds>
donor molecule, donor type, donor heavy atom, donor atom, acceptor molecule, acceptor atom, score
      L1  H     5    25       P1  7948  0.67
      L1  H     8    26       P1  7948  1.00
      P1  H  7989  7998       L1    19  1.00
      P1  H  7997  8010       L1    20  1.00

> <Gold.PLP.Chemscore.Internal.Correction>
0.0229

> <Gold.Rescore>
     Score         DG    S(hbond)    S(metal)    S(lipo)     H(rot)  DE(clash)    DE(int)     intcor
     16.91     -20.49       3.15        0.00      60.10       1.00       2.68       0.90       ----

> <Gold.Chemscore.Fitness>
16.9110

> <Gold.Chemscore.DG>
-20.4891

> <Gold.Chemscore.ZeroCoef>
-5.4800

> <Gold.Chemscore.Hbond>
3.1549

> <Gold.Chemscore.Metal>
0.0000

> <Gold.Chemscore.Lipo>
60.1005

> <Gold.Chemscore.Internal_Hbond>
0.0000

> <Gold.Chemscore.DEClash>
2.6817

> <Gold.Chemscore.DEInternal>
0.8965

> <Gold.Chemscore.Rot>
1.0000

> <Gold.Chemscore.Internal.Correction>
   9.000000E+99

> <Gold.Chemscore.Hbonds>
donor molecule, donor type, donor heavy atom, donor atom, acceptor molecule, acceptor atom, score
      L1  H     5    25       P1  7948  0.13
      L1  H     8    26       P1  7948  0.96
      P1  H  7989  7998       L1    19  0.96
      P1  H  7997  8010       L1    20  0.50

> <Gold.Chemscore.Hbond.Weighted>
-10.5374

> <Gold.Chemscore.Metal.Weighted>
-0.0000

> <Gold.Chemscore.Lipo.Weighted>
-7.0318

> <Gold.Chemscore.Internal_Hbond.Weighted>
0.0000

> <Gold.Chemscore.DEClash.Weighted>
2.6817

> <Gold.Chemscore.DEInternal.Weighted>
0.8965

> <Gold.Chemscore.Rot.Weighted>
2.5600

> <Gold.Chemscore.Internal.Correction.Weighted>
   9.000000E+99

> <Gold.Protein.RotatedTorsions>
[ 6907 6896 6895 6894 ] final  -99.94 input  -60.11 | X-H torsion
[ 7974 7965 7964 7962 ] final   72.38 input  175.53 | X-H torsion
[ 8008 7997 7996 7995 ] final   83.64 input   59.86 | X-H torsion
[ 10167 10162 10161 10158 ] final  -22.31 input  -65.29 | X-H torsion
[ 10718 10713 10712 10709 ] final   13.58 input   66.30 | X-H torsion
[ 10763 10752 10751 10750 ] final  -26.12 input  -60.55 | X-H torsion
[ 11005 11000 10999 10996 ] final -110.47 input  -57.11 | X-H torsion

> <Gold.Protein.ActiveResidues>
 VAL166  LYS551  ARG553  GLY616  TRP617  ASP618  TYR619  PRO620  LYS621  CYS622 
 ASP623  PHE694  ASN695  SER759  ASP760  ASP761  ALA762  ILE779  LEU786  VAL792 
 PHE793  MET794  SER795  GLU796  ALA797  LYS798  CYS799  TRP800  GLU811  SER814 

> <Gold.Protein.RotatedAtoms>
  150.7098  134.0964  159.3949 H   0  0  0  0  0  0  0  0  0  0  0  0  # atno 6907 bound_to 6896
  151.8950  135.0399  160.0510 H   0  0  0  0  0  0  0  0  0  0  0  0  # atno 6908 bound_to 6896
  152.2461  133.5140  159.5334 H   0  0  0  0  0  0  0  0  0  0  0  0  # atno 6909 bound_to 6896
  145.7541  139.2772  143.1414 H   0  0  0  0  0  0  0  0  0  0  0  0  # atno 7974 bound_to 7965
  155.9266  140.3417  155.6215 H   0  0  0  0  0  0  0  0  0  0  0  0  # atno 8008 bound_to 7997
  155.7209  140.0783  157.2350 H   0  0  0  0  0  0  0  0  0  0  0  0  # atno 8009 bound_to 7997
  154.4078  140.1605  156.2388 H   0  0  0  0  0  0  0  0  0  0  0  0  # atno 8010 bound_to 7997
  140.7285  143.4546  151.0466 H   0  0  0  0  0  0  0  0  0  0  0  0  # atno 10167 bound_to 10162
  157.0267  130.6176  149.5729 H   0  0  0  0  0  0  0  0  0  0  0  0  # atno 10718 bound_to 10713
  153.7108  135.6951  153.5038 H   0  0  0  0  0  0  0  0  0  0  0  0  # atno 10763 bound_to 10752
  153.2274  135.4349  155.0556 H   0  0  0  0  0  0  0  0  0  0  0  0  # atno 10764 bound_to 10752
  154.8315  135.3475  154.6645 H   0  0  0  0  0  0  0  0  0  0  0  0  # atno 10765 bound_to 10752
  141.0790  133.9253  157.2330 H   0  0  0  0  0  0  0  0  0  0  0  0  # atno 11005 bound_to 11000
  146.0328  140.8241  142.9867 LP  0  0  0  0  0  0  0  0  0  0  0  0  # atno 17320 bound_to 7965
  144.6844  140.2795  143.7294 LP  0  0  0  0  0  0  0  0  0  0  0  0  # atno 17321 bound_to 7965
  139.8226  143.7800  152.3177 LP  0  0  0  0  0  0  0  0  0  0  0  0  # atno 17342 bound_to 10162
  139.7887  144.7418  150.9985 LP  0  0  0  0  0  0  0  0  0  0  0  0  # atno 17343 bound_to 10162
  156.0083  130.5172  150.7905 LP  0  0  0  0  0  0  0  0  0  0  0  0  # atno 17370 bound_to 10713
  157.5208  131.0931  151.0080 LP  0  0  0  0  0  0  0  0  0  0  0  0  # atno 17371 bound_to 10713
  139.9603  135.0156  156.9241 LP  0  0  0  0  0  0  0  0  0  0  0  0  # atno 17394 bound_to 11000
  140.5511  134.0626  155.7369 LP  0  0  0  0  0  0  0  0  0  0  0  0  # atno 17395 bound_to 11000

$$$$
