AV-unprocessed.smi:2709|AV-procd|sdf|10462|dock7
  -GOLD-   2272014503D 1   1.00000     0.00000
 Structure written by MMmdl.
 40 42  0  0  0  0  0  0  0  0  1 V2000
  144.7409  134.5115  155.2697 C   0  0  0  0  0  0  0  0  0  0  0  0
  145.3154  135.1473  154.1403 O   0  0  0  0  0  0  0  0  0  0  0  0
  144.3678  135.8367  153.3291 C   0  0  2  0  0  0  0  0  0  0  0  0
  143.5167  134.7728  152.6335 C   0  0  0  0  0  0  0  0  0  0  0  0
  144.3519  134.3521  151.4272 C   0  0  0  0  0  0  0  0  0  0  0  0
  145.0299  135.6415  150.9559 C   0  0  0  0  0  0  0  0  0  0  0  0
  145.0743  136.5843  152.1746 C   0  0  2  0  0  0  0  0  0  0  0  0
  146.4478  136.9668  152.4965 N   0  0  0  0  0  0  0  0  0  0  0  0
  146.7936  137.8756  153.4183 C   0  0  0  0  0  0  0  0  0  0  0  0
  145.9760  138.4982  154.0953 O   0  0  0  0  0  0  0  0  0  0  0  0
  148.1286  138.0104  153.4889 N   0  0  0  0  0  0  0  0  0  0  0  0
  148.8898  138.8765  154.3193 C   0  0  0  0  0  0  0  0  0  0  0  0
  150.2937  138.8901  154.1815 C   0  0  0  0  0  0  0  0  0  0  0  0
  151.0810  139.6841  154.9384 N   0  0  0  0  0  0  0  0  0  0  0  0
  150.4695  140.4511  155.8450 C   0  0  0  0  0  0  0  0  0  0  0  0
  151.3393  141.3716  156.6443 C   0  0  0  0  0  0  0  0  0  0  0  0
  151.4527  141.2255  158.1480 C   0  0  0  0  0  0  0  0  0  0  0  0
  150.7317  142.4096  157.5660 C   0  0  0  0  0  0  0  0  0  0  0  0
  149.1548  140.5229  156.0695 N   0  0  0  0  0  0  0  0  0  0  0  0
  148.3592  139.7332  155.3157 C   0  0  0  0  0  0  0  0  0  0  0  0
  145.5211  134.0195  155.8504 H   0  0  0  0  0  0  0  0  0  0  0  0
  144.0163  133.7547  154.9663 H   0  0  0  0  0  0  0  0  0  0  0  0
  144.2438  135.2341  155.9182 H   0  0  0  0  0  0  0  0  0  0  0  0
  143.7439  136.5147  153.9155 H   0  0  0  0  0  0  0  0  0  0  0  0
  143.2639  133.9362  153.2859 H   0  0  0  0  0  0  0  0  0  0  0  0
  142.5820  135.2185  152.2903 H   0  0  0  0  0  0  0  0  0  0  0  0
  145.1091  133.6322  151.7409 H   0  0  0  0  0  0  0  0  0  0  0  0
  143.7532  133.8834  150.6457 H   0  0  0  0  0  0  0  0  0  0  0  0
  146.0163  135.4360  150.5378 H   0  0  0  0  0  0  0  0  0  0  0  0
  144.4381  136.1012  150.1633 H   0  0  0  0  0  0  0  0  0  0  0  0
  144.4981  137.4774  151.9244 H   0  0  0  0  0  0  0  0  0  0  0  0
  147.1824  136.4957  151.9894 H   0  0  0  0  0  0  0  0  0  0  0  0
  148.6635  137.4631  152.8304 H   0  0  0  0  0  0  0  0  0  0  0  0
  150.7911  138.2649  153.4542 H   0  0  0  0  0  0  0  0  0  0  0  0
  152.2360  141.6456  156.0917 H   0  0  0  0  0  0  0  0  0  0  0  0
  150.8482  140.4611  158.6326 H   0  0  0  0  0  0  0  0  0  0  0  0
  152.4291  141.4005  158.5952 H   0  0  0  0  0  0  0  0  0  0  0  0
  151.2247  143.3778  157.6234 H   0  0  0  0  0  0  0  0  0  0  0  0
  149.6480  142.4321  157.6635 H   0  0  0  0  0  0  0  0  0  0  0  0
  147.3057  139.7946  155.5370 H   0  0  0  0  0  0  0  0  0  0  0  0
  1  2  1  0  0  0  0
  1 21  1  0  0  0  0
  1 22  1  0  0  0  0
  1 23  1  0  0  0  0
  2  3  1  0  0  0  0
  3  7  1  0  0  0  0
  3  4  1  0  0  0  0
  3 24  1  0  0  0  0
  4  5  1  0  0  0  0
  4 25  1  0  0  0  0
  4 26  1  0  0  0  0
  5  6  1  0  0  0  0
  5 27  1  0  0  0  0
  5 28  1  0  0  0  0
  6  7  1  0  0  0  0
  6 29  1  0  0  0  0
  6 30  1  0  0  0  0
  7  8  1  0  0  0  0
  7 31  1  0  0  0  0
  8  9  1  0  0  0  0
  8 32  1  0  0  0  0
  9 10  2  0  0  0  0
  9 11  1  0  0  0  0
 11 12  1  0  0  0  0
 11 33  1  0  0  0  0
 12 20  1  0  0  0  0
 12 13  2  0  0  0  0
 13 14  1  0  0  0  0
 13 34  1  0  0  0  0
 14 15  2  0  0  0  0
 15 16  1  0  0  0  0
 15 19  1  0  0  0  0
 16 18  1  0  0  0  0
 16 17  1  0  0  0  0
 16 35  1  0  0  0  0
 17 18  1  0  0  0  0
 17 36  1  0  0  0  0
 17 37  1  0  0  0  0
 18 38  1  0  0  0  0
 18 39  1  0  0  0  0
 19 20  2  0  0  0  0
 20 40  1  0  0  0  0
M  END
> <s_m_source_file>
AV-unprocessed.smi

> <i_m_source_file_index>
2709

> <i_lp_mmshare_version>
43012

> <i_f3d_flags>
0

> <s_epik_input>
W0NIM11PW0NAQEhdMVtDSDJdW0NIMl1bQ0gyXVtDQEhdMVtOSF1DKD1PKVtOSF1jMltjSF1uYyhuW2NIXTIpW0NIXTNbQ0gyXVtDSDJdMw==

> <s_epik_cmdline>
J2VwaWtfcHl0aG9uJywgJy1waCcsICc3LjAnLCAnLXRuJywgJzgnLCAnLW1hJywgJzIwMCcsICctbWV0YWxfYmluZGluZycsICctaW1hZScsICc8aW5maWxlLm1hZT4nLCAnLW9tYWUnLCAnPG91dGZpbGUubWFlPic=

> <r_lp_tautomer_probability>
1

> <r_epik_Ionization_Penalty>
2.49969e-05

> <r_epik_Ionization_Penalty_Charging>
0

> <r_epik_Ionization_Penalty_Neutral>
2.49969e-05

> <r_epik_State_Penalty>
-0

> <r_epik_Charging_Adjusted_Penalty>
0

> <i_epik_Tot_Q>
0

> <i_epik_Tot_abs_Q>
0

> <r_epik_Metal_State_Penalty>
-0

> <b_epik_Metal_Only>
0

> <s_lp_Force_Field>
OPLS_2005

> <r_lp_Energy>
20.8159

> <b_lp_Chiralities_Consistent>
1

> <s_lp_Variant>
AV-unprocessed.smi:2709-3

> <Gold.Version>
5.8.1

> <Gold.Id.Protein>
6NUR|6NUR_protein|mol2

> <Gold.PLP.Fitness>
37.0622

> <Gold.PLP.PLP>
-28.7349

> <Gold.PLP.part.hbond>
-3.0379

> <Gold.PLP.part.metal>
0.0000

> <Gold.PLP.part.buried>
-4.3021

> <Gold.PLP.part.nonpolar>
-21.7328

> <Gold.PLP.part.repulsive>
0.3912

> <Gold.PLP.ligand.clash>
0.0000

> <Gold.PLP.ligand.torsion>
0.1447

> <Gold.PLP.Chemscore.Hbond>
2.8280

> <Gold.PLP.Chemscore.CHOScore>
0.0000

> <Gold.PLP.Chemscore.Metal>
0.0000

> <Gold.Chemscore.Hbonds>
donor molecule, donor type, donor heavy atom, donor atom, acceptor molecule, acceptor atom, score
      L1  H     8    32       P1  7948  0.93
      L1  H    11    33       P1  7948  1.00
      P1  H  7989  7998       L1    14  0.80

> <Gold.PLP.Chemscore.Internal.Correction>
0.1328

> <Gold.Rescore>
     Score         DG    S(hbond)    S(metal)    S(lipo)     H(rot)  DE(clash)    DE(int)     intcor
     14.39     -15.71       1.99        0.00      61.55       1.41       0.05       1.27       ----

> <Gold.Chemscore.Fitness>
14.3901

> <Gold.Chemscore.DG>
-15.7149

> <Gold.Chemscore.ZeroCoef>
-5.4800

> <Gold.Chemscore.Hbond>
1.9902

> <Gold.Chemscore.Metal>
0.0000

> <Gold.Chemscore.Lipo>
61.5471

> <Gold.Chemscore.Internal_Hbond>
0.0000

> <Gold.Chemscore.DEClash>
0.0537

> <Gold.Chemscore.DEInternal>
1.2711

> <Gold.Chemscore.Rot>
1.4114

> <Gold.Chemscore.Internal.Correction>
   9.000000E+99

> <Gold.Chemscore.Hbonds>
donor molecule, donor type, donor heavy atom, donor atom, acceptor molecule, acceptor atom, score
      L1  H     8    32       P1  7948  0.91
      L1  H    11    33       P1  7948  0.96
      P1  H  7989  7998       L1    14  0.07

> <Gold.Chemscore.Hbond.Weighted>
-6.6472

> <Gold.Chemscore.Metal.Weighted>
-0.0000

> <Gold.Chemscore.Lipo.Weighted>
-7.2010

> <Gold.Chemscore.Internal_Hbond.Weighted>
0.0000

> <Gold.Chemscore.DEClash.Weighted>
0.0537

> <Gold.Chemscore.DEInternal.Weighted>
1.2711

> <Gold.Chemscore.Rot.Weighted>
3.6133

> <Gold.Chemscore.Internal.Correction.Weighted>
   9.000000E+99

> <Gold.Protein.RotatedTorsions>
[ 6907 6896 6895 6894 ] final  156.14 input  -60.11 | X-H torsion
[ 7974 7965 7964 7962 ] final -162.76 input  175.53 | X-H torsion
[ 8008 7997 7996 7995 ] final  162.53 input   59.86 | X-H torsion
[ 10167 10162 10161 10158 ] final   12.43 input  -65.29 | X-H torsion
[ 10718 10713 10712 10709 ] final  -86.43 input   66.30 | X-H torsion
[ 10763 10752 10751 10750 ] final   17.46 input  -60.55 | X-H torsion
[ 11005 11000 10999 10996 ] final  -28.18 input  -57.11 | X-H torsion

> <Gold.Protein.ActiveResidues>
 VAL166  LYS551  ARG553  GLY616  TRP617  ASP618  TYR619  PRO620  LYS621  CYS622 
 ASP623  PHE694  ASN695  SER759  ASP760  ASP761  ALA762  ILE779  LEU786  VAL792 
 PHE793  MET794  SER795  GLU796  ALA797  LYS798  CYS799  TRP800  GLU811  SER814 

> <Gold.Protein.RotatedAtoms>
  152.0340  133.3949  159.4308 H   0  0  0  0  0  0  0  0  0  0  0  0  # atno 6907 bound_to 6896
  150.6880  134.3489  159.4910 H   0  0  0  0  0  0  0  0  0  0  0  0  # atno 6908 bound_to 6896
  152.1279  134.9156  160.0611 H   0  0  0  0  0  0  0  0  0  0  0  0  # atno 6909 bound_to 6896
  144.7347  140.3206  143.6171 H   0  0  0  0  0  0  0  0  0  0  0  0  # atno 7974 bound_to 7965
  156.2025  140.1748  156.7870 H   0  0  0  0  0  0  0  0  0  0  0  0  # atno 8008 bound_to 7997
  154.5610  140.0699  156.8850 H   0  0  0  0  0  0  0  0  0  0  0  0  # atno 8009 bound_to 7997
  155.2848  140.3351  155.4258 H   0  0  0  0  0  0  0  0  0  0  0  0  # atno 8010 bound_to 7997
  140.6068  143.8490  150.7022 H   0  0  0  0  0  0  0  0  0  0  0  0  # atno 10167 bound_to 10162
  155.9990  130.4765  150.4714 H   0  0  0  0  0  0  0  0  0  0  0  0  # atno 10718 bound_to 10713
  153.1337  135.6745  153.9137 H   0  0  0  0  0  0  0  0  0  0  0  0  # atno 10763 bound_to 10752
  153.8616  135.3080  155.3439 H   0  0  0  0  0  0  0  0  0  0  0  0  # atno 10764 bound_to 10752
  154.7729  135.4930  153.9768 H   0  0  0  0  0  0  0  0  0  0  0  0  # atno 10765 bound_to 10752
  140.9185  133.7414  156.0768 H   0  0  0  0  0  0  0  0  0  0  0  0  # atno 11005 bound_to 11000
  145.7573  139.1813  143.2287 LP  0  0  0  0  0  0  0  0  0  0  0  0  # atno 17320 bound_to 7965
  146.1014  140.7539  142.9547 LP  0  0  0  0  0  0  0  0  0  0  0  0  # atno 17321 bound_to 7965
  140.2049  143.3929  152.1763 LP  0  0  0  0  0  0  0  0  0  0  0  0  # atno 17342 bound_to 10162
  139.5331  144.7181  151.4986 LP  0  0  0  0  0  0  0  0  0  0  0  0  # atno 17343 bound_to 10162
  157.2728  131.0591  151.2248 LP  0  0  0  0  0  0  0  0  0  0  0  0  # atno 17370 bound_to 10713
  157.3322  130.6991  149.6331 LP  0  0  0  0  0  0  0  0  0  0  0  0  # atno 17371 bound_to 10713
  140.8018  134.3499  157.5437 LP  0  0  0  0  0  0  0  0  0  0  0  0  # atno 17394 bound_to 11000
  139.8771  134.9202  156.3246 LP  0  0  0  0  0  0  0  0  0  0  0  0  # atno 17395 bound_to 11000

$$$$
