AV-unprocessed.smi:1295|AV-procd|sdf|5412|dock10
  -GOLD-   22720 4573D 1   1.00000     0.00000
 Structure written by MMmdl.
 42 43  0  0  0  0  0  0  0  0  2 V2000
  154.0107  133.5004  157.4511 C   0  0  0  0  0  0  0  0  0  0  0  0
  154.2281  134.8820  158.0296 C   0  0  0  0  0  0  0  0  0  0  0  0
  154.3682  135.0160  159.2933 N   0  0  0  0  0  0  0  0  0  0  0  0
  154.5656  136.2977  159.8348 C   0  0  0  0  0  0  0  0  0  0  0  0
  154.7232  136.3630  161.3442 C   0  0  0  0  0  0  0  0  0  0  0  0
  154.6083  137.4025  159.0359 C   0  0  0  0  0  0  0  0  0  0  0  0
  154.8195  138.8158  159.5775 C   0  0  0  0  0  0  0  0  0  0  0  0
  153.5714  139.6998  159.6246 C   0  0  0  0  0  0  0  0  0  0  0  0
  152.4867  139.2646  159.2384 O   0  0  0  0  0  0  0  0  0  0  0  0
  153.7442  140.9407  160.1061 N   0  0  0  0  0  0  0  0  0  0  0  0
  152.6982  141.9456  160.2886 C   0  0  1  0  0  0  0  0  0  0  0  0
  153.1522  142.9302  161.3843 C   0  0  0  0  0  0  0  0  0  0  0  0
  152.1361  144.0624  161.5912 C   0  0  0  0  0  0  0  0  0  0  0  0
  151.8602  144.7998  160.2743 C   0  0  0  0  0  0  0  0  0  0  0  0
  151.3849  143.8240  159.1881 C   0  0  0  0  0  0  0  0  0  0  0  0
  152.3945  142.6811  158.9574 C   0  0  2  0  0  0  0  0  0  0  0  0
  151.8877  141.7336  157.8552 C   0  0  0  0  0  0  0  0  0  0  0  0
  154.4408  137.2047  157.5850 C   0  0  0  0  0  0  0  0  0  0  0  0
  154.4605  138.1679  156.8196 O   0  0  0  0  0  0  0  0  0  0  0  0
  154.2633  135.9292  157.1368 N   0  5  0  0  0  0  0  0  0  0  0  0
  153.8060  132.7727  158.2376 H   0  0  0  0  0  0  0  0  0  0  0  0
  154.8978  133.1776  156.9061 H   0  0  0  0  0  0  0  0  0  0  0  0
  153.1641  133.5045  156.7636 H   0  0  0  0  0  0  0  0  0  0  0  0
  155.7057  136.7535  161.6100 H   0  0  0  0  0  0  0  0  0  0  0  0
  154.6229  135.3747  161.7946 H   0  0  0  0  0  0  0  0  0  0  0  0
  153.9615  137.0078  161.7829 H   0  0  0  0  0  0  0  0  0  0  0  0
  155.2338  138.7347  160.5829 H   0  0  0  0  0  0  0  0  0  0  0  0
  155.5855  139.3417  159.0072 H   0  0  0  0  0  0  0  0  0  0  0  0
  154.6759  141.2040  160.3920 H   0  0  0  0  0  0  0  0  0  0  0  0
  151.7782  141.4703  160.6343 H   0  0  0  0  0  0  0  0  0  0  0  0
  153.3011  142.3972  162.3244 H   0  0  0  0  0  0  0  0  0  0  0  0
  154.1190  143.3603  161.1180 H   0  0  0  0  0  0  0  0  0  0  0  0
  151.2049  143.6524  161.9845 H   0  0  0  0  0  0  0  0  0  0  0  0
  152.5075  144.7630  162.3394 H   0  0  0  0  0  0  0  0  0  0  0  0
  151.1094  145.5746  160.4325 H   0  0  0  0  0  0  0  0  0  0  0  0
  152.7654  145.3088  159.9406 H   0  0  0  0  0  0  0  0  0  0  0  0
  150.4180  143.4076  159.4742 H   0  0  0  0  0  0  0  0  0  0  0  0
  151.2211  144.3698  158.2583 H   0  0  0  0  0  0  0  0  0  0  0  0
  153.3226  143.1304  158.6001 H   0  0  0  0  0  0  0  0  0  0  0  0
  150.9831  141.2118  158.1687 H   0  0  0  0  0  0  0  0  0  0  0  0
  152.6325  140.9813  157.5955 H   0  0  0  0  0  0  0  0  0  0  0  0
  151.6551  142.2828  156.9425 H   0  0  0  0  0  0  0  0  0  0  0  0
  1  2  1  0  0  0  0
  1 21  1  0  0  0  0
  1 22  1  0  0  0  0
  1 23  1  0  0  0  0
  2 20  1  0  0  0  0
  2  3  2  0  0  0  0
  3  4  1  0  0  0  0
  4  5  1  0  0  0  0
  4  6  2  0  0  0  0
  5 24  1  0  0  0  0
  5 25  1  0  0  0  0
  5 26  1  0  0  0  0
  6  7  1  0  0  0  0
  6 18  1  0  0  0  0
  7  8  1  0  0  0  0
  7 27  1  0  0  0  0
  7 28  1  0  0  0  0
  8  9  2  0  0  0  0
  8 10  1  0  0  0  0
 10 11  1  0  0  0  0
 10 29  1  0  0  0  0
 11 16  1  0  0  0  0
 11 12  1  0  0  0  0
 11 30  1  0  0  0  0
 12 13  1  0  0  0  0
 12 31  1  0  0  0  0
 12 32  1  0  0  0  0
 13 14  1  0  0  0  0
 13 33  1  0  0  0  0
 13 34  1  0  0  0  0
 14 15  1  0  0  0  0
 14 35  1  0  0  0  0
 14 36  1  0  0  0  0
 15 16  1  0  0  0  0
 15 37  1  0  0  0  0
 15 38  1  0  0  0  0
 16 17  1  0  0  0  0
 16 39  1  0  0  0  0
 17 40  1  0  0  0  0
 17 41  1  0  0  0  0
 17 42  1  0  0  0  0
 18 19  2  0  0  0  0
 18 20  1  0  0  0  0
M  CHG  1  20  -1
M  END
> <s_m_source_file>
AV-unprocessed.smi

> <i_m_source_file_index>
1295

> <i_lp_mmshare_version>
43012

> <i_f3d_flags>
0

> <s_epik_input>
W0NIM11jMW5jKFtDSDNdKWMoYyg9TylbbkhdMSlbQ0gyXUMoPU8pW05IXVtDQEBIXTJbQ0gyXVtDSDJdW0NIMl1bQ0gyXVtDQEhdMltDSDNd

> <s_epik_cmdline>
J2VwaWtfcHl0aG9uJywgJy1waCcsICc3LjAnLCAnLXRuJywgJzgnLCAnLW1hJywgJzIwMCcsICctbWV0YWxfYmluZGluZycsICctaW1hZScsICc8aW5maWxlLm1hZT4nLCAnLW9tYWUnLCAnPG91dGZpbGUubWFlPic=

> <r_lp_tautomer_probability>
0.839158

> <r_epik_Ionization_Penalty>
6.67742

> <r_epik_Ionization_Penalty_Charging>
7.78154e-08

> <r_epik_Ionization_Penalty_Neutral>
6.67742

> <r_epik_State_Penalty>
4.51991

> <r_epik_Charging_Adjusted_Penalty>
4.51991

> <i_epik_Tot_Q>
-1

> <i_epik_Tot_abs_Q>
1

> <r_epik_Metal_State_Penalty>
0.853272

> <b_epik_Metal_Only>
1

> <s_lp_Force_Field>
OPLS_2005

> <r_lp_Energy>
15.3241

> <b_lp_Chiralities_Consistent>
1

> <s_lp_Variant>
AV-unprocessed.smi:1295-12

> <Gold.Version>
5.8.1

> <Gold.Id.Protein>
6NUR|6NUR_protein|mol2

> <Gold.PLP.Fitness>
42.8947

> <Gold.PLP.PLP>
-33.8906

> <Gold.PLP.part.hbond>
-2.7171

> <Gold.PLP.part.metal>
0.0000

> <Gold.PLP.part.buried>
-5.6604

> <Gold.PLP.part.nonpolar>
-24.8240

> <Gold.PLP.part.repulsive>
0.0552

> <Gold.PLP.ligand.clash>
0.0000

> <Gold.PLP.ligand.torsion>
0.5284

> <Gold.PLP.Chemscore.Hbond>
3.3520

> <Gold.PLP.Chemscore.CHOScore>
0.0000

> <Gold.PLP.Chemscore.Metal>
0.0000

> <Gold.Chemscore.Hbonds>
donor molecule, donor type, donor heavy atom, donor atom, acceptor molecule, acceptor atom, score
      P1  H  6896  6909       L1     3  1.00
      P1  H  7997  8009       L1    19  0.37
      P1  H 10752 10765       L1    20  2.00

> <Gold.PLP.Chemscore.Internal.Correction>
0.0050

> <Gold.Rescore>
     Score         DG    S(hbond)    S(metal)    S(lipo)     H(rot)  DE(clash)    DE(int)     intcor
     17.15     -19.17       1.78        0.00      97.68       1.45       0.04       1.98       ----

> <Gold.Chemscore.Fitness>
17.1540

> <Gold.Chemscore.DG>
-19.1710

> <Gold.Chemscore.ZeroCoef>
-5.4800

> <Gold.Chemscore.Hbond>
1.7848

> <Gold.Chemscore.Metal>
0.0000

> <Gold.Chemscore.Lipo>
97.6831

> <Gold.Chemscore.Internal_Hbond>
0.0000

> <Gold.Chemscore.DEClash>
0.0358

> <Gold.Chemscore.DEInternal>
1.9812

> <Gold.Chemscore.Rot>
1.4450

> <Gold.Chemscore.Internal.Correction>
   9.000000E+99

> <Gold.Chemscore.Hbonds>
donor molecule, donor type, donor heavy atom, donor atom, acceptor molecule, acceptor atom, score
      P1  H  6896  6909       L1     3  0.17
      P1  H  7997  8009       L1    19  0.36
      P1  H 10752 10765       L1    20  0.78

> <Gold.Chemscore.Hbond.Weighted>
-5.9613

> <Gold.Chemscore.Metal.Weighted>
-0.0000

> <Gold.Chemscore.Lipo.Weighted>
-11.4289

> <Gold.Chemscore.Internal_Hbond.Weighted>
0.0000

> <Gold.Chemscore.DEClash.Weighted>
0.0358

> <Gold.Chemscore.DEInternal.Weighted>
1.9812

> <Gold.Chemscore.Rot.Weighted>
3.6992

> <Gold.Chemscore.Internal.Correction.Weighted>
   9.000000E+99

> <Gold.Protein.RotatedTorsions>
[ 6907 6896 6895 6894 ] final -158.30 input  -60.11 | X-H torsion
[ 7974 7965 7964 7962 ] final   64.09 input  175.53 | X-H torsion
[ 8008 7997 7996 7995 ] final  165.85 input   59.86 | X-H torsion
[ 10167 10162 10161 10158 ] final   85.53 input  -65.29 | X-H torsion
[ 10718 10713 10712 10709 ] final   -9.14 input   66.30 | X-H torsion
[ 10763 10752 10751 10750 ] final  -94.23 input  -60.55 | X-H torsion
[ 11005 11000 10999 10996 ] final -139.60 input  -57.11 | X-H torsion

> <Gold.Protein.ActiveResidues>
 VAL166  LYS551  ARG553  GLY616  TRP617  ASP618  TYR619  PRO620  LYS621  CYS622 
 ASP623  PHE694  ASN695  SER759  ASP760  ASP761  ALA762  ILE779  LEU786  VAL792 
 PHE793  MET794  SER795  GLU796  ALA797  LYS798  CYS799  TRP800  GLU811  SER814 

> <Gold.Protein.RotatedAtoms>
  151.3161  133.4060  159.2650 H   0  0  0  0  0  0  0  0  0  0  0  0  # atno 6907 bound_to 6896
  151.0073  134.9370  159.7998 H   0  0  0  0  0  0  0  0  0  0  0  0  # atno 6908 bound_to 6896
  152.5291  134.3126  159.9171 H   0  0  0  0  0  0  0  0  0  0  0  0  # atno 6909 bound_to 6896
  145.8543  139.3274  143.0856 H   0  0  0  0  0  0  0  0  0  0  0  0  # atno 7974 bound_to 7965
  156.1767  140.1659  156.8349 H   0  0  0  0  0  0  0  0  0  0  0  0  # atno 8008 bound_to 7997
  154.5315  140.0756  156.8386 H   0  0  0  0  0  0  0  0  0  0  0  0  # atno 8009 bound_to 7997
  155.3398  140.3384  155.4241 H   0  0  0  0  0  0  0  0  0  0  0  0  # atno 8010 bound_to 7997
  139.8968  144.6353  150.8680 H   0  0  0  0  0  0  0  0  0  0  0  0  # atno 10167 bound_to 10162
  156.6923  130.5069  149.5940 H   0  0  0  0  0  0  0  0  0  0  0  0  # atno 10718 bound_to 10713
  154.7035  135.5165  153.8561 H   0  0  0  0  0  0  0  0  0  0  0  0  # atno 10763 bound_to 10752
  153.0723  135.6605  154.0230 H   0  0  0  0  0  0  0  0  0  0  0  0  # atno 10764 bound_to 10752
  154.0085  135.3004  155.3374 H   0  0  0  0  0  0  0  0  0  0  0  0  # atno 10765 bound_to 10752
  140.8504  134.2293  157.4763 H   0  0  0  0  0  0  0  0  0  0  0  0  # atno 11005 bound_to 11000
  145.9321  140.9041  143.0351 LP  0  0  0  0  0  0  0  0  0  0  0  0  # atno 17320 bound_to 7965
  144.6728  140.1433  143.7435 LP  0  0  0  0  0  0  0  0  0  0  0  0  # atno 17321 bound_to 7965
  140.7715  143.3467  151.2096 LP  0  0  0  0  0  0  0  0  0  0  0  0  # atno 17342 bound_to 10162
  139.7061  143.9453  152.2927 LP  0  0  0  0  0  0  0  0  0  0  0  0  # atno 17343 bound_to 10162
  156.1788  130.6485  151.0927 LP  0  0  0  0  0  0  0  0  0  0  0  0  # atno 17370 bound_to 10713
  157.7004  131.0778  150.6838 LP  0  0  0  0  0  0  0  0  0  0  0  0  # atno 17371 bound_to 10713
  139.8704  134.9680  156.4617 LP  0  0  0  0  0  0  0  0  0  0  0  0  # atno 17394 bound_to 11000
  140.8796  133.7927  155.9452 LP  0  0  0  0  0  0  0  0  0  0  0  0  # atno 17395 bound_to 11000

$$$$
