AV-unprocessed.smi:72|AV-procd|sdf|715|dock2
  -GOLD-   2262017 43D 1   1.00000     0.00000
 Structure written by MMmdl.
 28 29  0  0  0  0  0  0  0  0  2 V2000
  148.4209  136.7698  160.7397 N   0  0  0  0  0  0  0  0  0  0  0  0
  148.7548  136.8821  159.5295 C   0  0  0  0  0  0  0  0  0  0  0  0
  148.4102  138.0741  158.7877 N   0  0  0  0  0  0  0  0  0  0  0  0
  148.7155  138.1101  157.5272 C   0  0  0  0  0  0  0  0  0  0  0  0
  149.3415  136.9789  156.8477 N   0  0  0  0  0  0  0  0  0  0  0  0
  149.7183  137.0410  155.3712 C   0  0  2  0  0  0  0  0  0  0  0  0
  151.1074  137.1919  155.2426 O   0  0  0  0  0  0  0  0  0  0  0  0
  151.4644  138.5190  154.8570 C   0  0  2  0  0  0  0  0  0  0  0  0
  151.6574  139.4232  156.0966 C   0  0  0  0  0  0  0  0  0  0  0  0
  152.8613  139.0879  156.7534 O   0  0  0  0  0  0  0  0  0  0  0  0
  150.2851  138.8954  153.9549 C   0  0  2  0  0  0  0  0  0  0  0  0
  150.1170  140.2917  153.8062 O   0  0  0  0  0  0  0  0  0  0  0  0
  149.0876  138.2523  154.6413 C   0  0  1  0  0  0  0  0  0  0  0  0
  148.1523  137.8500  153.6605 O   0  0  0  0  0  0  0  0  0  0  0  0
  149.7753  135.8754  157.6352 C   0  0  0  0  0  0  0  0  0  0  0  0
  150.4386  134.9931  157.0910 O   0  0  0  0  0  0  0  0  0  0  0  0
  149.4552  135.8436  158.9589 N   0  5  0  0  0  0  0  0  0  0  0  0
  149.4164  136.0708  154.9731 H   0  0  0  0  0  0  0  0  0  0  0  0
  152.3867  138.5028  154.2748 H   0  0  0  0  0  0  0  0  0  0  0  0
  150.4437  138.4472  152.9723 H   0  0  0  0  0  0  0  0  0  0  0  0
  148.6385  138.9382  155.3617 H   0  0  0  0  0  0  0  0  0  0  0  0
  148.7260  135.8956  161.1423 H   0  0  0  0  0  0  0  0  0  0  0  0
  148.5191  138.9856  156.9084 H   0  0  0  0  0  0  0  0  0  0  0  0
  151.7539  140.4667  155.7980 H   0  0  0  0  0  0  0  0  0  0  0  0
  150.8158  139.3748  156.7858 H   0  0  0  0  0  0  0  0  0  0  0  0
  152.7972  138.1963  157.0599 H   0  0  0  0  0  0  0  0  0  0  0  0
  149.6939  140.4512  152.9760 H   0  0  0  0  0  0  0  0  0  0  0  0
  148.5746  137.2228  153.0923 H   0  0  0  0  0  0  0  0  0  0  0  0
  1  2  2  0  0  0  0
  1 22  1  0  0  0  0
  2 17  1  0  0  0  0
  2  3  1  0  0  0  0
  3  4  2  0  0  0  0
  4  5  1  0  0  0  0
  4 23  1  0  0  0  0
  5  6  1  0  0  0  0
  5 15  1  0  0  0  0
  6 18  1  0  0  0  0
  6 13  1  0  0  0  0
  6  7  1  0  0  0  0
  7  8  1  0  0  0  0
  8 19  1  0  0  0  0
  8  9  1  0  0  0  0
  8 11  1  0  0  0  0
  9 10  1  0  0  0  0
  9 24  1  0  0  0  0
  9 25  1  0  0  0  0
 10 26  1  0  0  0  0
 11 20  1  0  0  0  0
 11 12  1  0  0  0  0
 11 13  1  0  0  0  0
 12 27  1  0  0  0  0
 13 21  1  0  0  0  0
 13 14  1  0  0  0  0
 14 28  1  0  0  0  0
 15 16  2  0  0  0  0
 15 17  1  0  0  0  0
M  CHG  1  17  -1
M  END
> <s_m_source_file>
AV-unprocessed.smi

> <i_m_source_file_index>
72

> <i_lp_mmshare_version>
43012

> <i_f3d_flags>
0

> <s_epik_input>
W05IMl1jMW5bY0hdbihjKD1PKW4xKVtDQEBIXTJPW0NASF0oW0NIMl1bT0hdKVtDQEBIXShbT0hdKVtDQEhdMltPSF0=

> <s_epik_cmdline>
J2VwaWtfcHl0aG9uJywgJy1waCcsICc3LjAnLCAnLXRuJywgJzgnLCAnLW1hJywgJzIwMCcsICctbWV0YWxfYmluZGluZycsICctaW1hZScsICc8aW5maWxlLm1hZT4nLCAnLW9tYWUnLCAnPG91dGZpbGUubWFlPic=

> <r_lp_tautomer_probability>
7.17554e-07

> <r_epik_Ionization_Penalty>
12.8705

> <r_epik_Ionization_Penalty_Charging>
5.64144

> <r_epik_Ionization_Penalty_Neutral>
7.22905

> <r_epik_State_Penalty>
3.30104

> <r_epik_Charging_Adjusted_Penalty>
8.94249

> <i_epik_Tot_Q>
-1

> <i_epik_Tot_abs_Q>
1

> <r_epik_Metal_State_Penalty>
0.529074

> <b_epik_Metal_Only>
1

> <s_epik_Chemistry_Notes>
This compound contains an acetal/aminal-like group ( X-CH(R)-Y where X, Y are N, S, or O) that may be acid/base labile, releasing an aldehyde.

> <s_lp_Force_Field>
OPLS_2005

> <r_lp_Energy>
34.2271

> <b_lp_Chiralities_Consistent>
1

> <s_lp_Variant>
AV-unprocessed.smi:72-53

> <Gold.Version>
5.8.1

> <Gold.Id.Protein>
6NUR|6NUR_protein|mol2

> <Gold.PLP.Fitness>
42.2441

> <Gold.PLP.PLP>
-22.4640

> <Gold.PLP.part.hbond>
-7.8833

> <Gold.PLP.part.metal>
0.0000

> <Gold.PLP.part.buried>
-3.6940

> <Gold.PLP.part.nonpolar>
-11.6907

> <Gold.PLP.part.repulsive>
0.0986

> <Gold.PLP.ligand.clash>
0.0000

> <Gold.PLP.ligand.torsion>
0.2499

> <Gold.PLP.Chemscore.Hbond>
6.7280

> <Gold.PLP.Chemscore.CHOScore>
0.0000

> <Gold.PLP.Chemscore.Metal>
0.0000

> <Gold.Chemscore.Hbonds>
donor molecule, donor type, donor heavy atom, donor atom, acceptor molecule, acceptor atom, score
      L1  H    12    27       P1  7957  0.94
      L1  H    14    28       P1  7948  1.00
      P1  H  6896  6908       L1    17  2.00
      P1  H  6931  6943       L1     1  0.99
      P1  H  7989  7998       L1    12  0.71
      P1  H  7997  8010       L1    10  1.00

> <Gold.PLP.Chemscore.Internal.Correction>
0.0960

> <Gold.Rescore>
     Score         DG    S(hbond)    S(metal)    S(lipo)     H(rot)  DE(clash)    DE(int)     intcor
     12.91     -13.48       4.58        0.00      25.94       4.04       0.01       0.56       ----

> <Gold.Chemscore.Fitness>
12.9094

> <Gold.Chemscore.DG>
-13.4769

> <Gold.Chemscore.ZeroCoef>
-5.4800

> <Gold.Chemscore.Hbond>
4.5822

> <Gold.Chemscore.Metal>
0.0000

> <Gold.Chemscore.Lipo>
25.9449

> <Gold.Chemscore.Internal_Hbond>
0.0000

> <Gold.Chemscore.DEClash>
0.0060

> <Gold.Chemscore.DEInternal>
0.5615

> <Gold.Chemscore.Rot>
4.0403

> <Gold.Chemscore.Internal.Correction>
   9.000000E+99

> <Gold.Chemscore.Hbonds>
donor molecule, donor type, donor heavy atom, donor atom, acceptor molecule, acceptor atom, score
      L1  H    12    27       P1  7957  0.91
      L1  H    14    28       P1  7948  0.99
      P1  H  6896  6908       L1    17  0.30
      P1  H  6931  6943       L1     1  0.57
      P1  H  7989  7998       L1    12  0.09
      P1  H  7997  8010       L1    10  0.97
      P1  H 10752 10763       L1     7  0.01

> <Gold.Chemscore.Hbond.Weighted>
-15.3045

> <Gold.Chemscore.Metal.Weighted>
-0.0000

> <Gold.Chemscore.Lipo.Weighted>
-3.0356

> <Gold.Chemscore.Internal_Hbond.Weighted>
0.0000

> <Gold.Chemscore.DEClash.Weighted>
0.0060

> <Gold.Chemscore.DEInternal.Weighted>
0.5615

> <Gold.Chemscore.Rot.Weighted>
10.3431

> <Gold.Chemscore.Internal.Correction.Weighted>
   9.000000E+99

> <Gold.Protein.RotatedTorsions>
[ 6907 6896 6895 6894 ] final  177.48 input  -60.11 | X-H torsion
[ 7974 7965 7964 7962 ] final -178.01 input  175.53 | X-H torsion
[ 8008 7997 7996 7995 ] final   71.14 input   59.86 | X-H torsion
[ 10167 10162 10161 10158 ] final  155.63 input  -65.29 | X-H torsion
[ 10718 10713 10712 10709 ] final -134.96 input   66.30 | X-H torsion
[ 10763 10752 10751 10750 ] final   55.72 input  -60.55 | X-H torsion
[ 11005 11000 10999 10996 ] final  109.39 input  -57.11 | X-H torsion

> <Gold.Protein.ActiveResidues>
 VAL166  LYS551  ARG553  GLY616  TRP617  ASP618  TYR619  PRO620  LYS621  CYS622 
 ASP623  PHE694  ASN695  SER759  ASP760  ASP761  ALA762  ILE779  LEU786  VAL792 
 PHE793  MET794  SER795  GLU796  ALA797  LYS798  CYS799  TRP800  GLU811  SER814 

> <Gold.Protein.RotatedAtoms>
  151.7033  133.3311  159.3271 H   0  0  0  0  0  0  0  0  0  0  0  0  # atno 6907 bound_to 6896
  150.7726  134.6597  159.6342 H   0  0  0  0  0  0  0  0  0  0  0  0  # atno 6908 bound_to 6896
  152.3756  134.6671  160.0213 H   0  0  0  0  0  0  0  0  0  0  0  0  # atno 6909 bound_to 6896
  144.7129  140.0933  143.6420 H   0  0  0  0  0  0  0  0  0  0  0  0  # atno 7974 bound_to 7965
  155.7494  140.3489  155.5143 H   0  0  0  0  0  0  0  0  0  0  0  0  # atno 8008 bound_to 7997
  155.9019  140.1035  157.1365 H   0  0  0  0  0  0  0  0  0  0  0  0  # atno 8009 bound_to 7997
  154.4045  140.1284  156.4434 H   0  0  0  0  0  0  0  0  0  0  0  0  # atno 8010 bound_to 7997
  139.4821  144.5081  151.8066 H   0  0  0  0  0  0  0  0  0  0  0  0  # atno 10167 bound_to 10162
  156.2611  130.7210  151.1144 H   0  0  0  0  0  0  0  0  0  0  0  0  # atno 10718 bound_to 10713
  152.9821  135.5701  154.5113 H   0  0  0  0  0  0  0  0  0  0  0  0  # atno 10763 bound_to 10752
  154.4617  135.2781  155.1710 H   0  0  0  0  0  0  0  0  0  0  0  0  # atno 10764 bound_to 10752
  154.3295  135.6252  153.5598 H   0  0  0  0  0  0  0  0  0  0  0  0  # atno 10765 bound_to 10752
  139.8861  134.9457  156.6118 H   0  0  0  0  0  0  0  0  0  0  0  0  # atno 11005 bound_to 11000
  145.9601  139.2794  143.1161 LP  0  0  0  0  0  0  0  0  0  0  0  0  # atno 17320 bound_to 7965
  145.9230  140.9102  143.0395 LP  0  0  0  0  0  0  0  0  0  0  0  0  # atno 17321 bound_to 7965
  140.4581  144.1760  150.5903 LP  0  0  0  0  0  0  0  0  0  0  0  0  # atno 17342 bound_to 10162
  140.4513  143.2485  151.9344 LP  0  0  0  0  0  0  0  0  0  0  0  0  # atno 17343 bound_to 10162
  157.7250  131.0656  150.5969 LP  0  0  0  0  0  0  0  0  0  0  0  0  # atno 17370 bound_to 10713
  156.6057  130.4366  149.5879 LP  0  0  0  0  0  0  0  0  0  0  0  0  # atno 17371 bound_to 10713
  140.7806  133.8663  155.8564 LP  0  0  0  0  0  0  0  0  0  0  0  0  # atno 17394 bound_to 11000
  140.9764  134.1464  157.4533 LP  0  0  0  0  0  0  0  0  0  0  0  0  # atno 17395 bound_to 11000

$$$$
