AV-unprocessed.smi:2256|AV-procd|sdf|9127|dock4
  -GOLD-   2272012333D 1   1.00000     0.00000
 Structure written by MMmdl.
 42 44  0  0  0  0  0  0  0  0  1 V2000
  145.7641  136.3320  151.6458 C   0  0  0  0  0  0  0  0  0  0  0  0
  146.2763  137.4051  152.5902 C   0  0  0  0  0  0  0  0  0  0  0  0
  146.7520  138.5696  151.9803 N   0  0  0  0  0  0  0  0  0  0  0  0
  147.2033  139.5396  152.7064 C   0  0  0  0  0  0  0  0  0  0  0  0
  147.2293  139.4613  154.1083 N   0  0  0  0  0  0  0  0  0  0  0  0
  147.7673  140.6347  154.8163 C   0  0  0  0  0  0  0  0  0  0  0  0
  149.3124  140.6544  154.8153 C   0  0  1  0  0  0  0  0  0  0  0  0
  149.8021  140.8146  153.4992 O   0  0  0  0  0  0  0  0  0  0  0  0
  149.9037  141.7856  155.6732 C   0  0  0  0  0  0  0  0  0  0  0  0
  150.8460  141.2502  156.5947 O   0  0  0  0  0  0  0  0  0  0  0  0
  151.4025  142.0932  157.5332 C   0  0  0  0  0  0  0  0  0  0  0  0
  151.2331  143.5026  157.5277 C   0  0  0  0  0  0  0  0  0  0  0  0
  151.8307  144.3048  158.5184 C   0  0  0  0  0  0  0  0  0  0  0  0
  152.6058  143.7123  159.5290 C   0  0  0  0  0  0  0  0  0  0  0  0
  152.7740  142.3176  159.5359 C   0  0  0  0  0  0  0  0  0  0  0  0
  153.4625  141.4693  160.3808 N   0  0  0  0  0  0  0  0  0  0  0  0
  153.3300  140.1553  159.9684 C   0  0  0  0  0  0  0  0  0  0  0  0
  152.5492  140.1204  158.8425 C   0  0  0  0  0  0  0  0  0  0  0  0
  152.1817  141.4791  158.5456 C   0  0  0  0  0  0  0  0  0  0  0  0
  146.8023  138.3548  154.7828 C   0  0  0  0  0  0  0  0  0  0  0  0
  146.8552  138.2856  156.0122 O   0  0  0  0  0  0  0  0  0  0  0  0
  146.2830  137.2627  153.9438 C   0  0  0  0  0  0  0  0  0  0  0  0
  145.7766  136.0192  154.6639 C   0  0  0  0  0  0  0  0  0  0  0  0
  153.9963  141.7420  161.1938 H   0  0  0  0  0  0  0  0  0  0  0  0
  144.7105  136.1263  151.8358 H   0  0  0  0  0  0  0  0  0  0  0  0
  146.3292  135.4087  151.7751 H   0  0  0  0  0  0  0  0  0  0  0  0
  145.8623  136.6390  150.6040 H   0  0  0  0  0  0  0  0  0  0  0  0
  147.5909  140.4668  152.2806 H   0  0  0  0  0  0  0  0  0  0  0  0
  147.3707  141.5714  154.4186 H   0  0  0  0  0  0  0  0  0  0  0  0
  147.4075  140.6107  155.8468 H   0  0  0  0  0  0  0  0  0  0  0  0
  149.7031  139.7097  155.1952 H   0  0  0  0  0  0  0  0  0  0  0  0
  149.3990  140.1600  152.9492 H   0  0  0  0  0  0  0  0  0  0  0  0
  150.4120  142.4920  155.0148 H   0  0  0  0  0  0  0  0  0  0  0  0
  149.1093  142.3268  156.1903 H   0  0  0  0  0  0  0  0  0  0  0  0
  150.6455  143.9972  156.7694 H   0  0  0  0  0  0  0  0  0  0  0  0
  151.6931  145.3759  158.5012 H   0  0  0  0  0  0  0  0  0  0  0  0
  153.0665  144.3224  160.2919 H   0  0  0  0  0  0  0  0  0  0  0  0
  153.8034  139.3504  160.5113 H   0  0  0  0  0  0  0  0  0  0  0  0
  152.2587  139.2471  158.2776 H   0  0  0  0  0  0  0  0  0  0  0  0
  146.5799  135.5703  155.2485 H   0  0  0  0  0  0  0  0  0  0  0  0
  145.3975  135.2552  153.9873 H   0  0  0  0  0  0  0  0  0  0  0  0
  144.9678  136.2825  155.3461 H   0  0  0  0  0  0  0  0  0  0  0  0
  1  2  1  0  0  0  0
  1 25  1  0  0  0  0
  1 26  1  0  0  0  0
  1 27  1  0  0  0  0
  2 22  2  0  0  0  0
  2  3  1  0  0  0  0
  3  4  2  0  0  0  0
  4  5  1  0  0  0  0
  4 28  1  0  0  0  0
  5  6  1  0  0  0  0
  5 20  1  0  0  0  0
  6  7  1  0  0  0  0
  6 29  1  0  0  0  0
  6 30  1  0  0  0  0
  7  8  1  0  0  0  0
  7  9  1  0  0  0  0
  7 31  1  0  0  0  0
  8 32  1  0  0  0  0
  9 10  1  0  0  0  0
  9 33  1  0  0  0  0
  9 34  1  0  0  0  0
 10 11  1  0  0  0  0
 11 19  1  0  0  0  0
 11 12  2  0  0  0  0
 12 13  1  0  0  0  0
 12 35  1  0  0  0  0
 13 14  2  0  0  0  0
 13 36  1  0  0  0  0
 14 15  1  0  0  0  0
 14 37  1  0  0  0  0
 15 19  2  0  0  0  0
 15 16  1  0  0  0  0
 16 24  1  0  0  0  0
 16 17  1  0  0  0  0
 17 18  2  0  0  0  0
 17 38  1  0  0  0  0
 18 19  1  0  0  0  0
 18 39  1  0  0  0  0
 20 21  2  0  0  0  0
 20 22  1  0  0  0  0
 22 23  1  0  0  0  0
 23 40  1  0  0  0  0
 23 41  1  0  0  0  0
 23 42  1  0  0  0  0
M  END
> <s_m_source_file>
AV-unprocessed.smi

> <i_m_source_file_index>
2256

> <i_lp_mmshare_version>
43012

> <i_f3d_flags>
0

> <s_epik_input>
W0NIM11jMW5bY0hdbihjKD1PKWMxW0NIM10pW0NIMl1bQ0BIXShbT0hdKVtDSDJdT2MoW2NIXVtjSF1bY0hdMiljKGMyMylbY0hdW2NIXVtuSF0z

> <s_epik_cmdline>
J2VwaWtfcHl0aG9uJywgJy1waCcsICc3LjAnLCAnLXRuJywgJzgnLCAnLW1hJywgJzIwMCcsICctbWV0YWxfYmluZGluZycsICctaW1hZScsICc8aW5maWxlLm1hZT4nLCAnLW9tYWUnLCAnPG91dGZpbGUubWFlPic=

> <r_lp_tautomer_probability>
1

> <r_epik_Ionization_Penalty>
4.18314e-05

> <r_epik_Ionization_Penalty_Charging>
1.04093e-07

> <r_epik_Ionization_Penalty_Neutral>
4.17273e-05

> <r_epik_State_Penalty>
-0

> <r_epik_Charging_Adjusted_Penalty>
1.04093e-07

> <i_epik_Tot_Q>
0

> <i_epik_Tot_abs_Q>
0

> <r_epik_Metal_State_Penalty>
-0

> <b_epik_Metal_Only>
0

> <s_lp_Force_Field>
OPLS_2005

> <r_lp_Energy>
26.3199

> <b_lp_Chiralities_Consistent>
1

> <s_lp_Variant>
AV-unprocessed.smi:2256-2

> <Gold.Version>
5.8.1

> <Gold.Id.Protein>
6NUR|6NUR_protein|mol2

> <Gold.PLP.Fitness>
45.4515

> <Gold.PLP.PLP>
-40.2410

> <Gold.PLP.part.hbond>
-2.4537

> <Gold.PLP.part.metal>
0.0000

> <Gold.PLP.part.buried>
-3.0469

> <Gold.PLP.part.nonpolar>
-34.5774

> <Gold.PLP.part.repulsive>
0.4367

> <Gold.PLP.ligand.clash>
0.0000

> <Gold.PLP.ligand.torsion>
1.0986

> <Gold.PLP.Chemscore.Hbond>
1.7840

> <Gold.PLP.Chemscore.CHOScore>
0.6575

> <Gold.PLP.Chemscore.Metal>
0.0000

> <Gold.Chemscore.Hbonds>
donor molecule, donor type, donor heavy atom, donor atom, acceptor molecule, acceptor atom, score
      L1  H     8    32       P1  7957  0.50
      P1  H  7989  7998       L1     8  0.34
      P1  H  8011  8017       L1     8  1.00
      L1  C     4    28       P1  7957  0.60

> <Gold.PLP.Chemscore.Internal.Correction>
0.0832

> <Gold.Rescore>
     Score         DG    S(hbond)    S(metal)    S(lipo)     H(rot)  DE(clash)    DE(int)     intcor
     15.23     -16.48       1.37        0.00     111.31       2.58       0.09       1.15       ----

> <Gold.Chemscore.Fitness>
15.2318

> <Gold.Chemscore.DG>
-16.4798

> <Gold.Chemscore.ZeroCoef>
-5.4800

> <Gold.Chemscore.Hbond>
1.3718

> <Gold.Chemscore.Metal>
0.0000

> <Gold.Chemscore.Lipo>
111.3145

> <Gold.Chemscore.Internal_Hbond>
0.0000

> <Gold.Chemscore.DEClash>
0.0939

> <Gold.Chemscore.DEInternal>
1.1541

> <Gold.Chemscore.Rot>
2.5804

> <Gold.Chemscore.Internal.Correction>
   9.000000E+99

> <Gold.Chemscore.Hbonds>
donor molecule, donor type, donor heavy atom, donor atom, acceptor molecule, acceptor atom, score
      L1  H     8    32       P1  7957  0.50
      P1  H  7989  7998       L1     8  0.26
      P1  H  8011  8017       L1     8  0.33

> <Gold.Chemscore.Hbond.Weighted>
-4.5819

> <Gold.Chemscore.Metal.Weighted>
-0.0000

> <Gold.Chemscore.Lipo.Weighted>
-13.0238

> <Gold.Chemscore.Internal_Hbond.Weighted>
0.0000

> <Gold.Chemscore.DEClash.Weighted>
0.0939

> <Gold.Chemscore.DEInternal.Weighted>
1.1541

> <Gold.Chemscore.Rot.Weighted>
6.6059

> <Gold.Chemscore.Internal.Correction.Weighted>
   9.000000E+99

> <Gold.Protein.RotatedTorsions>
[ 6907 6896 6895 6894 ] final   70.92 input  -60.11 | X-H torsion
[ 7974 7965 7964 7962 ] final   76.08 input  175.53 | X-H torsion
[ 8008 7997 7996 7995 ] final   37.68 input   59.86 | X-H torsion
[ 10167 10162 10161 10158 ] final -109.55 input  -65.29 | X-H torsion
[ 10718 10713 10712 10709 ] final -161.42 input   66.30 | X-H torsion
[ 10763 10752 10751 10750 ] final   80.44 input  -60.55 | X-H torsion
[ 11005 11000 10999 10996 ] final  151.56 input  -57.11 | X-H torsion

> <Gold.Protein.ActiveResidues>
 VAL166  LYS551  ARG553  GLY616  TRP617  ASP618  TYR619  PRO620  LYS621  CYS622 
 ASP623  PHE694  ASN695  SER759  ASP760  ASP761  ALA762  ILE779  LEU786  VAL792 
 PHE793  MET794  SER795  GLU796  ALA797  LYS798  CYS799  TRP800  GLU811  SER814 

> <Gold.Protein.RotatedAtoms>
  152.4779  134.4797  159.9661 H   0  0  0  0  0  0  0  0  0  0  0  0  # atno 6907 bound_to 6896
  151.4809  133.3540  159.2846 H   0  0  0  0  0  0  0  0  0  0  0  0  # atno 6908 bound_to 6896
  150.8830  134.8250  159.7299 H   0  0  0  0  0  0  0  0  0  0  0  0  # atno 6909 bound_to 6896
  145.7075  139.2603  143.1670 H   0  0  0  0  0  0  0  0  0  0  0  0  # atno 7974 bound_to 7965
  155.2077  140.3321  155.4333 H   0  0  0  0  0  0  0  0  0  0  0  0  # atno 8008 bound_to 7997
  156.2382  140.1882  156.7109 H   0  0  0  0  0  0  0  0  0  0  0  0  # atno 8009 bound_to 7997
  154.6099  140.0610  156.9465 H   0  0  0  0  0  0  0  0  0  0  0  0  # atno 8010 bound_to 7997
  140.1541  143.4174  152.1473 H   0  0  0  0  0  0  0  0  0  0  0  0  # atno 10167 bound_to 10162
  156.5959  130.8790  151.2902 H   0  0  0  0  0  0  0  0  0  0  0  0  # atno 10718 bound_to 10713
  153.1034  135.4802  154.8907 H   0  0  0  0  0  0  0  0  0  0  0  0  # atno 10763 bound_to 10752
  154.7403  135.3081  154.8742 H   0  0  0  0  0  0  0  0  0  0  0  0  # atno 10764 bound_to 10752
  153.9352  135.6840  153.4798 H   0  0  0  0  0  0  0  0  0  0  0  0  # atno 10765 bound_to 10752
  140.1230  134.8851  157.2098 H   0  0  0  0  0  0  0  0  0  0  0  0  # atno 11005 bound_to 11000
  146.0743  140.7835  142.9673 LP  0  0  0  0  0  0  0  0  0  0  0  0  # atno 17320 bound_to 7965
  144.6951  140.3390  143.7202 LP  0  0  0  0  0  0  0  0  0  0  0  0  # atno 17321 bound_to 7965
  139.5412  144.7257  151.4729 LP  0  0  0  0  0  0  0  0  0  0  0  0  # atno 17342 bound_to 10162
  140.6684  143.8348  150.6969 LP  0  0  0  0  0  0  0  0  0  0  0  0  # atno 17343 bound_to 10162
  157.7292  130.9667  150.1775 LP  0  0  0  0  0  0  0  0  0  0  0  0  # atno 17370 bound_to 10713
  156.2510  130.3700  149.8233 LP  0  0  0  0  0  0  0  0  0  0  0  0  # atno 17371 bound_to 10713
  140.2941  134.3207  155.7307 LP  0  0  0  0  0  0  0  0  0  0  0  0  # atno 17394 bound_to 11000
  141.2155  133.7552  156.9545 LP  0  0  0  0  0  0  0  0  0  0  0  0  # atno 17395 bound_to 11000

$$$$
