AV-unprocessed.smi:110|AV-procd|sdf|1069|dock4
  -GOLD-   2262018153D 1   1.00000     0.00000
 Structure written by MMmdl.
 46 50  0  0  0  0  0  0  0  0  1 V2000
  146.6694  136.7324  153.2680 O   0  0  0  0  0  0  0  0  0  0  0  0
  146.6746  137.0612  154.6409 C   0  0  0  0  0  0  0  0  0  0  0  0
  147.2423  138.4743  154.8433 C   0  0  1  0  0  0  0  0  0  0  0  0
  148.5596  138.5399  154.3177 O   0  0  0  0  0  0  0  0  0  0  0  0
  148.8795  139.8591  154.0149 C   0  0  2  0  0  0  0  0  0  0  0  0
  149.6064  140.4550  155.1913 N   0  0  0  0  0  0  0  0  0  0  0  0
  149.2498  141.6119  155.8478 C   0  0  0  0  0  0  0  0  0  0  0  0
  150.0291  141.9702  156.8292 N   0  0  0  0  0  0  0  0  0  0  0  0
  151.0293  141.0079  156.8387 C   0  0  0  0  0  0  0  0  0  0  0  0
  152.1900  140.7900  157.6359 C   0  0  0  0  0  0  0  0  0  0  0  0
  152.5785  141.5803  158.6635 N   0  0  0  0  0  0  0  0  0  0  0  0
  153.0995  140.9363  159.8785 C   0  0  0  0  0  0  0  0  0  0  0  0
  152.9163  141.9221  161.0480 C   0  0  0  0  0  0  0  0  0  0  0  0
  152.3639  143.1123  160.3333 C   0  0  0  0  0  0  0  0  0  0  0  0
  152.0416  144.3647  160.8845 C   0  0  0  0  0  0  0  0  0  0  0  0
  151.5450  145.3638  160.0199 C   0  0  0  0  0  0  0  0  0  0  0  0
  151.3886  145.1009  158.6390 C   0  0  0  0  0  0  0  0  0  0  0  0
  151.7205  143.8352  158.1074 C   0  0  0  0  0  0  0  0  0  0  0  0
  152.1976  142.8358  158.9802 C   0  0  0  0  0  0  0  0  0  0  0  0
  152.9314  139.6833  157.3812 N   0  0  0  0  0  0  0  0  0  0  0  0
  152.5872  138.8624  156.3873 C   0  0  0  0  0  0  0  0  0  0  0  0
  151.5484  138.9520  155.5562 N   0  0  0  0  0  0  0  0  0  0  0  0
  150.7739  140.0454  155.8181 C   0  0  0  0  0  0  0  0  0  0  0  0
  147.5663  140.5789  153.6638 C   0  0  1  0  0  0  0  0  0  0  0  0
  147.4997  140.8685  152.2817 O   0  0  0  0  0  0  0  0  0  0  0  0
  146.4930  139.5528  154.0433 C   0  0  2  0  0  0  0  0  0  0  0  0
  145.4944  140.1473  154.8480 O   0  0  0  0  0  0  0  0  0  0  0  0
  147.2653  138.7267  155.9037 H   0  0  0  0  0  0  0  0  0  0  0  0
  149.6169  139.8917  153.2117 H   0  0  0  0  0  0  0  0  0  0  0  0
  147.4822  141.5201  154.2062 H   0  0  0  0  0  0  0  0  0  0  0  0
  146.0396  139.1163  153.1515 H   0  0  0  0  0  0  0  0  0  0  0  0
  147.5130  136.3708  153.0426 H   0  0  0  0  0  0  0  0  0  0  0  0
  145.6708  136.9726  155.0573 H   0  0  0  0  0  0  0  0  0  0  0  0
  147.3031  136.3293  155.1492 H   0  0  0  0  0  0  0  0  0  0  0  0
  148.3778  142.1886  155.5754 H   0  0  0  0  0  0  0  0  0  0  0  0
  152.5769  139.9990  160.0753 H   0  0  0  0  0  0  0  0  0  0  0  0
  154.1555  140.7036  159.7361 H   0  0  0  0  0  0  0  0  0  0  0  0
  152.2021  141.5541  161.7850 H   0  0  0  0  0  0  0  0  0  0  0  0
  153.8589  142.1597  161.5416 H   0  0  0  0  0  0  0  0  0  0  0  0
  152.1726  144.5590  161.9387 H   0  0  0  0  0  0  0  0  0  0  0  0
  151.2886  146.3362  160.4138 H   0  0  0  0  0  0  0  0  0  0  0  0
  151.0155  145.8746  157.9844 H   0  0  0  0  0  0  0  0  0  0  0  0
  151.6101  143.6437  157.0503 H   0  0  0  0  0  0  0  0  0  0  0  0
  153.2349  138.0113  156.2375 H   0  0  0  0  0  0  0  0  0  0  0  0
  148.2860  140.5442  151.8695 H   0  0  0  0  0  0  0  0  0  0  0  0
  144.7355  140.3100  154.3079 H   0  0  0  0  0  0  0  0  0  0  0  0
  1  2  1  0  0  0  0
  1 32  1  0  0  0  0
  2  3  1  0  0  0  0
  2 33  1  0  0  0  0
  2 34  1  0  0  0  0
  3 28  1  0  0  0  0
  3 26  1  0  0  0  0
  3  4  1  0  0  0  0
  4  5  1  0  0  0  0
  5 29  1  0  0  0  0
  5  6  1  0  0  0  0
  5 24  1  0  0  0  0
  6 23  1  0  0  0  0
  6  7  1  0  0  0  0
  7  8  2  0  0  0  0
  7 35  1  0  0  0  0
  8  9  1  0  0  0  0
  9 23  2  0  0  0  0
  9 10  1  0  0  0  0
 10 11  1  0  0  0  0
 10 20  2  0  0  0  0
 11 19  1  0  0  0  0
 11 12  1  0  0  0  0
 12 13  1  0  0  0  0
 12 36  1  0  0  0  0
 12 37  1  0  0  0  0
 13 14  1  0  0  0  0
 13 38  1  0  0  0  0
 13 39  1  0  0  0  0
 14 19  2  0  0  0  0
 14 15  1  0  0  0  0
 15 16  2  0  0  0  0
 15 40  1  0  0  0  0
 16 17  1  0  0  0  0
 16 41  1  0  0  0  0
 17 18  2  0  0  0  0
 17 42  1  0  0  0  0
 18 19  1  0  0  0  0
 18 43  1  0  0  0  0
 20 21  1  0  0  0  0
 21 22  2  0  0  0  0
 21 44  1  0  0  0  0
 22 23  1  0  0  0  0
 24 30  1  0  0  0  0
 24 25  1  0  0  0  0
 24 26  1  0  0  0  0
 25 45  1  0  0  0  0
 26 31  1  0  0  0  0
 26 27  1  0  0  0  0
 27 46  1  0  0  0  0
M  END
> <s_m_source_file>
AV-unprocessed.smi

> <i_m_source_file_index>
110

> <i_lp_mmshare_version>
43012

> <i_f3d_flags>
0

> <s_epik_input>
W09IXVtDSDJdW0NASF0xT1tDQEhdKFtDQEhdKFtPSF0pW0NAQEhdMVtPSF0pbihbY0hdbjIpYyhjMjMpbltjSF1uYzNOKFtDSDJdW0NIMl00KWMoYzQ1KVtjSF1bY0hdW2NIXVtjSF01

> <s_epik_cmdline>
J2VwaWtfcHl0aG9uJywgJy1waCcsICc3LjAnLCAnLXRuJywgJzgnLCAnLW1hJywgJzIwMCcsICctbWV0YWxfYmluZGluZycsICctaW1hZScsICc8aW5maWxlLm1hZT4nLCAnLW9tYWUnLCAnPG91dGZpbGUubWFlPic=

> <r_lp_tautomer_probability>
1

> <r_epik_Ionization_Penalty>
0.00068475

> <r_epik_Ionization_Penalty_Charging>
0

> <r_epik_Ionization_Penalty_Neutral>
0.00068475

> <r_epik_State_Penalty>
0.000417442

> <r_epik_Charging_Adjusted_Penalty>
0.000417442

> <i_epik_Tot_Q>
0

> <i_epik_Tot_abs_Q>
0

> <r_epik_Metal_State_Penalty>
-0

> <b_epik_Metal_Only>
0

> <s_epik_Chemistry_Notes>
This compound contains an acetal/aminal-like group ( X-CH(R)-Y where X, Y are N, S, or O) that may be acid/base labile, releasing an aldehyde.

> <s_lp_Force_Field>
OPLS_2005

> <r_lp_Energy>
55.3724

> <b_lp_Chiralities_Consistent>
1

> <s_lp_Variant>
AV-unprocessed.smi:110-7

> <Gold.Version>
5.8.1

> <Gold.Id.Protein>
6NUR|6NUR_protein|mol2

> <Gold.PLP.Fitness>
61.2982

> <Gold.PLP.PLP>
-48.2169

> <Gold.PLP.part.hbond>
-3.8192

> <Gold.PLP.part.metal>
0.0000

> <Gold.PLP.part.buried>
-0.6583

> <Gold.PLP.part.nonpolar>
-44.4704

> <Gold.PLP.part.repulsive>
0.2925

> <Gold.PLP.ligand.clash>
0.0000

> <Gold.PLP.ligand.torsion>
0.4001

> <Gold.PLP.Chemscore.Hbond>
3.9100

> <Gold.PLP.Chemscore.CHOScore>
0.6622

> <Gold.PLP.Chemscore.Metal>
0.0000

> <Gold.Chemscore.Hbonds>
donor molecule, donor type, donor heavy atom, donor atom, acceptor molecule, acceptor atom, score
      L1  H     1    32       P1  7948  1.00
      L1  H    25    45       P1  7957  1.00
      L1  H    27    46       P1 10175  0.80
      P1  H  7997  8008       L1    20  1.00
      L1  C     7    35       P1  8028  0.57

> <Gold.PLP.Chemscore.Internal.Correction>
0.1651

> <Gold.Rescore>
     Score         DG    S(hbond)    S(metal)    S(lipo)     H(rot)  DE(clash)    DE(int)     intcor
     16.55     -21.06       3.36        0.00     111.39       3.38       2.77       1.74       ----

> <Gold.Chemscore.Fitness>
16.5501

> <Gold.Chemscore.DG>
-21.0562

> <Gold.Chemscore.ZeroCoef>
-5.4800

> <Gold.Chemscore.Hbond>
3.3552

> <Gold.Chemscore.Metal>
0.0000

> <Gold.Chemscore.Lipo>
111.3861

> <Gold.Chemscore.Internal_Hbond>
0.0000

> <Gold.Chemscore.DEClash>
2.7693

> <Gold.Chemscore.DEInternal>
1.7368

> <Gold.Chemscore.Rot>
3.3837

> <Gold.Chemscore.Internal.Correction>
   9.000000E+99

> <Gold.Chemscore.Hbonds>
donor molecule, donor type, donor heavy atom, donor atom, acceptor molecule, acceptor atom, score
      L1  H     1    32       P1  7948  0.94
      L1  H    25    45       P1  7957  0.96
      L1  H    27    46       P1 10175  0.77
      P1  H  7997  8008       L1    20  0.25

> <Gold.Chemscore.Hbond.Weighted>
-11.2062

> <Gold.Chemscore.Metal.Weighted>
-0.0000

> <Gold.Chemscore.Lipo.Weighted>
-13.0322

> <Gold.Chemscore.Internal_Hbond.Weighted>
0.0000

> <Gold.Chemscore.DEClash.Weighted>
2.7693

> <Gold.Chemscore.DEInternal.Weighted>
1.7368

> <Gold.Chemscore.Rot.Weighted>
8.6622

> <Gold.Chemscore.Internal.Correction.Weighted>
   9.000000E+99

> <Gold.Protein.RotatedTorsions>
[ 6907 6896 6895 6894 ] final   67.82 input  -60.11 | X-H torsion
[ 7974 7965 7964 7962 ] final   78.66 input  175.53 | X-H torsion
[ 8008 7997 7996 7995 ] final  -83.52 input   59.86 | X-H torsion
[ 10167 10162 10161 10158 ] final   36.91 input  -65.29 | X-H torsion
[ 10718 10713 10712 10709 ] final   44.02 input   66.30 | X-H torsion
[ 10763 10752 10751 10750 ] final -108.24 input  -60.55 | X-H torsion
[ 11005 11000 10999 10996 ] final  -46.10 input  -57.11 | X-H torsion

> <Gold.Protein.ActiveResidues>
 VAL166  LYS551  ARG553  GLY616  TRP617  ASP618  TYR619  PRO620  LYS621  CYS622 
 ASP623  PHE694  ASN695  SER759  ASP760  ASP761  ALA762  ILE779  LEU786  VAL792 
 PHE793  MET794  SER795  GLU796  ALA797  LYS798  CYS799  TRP800  GLU811  SER814 

> <Gold.Protein.RotatedAtoms>
  152.4578  134.5252  159.9794 H   0  0  0  0  0  0  0  0  0  0  0  0  # atno 6907 bound_to 6896
  151.5308  133.3443  159.2926 H   0  0  0  0  0  0  0  0  0  0  0  0  # atno 6908 bound_to 6896
  150.8529  134.7890  159.7085 H   0  0  0  0  0  0  0  0  0  0  0  0  # atno 6909 bound_to 6896
  145.6743  139.2505  143.1850 H   0  0  0  0  0  0  0  0  0  0  0  0  # atno 7974 bound_to 7965
  154.6200  140.0618  156.9603 H   0  0  0  0  0  0  0  0  0  0  0  0  # atno 8008 bound_to 7997
  155.1833  140.3301  155.4353 H   0  0  0  0  0  0  0  0  0  0  0  0  # atno 8009 bound_to 7997
  156.2426  140.1894  156.6928 H   0  0  0  0  0  0  0  0  0  0  0  0  # atno 8010 bound_to 7997
  140.4083  144.1628  150.6137 H   0  0  0  0  0  0  0  0  0  0  0  0  # atno 10167 bound_to 10162
  157.4223  130.7976  149.7527 H   0  0  0  0  0  0  0  0  0  0  0  0  # atno 10718 bound_to 10713
  154.8123  135.4645  154.0550 H   0  0  0  0  0  0  0  0  0  0  0  0  # atno 10763 bound_to 10752
  153.1971  135.6863  153.8285 H   0  0  0  0  0  0  0  0  0  0  0  0  # atno 10764 bound_to 10752
  153.7783  135.3260  155.3339 H   0  0  0  0  0  0  0  0  0  0  0  0  # atno 10765 bound_to 10752
  141.0558  133.6726  156.3107 H   0  0  0  0  0  0  0  0  0  0  0  0  # atno 11005 bound_to 11000
  146.1018  140.7534  142.9545 LP  0  0  0  0  0  0  0  0  0  0  0  0  # atno 17320 bound_to 7965
  144.7046  140.3800  143.7128 LP  0  0  0  0  0  0  0  0  0  0  0  0  # atno 17321 bound_to 7965
  140.4665  143.2429  151.9147 LP  0  0  0  0  0  0  0  0  0  0  0  0  # atno 17342 bound_to 10162
  139.4783  144.5413  151.8523 LP  0  0  0  0  0  0  0  0  0  0  0  0  # atno 17343 bound_to 10162
  155.9885  130.3959  150.3117 LP  0  0  0  0  0  0  0  0  0  0  0  0  # atno 17370 bound_to 10713
  157.1266  131.0261  151.2987 LP  0  0  0  0  0  0  0  0  0  0  0  0  # atno 17371 bound_to 10713
  140.5967  134.5595  157.5510 LP  0  0  0  0  0  0  0  0  0  0  0  0  # atno 17394 bound_to 11000
  139.9388  134.7824  156.0731 LP  0  0  0  0  0  0  0  0  0  0  0  0  # atno 17395 bound_to 11000

$$$$
