AV-unprocessed.smi:81|AV-procd|sdf|787|dock9
  -GOLD-   2262017153D 1   1.00000     0.00000
 Structure written by MMmdl.
 64 67  0  0  0  0  0  0  0  0  2 V2000
  148.8455  141.1702  153.9422 C   0  0  0  0  0  0  0  0  0  0  0  0
  149.8828  140.5668  154.9036 C   0  0  0  0  0  0  0  0  0  0  0  0
  150.5355  139.3246  154.2811 C   0  0  0  0  0  0  0  0  0  0  0  0
  149.2591  140.2183  156.2738 C   0  0  0  0  0  0  0  0  0  0  0  0
  150.2358  140.1082  157.3613 N   0  0  0  0  0  0  0  0  0  0  0  0
  150.1657  138.9534  158.0693 C   0  0  0  0  0  0  0  0  0  0  0  0
  151.2326  138.5381  158.8018 N   0  0  0  0  0  0  0  0  0  0  0  0
  151.1590  137.4058  159.5081 C   0  0  0  0  0  0  0  0  0  0  0  0
  150.1342  136.5584  159.6216 N   0  0  0  0  0  0  0  0  0  0  0  0
  149.0604  136.9775  158.8925 C   0  0  0  0  0  0  0  0  0  0  0  0
  148.9918  138.1544  158.0967 C   0  0  0  0  0  0  0  0  0  0  0  0
  147.7388  138.2602  157.5073 N   0  0  0  0  0  0  0  0  0  0  0  0
  147.1011  137.2026  157.9299 C   0  0  0  0  0  0  0  0  0  0  0  0
  147.8227  136.3735  158.7595 N   0  0  0  0  0  0  0  0  0  0  0  0
  147.3645  135.1350  159.3683 C   0  0  0  0  0  0  0  0  0  0  0  0
  146.6908  135.3389  160.7458 C   0  0  2  0  0  0  0  0  0  0  0  0
  145.3539  135.7686  160.5403 O   0  0  0  0  0  0  0  0  0  0  0  0
  147.3916  136.3560  161.6344 C   0  0  0  0  0  0  0  0  0  0  0  0
  146.9571  135.9292  163.0311 C   0  0  0  0  0  0  0  0  0  0  0  0
  146.9018  134.5098  162.9760 O   0  0  0  0  0  0  0  0  0  0  0  0
  146.7311  134.0718  161.6285 C   0  0  1  0  0  0  0  0  0  0  0  0
  145.5359  133.1123  161.5100 C   0  0  0  0  0  0  0  0  0  0  0  0
  150.4953  141.3307  158.1355 C   0  0  2  0  0  0  0  0  0  0  0  0
  150.5660  142.6106  157.2752 C   0  0  0  0  0  0  0  0  0  0  0  0
  150.7576  143.8558  158.1557 C   0  0  0  0  0  0  0  0  0  0  0  0
  151.9694  143.7274  159.0027 N   0  3  1  0  0  0  0  0  0  0  0  0
  152.2522  144.9595  159.7697 C   0  0  0  0  0  0  0  0  0  0  0  0
  151.9182  142.5222  159.8674 C   0  0  0  0  0  0  0  0  0  0  0  0
  151.7534  141.2454  159.0269 C   0  0  0  0  0  0  0  0  0  0  0  0
  148.0275  140.4742  153.7545 H   0  0  0  0  0  0  0  0  0  0  0  0
  149.2988  141.4176  152.9820 H   0  0  0  0  0  0  0  0  0  0  0  0
  148.4155  142.0883  154.3429 H   0  0  0  0  0  0  0  0  0  0  0  0
  150.6765  141.3008  155.0464 H   0  0  0  0  0  0  0  0  0  0  0  0
  149.8022  138.5373  154.1038 H   0  0  0  0  0  0  0  0  0  0  0  0
  151.3087  138.9190  154.9341 H   0  0  0  0  0  0  0  0  0  0  0  0
  151.0055  139.5633  153.3266 H   0  0  0  0  0  0  0  0  0  0  0  0
  148.5231  140.9797  156.5346 H   0  0  0  0  0  0  0  0  0  0  0  0
  148.7048  139.2822  156.1953 H   0  0  0  0  0  0  0  0  0  0  0  0
  152.0476  137.1410  160.0618 H   0  0  0  0  0  0  0  0  0  0  0  0
  146.0806  136.9945  157.6429 H   0  0  0  0  0  0  0  0  0  0  0  0
  146.6750  134.6447  158.6799 H   0  0  0  0  0  0  0  0  0  0  0  0
  148.2241  134.4704  159.4627 H   0  0  0  0  0  0  0  0  0  0  0  0
  145.0368  135.3851  159.7369 H   0  0  0  0  0  0  0  0  0  0  0  0
  148.4739  136.2484  161.5476 H   0  0  0  0  0  0  0  0  0  0  0  0
  147.1384  137.3917  161.4041 H   0  0  0  0  0  0  0  0  0  0  0  0
  147.6399  136.2735  163.8081 H   0  0  0  0  0  0  0  0  0  0  0  0
  145.9618  136.3134  163.2576 H   0  0  0  0  0  0  0  0  0  0  0  0
  147.6376  133.5132  161.3919 H   0  0  0  0  0  0  0  0  0  0  0  0
  145.3959  132.7864  160.4792 H   0  0  0  0  0  0  0  0  0  0  0  0
  144.6093  133.5783  161.8460 H   0  0  0  0  0  0  0  0  0  0  0  0
  145.6937  132.2230  162.1204 H   0  0  0  0  0  0  0  0  0  0  0  0
  149.6361  141.4457  158.7979 H   0  0  0  0  0  0  0  0  0  0  0  0
  151.3916  142.5531  156.5646 H   0  0  0  0  0  0  0  0  0  0  0  0
  149.6532  142.7173  156.6882 H   0  0  0  0  0  0  0  0  0  0  0  0
  150.8475  144.7383  157.5208 H   0  0  0  0  0  0  0  0  0  0  0  0
  149.8821  144.0081  158.7888 H   0  0  0  0  0  0  0  0  0  0  0  0
  151.4512  145.1716  160.4792 H   0  0  0  0  0  0  0  0  0  0  0  0
  152.3529  145.8148  159.1008 H   0  0  0  0  0  0  0  0  0  0  0  0
  153.1854  144.8616  160.3254 H   0  0  0  0  0  0  0  0  0  0  0  0
  152.8353  142.4539  160.4540 H   0  0  0  0  0  0  0  0  0  0  0  0
  151.0938  142.6141  160.5766 H   0  0  0  0  0  0  0  0  0  0  0  0
  151.6941  140.3833  159.6917 H   0  0  0  0  0  0  0  0  0  0  0  0
  152.6458  141.1065  158.4160 H   0  0  0  0  0  0  0  0  0  0  0  0
  152.7490  143.5969  158.3736 H   0  0  0  0  0  0  0  0  0  0  0  0
  1  2  1  0  0  0  0
  1 30  1  0  0  0  0
  1 31  1  0  0  0  0
  1 32  1  0  0  0  0
  2  3  1  0  0  0  0
  2  4  1  0  0  0  0
  2 33  1  0  0  0  0
  3 34  1  0  0  0  0
  3 35  1  0  0  0  0
  3 36  1  0  0  0  0
  4  5  1  0  0  0  0
  4 37  1  0  0  0  0
  4 38  1  0  0  0  0
  5  6  1  0  0  0  0
  5 23  1  0  0  0  0
  6 11  1  0  0  0  0
  6  7  2  0  0  0  0
  7  8  1  0  0  0  0
  8  9  2  0  0  0  0
  8 39  1  0  0  0  0
  9 10  1  0  0  0  0
 10 14  1  0  0  0  0
 10 11  2  0  0  0  0
 11 12  1  0  0  0  0
 12 13  2  0  0  0  0
 13 14  1  0  0  0  0
 13 40  1  0  0  0  0
 14 15  1  0  0  0  0
 15 16  1  0  0  0  0
 15 41  1  0  0  0  0
 15 42  1  0  0  0  0
 16 21  1  0  0  0  0
 16 17  1  0  0  0  0
 16 18  1  0  0  0  0
 17 43  1  0  0  0  0
 18 19  1  0  0  0  0
 18 44  1  0  0  0  0
 18 45  1  0  0  0  0
 19 20  1  0  0  0  0
 19 46  1  0  0  0  0
 19 47  1  0  0  0  0
 20 21  1  0  0  0  0
 21 22  1  0  0  0  0
 21 48  1  0  0  0  0
 22 49  1  0  0  0  0
 22 50  1  0  0  0  0
 22 51  1  0  0  0  0
 23 29  1  0  0  0  0
 23 24  1  0  0  0  0
 23 52  1  0  0  0  0
 24 25  1  0  0  0  0
 24 53  1  0  0  0  0
 24 54  1  0  0  0  0
 25 26  1  0  0  0  0
 25 55  1  0  0  0  0
 25 56  1  0  0  0  0
 26 27  1  0  0  0  0
 26 28  1  0  0  0  0
 26 64  1  0  0  0  0
 27 57  1  0  0  0  0
 27 58  1  0  0  0  0
 27 59  1  0  0  0  0
 28 29  1  0  0  0  0
 28 60  1  0  0  0  0
 28 61  1  0  0  0  0
 29 62  1  0  0  0  0
 29 63  1  0  0  0  0
M  CHG  1  26   1
M  END
> <s_m_source_file>
AV-unprocessed.smi

> <i_m_source_file_index>
81

> <i_lp_mmshare_version>
43012

> <i_f3d_flags>
0

> <s_epik_input>
W0NIMl0xW0NIMl1OKFtDSDNdKVtDSDJdW0NIMl1bQ0hdMU4oW0NIMl1bQ0hdKFtDSDNdKVtDSDNdKWMobltjSF1uMiljKGMyMyluW2NIXW4zW0NIMl1bQ0BAXTQoW09IXSlbQ0gyXVtDSDJdT1tDQEhdNFtDSDNd

> <s_epik_cmdline>
J2VwaWtfcHl0aG9uJywgJy1waCcsICc3LjAnLCAnLXRuJywgJzgnLCAnLW1hJywgJzIwMCcsICctbWV0YWxfYmluZGluZycsICctaW1hZScsICc8aW5maWxlLm1hZT4nLCAnLW9tYWUnLCAnPG91dGZpbGUubWFlPic=

> <r_lp_tautomer_probability>
1

> <r_epik_Ionization_Penalty>
0.00272708

> <r_epik_Ionization_Penalty_Charging>
0.00158983

> <r_epik_Ionization_Penalty_Neutral>
0.00113725

> <r_epik_State_Penalty>
-0

> <r_epik_Charging_Adjusted_Penalty>
0.00158983

> <i_epik_Tot_Q>
1

> <i_epik_Tot_abs_Q>
1

> <r_epik_Metal_State_Penalty>
-0

> <b_epik_Metal_Only>
0

> <s_lp_Force_Field>
OPLS_2005

> <r_lp_Energy>
45.4509

> <b_lp_Chiralities_Consistent>
1

> <s_lp_Variant>
AV-unprocessed.smi:81-2

> <Gold.Version>
5.8.1

> <Gold.Id.Protein>
6NUR|6NUR_protein|mol2

> <Gold.PLP.Fitness>
48.5436

> <Gold.PLP.PLP>
-48.4208

> <Gold.PLP.part.hbond>
-2.6047

> <Gold.PLP.part.metal>
0.0000

> <Gold.PLP.part.buried>
-3.8132

> <Gold.PLP.part.nonpolar>
-42.3367

> <Gold.PLP.part.repulsive>
0.0522

> <Gold.PLP.ligand.clash>
0.0000

> <Gold.PLP.ligand.torsion>
1.8673

> <Gold.PLP.Chemscore.Hbond>
1.0000

> <Gold.PLP.Chemscore.CHOScore>
0.0000

> <Gold.PLP.Chemscore.Metal>
0.0000

> <Gold.Chemscore.Hbonds>
donor molecule, donor type, donor heavy atom, donor atom, acceptor molecule, acceptor atom, score
      P1  H  6896  6907       L1     9  1.00

> <Gold.PLP.Chemscore.Internal.Correction>
0.8574

> <Gold.Rescore>
     Score         DG    S(hbond)    S(metal)    S(lipo)     H(rot)  DE(clash)    DE(int)     intcor
     11.28     -16.75       0.82        0.00     129.32       2.58       0.71       4.76       ----

> <Gold.Chemscore.Fitness>
11.2770

> <Gold.Chemscore.DG>
-16.7497

> <Gold.Chemscore.ZeroCoef>
-5.4800

> <Gold.Chemscore.Hbond>
0.8197

> <Gold.Chemscore.Metal>
0.0000

> <Gold.Chemscore.Lipo>
129.3169

> <Gold.Chemscore.Internal_Hbond>
0.0000

> <Gold.Chemscore.DEClash>
0.7079

> <Gold.Chemscore.DEInternal>
4.7648

> <Gold.Chemscore.Rot>
2.5774

> <Gold.Chemscore.Internal.Correction>
   9.000000E+99

> <Gold.Chemscore.Hbonds>
donor molecule, donor type, donor heavy atom, donor atom, acceptor molecule, acceptor atom, score
      P1  H  6896  6907       L1     9  0.50

> <Gold.Chemscore.Hbond.Weighted>
-2.7379

> <Gold.Chemscore.Metal.Weighted>
-0.0000

> <Gold.Chemscore.Lipo.Weighted>
-15.1301

> <Gold.Chemscore.Internal_Hbond.Weighted>
0.0000

> <Gold.Chemscore.DEClash.Weighted>
0.7079

> <Gold.Chemscore.DEInternal.Weighted>
4.7648

> <Gold.Chemscore.Rot.Weighted>
6.5982

> <Gold.Chemscore.Internal.Correction.Weighted>
   9.000000E+99

> <Gold.Protein.RotatedTorsions>
[ 6907 6896 6895 6894 ] final  -46.81 input  -60.11 | X-H torsion
[ 7974 7965 7964 7962 ] final -175.96 input  175.53 | X-H torsion
[ 8008 7997 7996 7995 ] final  117.83 input   59.86 | X-H torsion
[ 10167 10162 10161 10158 ] final  -62.50 input  -65.29 | X-H torsion
[ 10718 10713 10712 10709 ] final  145.86 input   66.30 | X-H torsion
[ 10763 10752 10751 10750 ] final -138.45 input  -60.55 | X-H torsion
[ 11005 11000 10999 10996 ] final  124.13 input  -57.11 | X-H torsion

> <Gold.Protein.ActiveResidues>
 VAL166  LYS551  ARG553  GLY616  TRP617  ASP618  TYR619  PRO620  LYS621  CYS622 
 ASP623  PHE694  ASN695  SER759  ASP760  ASP761  ALA762  ILE779  LEU786  VAL792 
 PHE793  MET794  SER795  GLU796  ALA797  LYS798  CYS799  TRP800  GLU811  SER814 

> <Gold.Protein.RotatedAtoms>
  150.9073  134.8489  159.7401 H   0  0  0  0  0  0  0  0  0  0  0  0  # atno 6907 bound_to 6896
  152.4925  134.4412  159.9554 H   0  0  0  0  0  0  0  0  0  0  0  0  # atno 6908 bound_to 6896
  151.4457  133.3592  159.2823 H   0  0  0  0  0  0  0  0  0  0  0  0  # atno 6909 bound_to 6896
  144.7127  140.1241  143.6403 H   0  0  0  0  0  0  0  0  0  0  0  0  # atno 7974 bound_to 7965
  156.2515  140.2888  156.0739 H   0  0  0  0  0  0  0  0  0  0  0  0  # atno 8008 bound_to 7997
  155.1640  140.0400  157.2866 H   0  0  0  0  0  0  0  0  0  0  0  0  # atno 8009 bound_to 7997
  154.6372  140.2513  155.7370 H   0  0  0  0  0  0  0  0  0  0  0  0  # atno 8010 bound_to 7997
  140.5935  143.2346  151.6088 H   0  0  0  0  0  0  0  0  0  0  0  0  # atno 10167 bound_to 10162
  157.3401  131.0934  151.1089 H   0  0  0  0  0  0  0  0  0  0  0  0  # atno 10718 bound_to 10713
  154.8636  135.3611  154.5388 H   0  0  0  0  0  0  0  0  0  0  0  0  # atno 10763 bound_to 10752
  153.6010  135.7012  153.5389 H   0  0  0  0  0  0  0  0  0  0  0  0  # atno 10764 bound_to 10752
  153.3291  135.4129  155.1441 H   0  0  0  0  0  0  0  0  0  0  0  0  # atno 10765 bound_to 10752
  139.9344  134.9640  156.8363 H   0  0  0  0  0  0  0  0  0  0  0  0  # atno 11005 bound_to 11000
  145.9344  139.2627  143.1306 LP  0  0  0  0  0  0  0  0  0  0  0  0  # atno 17320 bound_to 7965
  145.9489  140.8924  143.0269 LP  0  0  0  0  0  0  0  0  0  0  0  0  # atno 17321 bound_to 7965
  139.5242  144.3109  152.0993 LP  0  0  0  0  0  0  0  0  0  0  0  0  # atno 17342 bound_to 10162
  140.2277  144.4400  150.6313 LP  0  0  0  0  0  0  0  0  0  0  0  0  # atno 17343 bound_to 10162
  157.2304  130.6522  149.5847 LP  0  0  0  0  0  0  0  0  0  0  0  0  # atno 17370 bound_to 10713
  155.9706  130.4600  150.6058 LP  0  0  0  0  0  0  0  0  0  0  0  0  # atno 17371 bound_to 10713
  140.6115  134.0078  155.7578 LP  0  0  0  0  0  0  0  0  0  0  0  0  # atno 17394 bound_to 11000
  141.0950  133.9857  157.3174 LP  0  0  0  0  0  0  0  0  0  0  0  0  # atno 17395 bound_to 11000

$$$$
