AV-unprocessed.smi:1859|AV-procd|sdf|7545|dock9
  -GOLD-   22720 9263D 1   1.00000     0.00000
 Structure written by MMmdl.
 46 48  0  0  0  0  0  0  0  0  2 V2000
  149.8187  140.9425  153.7279 O   0  0  0  0  0  0  0  0  0  0  0  0
  149.5442  141.4443  154.8185 C   0  0  0  0  0  0  0  0  0  0  0  0
  148.3428  141.9728  155.1002 N   0  0  0  0  0  0  0  0  0  0  0  0
  147.2132  142.0131  154.1787 C   0  0  0  0  0  0  0  0  0  0  0  0
  147.1036  140.7200  153.3525 C   0  0  0  0  0  0  0  0  0  0  0  0
  146.5408  139.5688  154.1625 C   0  0  0  0  0  0  0  0  0  0  0  0
  147.2303  139.0249  155.2680 C   0  0  0  0  0  0  0  0  0  0  0  0
  146.6491  137.9594  155.9865 C   0  0  0  0  0  0  0  0  0  0  0  0
  145.3919  137.4616  155.5855 C   0  0  0  0  0  0  0  0  0  0  0  0
  144.7460  138.0442  154.4758 C   0  0  0  0  0  0  0  0  0  0  0  0
  145.3350  139.0644  153.8138 N   0  3  0  0  0  0  0  0  0  0  0  0
  150.5932  141.4865  155.9371 C   0  0  2  0  0  0  0  0  0  0  0  0
  151.2602  140.1037  156.1267 C   0  0  0  0  0  0  0  0  0  0  0  0
  152.2132  140.0893  157.3378 C   0  0  0  0  0  0  0  0  0  0  0  0
  151.5107  140.6380  158.5922 C   0  0  0  0  0  0  0  0  0  0  0  0
  151.0127  141.9898  158.2992 N   0  0  0  0  0  0  0  0  0  0  0  0
  151.4951  143.1485  158.8144 C   0  0  0  0  0  0  0  0  0  0  0  0
  151.0082  144.2442  158.5315 O   0  0  0  0  0  0  0  0  0  0  0  0
  152.6734  143.0501  159.7352 C   0  0  0  0  0  0  0  0  0  0  0  0
  152.5100  142.1821  160.9650 C   0  0  0  0  0  0  0  0  0  0  0  0
  152.5669  143.6797  161.1128 C   0  0  0  0  0  0  0  0  0  0  0  0
  149.9661  141.9593  157.2691 C   0  0  0  0  0  0  0  0  0  0  0  0
  148.1995  142.3623  156.0210 H   0  0  0  0  0  0  0  0  0  0  0  0
  146.2914  142.1890  154.7359 H   0  0  0  0  0  0  0  0  0  0  0  0
  147.3441  142.8698  153.5173 H   0  0  0  0  0  0  0  0  0  0  0  0
  146.4698  140.8855  152.4800 H   0  0  0  0  0  0  0  0  0  0  0  0
  148.0824  140.4290  152.9690 H   0  0  0  0  0  0  0  0  0  0  0  0
  148.1914  139.4197  155.5646 H   0  0  0  0  0  0  0  0  0  0  0  0
  147.1614  137.5300  156.8350 H   0  0  0  0  0  0  0  0  0  0  0  0
  144.9298  136.6458  156.1221 H   0  0  0  0  0  0  0  0  0  0  0  0
  143.7839  137.7274  154.1005 H   0  0  0  0  0  0  0  0  0  0  0  0
  151.3679  142.2028  155.6563 H   0  0  0  0  0  0  0  0  0  0  0  0
  150.4943  139.3408  156.2760 H   0  0  0  0  0  0  0  0  0  0  0  0
  151.8049  139.8189  155.2258 H   0  0  0  0  0  0  0  0  0  0  0  0
  152.5697  139.0751  157.5196 H   0  0  0  0  0  0  0  0  0  0  0  0
  153.0942  140.6940  157.1192 H   0  0  0  0  0  0  0  0  0  0  0  0
  150.6673  139.9967  158.8520 H   0  0  0  0  0  0  0  0  0  0  0  0
  152.1767  140.5889  159.4523 H   0  0  0  0  0  0  0  0  0  0  0  0
  153.6582  143.0966  159.2737 H   0  0  0  0  0  0  0  0  0  0  0  0
  151.5480  141.6993  161.1288 H   0  0  0  0  0  0  0  0  0  0  0  0
  153.3758  141.6022  161.2774 H   0  0  0  0  0  0  0  0  0  0  0  0
  153.4733  144.1166  161.5266 H   0  0  0  0  0  0  0  0  0  0  0  0
  151.6454  144.1833  161.3985 H   0  0  0  0  0  0  0  0  0  0  0  0
  149.4813  142.9274  157.1328 H   0  0  0  0  0  0  0  0  0  0  0  0
  149.1745  141.2782  157.5871 H   0  0  0  0  0  0  0  0  0  0  0  0
  144.8492  139.4707  153.0138 H   0  0  0  0  0  0  0  0  0  0  0  0
  1  2  2  0  0  0  0
  2  3  1  0  0  0  0
  2 12  1  0  0  0  0
  3  4  1  0  0  0  0
  3 23  1  0  0  0  0
  4  5  1  0  0  0  0
  4 24  1  0  0  0  0
  4 25  1  0  0  0  0
  5  6  1  0  0  0  0
  5 26  1  0  0  0  0
  5 27  1  0  0  0  0
  6 11  1  0  0  0  0
  6  7  2  0  0  0  0
  7  8  1  0  0  0  0
  7 28  1  0  0  0  0
  8  9  2  0  0  0  0
  8 29  1  0  0  0  0
  9 10  1  0  0  0  0
  9 30  1  0  0  0  0
 10 11  2  0  0  0  0
 10 31  1  0  0  0  0
 11 46  1  0  0  0  0
 12 22  1  0  0  0  0
 12 13  1  0  0  0  0
 12 32  1  0  0  0  0
 13 14  1  0  0  0  0
 13 33  1  0  0  0  0
 13 34  1  0  0  0  0
 14 15  1  0  0  0  0
 14 35  1  0  0  0  0
 14 36  1  0  0  0  0
 15 16  1  0  0  0  0
 15 37  1  0  0  0  0
 15 38  1  0  0  0  0
 16 17  1  0  0  0  0
 16 22  1  0  0  0  0
 17 18  2  0  0  0  0
 17 19  1  0  0  0  0
 19 21  1  0  0  0  0
 19 20  1  0  0  0  0
 19 39  1  0  0  0  0
 20 21  1  0  0  0  0
 20 40  1  0  0  0  0
 20 41  1  0  0  0  0
 21 42  1  0  0  0  0
 21 43  1  0  0  0  0
 22 44  1  0  0  0  0
 22 45  1  0  0  0  0
M  CHG  1  11   1
M  END
> <s_m_source_file>
AV-unprocessed.smi

> <i_m_source_file_index>
1859

> <i_lp_mmshare_version>
43012

> <i_f3d_flags>
0

> <s_epik_input>
W0NIMl0xW0NIMl1bQ0hdMUMoPU8pTihbQ0gyXTIpW0NIMl1bQ0gyXVtDSDJdW0NASF0yQyg9TylbTkhdW0NIMl1bQ0gyXWMzW2NIXVtjSF1bY0hdW2NIXW4z

> <s_epik_cmdline>
J2VwaWtfcHl0aG9uJywgJy1waCcsICc3LjAnLCAnLXRuJywgJzgnLCAnLW1hJywgJzIwMCcsICctbWV0YWxfYmluZGluZycsICctaW1hZScsICc8aW5maWxlLm1hZT4nLCAnLW9tYWUnLCAnPG91dGZpbGUubWFlPic=

> <r_epik_Ionization_Penalty>
1.84754

> <r_epik_Ionization_Penalty_Charging>
1.84754

> <r_epik_Ionization_Penalty_Neutral>
7.35743e-08

> <r_epik_State_Penalty>
1.96477

> <r_epik_Charging_Adjusted_Penalty>
3.81231

> <i_epik_Tot_Q>
1

> <i_epik_Tot_abs_Q>
1

> <r_epik_Metal_State_Penalty>
1.99062

> <b_epik_Metal_Only>
0

> <s_lp_Force_Field>
OPLS_2005

> <r_lp_Energy>
35.3834

> <b_lp_Chiralities_Consistent>
1

> <s_lp_Variant>
AV-unprocessed.smi:1859-3

> <Gold.Version>
5.8.1

> <Gold.Id.Protein>
6NUR|6NUR_protein|mol2

> <Gold.PLP.Fitness>
46.4783

> <Gold.PLP.PLP>
-38.9474

> <Gold.PLP.part.hbond>
-3.8871

> <Gold.PLP.part.metal>
0.0000

> <Gold.PLP.part.buried>
-4.7358

> <Gold.PLP.part.nonpolar>
-32.1646

> <Gold.PLP.part.repulsive>
2.4006

> <Gold.PLP.ligand.clash>
1.4783

> <Gold.PLP.ligand.torsion>
0.4754

> <Gold.PLP.Chemscore.Hbond>
3.2800

> <Gold.PLP.Chemscore.CHOScore>
0.0000

> <Gold.PLP.Chemscore.Metal>
0.0000

> <Gold.Chemscore.Hbonds>
donor molecule, donor type, donor heavy atom, donor atom, acceptor molecule, acceptor atom, score
      L1  H    11    46       P1 10175  1.92
      P1  H  7989  7998       L1     1  0.38
      P1  H  8011  8017       L1     1  0.96

> <Gold.PLP.Chemscore.Internal.Correction>
0.1200

> <Gold.Rescore>
     Score         DG    S(hbond)    S(metal)    S(lipo)     H(rot)  DE(clash)    DE(int)     intcor
     13.94     -18.30       2.17        0.00      84.95       1.70       1.30       3.06       ----

> <Gold.Chemscore.Fitness>
13.9419

> <Gold.Chemscore.DG>
-18.3048

> <Gold.Chemscore.ZeroCoef>
-5.4800

> <Gold.Chemscore.Hbond>
2.1656

> <Gold.Chemscore.Metal>
0.0000

> <Gold.Chemscore.Lipo>
84.9459

> <Gold.Chemscore.Internal_Hbond>
0.0000

> <Gold.Chemscore.DEClash>
1.3037

> <Gold.Chemscore.DEInternal>
3.0592

> <Gold.Chemscore.Rot>
1.6980

> <Gold.Chemscore.Internal.Correction>
   9.000000E+99

> <Gold.Chemscore.Hbonds>
donor molecule, donor type, donor heavy atom, donor atom, acceptor molecule, acceptor atom, score
      L1  H    11    46       P1 10175  0.92
      P1  H  7989  7998       L1     1  0.30
      P1  H  8011  8017       L1     1  0.56

> <Gold.Chemscore.Hbond.Weighted>
-7.2330

> <Gold.Chemscore.Metal.Weighted>
-0.0000

> <Gold.Chemscore.Lipo.Weighted>
-9.9387

> <Gold.Chemscore.Internal_Hbond.Weighted>
0.0000

> <Gold.Chemscore.DEClash.Weighted>
1.3037

> <Gold.Chemscore.DEInternal.Weighted>
3.0592

> <Gold.Chemscore.Rot.Weighted>
4.3469

> <Gold.Chemscore.Internal.Correction.Weighted>
   9.000000E+99

> <Gold.Protein.RotatedTorsions>
[ 6907 6896 6895 6894 ] final   76.17 input  -60.11 | X-H torsion
[ 7974 7965 7964 7962 ] final  139.05 input  175.53 | X-H torsion
[ 8008 7997 7996 7995 ] final  -95.79 input   59.86 | X-H torsion
[ 10167 10162 10161 10158 ] final -141.27 input  -65.29 | X-H torsion
[ 10718 10713 10712 10709 ] final  -34.33 input   66.30 | X-H torsion
[ 10763 10752 10751 10750 ] final   44.11 input  -60.55 | X-H torsion
[ 11005 11000 10999 10996 ] final -105.85 input  -57.11 | X-H torsion

> <Gold.Protein.ActiveResidues>
 VAL166  LYS551  ARG553  GLY616  TRP617  ASP618  TYR619  PRO620  LYS621  CYS622 
 ASP623  PHE694  ASN695  SER759  ASP760  ASP761  ALA762  ILE779  LEU786  VAL792 
 PHE793  MET794  SER795  GLU796  ALA797  LYS798  CYS799  TRP800  GLU811  SER814 

> <Gold.Protein.RotatedAtoms>
  152.5061  134.4009  159.9415 H   0  0  0  0  0  0  0  0  0  0  0  0  # atno 6907 bound_to 6896
  151.3973  133.3763  159.2736 H   0  0  0  0  0  0  0  0  0  0  0  0  # atno 6908 bound_to 6896
  150.9388  134.8819  159.7658 H   0  0  0  0  0  0  0  0  0  0  0  0  # atno 6909 bound_to 6896
  144.9315  139.5042  143.5615 H   0  0  0  0  0  0  0  0  0  0  0  0  # atno 7974 bound_to 7965
  154.7659  140.0477  157.1012 H   0  0  0  0  0  0  0  0  0  0  0  0  # atno 8008 bound_to 7997
  154.9880  140.3109  155.4899 H   0  0  0  0  0  0  0  0  0  0  0  0  # atno 8009 bound_to 7997
  156.2913  140.2224  156.4983 H   0  0  0  0  0  0  0  0  0  0  0  0  # atno 8010 bound_to 7997
  139.8201  143.7586  152.2666 H   0  0  0  0  0  0  0  0  0  0  0  0  # atno 10167 bound_to 10162
  156.3518  130.4309  149.7698 H   0  0  0  0  0  0  0  0  0  0  0  0  # atno 10718 bound_to 10713
  152.9847  135.6081  154.3220 H   0  0  0  0  0  0  0  0  0  0  0  0  # atno 10763 bound_to 10752
  154.2929  135.2774  155.2648 H   0  0  0  0  0  0  0  0  0  0  0  0  # atno 10764 bound_to 10752
  154.4935  135.5886  153.6533 H   0  0  0  0  0  0  0  0  0  0  0  0  # atno 10765 bound_to 10752
  141.1034  133.8843  157.1784 H   0  0  0  0  0  0  0  0  0  0  0  0  # atno 11005 bound_to 11000
  146.3249  139.8268  142.8916 LP  0  0  0  0  0  0  0  0  0  0  0  0  # atno 17320 bound_to 7965
  145.3135  141.0226  143.3541 LP  0  0  0  0  0  0  0  0  0  0  0  0  # atno 17321 bound_to 7965
  139.7761  144.7460  151.0154 LP  0  0  0  0  0  0  0  0  0  0  0  0  # atno 17342 bound_to 10162
  140.7814  143.4592  151.0302 LP  0  0  0  0  0  0  0  0  0  0  0  0  # atno 17343 bound_to 10162
  156.4895  130.8078  151.3089 LP  0  0  0  0  0  0  0  0  0  0  0  0  # atno 17370 bound_to 10713
  157.7462  130.9980  150.2836 LP  0  0  0  0  0  0  0  0  0  0  0  0  # atno 17371 bound_to 10713
  139.9893  135.0070  156.9938 LP  0  0  0  0  0  0  0  0  0  0  0  0  # atno 17394 bound_to 11000
  140.4965  134.1140  155.7242 LP  0  0  0  0  0  0  0  0  0  0  0  0  # atno 17395 bound_to 11000

$$$$
