AV-unprocessed.smi:3120|AV-procd|sdf|11893|dock6
  -GOLD-   2272017283D 1   1.00000     0.00000
 Structure written by MMmdl.
 22 23  0  0  0  0  0  0  0  0  1 V2000
  153.2722  140.0670  158.7003 O   0  0  0  0  0  0  0  0  0  0  0  0
  153.7359  140.0392  159.8386 C   0  0  0  0  0  0  0  0  0  0  0  0
  153.8306  138.9575  160.6105 N   0  0  0  0  0  0  0  0  0  0  0  0
  154.4315  139.2207  161.9037 C   0  0  0  0  0  0  0  0  0  0  0  0
  154.5033  140.7528  161.9966 C   0  0  0  0  0  0  0  0  0  0  0  0
  154.2862  141.2642  160.5612 C   0  0  2  0  0  0  0  0  0  0  0  0
  153.3628  142.4734  160.4557 C   0  0  0  0  0  0  0  0  0  0  0  0
  152.9974  143.0248  159.2069 C   0  0  0  0  0  0  0  0  0  0  0  0
  152.1392  144.1405  159.1784 C   0  0  0  0  0  0  0  0  0  0  0  0
  151.6788  144.6629  160.4030 C   0  0  0  0  0  0  0  0  0  0  0  0
  152.0197  144.1473  161.6033 N   0  0  0  0  0  0  0  0  0  0  0  0
  152.8440  143.0778  161.6213 C   0  0  0  0  0  0  0  0  0  0  0  0
  153.5255  138.0363  160.3308 H   0  0  0  0  0  0  0  0  0  0  0  0
  153.8373  138.7890  162.7096 H   0  0  0  0  0  0  0  0  0  0  0  0
  155.4274  138.7772  161.9336 H   0  0  0  0  0  0  0  0  0  0  0  0
  153.7142  141.1064  162.6615 H   0  0  0  0  0  0  0  0  0  0  0  0
  155.4504  141.0955  162.4142 H   0  0  0  0  0  0  0  0  0  0  0  0
  155.2512  141.4969  160.1087 H   0  0  0  0  0  0  0  0  0  0  0  0
  153.3675  142.6017  158.2845 H   0  0  0  0  0  0  0  0  0  0  0  0
  151.8414  144.5855  158.2405 H   0  0  0  0  0  0  0  0  0  0  0  0
  151.0183  145.5172  160.4190 H   0  0  0  0  0  0  0  0  0  0  0  0
  153.0949  142.6923  162.5988 H   0  0  0  0  0  0  0  0  0  0  0  0
  1  2  2  0  0  0  0
  2  6  1  0  0  0  0
  2  3  1  0  0  0  0
  3  4  1  0  0  0  0
  3 13  1  0  0  0  0
  4  5  1  0  0  0  0
  4 14  1  0  0  0  0
  4 15  1  0  0  0  0
  5  6  1  0  0  0  0
  5 16  1  0  0  0  0
  5 17  1  0  0  0  0
  6  7  1  0  0  0  0
  6 18  1  0  0  0  0
  7 12  1  0  0  0  0
  7  8  2  0  0  0  0
  8  9  1  0  0  0  0
  8 19  1  0  0  0  0
  9 10  2  0  0  0  0
  9 20  1  0  0  0  0
 10 11  1  0  0  0  0
 10 21  1  0  0  0  0
 11 12  2  0  0  0  0
 12 22  1  0  0  0  0
M  END
> <s_m_source_file>
AV-unprocessed.smi

> <i_m_source_file_index>
3120

> <i_lp_mmshare_version>
43012

> <i_f3d_flags>
0

> <s_epik_input>
Tz1DMVtOSF1bQ0gyXVtDSDJdW0NASF0xYzJbY0hdW2NIXVtjSF1uW2NIXTI=

> <s_epik_cmdline>
J2VwaWtfcHl0aG9uJywgJy1waCcsICc3LjAnLCAnLXRuJywgJzgnLCAnLW1hJywgJzIwMCcsICctbWV0YWxfYmluZGluZycsICctaW1hZScsICc8aW5maWxlLm1hZT4nLCAnLW9tYWUnLCAnPG91dGZpbGUubWFlPic=

> <r_epik_Ionization_Penalty>
0.00558523

> <r_epik_Ionization_Penalty_Charging>
0

> <r_epik_Ionization_Penalty_Neutral>
0.00558523

> <r_epik_State_Penalty>
0.00409114

> <r_epik_Charging_Adjusted_Penalty>
0.00409114

> <i_epik_Tot_Q>
0

> <i_epik_Tot_abs_Q>
0

> <r_epik_Metal_State_Penalty>
-0

> <b_epik_Metal_Only>
0

> <s_lp_Force_Field>
OPLS_2005

> <r_lp_Energy>
14.9187

> <b_lp_Chiralities_Consistent>
1

> <s_lp_Variant>
AV-unprocessed.smi:3120-2

> <Gold.Version>
5.8.1

> <Gold.Id.Protein>
6NUR|6NUR_protein|mol2

> <Gold.PLP.Fitness>
34.4479

> <Gold.PLP.PLP>
-31.4907

> <Gold.PLP.part.hbond>
-1.0000

> <Gold.PLP.part.metal>
0.0000

> <Gold.PLP.part.buried>
-3.4535

> <Gold.PLP.part.nonpolar>
-27.2664

> <Gold.PLP.part.repulsive>
0.2188

> <Gold.PLP.ligand.clash>
0.0000

> <Gold.PLP.ligand.torsion>
0.0131

> <Gold.PLP.Chemscore.Hbond>
0.9920

> <Gold.PLP.Chemscore.CHOScore>
0.0000

> <Gold.PLP.Chemscore.Metal>
0.0000

> <Gold.Chemscore.Hbonds>
donor molecule, donor type, donor heavy atom, donor atom, acceptor molecule, acceptor atom, score
      P1  H  7997  8008       L1     1  0.78

> <Gold.PLP.Chemscore.Internal.Correction>
0.0075

> <Gold.Rescore>
     Score         DG    S(hbond)    S(metal)    S(lipo)     H(rot)  DE(clash)    DE(int)     intcor
     15.69     -16.29       0.98        0.00      86.28       1.00       0.01       0.59       ----

> <Gold.Chemscore.Fitness>
15.6941

> <Gold.Chemscore.DG>
-16.2897

> <Gold.Chemscore.ZeroCoef>
-5.4800

> <Gold.Chemscore.Hbond>
0.9807

> <Gold.Chemscore.Metal>
0.0000

> <Gold.Chemscore.Lipo>
86.2752

> <Gold.Chemscore.Internal_Hbond>
0.0000

> <Gold.Chemscore.DEClash>
0.0063

> <Gold.Chemscore.DEInternal>
0.5893

> <Gold.Chemscore.Rot>
1.0000

> <Gold.Chemscore.Internal.Correction>
   9.000000E+99

> <Gold.Chemscore.Hbonds>
donor molecule, donor type, donor heavy atom, donor atom, acceptor molecule, acceptor atom, score
      P1  H  7997  8008       L1     1  0.69

> <Gold.Chemscore.Hbond.Weighted>
-3.2755

> <Gold.Chemscore.Metal.Weighted>
-0.0000

> <Gold.Chemscore.Lipo.Weighted>
-10.0942

> <Gold.Chemscore.Internal_Hbond.Weighted>
0.0000

> <Gold.Chemscore.DEClash.Weighted>
0.0063

> <Gold.Chemscore.DEInternal.Weighted>
0.5893

> <Gold.Chemscore.Rot.Weighted>
2.5600

> <Gold.Chemscore.Internal.Correction.Weighted>
   9.000000E+99

> <Gold.Protein.RotatedTorsions>
[ 6907 6896 6895 6894 ] final  -49.56 input  -60.11 | X-H torsion
[ 7974 7965 7964 7962 ] final  -27.41 input  175.53 | X-H torsion
[ 8008 7997 7996 7995 ] final  -91.18 input   59.86 | X-H torsion
[ 10167 10162 10161 10158 ] final -171.36 input  -65.29 | X-H torsion
[ 10718 10713 10712 10709 ] final  -76.25 input   66.30 | X-H torsion
[ 10763 10752 10751 10750 ] final   58.60 input  -60.55 | X-H torsion
[ 11005 11000 10999 10996 ] final   66.48 input  -57.11 | X-H torsion

> <Gold.Protein.ActiveResidues>
 VAL166  LYS551  ARG553  GLY616  TRP617  ASP618  TYR619  PRO620  LYS621  CYS622 
 ASP623  PHE694  ASN695  SER759  ASP760  ASP761  ALA762  ILE779  LEU786  VAL792 
 PHE793  MET794  SER795  GLU796  ALA797  LYS798  CYS799  TRP800  GLU811  SER814 

> <Gold.Protein.RotatedAtoms>
  150.8793  134.8182  159.7213 H   0  0  0  0  0  0  0  0  0  0  0  0  # atno 6907 bound_to 6896
  152.4767  134.4821  159.9679 H   0  0  0  0  0  0  0  0  0  0  0  0  # atno 6908 bound_to 6896
  151.4898  133.3489  159.2887 H   0  0  0  0  0  0  0  0  0  0  0  0  # atno 6909 bound_to 6896
  146.1360  140.5148  142.8673 H   0  0  0  0  0  0  0  0  0  0  0  0  # atno 7974 bound_to 7965
  154.7075  140.0522  157.0518 H   0  0  0  0  0  0  0  0  0  0  0  0  # atno 8008 bound_to 7997
  155.0599  140.3188  155.4645 H   0  0  0  0  0  0  0  0  0  0  0  0  # atno 8009 bound_to 7997
  156.2779  140.2100  156.5726 H   0  0  0  0  0  0  0  0  0  0  0  0  # atno 8010 bound_to 7997
  139.5807  144.1430  152.1511 H   0  0  0  0  0  0  0  0  0  0  0  0  # atno 10167 bound_to 10162
  156.0181  130.4461  150.3165 H   0  0  0  0  0  0  0  0  0  0  0  0  # atno 10718 bound_to 10713
  152.9874  135.5601  154.5578 H   0  0  0  0  0  0  0  0  0  0  0  0  # atno 10763 bound_to 10752
  154.5003  135.2797  155.1428 H   0  0  0  0  0  0  0  0  0  0  0  0  # atno 10764 bound_to 10752
  154.2862  135.6335  153.5419 H   0  0  0  0  0  0  0  0  0  0  0  0  # atno 10765 bound_to 10752
  139.9829  134.6715  156.0229 H   0  0  0  0  0  0  0  0  0  0  0  0  # atno 11005 bound_to 11000
  144.7740  140.5699  143.6651 LP  0  0  0  0  0  0  0  0  0  0  0  0  # atno 17320 bound_to 7965
  145.5155  139.1478  143.3581 LP  0  0  0  0  0  0  0  0  0  0  0  0  # atno 17321 bound_to 7965
  140.0983  144.5562  150.7007 LP  0  0  0  0  0  0  0  0  0  0  0  0  # atno 17342 bound_to 10162
  140.7085  143.2486  151.4653 LP  0  0  0  0  0  0  0  0  0  0  0  0  # atno 17343 bound_to 10162
  157.1266  131.0261  151.2987 LP  0  0  0  0  0  0  0  0  0  0  0  0  # atno 17370 bound_to 10713
  157.4585  130.7639  149.7214 LP  0  0  0  0  0  0  0  0  0  0  0  0  # atno 17371 bound_to 10713
  141.1498  133.6550  156.3980 LP  0  0  0  0  0  0  0  0  0  0  0  0  # atno 17394 bound_to 11000
  140.5060  134.6440  157.5266 LP  0  0  0  0  0  0  0  0  0  0  0  0  # atno 17395 bound_to 11000

$$$$
