#       Name:                AV-unprocessed.smi:1221
#       Creating user name   scv26
#       Creation time:       Fri Mar 27 04:17:51 2020


#       File generated by GOLD software.
#

@<TRIPOS>MOLECULE
AV-unprocessed.smi:1221
    47    48     1
SMALL
NO_CHARGES


@<TRIPOS>ATOM
      1 ****        -6.9470   2.9141   0.3054 C.3            1 S1                 0.0000
      2 ****        -5.8915   2.1358   1.0137 C.2            1 S1                 0.0000
      3 ****        -4.9476   1.2470   0.5834 C.2            1 S1                 0.0000
      4 ****        -4.2714   0.8856   1.7809 C.2            1 S1                 0.0000
      5 ****        -3.2600   0.0100   1.8851 N.pl3          1 S1                -1.0000
      6 ****        -1.9936   0.3895   1.5956 C.2            1 S1                 0.0000
      7 ****        -1.6334   1.5034   1.2082 O.2            1 S1                 0.0000
      8 ****        -1.0890  -0.5855   1.7633 N.am           1 S1                 0.0000
      9 ****         0.3451  -0.4738   1.5238 C.3            1 S1                 0.0000
     10 ****         0.6819  -0.6374   0.0304 C.3            1 S1                 0.0000
     11 ****         2.1309  -0.7257  -0.1838 N.am           1 S1                 0.0000
     12 ****         2.6813  -2.0838  -0.3195 C.3            1 S1                 0.0000
     13 ****         3.1801  -2.4187  -1.7443 C.3            1 S1                 0.0000
     14 ****         3.6987  -1.2331  -2.5823 C.3            1 S1                 0.0000
     15 ****         4.7725  -0.3649  -1.8937 C.3            1 S1                 0.0000
     16 ****         4.4168   0.1930  -0.4949 C.3            1 S1                 0.0000
     17 ****         2.9105   0.3813  -0.2511 C.2            1 S1                 0.0000
     18 ****         2.4689   1.5239  -0.1267 O.2            1 S1                 0.0000
     19 ****        -4.7717   1.4898   2.8455 N.2            1 S1                 0.0000
     20 ****        -5.8075   2.2977   2.3615 O.3            1 S1                 0.0000
     21 ****        -7.7738   2.2656   0.0163 H              1 S1                 0.0000
     22 ****        -6.5467   3.3755  -0.5973 H              1 S1                 0.0000
     23 ****        -7.3444   3.7060   0.9408 H              1 S1                 0.0000
     24 ****        -4.7667   0.9097  -0.4260 H              1 S1                 0.0000
     25 ****        -1.4292  -1.4802   2.0836 H              1 S1                 0.0000
     26 ****         0.7217   0.4754   1.9085 H              1 S1                 0.0000
     27 ****         0.8348  -1.2578   2.1017 H              1 S1                 0.0000
     28 ****         0.1921  -1.5281  -0.3659 H              1 S1                 0.0000
     29 ****         0.2662   0.1936  -0.5425 H              1 S1                 0.0000
     30 ****         3.4954  -2.2106   0.3943 H              1 S1                 0.0000
     31 ****         1.9497  -2.8325  -0.0129 H              1 S1                 0.0000
     32 ****         3.9542  -3.1837  -1.6745 H              1 S1                 0.0000
     33 ****         2.3612  -2.8806  -2.2968 H              1 S1                 0.0000
     34 ****         4.1038  -1.6161  -3.5193 H              1 S1                 0.0000
     35 ****         2.8569  -0.6044  -2.8763 H              1 S1                 0.0000
     36 ****         5.6945  -0.9416  -1.8122 H              1 S1                 0.0000
     37 ****         5.0094   0.4707  -2.5533 H              1 S1                 0.0000
     38 ****         4.8214  -0.4560   0.2813 H              1 S1                 0.0000
     39 ****         4.9250   1.1473  -0.3505 H              1 S1                 0.0000
     40 ****        -3.4430  -0.9284   2.1784 LP             1 S1                 0.0000
     41 ****        -2.3078   2.2306   1.0806 LP             1 S1                 0.0000
     42 ****        -0.6668   1.6795   1.0217 LP             1 S1                 0.0000
     43 ****         1.4922   1.6679   0.0323 LP             1 S1                 0.0000
     44 ****         3.0870   2.3079  -0.1846 LP             1 S1                 0.0000
     45 ****        -4.4734   1.3906   3.7948 LP             1 S1                 0.0000
     46 ****        -6.6714   2.0288   2.7875 LP             1 S1                 0.0000
     47 ****        -5.6149   3.2556   2.5743 LP             1 S1                 0.0000
@<TRIPOS>BOND
    1    1    2 1     
    2    1   21 1     
    3    1   22 1     
    4    1   23 1     
    5    2   20 1     
    6    2    3 2     
    7    3    4 1     
    8    3   24 1     
    9    4    5 1     
   10    4   19 2     
   11    5    6 1     
   12    6    7 2     
   13    6    8 am    
   14    8    9 1     
   15    8   25 1     
   16    9   10 1     
   17    9   26 1     
   18    9   27 1     
   19   10   11 1     
   20   10   28 1     
   21   10   29 1     
   22   11   17 am    
   23   11   12 1     
   24   12   13 1     
   25   12   30 1     
   26   12   31 1     
   27   13   14 1     
   28   13   32 1     
   29   13   33 1     
   30   14   15 1     
   31   14   34 1     
   32   14   35 1     
   33   15   16 1     
   34   15   36 1     
   35   15   37 1     
   36   16   17 1     
   37   16   38 1     
   38   16   39 1     
   39   17   18 2     
   40   19   20 1     
   41    5   40 1     
   42    7   41 1     
   43    7   42 1     
   44   18   43 1     
   45   18   44 1     
   46   19   45 1     
   47   20   46 1     
   48   20   47 1     
@<TRIPOS>SUBSTRUCTURE
      1 S1             1
@<TRIPOS>SET
LONE_PAIRS      STATIC     ATOMS    <user>   **** ""
8 40 41 42 43 44 45 46 47
DONOR_HYDROGENS      STATIC     ATOMS    <user>   **** ""
1 25
ATOM$BLUE        STATIC     ATOMS    COLORGROUP SYSTEM
8 40 41 42 43 44 45 46 47
ATOM$RED        STATIC     ATOMS    COLORGROUP SYSTEM
1 25
