AV-unprocessed.smi:741|AV-procd|sdf|3555|dock10
  -GOLD-   22720 0553D 1   1.00000     0.00000
 Structure written by MMmdl.
 42 43  0  0  0  0  0  0  0  0  2 V2000
  146.7861  137.0008  155.7190 C   0  0  0  0  0  0  0  0  0  0  0  0
  145.5222  137.5562  155.0464 C   0  0  0  0  0  0  0  0  0  0  0  0
  145.7536  138.0617  153.6093 C   0  0  1  0  0  0  0  0  0  0  0  0
  146.7704  139.2247  153.5855 C   0  0  0  0  0  0  0  0  0  0  0  0
  146.1370  140.5507  153.7872 N   0  3  0  0  0  0  0  0  0  0  0  0
  145.7158  140.8404  155.1734 C   0  0  0  0  0  0  0  0  0  0  0  0
  145.5874  142.3583  155.2266 C   0  0  0  0  0  0  0  0  0  0  0  0
  146.7389  142.8319  154.3440 C   0  0  0  0  0  0  0  0  0  0  0  0
  146.9502  141.7004  153.3276 C   0  0  0  0  0  0  0  0  0  0  0  0
  146.2095  136.9549  152.7646 N   0  0  0  0  0  0  0  0  0  0  0  0
  145.4301  136.0370  152.1739 C   0  0  0  0  0  0  0  0  0  0  0  0
  144.2019  136.0468  152.2436 O   0  0  0  0  0  0  0  0  0  0  0  0
  146.1653  135.1454  151.4873 N   0  0  0  0  0  0  0  0  0  0  0  0
  145.7252  134.0279  150.7271 C   0  0  0  0  0  0  0  0  0  0  0  0
  144.4211  134.0717  150.1919 C   0  0  0  0  0  0  0  0  0  0  0  0
  143.9659  132.9833  149.4211 C   0  0  0  0  0  0  0  0  0  0  0  0
  144.7193  131.8949  149.1577 N   0  0  0  0  0  0  0  0  0  0  0  0
  145.9725  131.8608  149.6581 C   0  0  0  0  0  0  0  0  0  0  0  0
  146.5244  132.8946  150.4412 C   0  0  0  0  0  0  0  0  0  0  0  0
  146.5562  136.6136  156.7117 H   0  0  0  0  0  0  0  0  0  0  0  0
  147.5508  137.7689  155.8358 H   0  0  0  0  0  0  0  0  0  0  0  0
  147.2158  136.1851  155.1368 H   0  0  0  0  0  0  0  0  0  0  0  0
  144.7667  136.7697  155.0319 H   0  0  0  0  0  0  0  0  0  0  0  0
  145.1106  138.3586  155.6602 H   0  0  0  0  0  0  0  0  0  0  0  0
  144.7935  138.4285  153.2419 H   0  0  0  0  0  0  0  0  0  0  0  0
  147.5468  139.0765  154.3376 H   0  0  0  0  0  0  0  0  0  0  0  0
  147.2775  139.2217  152.6191 H   0  0  0  0  0  0  0  0  0  0  0  0
  144.7863  140.3360  155.4368 H   0  0  0  0  0  0  0  0  0  0  0  0
  146.4869  140.5135  155.8730 H   0  0  0  0  0  0  0  0  0  0  0  0
  144.6349  142.6647  154.7918 H   0  0  0  0  0  0  0  0  0  0  0  0
  145.6382  142.7543  156.2414 H   0  0  0  0  0  0  0  0  0  0  0  0
  146.5293  143.7902  153.8675 H   0  0  0  0  0  0  0  0  0  0  0  0
  147.6384  142.9535  154.9492 H   0  0  0  0  0  0  0  0  0  0  0  0
  148.0093  141.4454  153.2669 H   0  0  0  0  0  0  0  0  0  0  0  0
  146.6213  141.9928  152.3300 H   0  0  0  0  0  0  0  0  0  0  0  0
  147.2085  136.8656  152.6459 H   0  0  0  0  0  0  0  0  0  0  0  0
  147.1600  135.3159  151.4624 H   0  0  0  0  0  0  0  0  0  0  0  0
  143.7747  134.9191  150.3691 H   0  0  0  0  0  0  0  0  0  0  0  0
  142.9697  132.9884  149.0037 H   0  0  0  0  0  0  0  0  0  0  0  0
  146.5575  130.9839  149.4233 H   0  0  0  0  0  0  0  0  0  0  0  0
  147.5414  132.8016  150.7887 H   0  0  0  0  0  0  0  0  0  0  0  0
  145.2964  140.5686  153.2271 H   0  0  0  0  0  0  0  0  0  0  0  0
  1  2  1  0  0  0  0
  1 20  1  0  0  0  0
  1 21  1  0  0  0  0
  1 22  1  0  0  0  0
  2  3  1  0  0  0  0
  2 23  1  0  0  0  0
  2 24  1  0  0  0  0
  3  4  1  0  0  0  0
  3 10  1  0  0  0  0
  3 25  1  0  0  0  0
  4  5  1  0  0  0  0
  4 26  1  0  0  0  0
  4 27  1  0  0  0  0
  5  9  1  0  0  0  0
  5  6  1  0  0  0  0
  5 42  1  0  0  0  0
  6  7  1  0  0  0  0
  6 28  1  0  0  0  0
  6 29  1  0  0  0  0
  7  8  1  0  0  0  0
  7 30  1  0  0  0  0
  7 31  1  0  0  0  0
  8  9  1  0  0  0  0
  8 32  1  0  0  0  0
  8 33  1  0  0  0  0
  9 34  1  0  0  0  0
  9 35  1  0  0  0  0
 10 11  1  0  0  0  0
 10 36  1  0  0  0  0
 11 12  2  0  0  0  0
 11 13  1  0  0  0  0
 13 14  1  0  0  0  0
 13 37  1  0  0  0  0
 14 19  1  0  0  0  0
 14 15  2  0  0  0  0
 15 16  1  0  0  0  0
 15 38  1  0  0  0  0
 16 17  2  0  0  0  0
 16 39  1  0  0  0  0
 17 18  1  0  0  0  0
 18 19  2  0  0  0  0
 18 40  1  0  0  0  0
 19 41  1  0  0  0  0
M  CHG  1   5   1
M  END
> <s_m_source_file>
AV-unprocessed.smi

> <i_m_source_file_index>
741

> <i_lp_mmshare_version>
43012

> <i_f3d_flags>
0

> <s_epik_input>
W0NIMl0xW0NIMl1bQ0gyXVtDSDJdTjFbQ0gyXVtDQEBIXShbQ0gyXVtDSDNdKVtOSF1DKD1PKVtOSF1jMltjSF1bY0hdbltjSF1bY0hdMg==

> <s_epik_cmdline>
J2VwaWtfcHl0aG9uJywgJy1waCcsICc3LjAnLCAnLXRuJywgJzgnLCAnLW1hJywgJzIwMCcsICctbWV0YWxfYmluZGluZycsICctaW1hZScsICc8aW5maWxlLm1hZT4nLCAnLW9tYWUnLCAnPG91dGZpbGUubWFlPic=

> <r_epik_Ionization_Penalty>
0.101421

> <r_epik_Ionization_Penalty_Charging>
0.00180027

> <r_epik_Ionization_Penalty_Neutral>
0.0996204

> <r_epik_State_Penalty>
0.0910414

> <r_epik_Charging_Adjusted_Penalty>
0.0928416

> <i_epik_Tot_Q>
1

> <i_epik_Tot_abs_Q>
1

> <r_epik_Metal_State_Penalty>
0.076772

> <b_epik_Metal_Only>
0

> <s_lp_Force_Field>
OPLS_2005

> <r_lp_Energy>
40.7955

> <b_lp_Chiralities_Consistent>
1

> <s_lp_Variant>
AV-unprocessed.smi:741-2

> <Gold.Version>
5.8.1

> <Gold.Id.Protein>
6NUR|6NUR_protein|mol2

> <Gold.PLP.Fitness>
44.4281

> <Gold.PLP.PLP>
-28.6480

> <Gold.PLP.part.hbond>
-4.0000

> <Gold.PLP.part.metal>
0.0000

> <Gold.PLP.part.buried>
-2.5555

> <Gold.PLP.part.nonpolar>
-23.3499

> <Gold.PLP.part.repulsive>
0.3914

> <Gold.PLP.ligand.clash>
0.0000

> <Gold.PLP.ligand.torsion>
0.9577

> <Gold.PLP.Chemscore.Hbond>
4.0936

> <Gold.PLP.Chemscore.CHOScore>
1.7931

> <Gold.PLP.Chemscore.Metal>
0.0000

> <Gold.Chemscore.Hbonds>
donor molecule, donor type, donor heavy atom, donor atom, acceptor molecule, acceptor atom, score
      L1  H     5    42       P1 10175  2.00
      L1  H    10    36       P1  7948  1.00
      L1  H    13    37       P1  7948  1.00
      P1  H 10785 10796       L1    17  0.08
      L1  C    16    39       P1 10186  1.00
      L1  C    18    40       P1 10747  0.77

> <Gold.PLP.Chemscore.Internal.Correction>
0.0353

> <Gold.Rescore>
     Score         DG    S(hbond)    S(metal)    S(lipo)     H(rot)  DE(clash)    DE(int)     intcor
     17.31     -19.68       2.88        0.00      73.75       1.59       0.21       2.15       ----

> <Gold.Chemscore.Fitness>
17.3114

> <Gold.Chemscore.DG>
-19.6783

> <Gold.Chemscore.ZeroCoef>
-5.4800

> <Gold.Chemscore.Hbond>
2.8831

> <Gold.Chemscore.Metal>
0.0000

> <Gold.Chemscore.Lipo>
73.7460

> <Gold.Chemscore.Internal_Hbond>
0.0000

> <Gold.Chemscore.DEClash>
0.2132

> <Gold.Chemscore.DEInternal>
2.1537

> <Gold.Chemscore.Rot>
1.5858

> <Gold.Chemscore.Internal.Correction>
   9.000000E+99

> <Gold.Chemscore.Hbonds>
donor molecule, donor type, donor heavy atom, donor atom, acceptor molecule, acceptor atom, score
      L1  H     5    42       P1 10175  0.93
      L1  H    10    36       P1  7948  0.94
      L1  H    13    37       P1  7948  0.89
      P1  H 10785 10796       L1    17  0.05

> <Gold.Chemscore.Hbond.Weighted>
-9.6296

> <Gold.Chemscore.Metal.Weighted>
-0.0000

> <Gold.Chemscore.Lipo.Weighted>
-8.6283

> <Gold.Chemscore.Internal_Hbond.Weighted>
0.0000

> <Gold.Chemscore.DEClash.Weighted>
0.2132

> <Gold.Chemscore.DEInternal.Weighted>
2.1537

> <Gold.Chemscore.Rot.Weighted>
4.0596

> <Gold.Chemscore.Internal.Correction.Weighted>
   9.000000E+99

> <Gold.Protein.RotatedTorsions>
[ 6907 6896 6895 6894 ] final  125.02 input  -60.11 | X-H torsion
[ 7974 7965 7964 7962 ] final   37.78 input  175.53 | X-H torsion
[ 8008 7997 7996 7995 ] final  -46.87 input   59.86 | X-H torsion
[ 10167 10162 10161 10158 ] final  159.84 input  -65.29 | X-H torsion
[ 10718 10713 10712 10709 ] final  -41.99 input   66.30 | X-H torsion
[ 10763 10752 10751 10750 ] final  127.36 input  -60.55 | X-H torsion
[ 11005 11000 10999 10996 ] final  152.31 input  -57.11 | X-H torsion

> <Gold.Protein.ActiveResidues>
 VAL166  LYS551  ARG553  GLY616  TRP617  ASP618  TYR619  PRO620  LYS621  CYS622 
 ASP623  PHE694  ASN695  SER759  ASP760  ASP761  ALA762  ILE779  LEU786  VAL792 
 PHE793  MET794  SER795  GLU796  ALA797  LYS798  CYS799  TRP800  GLU811  SER814 

> <Gold.Protein.RotatedAtoms>
  152.4028  133.6843  159.6330 H   0  0  0  0  0  0  0  0  0  0  0  0  # atno 6907 bound_to 6896
  150.7917  133.8761  159.3281 H   0  0  0  0  0  0  0  0  0  0  0  0  # atno 6908 bound_to 6896
  151.6523  135.1001  160.0214 H   0  0  0  0  0  0  0  0  0  0  0  0  # atno 6909 bound_to 6896
  146.1112  139.5852  142.9351 H   0  0  0  0  0  0  0  0  0  0  0  0  # atno 7974 bound_to 7965
  154.4011  140.1360  156.4082 H   0  0  0  0  0  0  0  0  0  0  0  0  # atno 8008 bound_to 7997
  155.7759  140.3482  155.5251 H   0  0  0  0  0  0  0  0  0  0  0  0  # atno 8009 bound_to 7997
  155.8721  140.0973  157.1533 H   0  0  0  0  0  0  0  0  0  0  0  0  # atno 8010 bound_to 7997
  139.4835  144.4692  151.8600 H   0  0  0  0  0  0  0  0  0  0  0  0  # atno 10167 bound_to 10162
  156.2644  130.4200  149.8507 H   0  0  0  0  0  0  0  0  0  0  0  0  # atno 10718 bound_to 10713
  153.7082  135.3272  155.3240 H   0  0  0  0  0  0  0  0  0  0  0  0  # atno 10763 bound_to 10752
  154.8393  135.4470  154.1341 H   0  0  0  0  0  0  0  0  0  0  0  0  # atno 10764 bound_to 10752
  153.2427  135.6973  153.7844 H   0  0  0  0  0  0  0  0  0  0  0  0  # atno 10765 bound_to 10752
  140.1296  134.8810  157.2186 H   0  0  0  0  0  0  0  0  0  0  0  0  # atno 11005 bound_to 11000
  145.5661  141.0399  143.2200 LP  0  0  0  0  0  0  0  0  0  0  0  0  # atno 17320 bound_to 7965
  144.7513  139.7187  143.7272 LP  0  0  0  0  0  0  0  0  0  0  0  0  # atno 17321 bound_to 7965
  140.4159  144.2307  150.5888 LP  0  0  0  0  0  0  0  0  0  0  0  0  # atno 17342 bound_to 10162
  140.4921  143.2344  151.8803 LP  0  0  0  0  0  0  0  0  0  0  0  0  # atno 17343 bound_to 10162
  156.6011  130.8547  151.3432 LP  0  0  0  0  0  0  0  0  0  0  0  0  # atno 17370 bound_to 10713
  157.7262  130.9626  150.1646 LP  0  0  0  0  0  0  0  0  0  0  0  0  # atno 17371 bound_to 10713
  140.2859  134.3296  155.7329 LP  0  0  0  0  0  0  0  0  0  0  0  0  # atno 17394 bound_to 11000
  141.2168  133.7506  156.9432 LP  0  0  0  0  0  0  0  0  0  0  0  0  # atno 17395 bound_to 11000

$$$$
