AV-unprocessed.smi:1672|AV-procd|sdf|6708|dock1
  -GOLD-   22720 7453D 1   1.00000     0.00000
 Structure written by MMmdl.
 49 51  0  0  0  0  0  0  0  0  3 V2000
  143.9539  133.2098  152.3151 C   0  0  0  0  0  0  0  0  0  0  0  0
  145.4647  133.4996  152.3479 C   0  0  2  0  0  0  0  0  0  0  0  0
  145.8885  134.3177  153.5813 C   0  0  0  0  0  0  0  0  0  0  0  0
  145.4676  135.7942  153.4739 C   0  0  0  0  0  0  0  0  0  0  0  0
  145.9983  136.4147  152.2311 N   0  3  2  0  0  0  0  0  0  0  0  0
  145.7264  137.8724  152.1387 C   0  0  0  0  0  0  0  0  0  0  0  0
  146.8572  138.7316  152.7439 C   0  0  1  0  0  0  0  0  0  0  0  0
  147.0712  139.8559  151.9156 O   0  0  0  0  0  0  0  0  0  0  0  0
  146.5470  139.2520  154.1633 C   0  0  0  0  0  0  0  0  0  0  0  0
  147.5358  140.2218  154.6612 N   0  0  0  0  0  0  0  0  0  0  0  0
  147.4511  141.5743  154.8366 C   0  0  0  0  0  0  0  0  0  0  0  0
  146.2768  142.4546  154.5551 C   0  0  0  0  0  0  0  0  0  0  0  0
  145.0839  141.9663  155.1274 O   0  0  0  0  0  0  0  0  0  0  0  0
  148.6514  141.9921  155.3285 N   0  3  0  0  0  0  0  0  0  0  0  0
  149.5181  140.9057  155.4512 C   0  0  0  0  0  0  0  0  0  0  0  0
  150.8352  140.8360  155.8949 C   0  0  0  0  0  0  0  0  0  0  0  0
  151.4393  139.5616  155.8861 C   0  0  0  0  0  0  0  0  0  0  0  0
  150.7380  138.4198  155.4473 C   0  0  0  0  0  0  0  0  0  0  0  0
  149.4023  138.5029  155.0014 C   0  0  0  0  0  0  0  0  0  0  0  0
  148.8111  139.7663  155.0166 C   0  0  0  0  0  0  0  0  0  0  0  0
  145.5461  135.6828  151.0200 C   0  0  0  0  0  0  0  0  0  0  0  0
  145.9649  134.2025  151.0728 C   0  0  0  0  0  0  0  0  0  0  0  0
  143.3600  134.1204  152.2423 H   0  0  0  0  0  0  0  0  0  0  0  0
  143.6384  132.6818  153.2155 H   0  0  0  0  0  0  0  0  0  0  0  0
  143.6967  132.5810  151.4624 H   0  0  0  0  0  0  0  0  0  0  0  0
  145.9627  132.5309  152.4084 H   0  0  0  0  0  0  0  0  0  0  0  0
  145.4760  133.8748  154.4885 H   0  0  0  0  0  0  0  0  0  0  0  0
  146.9731  134.2667  153.6878 H   0  0  0  0  0  0  0  0  0  0  0  0
  144.3806  135.8825  153.4929 H   0  0  0  0  0  0  0  0  0  0  0  0
  145.8360  136.3245  154.3509 H   0  0  0  0  0  0  0  0  0  0  0  0
  145.6031  138.1590  151.0931 H   0  0  0  0  0  0  0  0  0  0  0  0
  144.7731  138.0793  152.6261 H   0  0  0  0  0  0  0  0  0  0  0  0
  147.7859  138.1644  152.7755 H   0  0  0  0  0  0  0  0  0  0  0  0
  147.9268  139.7845  151.5200 H   0  0  0  0  0  0  0  0  0  0  0  0
  145.5634  139.7228  154.1988 H   0  0  0  0  0  0  0  0  0  0  0  0
  146.5120  138.4206  154.8676 H   0  0  0  0  0  0  0  0  0  0  0  0
  146.4716  143.4522  154.9503 H   0  0  0  0  0  0  0  0  0  0  0  0
  146.1445  142.5611  153.4785 H   0  0  0  0  0  0  0  0  0  0  0  0
  144.6856  141.3620  154.5189 H   0  0  0  0  0  0  0  0  0  0  0  0
  151.3764  141.7098  156.2276 H   0  0  0  0  0  0  0  0  0  0  0  0
  152.4619  139.4580  156.2196 H   0  0  0  0  0  0  0  0  0  0  0  0
  151.2356  137.4606  155.4511 H   0  0  0  0  0  0  0  0  0  0  0  0
  148.8767  137.6219  154.6635 H   0  0  0  0  0  0  0  0  0  0  0  0
  144.4637  135.7735  150.9193 H   0  0  0  0  0  0  0  0  0  0  0  0
  145.9824  136.1403  150.1312 H   0  0  0  0  0  0  0  0  0  0  0  0
  147.0536  134.1430  151.0366 H   0  0  0  0  0  0  0  0  0  0  0  0
  145.6052  133.6792  150.1862 H   0  0  0  0  0  0  0  0  0  0  0  0
  147.0036  136.3172  152.2578 H   0  0  0  0  0  0  0  0  0  0  0  0
  148.8620  142.9553  155.5572 H   0  0  0  0  0  0  0  0  0  0  0  0
  1  2  1  0  0  0  0
  1 23  1  0  0  0  0
  1 24  1  0  0  0  0
  1 25  1  0  0  0  0
  2 22  1  0  0  0  0
  2  3  1  0  0  0  0
  2 26  1  0  0  0  0
  3  4  1  0  0  0  0
  3 27  1  0  0  0  0
  3 28  1  0  0  0  0
  4  5  1  0  0  0  0
  4 29  1  0  0  0  0
  4 30  1  0  0  0  0
  5  6  1  0  0  0  0
  5 21  1  0  0  0  0
  5 48  1  0  0  0  0
  6  7  1  0  0  0  0
  6 31  1  0  0  0  0
  6 32  1  0  0  0  0
  7  8  1  0  0  0  0
  7  9  1  0  0  0  0
  7 33  1  0  0  0  0
  8 34  1  0  0  0  0
  9 10  1  0  0  0  0
  9 35  1  0  0  0  0
  9 36  1  0  0  0  0
 10 20  1  0  0  0  0
 10 11  1  0  0  0  0
 11 12  1  0  0  0  0
 11 14  2  0  0  0  0
 12 13  1  0  0  0  0
 12 37  1  0  0  0  0
 12 38  1  0  0  0  0
 13 39  1  0  0  0  0
 14 15  1  0  0  0  0
 14 49  1  0  0  0  0
 15 20  2  0  0  0  0
 15 16  1  0  0  0  0
 16 17  2  0  0  0  0
 16 40  1  0  0  0  0
 17 18  1  0  0  0  0
 17 41  1  0  0  0  0
 18 19  2  0  0  0  0
 18 42  1  0  0  0  0
 19 20  1  0  0  0  0
 19 43  1  0  0  0  0
 21 22  1  0  0  0  0
 21 44  1  0  0  0  0
 21 45  1  0  0  0  0
 22 46  1  0  0  0  0
 22 47  1  0  0  0  0
M  CHG  1   5   1
M  CHG  1  14   1
M  END
> <s_m_source_file>
AV-unprocessed.smi

> <i_m_source_file_index>
1672

> <i_lp_mmshare_version>
43012

> <i_f3d_flags>
0

> <s_epik_input>
W0NIM11bQ0hdMVtDSDJdW0NIMl1OKFtDSDJdW0NIMl0xKVtDSDJdW0NASF0oW09IXSlbQ0gyXW4oYyhuMilbQ0gyXVtPSF0pYyhjMjMpW2NIXVtjSF1bY0hdW2NIXTM=

> <s_epik_cmdline>
J2VwaWtfcHl0aG9uJywgJy1waCcsICc3LjAnLCAnLXRuJywgJzgnLCAnLW1hJywgJzIwMCcsICctbWV0YWxfYmluZGluZycsICctaW1hZScsICc8aW5maWxlLm1hZT4nLCAnLW9tYWUnLCAnPG91dGZpbGUubWFlPic=

> <r_epik_Ionization_Penalty>
1.51642

> <r_epik_Ionization_Penalty_Charging>
1.51557

> <r_epik_Ionization_Penalty_Neutral>
0.000856474

> <r_epik_State_Penalty>
1.6048

> <r_epik_Charging_Adjusted_Penalty>
3.12037

> <i_epik_Tot_Q>
2

> <i_epik_Tot_abs_Q>
2

> <r_epik_Metal_State_Penalty>
5.65673

> <b_epik_Metal_Only>
0

> <s_lp_Force_Field>
OPLS_2005

> <r_lp_Energy>
31.8272

> <b_lp_Chiralities_Consistent>
1

> <s_lp_Variant>
AV-unprocessed.smi:1672-8

> <Gold.Version>
5.8.1

> <Gold.Id.Protein>
6NUR|6NUR_protein|mol2

> <Gold.PLP.Fitness>
55.3496

> <Gold.PLP.PLP>
-39.8043

> <Gold.PLP.part.hbond>
-4.0000

> <Gold.PLP.part.metal>
0.0000

> <Gold.PLP.part.buried>
-2.0120

> <Gold.PLP.part.nonpolar>
-34.2707

> <Gold.PLP.part.repulsive>
0.2254

> <Gold.PLP.ligand.clash>
0.0000

> <Gold.PLP.ligand.torsion>
1.2982

> <Gold.PLP.Chemscore.Hbond>
6.0000

> <Gold.PLP.Chemscore.CHOScore>
0.0000

> <Gold.PLP.Chemscore.Metal>
0.0000

> <Gold.Chemscore.Hbonds>
donor molecule, donor type, donor heavy atom, donor atom, acceptor molecule, acceptor atom, score
      L1  H     5    48       P1  7948  2.00
      L1  H     8    34       P1  7957  1.00
      L1  H    13    39       P1 10175  0.03
      L1  H    14    49       P1  8028  2.00

> <Gold.PLP.Chemscore.Internal.Correction>
0.1416

> <Gold.Rescore>
     Score         DG    S(hbond)    S(metal)    S(lipo)     H(rot)  DE(clash)    DE(int)     intcor
     18.45     -21.01       3.57        0.00      95.58       2.96       1.54       1.01       ----

> <Gold.Chemscore.Fitness>
18.4521

> <Gold.Chemscore.DG>
-21.0092

> <Gold.Chemscore.ZeroCoef>
-5.4800

> <Gold.Chemscore.Hbond>
3.5664

> <Gold.Chemscore.Metal>
0.0000

> <Gold.Chemscore.Lipo>
95.5847

> <Gold.Chemscore.Internal_Hbond>
0.0000

> <Gold.Chemscore.DEClash>
1.5433

> <Gold.Chemscore.DEInternal>
1.0138

> <Gold.Chemscore.Rot>
2.9555

> <Gold.Chemscore.Internal.Correction>
   9.000000E+99

> <Gold.Chemscore.Hbonds>
donor molecule, donor type, donor heavy atom, donor atom, acceptor molecule, acceptor atom, score
      L1  H     5    48       P1  7948  0.98
      L1  H     8    34       P1  7957  1.00
      L1  H    13    39       P1 10175  0.06
      L1  H    14    49       P1  8028  1.00

> <Gold.Chemscore.Hbond.Weighted>
-11.9118

> <Gold.Chemscore.Metal.Weighted>
-0.0000

> <Gold.Chemscore.Lipo.Weighted>
-11.1834

> <Gold.Chemscore.Internal_Hbond.Weighted>
0.0000

> <Gold.Chemscore.DEClash.Weighted>
1.5433

> <Gold.Chemscore.DEInternal.Weighted>
1.0138

> <Gold.Chemscore.Rot.Weighted>
7.5660

> <Gold.Chemscore.Internal.Correction.Weighted>
   9.000000E+99

> <Gold.Protein.RotatedTorsions>
[ 6907 6896 6895 6894 ] final  113.50 input  -60.11 | X-H torsion
[ 7974 7965 7964 7962 ] final  -31.00 input  175.53 | X-H torsion
[ 8008 7997 7996 7995 ] final   95.60 input   59.86 | X-H torsion
[ 10167 10162 10161 10158 ] final  -78.17 input  -65.29 | X-H torsion
[ 10718 10713 10712 10709 ] final -105.18 input   66.30 | X-H torsion
[ 10763 10752 10751 10750 ] final   52.17 input  -60.55 | X-H torsion
[ 11005 11000 10999 10996 ] final  168.09 input  -57.11 | X-H torsion

> <Gold.Protein.ActiveResidues>
 VAL166  LYS551  ARG553  GLY616  TRP617  ASP618  TYR619  PRO620  LYS621  CYS622 
 ASP623  PHE694  ASN695  SER759  ASP760  ASP761  ALA762  ILE779  LEU786  VAL792 
 PHE793  MET794  SER795  GLU796  ALA797  LYS798  CYS799  TRP800  GLU811  SER814 

> <Gold.Protein.RotatedAtoms>
  152.4857  133.8366  159.7130 H   0  0  0  0  0  0  0  0  0  0  0  0  # atno 6907 bound_to 6896
  150.8941  133.7194  159.2903 H   0  0  0  0  0  0  0  0  0  0  0  0  # atno 6908 bound_to 6896
  151.4657  135.1046  159.9790 H   0  0  0  0  0  0  0  0  0  0  0  0  # atno 6909 bound_to 6896
  146.1101  140.5612  142.8782 H   0  0  0  0  0  0  0  0  0  0  0  0  # atno 7974 bound_to 7965
  156.0706  140.3284  155.7571 H   0  0  0  0  0  0  0  0  0  0  0  0  # atno 8008 bound_to 7997
  155.5311  140.0593  157.2906 H   0  0  0  0  0  0  0  0  0  0  0  0  # atno 8009 bound_to 7997
  154.4528  140.1927  156.0485 H   0  0  0  0  0  0  0  0  0  0  0  0  # atno 8010 bound_to 7997
  140.4706  143.2428  151.8211 H   0  0  0  0  0  0  0  0  0  0  0  0  # atno 10167 bound_to 10162
  156.0335  130.5551  150.7503 H   0  0  0  0  0  0  0  0  0  0  0  0  # atno 10718 bound_to 10713
  152.9788  135.5821  154.4534 H   0  0  0  0  0  0  0  0  0  0  0  0  # atno 10763 bound_to 10752
  154.4120  135.2770  155.2032 H   0  0  0  0  0  0  0  0  0  0  0  0  # atno 10764 bound_to 10752
  154.3818  135.6145  153.5849 H   0  0  0  0  0  0  0  0  0  0  0  0  # atno 10765 bound_to 10752
  140.2836  134.7730  157.3779 H   0  0  0  0  0  0  0  0  0  0  0  0  # atno 11005 bound_to 11000
  144.7504  140.5175  143.6806 LP  0  0  0  0  0  0  0  0  0  0  0  0  # atno 17320 bound_to 7965
  145.5682  139.1482  143.3303 LP  0  0  0  0  0  0  0  0  0  0  0  0  # atno 17321 bound_to 7965
  139.4818  144.4897  151.9201 LP  0  0  0  0  0  0  0  0  0  0  0  0  # atno 17342 bound_to 10162
  140.3982  144.2527  150.5895 LP  0  0  0  0  0  0  0  0  0  0  0  0  # atno 17343 bound_to 10162
  157.5049  131.0921  151.0269 LP  0  0  0  0  0  0  0  0  0  0  0  0  # atno 17370 bound_to 10713
  157.0640  130.5837  149.5391 LP  0  0  0  0  0  0  0  0  0  0  0  0  # atno 17371 bound_to 10713
  140.1260  134.5157  155.8144 LP  0  0  0  0  0  0  0  0  0  0  0  0  # atno 17394 bound_to 11000
  141.2158  133.6773  156.6953 LP  0  0  0  0  0  0  0  0  0  0  0  0  # atno 17395 bound_to 11000

$$$$
