AV-unprocessed.smi:527|AV-procd|sdf|2827|dock1
  -GOLD-   2262023313D 1   1.00000     0.00000
 Structure written by MMmdl.
 43 44  0  0  0  0  0  0  0  0  2 V2000
  149.3199  141.1632  156.1260 C   0  0  0  0  0  0  0  0  0  0  0  0
  149.1445  141.0686  154.5964 C   0  0  2  0  0  0  0  0  0  0  0  0
  147.9073  141.8544  154.1158 C   0  0  0  0  0  0  0  0  0  0  0  0
  146.5919  141.1496  154.4824 C   0  0  0  0  0  0  0  0  0  0  0  0
  146.5629  139.7122  153.9447 C   0  0  0  0  0  0  0  0  0  0  0  0
  147.7850  138.8966  154.4157 C   0  0  1  0  0  0  0  0  0  0  0  0
  147.7458  137.5638  153.8163 N   0  0  0  0  0  0  0  0  0  0  0  0
  146.8920  136.5853  154.1521 C   0  0  0  0  0  0  0  0  0  0  0  0
  146.0991  136.6702  155.0924 O   0  0  0  0  0  0  0  0  0  0  0  0
  147.0265  135.5254  153.3317 N   0  0  0  0  0  0  0  0  0  0  0  0
  146.1968  134.4693  153.2104 C   0  0  0  0  0  0  0  0  0  0  0  0
  145.1546  134.3117  153.8519 O   0  0  0  0  0  0  0  0  0  0  0  0
  146.6400  133.4191  152.1837 C   0  0  0  0  0  0  0  0  0  0  0  0
  145.6242  133.1510  151.1578 N   0  0  0  0  0  0  0  0  0  0  0  0
  145.7107  132.2665  150.1126 C   0  0  0  0  0  0  0  0  0  0  0  0
  144.5317  132.3642  149.4194 C   0  0  0  0  0  0  0  0  0  0  0  0
  143.7765  133.3041  150.0687 N   0  3  0  0  0  0  0  0  0  0  0  0
  144.4425  133.7818  151.1251 C   0  0  0  0  0  0  0  0  0  0  0  0
  149.1091  139.6162  154.0496 C   0  0  2  0  0  0  0  0  0  0  0  0
  150.3627  138.8095  154.4427 C   0  0  0  0  0  0  0  0  0  0  0  0
  148.5235  140.6518  156.6655 H   0  0  0  0  0  0  0  0  0  0  0  0
  149.3201  142.2033  156.4526 H   0  0  0  0  0  0  0  0  0  0  0  0
  150.2672  140.7312  156.4479 H   0  0  0  0  0  0  0  0  0  0  0  0
  150.0156  141.5592  154.1601 H   0  0  0  0  0  0  0  0  0  0  0  0
  147.9159  142.8642  154.5277 H   0  0  0  0  0  0  0  0  0  0  0  0
  147.9562  141.9716  153.0323 H   0  0  0  0  0  0  0  0  0  0  0  0
  146.4604  141.1403  155.5647 H   0  0  0  0  0  0  0  0  0  0  0  0
  145.7490  141.7106  154.0781 H   0  0  0  0  0  0  0  0  0  0  0  0
  145.6394  139.2258  154.2612 H   0  0  0  0  0  0  0  0  0  0  0  0
  146.5370  139.7386  152.8543 H   0  0  0  0  0  0  0  0  0  0  0  0
  147.7399  138.7915  155.5010 H   0  0  0  0  0  0  0  0  0  0  0  0
  148.4294  137.3738  153.0984 H   0  0  0  0  0  0  0  0  0  0  0  0
  147.8443  135.5209  152.7403 H   0  0  0  0  0  0  0  0  0  0  0  0
  147.5465  133.7556  151.6785 H   0  0  0  0  0  0  0  0  0  0  0  0
  146.8749  132.4818  152.6900 H   0  0  0  0  0  0  0  0  0  0  0  0
  146.5825  131.6512  149.9427 H   0  0  0  0  0  0  0  0  0  0  0  0
  144.1834  131.8499  148.5356 H   0  0  0  0  0  0  0  0  0  0  0  0
  144.0956  134.5325  151.8129 H   0  0  0  0  0  0  0  0  0  0  0  0
  149.1349  139.6997  152.9617 H   0  0  0  0  0  0  0  0  0  0  0  0
  150.3637  138.5593  155.5037 H   0  0  0  0  0  0  0  0  0  0  0  0
  151.2732  139.3702  154.2292 H   0  0  0  0  0  0  0  0  0  0  0  0
  150.4263  137.8735  153.8875 H   0  0  0  0  0  0  0  0  0  0  0  0
  142.8492  133.5995  149.7897 H   0  0  0  0  0  0  0  0  0  0  0  0
  1  2  1  0  0  0  0
  1 21  1  0  0  0  0
  1 22  1  0  0  0  0
  1 23  1  0  0  0  0
  2 19  1  0  0  0  0
  2  3  1  0  0  0  0
  2 24  1  0  0  0  0
  3  4  1  0  0  0  0
  3 25  1  0  0  0  0
  3 26  1  0  0  0  0
  4  5  1  0  0  0  0
  4 27  1  0  0  0  0
  4 28  1  0  0  0  0
  5  6  1  0  0  0  0
  5 29  1  0  0  0  0
  5 30  1  0  0  0  0
  6  7  1  0  0  0  0
  6 19  1  0  0  0  0
  6 31  1  0  0  0  0
  7  8  1  0  0  0  0
  7 32  1  0  0  0  0
  8  9  2  0  0  0  0
  8 10  1  0  0  0  0
 10 11  1  0  0  0  0
 10 33  1  0  0  0  0
 11 12  2  0  0  0  0
 11 13  1  0  0  0  0
 13 14  1  0  0  0  0
 13 34  1  0  0  0  0
 13 35  1  0  0  0  0
 14 18  1  0  0  0  0
 14 15  1  0  0  0  0
 15 16  2  0  0  0  0
 15 36  1  0  0  0  0
 16 17  1  0  0  0  0
 16 37  1  0  0  0  0
 17 18  2  0  0  0  0
 17 43  1  0  0  0  0
 18 38  1  0  0  0  0
 19 20  1  0  0  0  0
 19 39  1  0  0  0  0
 20 40  1  0  0  0  0
 20 41  1  0  0  0  0
 20 42  1  0  0  0  0
M  CHG  1  17   1
M  END
> <s_m_source_file>
AV-unprocessed.smi

> <i_m_source_file_index>
527

> <i_lp_mmshare_version>
43012

> <i_f3d_flags>
0

> <s_epik_input>
W0NIM11bQ0BASF0xW0NIMl1bQ0gyXVtDSDJdW0NASF0oW0NASF0xW0NIM10pW05IXUMoPU8pW05IXUMoPU8pW0NIMl1uMltjSF1bY0hdbltjSF0y

> <s_epik_cmdline>
J2VwaWtfcHl0aG9uJywgJy1waCcsICc3LjAnLCAnLXRuJywgJzgnLCAnLW1hJywgJzIwMCcsICctbWV0YWxfYmluZGluZycsICctaW1hZScsICc8aW5maWxlLm1hZT4nLCAnLW9tYWUnLCAnPG91dGZpbGUubWFlPic=

> <r_lp_tautomer_probability>
1

> <r_epik_Ionization_Penalty>
0.816441

> <r_epik_Ionization_Penalty_Charging>
0

> <r_epik_Ionization_Penalty_Neutral>
0.816441

> <r_epik_State_Penalty>
0.849034

> <r_epik_Charging_Adjusted_Penalty>
0.849034

> <i_epik_Tot_Q>
1

> <i_epik_Tot_abs_Q>
1

> <r_epik_Metal_State_Penalty>
0.984327

> <b_epik_Metal_Only>
0

> <s_lp_Force_Field>
OPLS_2005

> <r_lp_Energy>
18.5197

> <b_lp_Chiralities_Consistent>
1

> <s_lp_Variant>
AV-unprocessed.smi:527-13

> <Gold.Version>
5.8.1

> <Gold.Id.Protein>
6NUR|6NUR_protein|mol2

> <Gold.PLP.Fitness>
47.6889

> <Gold.PLP.PLP>
-33.3122

> <Gold.PLP.part.hbond>
-2.9160

> <Gold.PLP.part.metal>
0.0000

> <Gold.PLP.part.buried>
-2.9469

> <Gold.PLP.part.nonpolar>
-28.0216

> <Gold.PLP.part.repulsive>
0.1729

> <Gold.PLP.ligand.clash>
0.0000

> <Gold.PLP.ligand.torsion>
0.2156

> <Gold.PLP.Chemscore.Hbond>
3.9280

> <Gold.PLP.Chemscore.CHOScore>
1.0000

> <Gold.PLP.Chemscore.Metal>
0.0000

> <Gold.Chemscore.Hbonds>
donor molecule, donor type, donor heavy atom, donor atom, acceptor molecule, acceptor atom, score
      L1  H     7    32       P1  7948  0.93
      L1  H    10    33       P1  7948  1.00
      L1  H    17    43       P1 10186  1.98
      L1  C    15    36       P1 10747  1.00

> <Gold.PLP.Chemscore.Internal.Correction>
0.0239

> <Gold.Rescore>
     Score         DG    S(hbond)    S(metal)    S(lipo)     H(rot)  DE(clash)    DE(int)     intcor
     16.71     -19.66       2.94        0.00      74.71       1.71       0.09       2.87       ----

> <Gold.Chemscore.Fitness>
16.7055

> <Gold.Chemscore.DG>
-19.6598

> <Gold.Chemscore.ZeroCoef>
-5.4800

> <Gold.Chemscore.Hbond>
2.9353

> <Gold.Chemscore.Metal>
0.0000

> <Gold.Chemscore.Lipo>
74.7108

> <Gold.Chemscore.Internal_Hbond>
0.0000

> <Gold.Chemscore.DEClash>
0.0875

> <Gold.Chemscore.DEInternal>
2.8668

> <Gold.Chemscore.Rot>
1.7052

> <Gold.Chemscore.Internal.Correction>
   9.000000E+99

> <Gold.Chemscore.Hbonds>
donor molecule, donor type, donor heavy atom, donor atom, acceptor molecule, acceptor atom, score
      L1  H     7    32       P1  7948  0.90
      L1  H    10    33       P1  7948  0.94
      L1  H    17    43       P1 10186  0.93

> <Gold.Chemscore.Hbond.Weighted>
-9.8039

> <Gold.Chemscore.Metal.Weighted>
-0.0000

> <Gold.Chemscore.Lipo.Weighted>
-8.7412

> <Gold.Chemscore.Internal_Hbond.Weighted>
0.0000

> <Gold.Chemscore.DEClash.Weighted>
0.0875

> <Gold.Chemscore.DEInternal.Weighted>
2.8668

> <Gold.Chemscore.Rot.Weighted>
4.3653

> <Gold.Chemscore.Internal.Correction.Weighted>
   9.000000E+99

> <Gold.Protein.RotatedTorsions>
[ 6907 6896 6895 6894 ] final  144.82 input  -60.11 | X-H torsion
[ 7974 7965 7964 7962 ] final -121.95 input  175.53 | X-H torsion
[ 8008 7997 7996 7995 ] final -168.33 input   59.86 | X-H torsion
[ 10167 10162 10161 10158 ] final  139.83 input  -65.29 | X-H torsion
[ 10718 10713 10712 10709 ] final   50.39 input   66.30 | X-H torsion
[ 10763 10752 10751 10750 ] final   62.01 input  -60.55 | X-H torsion
[ 11005 11000 10999 10996 ] final  -16.35 input  -57.11 | X-H torsion

> <Gold.Protein.ActiveResidues>
 VAL166  LYS551  ARG553  GLY616  TRP617  ASP618  TYR619  PRO620  LYS621  CYS622 
 ASP623  PHE694  ASN695  SER759  ASP760  ASP761  ALA762  ILE779  LEU786  VAL792 
 PHE793  MET794  SER795  GLU796  ALA797  LYS798  CYS799  TRP800  GLU811  SER814 

> <Gold.Protein.RotatedAtoms>
  152.1888  133.4759  159.4996 H   0  0  0  0  0  0  0  0  0  0  0  0  # atno 6907 bound_to 6896
  150.6947  134.1739  159.4231 H   0  0  0  0  0  0  0  0  0  0  0  0  # atno 6908 bound_to 6896
  151.9652  135.0103  160.0600 H   0  0  0  0  0  0  0  0  0  0  0  0  # atno 6909 bound_to 6896
  145.0347  140.8096  143.4302 H   0  0  0  0  0  0  0  0  0  0  0  0  # atno 7974 bound_to 7965
  155.8900  140.1023  157.1425 H   0  0  0  0  0  0  0  0  0  0  0  0  # atno 8008 bound_to 7997
  154.4014  140.1312  156.4367 H   0  0  0  0  0  0  0  0  0  0  0  0  # atno 8009 bound_to 7997
  155.7545  140.3464  155.5169 H   0  0  0  0  0  0  0  0  0  0  0  0  # atno 8010 bound_to 7997
  139.5067  144.6271  151.5910 H   0  0  0  0  0  0  0  0  0  0  0  0  # atno 10167 bound_to 10162
  157.4880  130.8358  149.8170 H   0  0  0  0  0  0  0  0  0  0  0  0  # atno 10718 bound_to 10713
  152.9969  135.5480  154.6126 H   0  0  0  0  0  0  0  0  0  0  0  0  # atno 10763 bound_to 10752
  154.5443  135.2822  155.1069 H   0  0  0  0  0  0  0  0  0  0  0  0  # atno 10764 bound_to 10752
  154.2334  135.6429  153.5235 H   0  0  0  0  0  0  0  0  0  0  0  0  # atno 10765 bound_to 10752
  140.8059  133.8178  155.9516 H   0  0  0  0  0  0  0  0  0  0  0  0  # atno 11005 bound_to 11000
  145.1724  139.2397  143.5335 LP  0  0  0  0  0  0  0  0  0  0  0  0  # atno 17320 bound_to 7965
  146.3503  140.1478  142.8593 LP  0  0  0  0  0  0  0  0  0  0  0  0  # atno 17321 bound_to 7965
  140.5991  143.9642  150.6374 LP  0  0  0  0  0  0  0  0  0  0  0  0  # atno 17342 bound_to 10162
  140.2848  143.3365  152.1118 LP  0  0  0  0  0  0  0  0  0  0  0  0  # atno 17343 bound_to 10162
  156.0157  130.3814  150.2117 LP  0  0  0  0  0  0  0  0  0  0  0  0  # atno 17370 bound_to 10713
  157.0305  131.0006  151.3313 LP  0  0  0  0  0  0  0  0  0  0  0  0  # atno 17371 bound_to 10713
  140.9247  134.2097  157.4903 LP  0  0  0  0  0  0  0  0  0  0  0  0  # atno 17394 bound_to 11000
  139.8718  134.9807  156.5088 LP  0  0  0  0  0  0  0  0  0  0  0  0  # atno 17395 bound_to 11000

$$$$
