#       Name:                AV-unprocessed.smi:3046
#       Creating user name   scv26
#       Creation time:       Fri Mar 27 16:59:47 2020


#       File generated by GOLD software.
#

@<TRIPOS>MOLECULE
AV-unprocessed.smi:3046
    41    41     1
SMALL
NO_CHARGES


@<TRIPOS>ATOM
      1 ****        -3.1189   0.7233   4.7130 C.2            1 S1                 0.0000
      2 ****        -2.3989  -0.0596   3.8959 C.2            1 S1                 0.0000
      3 ****        -2.9910  -0.9704   2.8384 C.3            1 S1                 0.0000
      4 ****        -2.4375  -0.6861   1.5200 N.am           1 S1                 0.0000
      5 ****        -1.2482  -1.1181   1.0723 C.2            1 S1                 0.0000
      6 ****        -0.4943  -1.8303   1.7367 O.2            1 S1                 0.0000
      7 ****        -0.8517  -0.6799  -0.3437 C.3            1 S1                 0.0000
      8 ****        -1.3873  -1.6877  -1.3723 C.3            1 S1                 0.0000
      9 ****         0.6187  -0.5638  -0.4867 N.4            1 S1                 1.0000
     10 ****         1.2056   0.7833  -0.2789 C.3            1 S1                 0.0000
     11 ****         1.2434   1.1596   1.2121 C.3            1 S1                 0.0000
     12 ****         2.6195   0.8407  -0.8902 C.3            1 S1                 0.0000
     13 ****         2.6036   0.6794  -2.3337 N.pl3          1 S1                 0.0000
     14 ****         2.5271   1.6565  -3.3041 C.2            1 S1                 0.0000
     15 ****         2.5333   1.0268  -4.5157 C.2            1 S1                 0.0000
     16 ****         2.6191  -0.3533  -4.1799 C.2            1 S1                 0.0000
     17 ****         2.6583  -0.5581  -2.8730 N.2            1 S1                 0.0000
     18 ****        -4.1976   0.7517   4.6586 H              1 S1                 0.0000
     19 ****        -2.6359   1.3481   5.4500 H              1 S1                 0.0000
     20 ****        -1.3220  -0.0626   3.9857 H              1 S1                 0.0000
     21 ****        -2.8053  -2.0097   3.1140 H              1 S1                 0.0000
     22 ****        -4.0732  -0.8430   2.7987 H              1 S1                 0.0000
     23 ****        -2.9986  -0.1125   0.9068 H              1 S1                 0.0000
     24 ****        -1.3091   0.2878  -0.5566 H              1 S1                 0.0000
     25 ****        -2.4724  -1.7804  -1.3116 H              1 S1                 0.0000
     26 ****        -0.9595  -2.6801  -1.2226 H              1 S1                 0.0000
     27 ****        -1.1447  -1.3735  -2.3881 H              1 S1                 0.0000
     28 ****         1.0668  -1.2327   0.1238 H              1 S1                 0.0000
     29 ****         0.5910   1.5165  -0.8036 H              1 S1                 0.0000
     30 ****         1.7258   2.1264   1.3589 H              1 S1                 0.0000
     31 ****         1.7969   0.4218   1.7944 H              1 S1                 0.0000
     32 ****         0.2420   1.2383   1.6345 H              1 S1                 0.0000
     33 ****         3.0854   1.8017  -0.6684 H              1 S1                 0.0000
     34 ****         3.2638   0.0760  -0.4525 H              1 S1                 0.0000
     35 ****         2.4735   2.7064  -3.0553 H              1 S1                 0.0000
     36 ****         2.4853   1.4825  -5.4937 H              1 S1                 0.0000
     37 ****         2.6520  -1.2062  -4.8417 H              1 S1                 0.0000
     38 ****         0.8349  -0.8179  -1.4405 H              1 S1                 0.0000
     39 ****        -0.7583  -2.1146   2.6584 LP             1 S1                 0.0000
     40 ****         0.3818  -2.1243   1.3544 LP             1 S1                 0.0000
     41 ****         2.7156  -1.4331  -2.3923 LP             1 S1                 0.0000
@<TRIPOS>BOND
    1    1    2 2     
    2    1   18 1     
    3    1   19 1     
    4    2    3 1     
    5    2   20 1     
    6    3    4 1     
    7    3   21 1     
    8    3   22 1     
    9    4    5 am    
   10    4   23 1     
   11    5    6 2     
   12    5    7 1     
   13    7    8 1     
   14    7    9 1     
   15    7   24 1     
   16    8   25 1     
   17    8   26 1     
   18    8   27 1     
   19    9   10 1     
   20    9   28 1     
   21    9   38 1     
   22   10   11 1     
   23   10   12 1     
   24   10   29 1     
   25   11   30 1     
   26   11   31 1     
   27   11   32 1     
   28   12   13 1     
   29   12   33 1     
   30   12   34 1     
   31   13   17 1     
   32   13   14 1     
   33   14   15 2     
   34   14   35 1     
   35   15   16 1     
   36   15   36 1     
   37   16   17 2     
   38   16   37 1     
   39    6   39 1     
   40    6   40 1     
   41   17   41 1     
@<TRIPOS>SUBSTRUCTURE
      1 S1             1
@<TRIPOS>SET
LONE_PAIRS      STATIC     ATOMS    <user>   **** ""
3 39 40 41
DONOR_HYDROGENS      STATIC     ATOMS    <user>   **** ""
3 23 28 38
ATOM$BLUE        STATIC     ATOMS    COLORGROUP SYSTEM
3 39 40 41
ATOM$RED        STATIC     ATOMS    COLORGROUP SYSTEM
3 23 28 38
