AV-unprocessed.smi:1776|AV-procd|sdf|7175|dock1
  -GOLD-   22720 8413D 1   1.00000     0.00000
 Structure written by MMmdl.
 30 31  0  0  0  0  0  0  0  0  2 V2000
  151.8712  140.1550  154.9929 O   0  0  0  0  0  0  0  0  0  0  0  0
  150.7318  140.1752  155.4583 C   0  0  0  0  0  0  0  0  0  0  0  0
  150.3856  140.7145  156.6446 N   0  0  0  0  0  0  0  0  0  0  0  0
  151.1712  141.3555  157.6195 C   0  0  0  0  0  0  0  0  0  0  0  0
  150.8977  142.5666  158.1807 C   0  0  0  0  0  0  0  0  0  0  0  0
  151.7623  143.1758  159.1837 C   0  0  0  0  0  0  0  0  0  0  0  0
  151.4394  144.4773  159.8963 C   0  0  0  0  0  0  0  0  0  0  0  0
  150.1737  144.8396  159.6851 F   0  0  0  0  0  0  0  0  0  0  0  0
  151.6165  144.3321  161.2087 F   0  0  0  0  0  0  0  0  0  0  0  0
  152.2342  145.4619  159.4763 F   0  0  0  0  0  0  0  0  0  0  0  0
  152.8502  142.3818  159.4903 C   0  0  0  0  0  0  0  0  0  0  0  0
  153.2055  141.1877  158.9686 N   0  5  0  0  0  0  0  0  0  0  0  0
  152.3915  140.6287  158.0293 C   0  0  0  0  0  0  0  0  0  0  0  0
  152.6532  139.5388  157.5186 O   0  0  0  0  0  0  0  0  0  0  0  0
  149.5743  139.5389  154.6739 C   0  0  2  0  0  0  0  0  0  0  0  0
  148.5955  140.5779  154.0776 C   0  0  0  0  0  0  0  0  0  0  0  0
  147.5401  139.9003  153.4076 O   0  0  0  0  0  0  0  0  0  0  0  0
  146.8234  139.0531  154.2949 C   0  0  0  0  0  0  0  0  0  0  0  0
  147.7902  138.0110  154.8792 C   0  0  0  0  0  0  0  0  0  0  0  0
  148.8445  138.6852  155.5522 O   0  0  0  0  0  0  0  0  0  0  0  0
  149.4029  140.6720  156.8742 H   0  0  0  0  0  0  0  0  0  0  0  0
  150.0278  143.1323  157.8946 H   0  0  0  0  0  0  0  0  0  0  0  0
  153.5367  142.7617  160.2766 H   0  0  0  0  0  0  0  0  0  0  0  0
  150.0099  138.9419  153.8706 H   0  0  0  0  0  0  0  0  0  0  0  0
  148.1866  141.2287  154.8528 H   0  0  0  0  0  0  0  0  0  0  0  0
  149.1046  141.2173  153.3557 H   0  0  0  0  0  0  0  0  0  0  0  0
  146.3591  139.6414  155.0879 H   0  0  0  0  0  0  0  0  0  0  0  0
  146.0201  138.5606  153.7470 H   0  0  0  0  0  0  0  0  0  0  0  0
  147.2705  137.3665  155.5882 H   0  0  0  0  0  0  0  0  0  0  0  0
  148.1930  137.3686  154.0945 H   0  0  0  0  0  0  0  0  0  0  0  0
  1  2  2  0  0  0  0
  2  3  1  0  0  0  0
  2 15  1  0  0  0  0
  3  4  1  0  0  0  0
  3 21  1  0  0  0  0
  4 13  1  0  0  0  0
  4  5  2  0  0  0  0
  5  6  1  0  0  0  0
  5 22  1  0  0  0  0
  6  7  1  0  0  0  0
  6 11  2  0  0  0  0
  7  8  1  0  0  0  0
  7  9  1  0  0  0  0
  7 10  1  0  0  0  0
 11 12  1  0  0  0  0
 11 23  1  0  0  0  0
 12 13  1  0  0  0  0
 13 14  2  0  0  0  0
 15 20  1  0  0  0  0
 15 16  1  0  0  0  0
 15 24  1  0  0  0  0
 16 17  1  0  0  0  0
 16 25  1  0  0  0  0
 16 26  1  0  0  0  0
 17 18  1  0  0  0  0
 18 19  1  0  0  0  0
 18 27  1  0  0  0  0
 18 28  1  0  0  0  0
 19 20  1  0  0  0  0
 19 29  1  0  0  0  0
 19 30  1  0  0  0  0
M  CHG  1  12  -1
M  END
> <s_m_source_file>
AV-unprocessed.smi

> <i_m_source_file_index>
1776

> <i_lp_mmshare_version>
43012

> <i_f3d_flags>
0

> <s_epik_input>
TzFbQ0gyXVtDSDJdT1tDSDJdW0NASF0xQyg9TylbTkhdYzJbY0hdYyhDKEYpKEYpRilbY0hdW25IXWMyPU8=

> <s_epik_cmdline>
J2VwaWtfcHl0aG9uJywgJy1waCcsICc3LjAnLCAnLXRuJywgJzgnLCAnLW1hJywgJzIwMCcsICctbWV0YWxfYmluZGluZycsICctaW1hZScsICc8aW5maWxlLm1hZT4nLCAnLW9tYWUnLCAnPG91dGZpbGUubWFlPic=

> <r_epik_Ionization_Penalty>
2.46925

> <r_epik_Ionization_Penalty_Charging>
0.0509887

> <r_epik_Ionization_Penalty_Neutral>
2.41826

> <r_epik_State_Penalty>
2.57741

> <r_epik_Charging_Adjusted_Penalty>
2.6284

> <i_epik_Tot_Q>
-1

> <i_epik_Tot_abs_Q>
1

> <r_epik_Metal_State_Penalty>
0.510263

> <b_epik_Metal_Only>
0

> <s_lp_Force_Field>
OPLS_2005

> <r_lp_Energy>
25.1464

> <b_lp_Chiralities_Consistent>
1

> <s_lp_Variant>
AV-unprocessed.smi:1776-3

> <Gold.Version>
5.8.1

> <Gold.Id.Protein>
6NUR|6NUR_protein|mol2

> <Gold.PLP.Fitness>
38.5678

> <Gold.PLP.PLP>
-35.6386

> <Gold.PLP.part.hbond>
-2.1007

> <Gold.PLP.part.metal>
0.0000

> <Gold.PLP.part.buried>
-3.0295

> <Gold.PLP.part.nonpolar>
-29.3162

> <Gold.PLP.part.repulsive>
0.3161

> <Gold.PLP.ligand.clash>
0.0000

> <Gold.PLP.ligand.torsion>
1.2141

> <Gold.PLP.Chemscore.Hbond>
1.7640

> <Gold.PLP.Chemscore.CHOScore>
0.0000

> <Gold.PLP.Chemscore.Metal>
0.0000

> <Gold.Chemscore.Hbonds>
donor molecule, donor type, donor heavy atom, donor atom, acceptor molecule, acceptor atom, score
      P1  H  7989  7998       L1     1  0.86
      P1  H  7997  8009       L1    14  0.80

> <Gold.PLP.Chemscore.Internal.Correction>
0.0654

> <Gold.Rescore>
     Score         DG    S(hbond)    S(metal)    S(lipo)     H(rot)  DE(clash)    DE(int)     intcor
     10.86     -13.08       0.94        0.00      60.12       1.00       0.06       2.17       ----

> <Gold.Chemscore.Fitness>
10.8606

> <Gold.Chemscore.DG>
-13.0826

> <Gold.Chemscore.ZeroCoef>
-5.4800

> <Gold.Chemscore.Hbond>
0.9368

> <Gold.Chemscore.Metal>
0.0000

> <Gold.Chemscore.Lipo>
60.1179

> <Gold.Chemscore.Internal_Hbond>
0.0000

> <Gold.Chemscore.DEClash>
0.0557

> <Gold.Chemscore.DEInternal>
2.1664

> <Gold.Chemscore.Rot>
1.0000

> <Gold.Chemscore.Internal.Correction>
   9.000000E+99

> <Gold.Chemscore.Hbonds>
donor molecule, donor type, donor heavy atom, donor atom, acceptor molecule, acceptor atom, score
      P1  H  7989  7998       L1     1  0.34
      P1  H  7997  8009       L1    14  0.11

> <Gold.Chemscore.Hbond.Weighted>
-3.1288

> <Gold.Chemscore.Metal.Weighted>
-0.0000

> <Gold.Chemscore.Lipo.Weighted>
-7.0338

> <Gold.Chemscore.Internal_Hbond.Weighted>
0.0000

> <Gold.Chemscore.DEClash.Weighted>
0.0557

> <Gold.Chemscore.DEInternal.Weighted>
2.1664

> <Gold.Chemscore.Rot.Weighted>
2.5600

> <Gold.Chemscore.Internal.Correction.Weighted>
   9.000000E+99

> <Gold.Protein.RotatedTorsions>
[ 6907 6896 6895 6894 ] final   35.96 input  -60.11 | X-H torsion
[ 7974 7965 7964 7962 ] final  -68.72 input  175.53 | X-H torsion
[ 8008 7997 7996 7995 ] final  169.49 input   59.86 | X-H torsion
[ 10167 10162 10161 10158 ] final  -95.68 input  -65.29 | X-H torsion
[ 10718 10713 10712 10709 ] final  101.87 input   66.30 | X-H torsion
[ 10763 10752 10751 10750 ] final -135.60 input  -60.55 | X-H torsion
[ 11005 11000 10999 10996 ] final  -89.26 input  -57.11 | X-H torsion

> <Gold.Protein.ActiveResidues>
 VAL166  LYS551  ARG553  GLY616  TRP617  ASP618  TYR619  PRO620  LYS621  CYS622 
 ASP623  PHE694  ASN695  SER759  ASP760  ASP761  ALA762  ILE779  LEU786  VAL792 
 PHE793  MET794  SER795  GLU796  ALA797  LYS798  CYS799  TRP800  GLU811  SER814 

> <Gold.Protein.RotatedAtoms>
  152.1233  134.9190  160.0561 H   0  0  0  0  0  0  0  0  0  0  0  0  # atno 6907 bound_to 6896
  152.0322  133.3937  159.4310 H   0  0  0  0  0  0  0  0  0  0  0  0  # atno 6908 bound_to 6896
  150.6850  134.3429  159.4919 H   0  0  0  0  0  0  0  0  0  0  0  0  # atno 6909 bound_to 6896
  145.7128  140.9071  143.0671 H   0  0  0  0  0  0  0  0  0  0  0  0  # atno 7974 bound_to 7965
  156.1452  140.1562  156.8858 H   0  0  0  0  0  0  0  0  0  0  0  0  # atno 8008 bound_to 7997
  154.5022  140.0822  156.7859 H   0  0  0  0  0  0  0  0  0  0  0  0  # atno 8009 bound_to 7997
  155.4002  140.3414  155.4259 H   0  0  0  0  0  0  0  0  0  0  0  0  # atno 8010 bound_to 7997
  140.3016  143.3159  152.0242 H   0  0  0  0  0  0  0  0  0  0  0  0  # atno 10167 bound_to 10162
  157.6818  131.0738  150.5318 H   0  0  0  0  0  0  0  0  0  0  0  0  # atno 10718 bound_to 10713
  154.8700  135.3698  154.4924 H   0  0  0  0  0  0  0  0  0  0  0  0  # atno 10763 bound_to 10752
  153.5570  135.7023  153.5569 H   0  0  0  0  0  0  0  0  0  0  0  0  # atno 10764 bound_to 10752
  153.3662  135.4033  155.1719 H   0  0  0  0  0  0  0  0  0  0  0  0  # atno 10765 bound_to 10752
  141.1588  133.7619  156.9569 H   0  0  0  0  0  0  0  0  0  0  0  0  # atno 11005 bound_to 11000
  144.6937  139.9098  143.7463 LP  0  0  0  0  0  0  0  0  0  0  0  0  # atno 17320 bound_to 7965
  146.0696  139.3686  143.0531 LP  0  0  0  0  0  0  0  0  0  0  0  0  # atno 17321 bound_to 7965
  139.4913  144.6451  151.6795 LP  0  0  0  0  0  0  0  0  0  0  0  0  # atno 17342 bound_to 10162
  140.5646  144.0212  150.6186 LP  0  0  0  0  0  0  0  0  0  0  0  0  # atno 17343 bound_to 10162
  156.5628  130.4260  149.6055 LP  0  0  0  0  0  0  0  0  0  0  0  0  # atno 17370 bound_to 10713
  156.2807  130.7069  151.1892 LP  0  0  0  0  0  0  0  0  0  0  0  0  # atno 17371 bound_to 10713
  140.1219  134.9411  157.2216 LP  0  0  0  0  0  0  0  0  0  0  0  0  # atno 17394 bound_to 11000
  140.3061  134.3077  155.7278 LP  0  0  0  0  0  0  0  0  0  0  0  0  # atno 17395 bound_to 11000

$$$$
