AV-unprocessed.smi:2448|AV-procd|sdf|9659|dock5
  -GOLD-   2272013293D 1   1.00000     0.00000
 Structure written by MMmdl.
 38 39  0  0  0  0  0  0  0  0  2 V2000
  147.0066  137.4696  160.3355 O   0  0  0  0  0  0  0  0  0  0  0  0
  147.6388  136.2017  160.3109 C   0  0  1  0  0  0  0  0  0  0  0  0
  148.5751  136.1556  159.0860 C   0  0  0  0  0  0  0  0  0  0  0  0
  149.9144  136.6584  159.3992 N   0  0  0  0  0  0  0  0  0  0  0  0
  150.2211  138.0297  158.9656 C   0  0  2  0  0  0  0  0  0  0  0  0
  149.7193  138.3395  157.5305 C   0  0  0  0  0  0  0  0  0  0  0  0
  149.5644  139.8145  157.1953 C   0  0  0  0  0  0  0  0  0  0  0  0
  148.5514  140.5843  157.8105 C   0  0  0  0  0  0  0  0  0  0  0  0
  148.4248  141.9489  157.4800 C   0  0  0  0  0  0  0  0  0  0  0  0
  149.2648  142.5035  156.5792 N   0  3  0  0  0  0  0  0  0  0  0  0
  150.2405  141.8031  155.9608 C   0  0  0  0  0  0  0  0  0  0  0  0
  150.4142  140.4344  156.2511 C   0  0  0  0  0  0  0  0  0  0  0  0
  151.7400  138.2765  159.0851 C   0  0  0  0  0  0  0  0  0  0  0  0
  152.3858  137.5934  158.1391 F   0  0  0  0  0  0  0  0  0  0  0  0
  152.0202  139.5731  158.9484 F   0  0  0  0  0  0  0  0  0  0  0  0
  152.1836  137.8597  160.2712 F   0  0  0  0  0  0  0  0  0  0  0  0
  148.4206  136.0506  161.6265 C   0  0  0  0  0  0  0  0  0  0  0  0
  147.4099  135.7918  162.7486 C   0  0  0  0  0  0  0  0  0  0  0  0
  146.0506  134.8250  162.0463 S   0  0  0  0  0  0  0  0  0  0  0  0
  146.5793  135.0842  160.3315 C   0  0  0  0  0  0  0  0  0  0  0  0
  146.2299  137.4310  159.7989 H   0  0  0  0  0  0  0  0  0  0  0  0
  148.6203  135.1351  158.7113 H   0  0  0  0  0  0  0  0  0  0  0  0
  148.1423  136.7621  158.2895 H   0  0  0  0  0  0  0  0  0  0  0  0
  150.0814  136.5770  160.3976 H   0  0  0  0  0  0  0  0  0  0  0  0
  149.7530  138.7291  159.6591 H   0  0  0  0  0  0  0  0  0  0  0  0
  150.4247  137.9394  156.8022 H   0  0  0  0  0  0  0  0  0  0  0  0
  148.7806  137.8150  157.3469 H   0  0  0  0  0  0  0  0  0  0  0  0
  147.8807  140.1383  158.5308 H   0  0  0  0  0  0  0  0  0  0  0  0
  147.6816  142.6077  157.9050 H   0  0  0  0  0  0  0  0  0  0  0  0
  150.8462  142.3538  155.2560 H   0  0  0  0  0  0  0  0  0  0  0  0
  151.1901  139.8713  155.7530 H   0  0  0  0  0  0  0  0  0  0  0  0
  149.0862  135.1893  161.5543 H   0  0  0  0  0  0  0  0  0  0  0  0
  149.0484  136.9166  161.8406 H   0  0  0  0  0  0  0  0  0  0  0  0
  147.8606  135.2755  163.5964 H   0  0  0  0  0  0  0  0  0  0  0  0
  147.0028  136.7354  163.1130 H   0  0  0  0  0  0  0  0  0  0  0  0
  145.7257  135.3000  159.6877 H   0  0  0  0  0  0  0  0  0  0  0  0
  147.0191  134.1481  159.9858 H   0  0  0  0  0  0  0  0  0  0  0  0
  149.1551  143.4926  156.3535 H   0  0  0  0  0  0  0  0  0  0  0  0
  1  2  1  0  0  0  0
  1 21  1  0  0  0  0
  2 20  1  0  0  0  0
  2  3  1  0  0  0  0
  2 17  1  0  0  0  0
  3  4  1  0  0  0  0
  3 22  1  0  0  0  0
  3 23  1  0  0  0  0
  4  5  1  0  0  0  0
  4 24  1  0  0  0  0
  5  6  1  0  0  0  0
  5 13  1  0  0  0  0
  5 25  1  0  0  0  0
  6  7  1  0  0  0  0
  6 26  1  0  0  0  0
  6 27  1  0  0  0  0
  7 12  1  0  0  0  0
  7  8  2  0  0  0  0
  8  9  1  0  0  0  0
  8 28  1  0  0  0  0
  9 10  2  0  0  0  0
  9 29  1  0  0  0  0
 10 11  1  0  0  0  0
 10 38  1  0  0  0  0
 11 12  2  0  0  0  0
 11 30  1  0  0  0  0
 12 31  1  0  0  0  0
 13 14  1  0  0  0  0
 13 15  1  0  0  0  0
 13 16  1  0  0  0  0
 17 18  1  0  0  0  0
 17 32  1  0  0  0  0
 17 33  1  0  0  0  0
 18 19  1  0  0  0  0
 18 34  1  0  0  0  0
 18 35  1  0  0  0  0
 19 20  1  0  0  0  0
 20 36  1  0  0  0  0
 20 37  1  0  0  0  0
M  CHG  1  10   1
M  END
> <s_m_source_file>
AV-unprocessed.smi

> <i_m_source_file_index>
2448

> <i_lp_mmshare_version>
43012

> <i_f3d_flags>
0

> <s_epik_input>
W0NIMl0xU1tDSDJdW0NIMl1bQ0BAXTEoW09IXSlbQ0gyXVtOSF1bQ0BASF0oQyhGKShGKUYpW0NIMl1jMltjSF1bY0hdbltjSF1bY0hdMg==

> <s_epik_cmdline>
J2VwaWtfcHl0aG9uJywgJy1waCcsICc3LjAnLCAnLXRuJywgJzgnLCAnLW1hJywgJzIwMCcsICctbWV0YWxfYmluZGluZycsICctaW1hZScsICc8aW5maWxlLm1hZT4nLCAnLW9tYWUnLCAnPG91dGZpbGUubWFlPic=

> <r_epik_Ionization_Penalty>
1.11129

> <r_epik_Ionization_Penalty_Charging>
1.08366

> <r_epik_Ionization_Penalty_Neutral>
0.0276276

> <r_epik_State_Penalty>
1.93785

> <r_epik_Charging_Adjusted_Penalty>
3.02151

> <i_epik_Tot_Q>
1

> <i_epik_Tot_abs_Q>
1

> <r_epik_Metal_State_Penalty>
5.97911

> <b_epik_Metal_Only>
0

> <s_lp_Force_Field>
OPLS_2005

> <r_lp_Energy>
39.4187

> <b_lp_Chiralities_Consistent>
1

> <s_lp_Variant>
AV-unprocessed.smi:2448-9

> <Gold.Version>
5.8.1

> <Gold.Id.Protein>
6NUR|6NUR_protein|mol2

> <Gold.PLP.Fitness>
37.1711

> <Gold.PLP.PLP>
-30.2380

> <Gold.PLP.part.hbond>
-3.3591

> <Gold.PLP.part.metal>
0.0000

> <Gold.PLP.part.buried>
-5.7377

> <Gold.PLP.part.nonpolar>
-21.3452

> <Gold.PLP.part.repulsive>
0.0525

> <Gold.PLP.ligand.clash>
0.0052

> <Gold.PLP.ligand.torsion>
1.3463

> <Gold.PLP.Chemscore.Hbond>
3.0000

> <Gold.PLP.Chemscore.CHOScore>
0.0000

> <Gold.PLP.Chemscore.Metal>
0.0000

> <Gold.Chemscore.Hbonds>
donor molecule, donor type, donor heavy atom, donor atom, acceptor molecule, acceptor atom, score
      L1  H    10    38       P1  8028  1.53
      P1  H  6934  6947       L1     1  1.00

> <Gold.PLP.Chemscore.Internal.Correction>
0.6309

> <Gold.Rescore>
     Score         DG    S(hbond)    S(metal)    S(lipo)     H(rot)  DE(clash)    DE(int)     intcor
     12.20     -13.72       1.92        0.00      68.60       2.42       0.21       1.31       ----

> <Gold.Chemscore.Fitness>
12.1984

> <Gold.Chemscore.DG>
-13.7202

> <Gold.Chemscore.ZeroCoef>
-5.4800

> <Gold.Chemscore.Hbond>
1.9227

> <Gold.Chemscore.Metal>
0.0000

> <Gold.Chemscore.Lipo>
68.5962

> <Gold.Chemscore.Internal_Hbond>
0.0000

> <Gold.Chemscore.DEClash>
0.2121

> <Gold.Chemscore.DEInternal>
1.3097

> <Gold.Chemscore.Rot>
2.4247

> <Gold.Chemscore.Internal.Correction>
   9.000000E+99

> <Gold.Chemscore.Hbonds>
donor molecule, donor type, donor heavy atom, donor atom, acceptor molecule, acceptor atom, score
      L1  H    10    38       P1  8028  0.74
      P1  H  6934  6947       L1     1  0.65

> <Gold.Chemscore.Hbond.Weighted>
-6.4217

> <Gold.Chemscore.Metal.Weighted>
-0.0000

> <Gold.Chemscore.Lipo.Weighted>
-8.0258

> <Gold.Chemscore.Internal_Hbond.Weighted>
0.0000

> <Gold.Chemscore.DEClash.Weighted>
0.2121

> <Gold.Chemscore.DEInternal.Weighted>
1.3097

> <Gold.Chemscore.Rot.Weighted>
6.2072

> <Gold.Chemscore.Internal.Correction.Weighted>
   9.000000E+99

> <Gold.Protein.RotatedTorsions>
[ 6907 6896 6895 6894 ] final   68.98 input  -60.11 | X-H torsion
[ 7974 7965 7964 7962 ] final  123.30 input  175.53 | X-H torsion
[ 8008 7997 7996 7995 ] final   77.75 input   59.86 | X-H torsion
[ 10167 10162 10161 10158 ] final  -26.55 input  -65.29 | X-H torsion
[ 10718 10713 10712 10709 ] final   29.99 input   66.30 | X-H torsion
[ 10763 10752 10751 10750 ] final  -26.93 input  -60.55 | X-H torsion
[ 11005 11000 10999 10996 ] final  177.76 input  -57.11 | X-H torsion

> <Gold.Protein.ActiveResidues>
 VAL166  LYS551  ARG553  GLY616  TRP617  ASP618  TYR619  PRO620  LYS621  CYS622 
 ASP623  PHE694  ASN695  SER759  ASP760  ASP761  ALA762  ILE779  LEU786  VAL792 
 PHE793  MET794  SER795  GLU796  ALA797  LYS798  CYS799  TRP800  GLU811  SER814 

> <Gold.Protein.RotatedAtoms>
  152.4656  134.5083  159.9745 H   0  0  0  0  0  0  0  0  0  0  0  0  # atno 6907 bound_to 6896
  151.5122  133.3477  159.2895 H   0  0  0  0  0  0  0  0  0  0  0  0  # atno 6908 bound_to 6896
  150.8639  134.8026  159.7165 H   0  0  0  0  0  0  0  0  0  0  0  0  # atno 6909 bound_to 6896
  145.0975  139.3542  143.4829 H   0  0  0  0  0  0  0  0  0  0  0  0  # atno 7974 bound_to 7965
  155.8460  140.3460  155.5663 H   0  0  0  0  0  0  0  0  0  0  0  0  # atno 8008 bound_to 7997
  155.8089  140.0896  157.1935 H   0  0  0  0  0  0  0  0  0  0  0  0  # atno 8009 bound_to 7997
  154.4006  140.1451  156.3350 H   0  0  0  0  0  0  0  0  0  0  0  0  # atno 8010 bound_to 7997
  140.7282  143.4169  151.1014 H   0  0  0  0  0  0  0  0  0  0  0  0  # atno 10167 bound_to 10162
  157.2538  130.7128  149.6419 H   0  0  0  0  0  0  0  0  0  0  0  0  # atno 10718 bound_to 10713
  153.7239  135.6943  153.5006 H   0  0  0  0  0  0  0  0  0  0  0  0  # atno 10763 bound_to 10752
  153.2184  135.4378  155.0460 H   0  0  0  0  0  0  0  0  0  0  0  0  # atno 10764 bound_to 10752
  154.8275  135.3454  154.6771 H   0  0  0  0  0  0  0  0  0  0  0  0  # atno 10765 bound_to 10752
  140.3877  134.6890  157.4489 H   0  0  0  0  0  0  0  0  0  0  0  0  # atno 11005 bound_to 11000
  146.3530  140.0837  142.8616 LP  0  0  0  0  0  0  0  0  0  0  0  0  # atno 17320 bound_to 7965
  145.0994  140.9336  143.4722 LP  0  0  0  0  0  0  0  0  0  0  0  0  # atno 17321 bound_to 7965
  139.7810  143.8356  152.3137 LP  0  0  0  0  0  0  0  0  0  0  0  0  # atno 17342 bound_to 10162
  139.8307  144.7255  150.9454 LP  0  0  0  0  0  0  0  0  0  0  0  0  # atno 17343 bound_to 10162
  155.9665  130.4419  150.5359 LP  0  0  0  0  0  0  0  0  0  0  0  0  # atno 17370 bound_to 10713
  157.3249  131.0689  151.1904 LP  0  0  0  0  0  0  0  0  0  0  0  0  # atno 17371 bound_to 10713
  140.0430  134.6239  155.8956 LP  0  0  0  0  0  0  0  0  0  0  0  0  # atno 17394 bound_to 11000
  141.1902  133.6567  156.5400 LP  0  0  0  0  0  0  0  0  0  0  0  0  # atno 17395 bound_to 11000

$$$$
