AV-unprocessed.smi:1057|AV-procd|sdf|4651|dock8
  -GOLD-   22720 3163D 1   1.00000     0.00000
 Structure written by MMmdl.
 45 46  0  0  0  0  0  0  0  0  2 V2000
  157.2971  137.1354  156.7435 C   0  0  0  0  0  0  0  0  0  0  0  0
  156.9097  136.7354  157.8302 C   0  0  0  0  0  0  0  0  0  0  0  0
  156.4372  136.2425  159.1324 C   0  0  0  0  0  0  0  0  0  0  0  0
  155.6606  137.2471  159.8432 N   0  0  0  0  0  0  0  0  0  0  0  0
  154.3706  137.1073  160.1794 C   0  0  0  0  0  0  0  0  0  0  0  0
  153.7132  136.0976  159.9213 O   0  0  0  0  0  0  0  0  0  0  0  0
  153.7439  138.2827  160.9394 C   0  0  0  0  0  0  0  0  0  0  0  0
  152.9152  139.1330  160.0878 N   0  0  0  0  0  0  0  0  0  0  0  0
  153.0002  140.4693  160.0161 C   0  0  0  0  0  0  0  0  0  0  0  0
  153.7777  141.1399  160.6948 O   0  0  0  0  0  0  0  0  0  0  0  0
  152.1514  140.9633  159.0997 N   0  0  0  0  0  0  0  0  0  0  0  0
  151.9597  142.3234  158.7259 C   0  0  0  0  0  0  0  0  0  0  0  0
  152.5622  143.4002  159.4251 C   0  0  0  0  0  0  0  0  0  0  0  0
  152.3099  144.7254  159.0168 C   0  0  0  0  0  0  0  0  0  0  0  0
  151.4540  144.9550  157.9235 C   0  0  0  0  0  0  0  0  0  0  0  0
  150.8849  143.9093  157.2875 N   0  3  0  0  0  0  0  0  0  0  0  0
  151.0963  142.6179  157.6405 C   0  0  0  0  0  0  0  0  0  0  0  0
  150.4515  141.6070  156.9099 N   0  0  0  0  0  0  0  0  0  0  0  0
  151.3702  140.7698  156.1434 C   0  0  0  0  0  0  0  0  0  0  0  0
  150.5952  139.8475  155.1865 C   0  0  0  0  0  0  0  0  0  0  0  0
  149.5422  139.0252  155.9473 C   0  0  0  0  0  0  0  0  0  0  0  0
  148.6257  139.9543  156.7602 C   0  0  0  0  0  0  0  0  0  0  0  0
  149.4499  140.8727  157.6788 C   0  0  0  0  0  0  0  0  0  0  0  0
  157.6357  137.4806  155.7924 H   0  0  0  0  0  0  0  0  0  0  0  0
  155.8348  135.3495  158.9606 H   0  0  0  0  0  0  0  0  0  0  0  0
  157.3063  135.9523  159.7242 H   0  0  0  0  0  0  0  0  0  0  0  0
  156.1335  138.1036  160.0936 H   0  0  0  0  0  0  0  0  0  0  0  0
  153.1180  137.8843  161.7381 H   0  0  0  0  0  0  0  0  0  0  0  0
  154.5249  138.8746  161.4201 H   0  0  0  0  0  0  0  0  0  0  0  0
  152.2546  138.6624  159.4868 H   0  0  0  0  0  0  0  0  0  0  0  0
  151.6505  140.2839  158.5457 H   0  0  0  0  0  0  0  0  0  0  0  0
  153.2025  143.2325  160.2778 H   0  0  0  0  0  0  0  0  0  0  0  0
  152.7631  145.5545  159.5405 H   0  0  0  0  0  0  0  0  0  0  0  0
  151.2041  145.9357  157.5454 H   0  0  0  0  0  0  0  0  0  0  0  0
  152.0584  141.3987  155.5768 H   0  0  0  0  0  0  0  0  0  0  0  0
  151.9729  140.1713  156.8279 H   0  0  0  0  0  0  0  0  0  0  0  0
  150.1040  140.4479  154.4195 H   0  0  0  0  0  0  0  0  0  0  0  0
  151.2852  139.1835  154.6655 H   0  0  0  0  0  0  0  0  0  0  0  0
  148.9524  138.4294  155.2502 H   0  0  0  0  0  0  0  0  0  0  0  0
  150.0389  138.3223  156.6172 H   0  0  0  0  0  0  0  0  0  0  0  0
  148.0262  140.5612  156.0803 H   0  0  0  0  0  0  0  0  0  0  0  0
  147.9238  139.3656  157.3514 H   0  0  0  0  0  0  0  0  0  0  0  0
  149.9442  140.2782  158.4484 H   0  0  0  0  0  0  0  0  0  0  0  0
  148.7904  141.5750  158.1904 H   0  0  0  0  0  0  0  0  0  0  0  0
  150.2640  144.1022  156.5013 H   0  0  0  0  0  0  0  0  0  0  0  0
  1  2  3  0  0  0  0
  1 24  1  0  0  0  0
  2  3  1  0  0  0  0
  3  4  1  0  0  0  0
  3 25  1  0  0  0  0
  3 26  1  0  0  0  0
  4  5  1  0  0  0  0
  4 27  1  0  0  0  0
  5  6  2  0  0  0  0
  5  7  1  0  0  0  0
  7  8  1  0  0  0  0
  7 28  1  0  0  0  0
  7 29  1  0  0  0  0
  8  9  1  0  0  0  0
  8 30  1  0  0  0  0
  9 10  2  0  0  0  0
  9 11  1  0  0  0  0
 11 12  1  0  0  0  0
 11 31  1  0  0  0  0
 12 17  1  0  0  0  0
 12 13  2  0  0  0  0
 13 14  1  0  0  0  0
 13 32  1  0  0  0  0
 14 15  2  0  0  0  0
 14 33  1  0  0  0  0
 15 16  1  0  0  0  0
 15 34  1  0  0  0  0
 16 17  2  0  0  0  0
 16 45  1  0  0  0  0
 17 18  1  0  0  0  0
 18 23  1  0  0  0  0
 18 19  1  0  0  0  0
 19 20  1  0  0  0  0
 19 35  1  0  0  0  0
 19 36  1  0  0  0  0
 20 21  1  0  0  0  0
 20 37  1  0  0  0  0
 20 38  1  0  0  0  0
 21 22  1  0  0  0  0
 21 39  1  0  0  0  0
 21 40  1  0  0  0  0
 22 23  1  0  0  0  0
 22 41  1  0  0  0  0
 22 42  1  0  0  0  0
 23 43  1  0  0  0  0
 23 44  1  0  0  0  0
M  CHG  1  16   1
M  END
> <s_m_source_file>
AV-unprocessed.smi

> <i_m_source_file_index>
1057

> <i_lp_mmshare_version>
43012

> <i_f3d_flags>
0

> <s_epik_input>
W0NIXSNDW0NIMl1bTkhdQyg9TylbQ0gyXVtOSF1DKD1PKVtOSF1jMVtjSF1bY0hdW2NIXW5jMU4yW0NIMl1bQ0gyXVtDSDJdW0NIMl1bQ0gyXTI=

> <s_epik_cmdline>
J2VwaWtfcHl0aG9uJywgJy1waCcsICc3LjAnLCAnLXRuJywgJzgnLCAnLW1hJywgJzIwMCcsICctbWV0YWxfYmluZGluZycsICctaW1hZScsICc8aW5maWxlLm1hZT4nLCAnLW9tYWUnLCAnPG91dGZpbGUubWFlPic=

> <r_lp_tautomer_probability>
0.999994

> <r_epik_Ionization_Penalty>
0.641093

> <r_epik_Ionization_Penalty_Charging>
0.641074

> <r_epik_Ionization_Penalty_Neutral>
1.89753e-05

> <r_epik_State_Penalty>
0.658761

> <r_epik_Charging_Adjusted_Penalty>
1.29984

> <i_epik_Tot_Q>
1

> <i_epik_Tot_abs_Q>
1

> <r_epik_Metal_State_Penalty>
0.833895

> <b_epik_Metal_Only>
0

> <s_lp_Force_Field>
OPLS_2005

> <r_lp_Energy>
23.0781

> <b_lp_Chiralities_Consistent>
1

> <s_lp_Variant>
AV-unprocessed.smi:1057-2

> <Gold.Version>
5.8.1

> <Gold.Id.Protein>
6NUR|6NUR_protein|mol2

> <Gold.PLP.Fitness>
43.6951

> <Gold.PLP.PLP>
-35.3237

> <Gold.PLP.part.hbond>
-2.0000

> <Gold.PLP.part.metal>
0.0000

> <Gold.PLP.part.buried>
-6.2052

> <Gold.PLP.part.nonpolar>
-26.7277

> <Gold.PLP.part.repulsive>
0.2734

> <Gold.PLP.ligand.clash>
0.0000

> <Gold.PLP.ligand.torsion>
0.4121

> <Gold.PLP.Chemscore.Hbond>
3.0000

> <Gold.PLP.Chemscore.CHOScore>
0.0000

> <Gold.PLP.Chemscore.Metal>
0.0000

> <Gold.Chemscore.Hbonds>
donor molecule, donor type, donor heavy atom, donor atom, acceptor molecule, acceptor atom, score
      L1  H    16    45       P1  8028  2.00
      P1  H  6896  6909       L1     6  1.00

> <Gold.PLP.Chemscore.Internal.Correction>
0.1957

> <Gold.Rescore>
     Score         DG    S(hbond)    S(metal)    S(lipo)     H(rot)  DE(clash)    DE(int)     intcor
     14.64     -17.45       1.96        0.00      86.21       1.82       0.03       2.77       ----

> <Gold.Chemscore.Fitness>
14.6444

> <Gold.Chemscore.DG>
-17.4479

> <Gold.Chemscore.ZeroCoef>
-5.4800

> <Gold.Chemscore.Hbond>
1.9551

> <Gold.Chemscore.Metal>
0.0000

> <Gold.Chemscore.Lipo>
86.2096

> <Gold.Chemscore.Internal_Hbond>
0.0000

> <Gold.Chemscore.DEClash>
0.0314

> <Gold.Chemscore.DEInternal>
2.7721

> <Gold.Chemscore.Rot>
1.8159

> <Gold.Chemscore.Internal.Correction>
   9.000000E+99

> <Gold.Chemscore.Hbonds>
donor molecule, donor type, donor heavy atom, donor atom, acceptor molecule, acceptor atom, score
      L1  H    16    45       P1  8028  0.99
      P1  H  6896  6909       L1     6  0.97

> <Gold.Chemscore.Hbond.Weighted>
-6.5300

> <Gold.Chemscore.Metal.Weighted>
-0.0000

> <Gold.Chemscore.Lipo.Weighted>
-10.0865

> <Gold.Chemscore.Internal_Hbond.Weighted>
0.0000

> <Gold.Chemscore.DEClash.Weighted>
0.0314

> <Gold.Chemscore.DEInternal.Weighted>
2.7721

> <Gold.Chemscore.Rot.Weighted>
4.6486

> <Gold.Chemscore.Internal.Correction.Weighted>
   9.000000E+99

> <Gold.Protein.RotatedTorsions>
[ 6907 6896 6895 6894 ] final -173.86 input  -60.11 | X-H torsion
[ 7974 7965 7964 7962 ] final  -65.01 input  175.53 | X-H torsion
[ 8008 7997 7996 7995 ] final -165.33 input   59.86 | X-H torsion
[ 10167 10162 10161 10158 ] final  -22.36 input  -65.29 | X-H torsion
[ 10718 10713 10712 10709 ] final  121.17 input   66.30 | X-H torsion
[ 10763 10752 10751 10750 ] final -170.98 input  -60.55 | X-H torsion
[ 11005 11000 10999 10996 ] final -172.76 input  -57.11 | X-H torsion

> <Gold.Protein.ActiveResidues>
 VAL166  LYS551  ARG553  GLY616  TRP617  ASP618  TYR619  PRO620  LYS621  CYS622 
 ASP623  PHE694  ASN695  SER759  ASP760  ASP761  ALA762  ILE779  LEU786  VAL792 
 PHE793  MET794  SER795  GLU796  ALA797  LYS798  CYS799  TRP800  GLU811  SER814 

> <Gold.Protein.RotatedAtoms>
  151.5631  133.3400  159.2974 H   0  0  0  0  0  0  0  0  0  0  0  0  # atno 6907 bound_to 6896
  150.8411  134.7706  159.6944 H   0  0  0  0  0  0  0  0  0  0  0  0  # atno 6908 bound_to 6896
  152.4478  134.5464  159.9906 H   0  0  0  0  0  0  0  0  0  0  0  0  # atno 6909 bound_to 6896
  145.7596  140.8868  143.0437 H   0  0  0  0  0  0  0  0  0  0  0  0  # atno 7974 bound_to 7965
  155.8483  140.0959  157.1691 H   0  0  0  0  0  0  0  0  0  0  0  0  # atno 8008 bound_to 7997
  154.3984  140.1388  156.3875 H   0  0  0  0  0  0  0  0  0  0  0  0  # atno 8009 bound_to 7997
  155.7989  140.3453  155.5394 H   0  0  0  0  0  0  0  0  0  0  0  0  # atno 8010 bound_to 7997
  140.7285  143.4541  151.0473 H   0  0  0  0  0  0  0  0  0  0  0  0  # atno 10167 bound_to 10162
  157.5837  131.1072  150.8137 H   0  0  0  0  0  0  0  0  0  0  0  0  # atno 10718 bound_to 10713
  154.6356  135.2892  155.0165 H   0  0  0  0  0  0  0  0  0  0  0  0  # atno 10763 bound_to 10752
  154.1310  135.6533  153.4926 H   0  0  0  0  0  0  0  0  0  0  0  0  # atno 10764 bound_to 10752
  153.0301  135.5310  154.7201 H   0  0  0  0  0  0  0  0  0  0  0  0  # atno 10765 bound_to 10752
  140.4934  134.5963  157.4962 H   0  0  0  0  0  0  0  0  0  0  0  0  # atno 11005 bound_to 11000
  144.6833  139.9704  143.7482 LP  0  0  0  0  0  0  0  0  0  0  0  0  # atno 17320 bound_to 7965
  146.0277  139.3307  143.0774 LP  0  0  0  0  0  0  0  0  0  0  0  0  # atno 17321 bound_to 7965
  139.8220  143.7807  152.3177 LP  0  0  0  0  0  0  0  0  0  0  0  0  # atno 17342 bound_to 10162
  139.7893  144.7416  150.9978 LP  0  0  0  0  0  0  0  0  0  0  0  0  # atno 17343 bound_to 10162
  156.8576  130.5102  149.5306 LP  0  0  0  0  0  0  0  0  0  0  0  0  # atno 17370 bound_to 10713
  156.0885  130.5877  150.9690 LP  0  0  0  0  0  0  0  0  0  0  0  0  # atno 17371 bound_to 10713
  139.9756  134.7221  155.9957 LP  0  0  0  0  0  0  0  0  0  0  0  0  # atno 17394 bound_to 11000
  141.1472  133.6554  156.3905 LP  0  0  0  0  0  0  0  0  0  0  0  0  # atno 17395 bound_to 11000

$$$$
