#       Name:                AV-unprocessed.smi:2630
#       Creating user name   scv26
#       Creation time:       Fri Mar 27 14:25:35 2020


#       File generated by GOLD software.
#

@<TRIPOS>MOLECULE
AV-unprocessed.smi:2630
    41    42     1
SMALL
NO_CHARGES


@<TRIPOS>ATOM
      1 ****        -3.4009   1.6467  -0.2868 C.3            1 S1                 0.0000
      2 ****        -2.8447   0.3459  -0.2205 O.3            1 S1                 0.0000
      3 ****        -3.0601  -0.3994  -1.4079 C.3            1 S1                 0.0000
      4 ****        -2.3948  -1.7797  -1.2773 C.3            1 S1                 0.0000
      5 ****        -0.9500  -1.7063  -1.1862 N.am           1 S1                 0.0000
      6 ****        -0.2474  -1.6861   0.0216 C.2            1 S1                 0.0000
      7 ****        -0.9509  -1.7509   1.2124 N.pl3          1 S1                 0.0000
      8 ****         1.1071  -1.5854   0.0407 C.2            1 S1                 0.0000
      9 ****         2.1128  -1.5214   1.5046 S.3            1 S1                 0.0000
     10 ****         2.3927   0.2138   1.6467 C.ar           1 S1                 0.0000
     11 ****         1.3415   1.0663   2.0399 C.ar           1 S1                 0.0000
     12 ****         1.5642   2.4531   2.1442 C.ar           1 S1                 0.0000
     13 ****         2.8366   2.9859   1.8583 C.ar           1 S1                 0.0000
     14 ****         3.8872   2.1323   1.4671 C.ar           1 S1                 0.0000
     15 ****         3.6661   0.7452   1.3613 C.ar           1 S1                 0.0000
     16 ****         1.9038  -1.4987  -1.1851 C.2            1 S1                 0.0000
     17 ****         3.1297  -1.4200  -1.2620 O.2            1 S1                 0.0000
     18 ****         1.1403  -1.5083  -2.3521 N.am           1 S1                 0.0000
     19 ****        -0.2494  -1.5982  -2.4143 C.2            1 S1                 0.0000
     20 ****        -0.8064  -1.5772  -3.5124 O.2            1 S1                 0.0000
     21 ****         1.6370  -1.4394  -3.2284 H              1 S1                 0.0000
     22 ****        -3.2080   2.1759   0.6463 H              1 S1                 0.0000
     23 ****        -4.4809   1.6074  -0.4349 H              1 S1                 0.0000
     24 ****        -2.9559   2.2236  -1.0987 H              1 S1                 0.0000
     25 ****        -4.1316  -0.5262  -1.5673 H              1 S1                 0.0000
     26 ****        -2.6665   0.1377  -2.2722 H              1 S1                 0.0000
     27 ****        -2.7529  -2.3151  -0.3989 H              1 S1                 0.0000
     28 ****        -2.6375  -2.4258  -2.1225 H              1 S1                 0.0000
     29 ****        -1.9587  -1.8124   1.2301 H              1 S1                 0.0000
     30 ****        -0.4812  -1.8424   2.1018 H              1 S1                 0.0000
     31 ****         0.3641   0.6617   2.2581 H              1 S1                 0.0000
     32 ****         0.7590   3.1080   2.4429 H              1 S1                 0.0000
     33 ****         3.0064   4.0495   1.9389 H              1 S1                 0.0000
     34 ****         4.8622   2.5415   1.2472 H              1 S1                 0.0000
     35 ****         4.4718   0.0928   1.0576 H              1 S1                 0.0000
     36 ****        -3.2631  -0.1429   0.5450 LP             1 S1                 0.0000
     37 ****        -1.8598   0.4259  -0.0666 LP             1 S1                 0.0000
     38 ****         3.6834  -1.4107  -0.4293 LP             1 S1                 0.0000
     39 ****         3.5721  -1.3654  -2.1572 LP             1 S1                 0.0000
     40 ****        -1.8029  -1.6380  -3.5688 LP             1 S1                 0.0000
     41 ****        -0.2621  -1.4994  -4.3477 LP             1 S1                 0.0000
@<TRIPOS>BOND
    1    1    2 1     
    2    1   22 1     
    3    1   23 1     
    4    1   24 1     
    5    2    3 1     
    6    3    4 1     
    7    3   25 1     
    8    3   26 1     
    9    4    5 1     
   10    4   27 1     
   11    4   28 1     
   12    5   19 1     
   13    5    6 1     
   14    6    7 1     
   15    6    8 2     
   16    7   29 1     
   17    7   30 1     
   18    8    9 1     
   19    8   16 1     
   20    9   10 1     
   21   10   15 ar    
   22   10   11 ar    
   23   11   12 ar    
   24   11   31 1     
   25   12   13 ar    
   26   12   32 1     
   27   13   14 ar    
   28   13   33 1     
   29   14   15 ar    
   30   14   34 1     
   31   15   35 1     
   32   16   17 2     
   33   16   18 1     
   34   18   21 1     
   35   18   19 1     
   36   19   20 2     
   37    2   36 1     
   38    2   37 1     
   39   17   38 1     
   40   17   39 1     
   41   20   40 1     
   42   20   41 1     
@<TRIPOS>SUBSTRUCTURE
      1 S1             1
@<TRIPOS>SET
LONE_PAIRS      STATIC     ATOMS    <user>   **** ""
6 36 37 38 39 40 41
DONOR_HYDROGENS      STATIC     ATOMS    <user>   **** ""
3 29 30 21
ATOM$BLUE        STATIC     ATOMS    COLORGROUP SYSTEM
6 36 37 38 39 40 41
ATOM$RED        STATIC     ATOMS    COLORGROUP SYSTEM
3 29 30 21
