AV-unprocessed.smi:245|AV-procd|sdf|1876|dock4
  -GOLD-   2262020513D 1   1.00000     0.00000
 Structure written by MMmdl.
 54 58  0  0  0  0  0  0  0  0  1 V2000
  147.9043  142.5979  153.5962 O   0  0  0  0  0  0  0  0  0  0  0  0
  148.0878  141.6687  154.3790 C   0  0  0  0  0  0  0  0  0  0  0  0
  147.5296  140.2740  154.0450 C   0  0  0  0  0  0  0  0  0  0  0  0
  147.9165  139.1825  154.9597 N   0  0  0  0  0  0  0  0  0  0  0  0
  147.5041  137.9064  154.6673 C   0  0  0  0  0  0  0  0  0  0  0  0
  148.1057  136.8673  155.3094 N   0  0  0  0  0  0  0  0  0  0  0  0
  147.7550  135.6026  155.0723 C   0  0  0  0  0  0  0  0  0  0  0  0
  146.8274  135.1417  154.2371 N   0  0  0  0  0  0  0  0  0  0  0  0
  146.2033  136.1613  153.5825 C   0  0  0  0  0  0  0  0  0  0  0  0
  146.4730  137.5560  153.7337 C   0  0  0  0  0  0  0  0  0  0  0  0
  145.6226  138.2710  152.8942 N   0  0  0  0  0  0  0  0  0  0  0  0
  144.9054  137.3656  152.2906 C   0  0  0  0  0  0  0  0  0  0  0  0
  145.1871  136.0678  152.6438 N   0  0  0  0  0  0  0  0  0  0  0  0
  144.5452  134.8881  152.1330 C   0  0  0  0  0  0  0  0  0  0  0  0
  145.0035  133.4900  152.5538 C   0  0  0  0  0  0  0  0  0  0  0  0
  144.7512  132.9625  151.1233 C   0  0  0  0  0  0  0  0  0  0  0  0
  145.8996  132.1377  150.5223 C   0  0  0  0  0  0  0  0  0  0  0  0
  147.1601  132.6873  150.8492 O   0  0  0  0  0  0  0  0  0  0  0  0
  143.4465  132.1699  150.8902 C   0  0  0  0  0  0  0  0  0  0  0  0
  143.1582  131.9666  149.5212 O   0  0  0  0  0  0  0  0  0  0  0  0
  144.7366  134.4437  150.6806 C   0  0  0  0  0  0  0  0  0  0  0  0
  149.0818  139.3917  155.8366 C   0  0  1  0  0  0  0  0  0  0  0  0
  150.4126  139.2114  155.0646 C   0  0  0  0  0  0  0  0  0  0  0  0
  151.6304  139.5008  155.9549 C   0  0  0  0  0  0  0  0  0  0  0  0
  151.5458  140.9053  156.5697 C   0  0  0  0  0  0  0  0  0  0  0  0
  150.2397  141.0806  157.3615 C   0  0  0  0  0  0  0  0  0  0  0  0
  148.9932  140.7837  156.5044 C   0  0  1  0  0  0  0  0  0  0  0  0
  148.7782  141.8345  155.5164 N   0  0  0  0  0  0  0  0  0  0  0  0
  146.4452  140.3801  154.0599 H   0  0  0  0  0  0  0  0  0  0  0  0
  147.8308  140.0223  153.0271 H   0  0  0  0  0  0  0  0  0  0  0  0
  148.2953  134.8539  155.6323 H   0  0  0  0  0  0  0  0  0  0  0  0
  144.1461  137.6251  151.5671 H   0  0  0  0  0  0  0  0  0  0  0  0
  143.4810  135.0037  152.3436 H   0  0  0  0  0  0  0  0  0  0  0  0
  146.0562  133.4552  152.8375 H   0  0  0  0  0  0  0  0  0  0  0  0
  144.3831  133.0304  153.3238 H   0  0  0  0  0  0  0  0  0  0  0  0
  145.8645  131.1030  150.8654 H   0  0  0  0  0  0  0  0  0  0  0  0
  145.8252  132.1041  149.4347 H   0  0  0  0  0  0  0  0  0  0  0  0
  147.7817  131.9810  150.9389 H   0  0  0  0  0  0  0  0  0  0  0  0
  143.4992  131.1906  151.3669 H   0  0  0  0  0  0  0  0  0  0  0  0
  142.5918  132.6857  151.3292 H   0  0  0  0  0  0  0  0  0  0  0  0
  142.3285  131.5194  149.4529 H   0  0  0  0  0  0  0  0  0  0  0  0
  143.9128  134.7152  150.0200 H   0  0  0  0  0  0  0  0  0  0  0  0
  145.6873  134.7719  150.2589 H   0  0  0  0  0  0  0  0  0  0  0  0
  149.0676  138.6814  156.6643 H   0  0  0  0  0  0  0  0  0  0  0  0
  150.4860  138.1964  154.6736 H   0  0  0  0  0  0  0  0  0  0  0  0
  150.4406  139.8713  154.1970 H   0  0  0  0  0  0  0  0  0  0  0  0
  151.6889  138.7551  156.7488 H   0  0  0  0  0  0  0  0  0  0  0  0
  152.5466  139.4050  155.3716 H   0  0  0  0  0  0  0  0  0  0  0  0
  152.4013  141.0756  157.2240 H   0  0  0  0  0  0  0  0  0  0  0  0
  151.6066  141.6563  155.7812 H   0  0  0  0  0  0  0  0  0  0  0  0
  150.2513  140.4072  158.2194 H   0  0  0  0  0  0  0  0  0  0  0  0
  150.1845  142.0901  157.7706 H   0  0  0  0  0  0  0  0  0  0  0  0
  148.1208  140.7990  157.1598 H   0  0  0  0  0  0  0  0  0  0  0  0
  149.1535  142.7491  155.7213 H   0  0  0  0  0  0  0  0  0  0  0  0
  1  2  2  0  0  0  0
  2 28  1  0  0  0  0
  2  3  1  0  0  0  0
  3  4  1  0  0  0  0
  3 29  1  0  0  0  0
  3 30  1  0  0  0  0
  4  5  1  0  0  0  0
  4 22  1  0  0  0  0
  5 10  1  0  0  0  0
  5  6  2  0  0  0  0
  6  7  1  0  0  0  0
  7  8  2  0  0  0  0
  7 31  1  0  0  0  0
  8  9  1  0  0  0  0
  9 13  1  0  0  0  0
  9 10  2  0  0  0  0
 10 11  1  0  0  0  0
 11 12  2  0  0  0  0
 12 13  1  0  0  0  0
 12 32  1  0  0  0  0
 13 14  1  0  0  0  0
 14 21  1  0  0  0  0
 14 15  1  0  0  0  0
 14 33  1  0  0  0  0
 15 16  1  0  0  0  0
 15 34  1  0  0  0  0
 15 35  1  0  0  0  0
 16 17  1  0  0  0  0
 16 19  1  0  0  0  0
 16 21  1  0  0  0  0
 17 18  1  0  0  0  0
 17 36  1  0  0  0  0
 17 37  1  0  0  0  0
 18 38  1  0  0  0  0
 19 20  1  0  0  0  0
 19 39  1  0  0  0  0
 19 40  1  0  0  0  0
 20 41  1  0  0  0  0
 21 42  1  0  0  0  0
 21 43  1  0  0  0  0
 22 27  1  0  0  0  0
 22 23  1  0  0  0  0
 22 44  1  0  0  0  0
 23 24  1  0  0  0  0
 23 45  1  0  0  0  0
 23 46  1  0  0  0  0
 24 25  1  0  0  0  0
 24 47  1  0  0  0  0
 24 48  1  0  0  0  0
 25 26  1  0  0  0  0
 25 49  1  0  0  0  0
 25 50  1  0  0  0  0
 26 27  1  0  0  0  0
 26 51  1  0  0  0  0
 26 52  1  0  0  0  0
 27 28  1  0  0  0  0
 27 53  1  0  0  0  0
 28 54  1  0  0  0  0
M  END
> <s_m_source_file>
AV-unprocessed.smi

> <i_m_source_file_index>
245

> <i_lp_mmshare_version>
43012

> <i_f3d_flags>
0

> <s_epik_input>
W0NIMl0xW0NIMl1bQ0gyXVtDSDJdW0NASF0oW0NASF0xMilbTkhdQyg9TylbQ0gyXU4yYyhuW2NIXW4zKWMoYzM0KW5bY0hdbjRbQ0hdKFtDSDJdNSlbQ0gyXUM1KFtDSDJdW09IXSlbQ0gyXVtPSF0=

> <s_epik_cmdline>
J2VwaWtfcHl0aG9uJywgJy1waCcsICc3LjAnLCAnLXRuJywgJzgnLCAnLW1hJywgJzIwMCcsICctbWV0YWxfYmluZGluZycsICctaW1hZScsICc8aW5maWxlLm1hZT4nLCAnLW9tYWUnLCAnPG91dGZpbGUubWFlPic=

> <r_lp_tautomer_probability>
1

> <r_epik_Ionization_Penalty>
0.000702616

> <r_epik_Ionization_Penalty_Charging>
0

> <r_epik_Ionization_Penalty_Neutral>
0.000702616

> <r_epik_State_Penalty>
0.000343985

> <r_epik_Charging_Adjusted_Penalty>
0.000343985

> <i_epik_Tot_Q>
0

> <i_epik_Tot_abs_Q>
0

> <r_epik_Metal_State_Penalty>
-0

> <b_epik_Metal_Only>
0

> <s_lp_Force_Field>
OPLS_2005

> <r_lp_Energy>
53.0031

> <b_lp_Chiralities_Consistent>
1

> <s_lp_Variant>
AV-unprocessed.smi:245-1

> <Gold.Version>
5.8.1

> <Gold.Id.Protein>
6NUR|6NUR_protein|mol2

> <Gold.PLP.Fitness>
48.0002

> <Gold.PLP.PLP>
-35.4913

> <Gold.PLP.part.hbond>
-6.9607

> <Gold.PLP.part.metal>
0.0000

> <Gold.PLP.part.buried>
-1.7133

> <Gold.PLP.part.nonpolar>
-28.8077

> <Gold.PLP.part.repulsive>
3.1379

> <Gold.PLP.ligand.clash>
0.0000

> <Gold.PLP.ligand.torsion>
0.3094

> <Gold.PLP.Chemscore.Hbond>
3.1676

> <Gold.PLP.Chemscore.CHOScore>
1.0488

> <Gold.PLP.Chemscore.Metal>
0.0000

> <Gold.Chemscore.Hbonds>
donor molecule, donor type, donor heavy atom, donor atom, acceptor molecule, acceptor atom, score
      L1  H    18    38       P1 10747  1.00
      L1  H    20    41       P1 10952  1.00
      L1  H    28    54       P1  8028  0.93
      P1  H  8011  8017       L1     1  0.04
      P1  H  8022  8030       L1     1  0.30
      L1  C    12    32       P1 10171  0.97

> <Gold.PLP.Chemscore.Internal.Correction>
0.4784

> <Gold.Rescore>
     Score         DG    S(hbond)    S(metal)    S(lipo)     H(rot)  DE(clash)    DE(int)     intcor
     12.72     -16.19       2.84        0.00      74.27       2.91       0.90       2.57       ----

> <Gold.Chemscore.Fitness>
12.7195

> <Gold.Chemscore.DG>
-16.1886

> <Gold.Chemscore.ZeroCoef>
-5.4800

> <Gold.Chemscore.Hbond>
2.8387

> <Gold.Chemscore.Metal>
0.0000

> <Gold.Chemscore.Lipo>
74.2660

> <Gold.Chemscore.Internal_Hbond>
0.0000

> <Gold.Chemscore.DEClash>
0.9021

> <Gold.Chemscore.DEInternal>
2.5670

> <Gold.Chemscore.Rot>
2.9147

> <Gold.Chemscore.Internal.Correction>
   9.000000E+99

> <Gold.Chemscore.Hbonds>
donor molecule, donor type, donor heavy atom, donor atom, acceptor molecule, acceptor atom, score
      L1  H    18    38       P1 10747  0.96
      L1  H    20    41       P1 10952  1.00
      L1  H    28    54       P1  8028  0.89
      P1  H  8011  8017       L1     1  0.02
      P1  H  8022  8030       L1     1  0.30

> <Gold.Chemscore.Hbond.Weighted>
-9.4812

> <Gold.Chemscore.Metal.Weighted>
-0.0000

> <Gold.Chemscore.Lipo.Weighted>
-8.6891

> <Gold.Chemscore.Internal_Hbond.Weighted>
0.0000

> <Gold.Chemscore.DEClash.Weighted>
0.9021

> <Gold.Chemscore.DEInternal.Weighted>
2.5670

> <Gold.Chemscore.Rot.Weighted>
7.4617

> <Gold.Chemscore.Internal.Correction.Weighted>
   9.000000E+99

> <Gold.Protein.RotatedTorsions>
[ 6907 6896 6895 6894 ] final  -27.46 input  -60.11 | X-H torsion
[ 7974 7965 7964 7962 ] final   29.89 input  175.53 | X-H torsion
[ 8008 7997 7996 7995 ] final  -16.74 input   59.86 | X-H torsion
[ 10167 10162 10161 10158 ] final -161.26 input  -65.29 | X-H torsion
[ 10718 10713 10712 10709 ] final -118.74 input   66.30 | X-H torsion
[ 10763 10752 10751 10750 ] final  121.66 input  -60.55 | X-H torsion
[ 11005 11000 10999 10996 ] final -138.23 input  -57.11 | X-H torsion

> <Gold.Protein.ActiveResidues>
 VAL166  LYS551  ARG553  GLY616  TRP617  ASP618  TYR619  PRO620  LYS621  CYS622 
 ASP623  PHE694  ASN695  SER759  ASP760  ASP761  ALA762  ILE779  LEU786  VAL792 
 PHE793  MET794  SER795  GLU796  ALA797  LYS798  CYS799  TRP800  GLU811  SER814 

> <Gold.Protein.RotatedAtoms>
  151.1466  135.0206  159.8649 H   0  0  0  0  0  0  0  0  0  0  0  0  # atno 6907 bound_to 6896
  152.5453  134.1437  159.8500 H   0  0  0  0  0  0  0  0  0  0  0  0  # atno 6908 bound_to 6896
  151.1518  133.4856  159.2628 H   0  0  0  0  0  0  0  0  0  0  0  0  # atno 6909 bound_to 6896
  146.1644  139.6861  142.9011 H   0  0  0  0  0  0  0  0  0  0  0  0  # atno 7974 bound_to 7965
  154.5030  140.2161  155.9307 H   0  0  0  0  0  0  0  0  0  0  0  0  # atno 8008 bound_to 7997
  156.1459  140.3171  155.8536 H   0  0  0  0  0  0  0  0  0  0  0  0  # atno 8009 bound_to 7997
  155.4033  140.0485  157.3026 H   0  0  0  0  0  0  0  0  0  0  0  0  # atno 8010 bound_to 7997
  139.6478  144.0139  152.2140 H   0  0  0  0  0  0  0  0  0  0  0  0  # atno 10167 bound_to 10162
  156.1129  130.6263  150.9329 H   0  0  0  0  0  0  0  0  0  0  0  0  # atno 10718 bound_to 10713
  153.6176  135.3419  155.3000 H   0  0  0  0  0  0  0  0  0  0  0  0  # atno 10763 bound_to 10752
  154.8606  135.4265  154.2242 H   0  0  0  0  0  0  0  0  0  0  0  0  # atno 10764 bound_to 10752
  153.3107  135.7031  153.7190 H   0  0  0  0  0  0  0  0  0  0  0  0  # atno 10765 bound_to 10752
  140.8635  134.2139  157.4693 H   0  0  0  0  0  0  0  0  0  0  0  0  # atno 11005 bound_to 11000
  145.4504  141.0428  143.2807 LP  0  0  0  0  0  0  0  0  0  0  0  0  # atno 17320 bound_to 7965
  144.8072  139.6029  143.7045 LP  0  0  0  0  0  0  0  0  0  0  0  0  # atno 17321 bound_to 7965
  139.9845  144.6405  150.7870 LP  0  0  0  0  0  0  0  0  0  0  0  0  # atno 17342 bound_to 10162
  140.7523  143.2988  151.3134 LP  0  0  0  0  0  0  0  0  0  0  0  0  # atno 17343 bound_to 10162
  157.6311  131.0921  150.8440 LP  0  0  0  0  0  0  0  0  0  0  0  0  # atno 17370 bound_to 10713
  156.8548  130.5093  149.5308 LP  0  0  0  0  0  0  0  0  0  0  0  0  # atno 17371 bound_to 10713
  139.8708  134.9741  156.4833 LP  0  0  0  0  0  0  0  0  0  0  0  0  # atno 17394 bound_to 11000
  140.8655  133.8027  155.9310 LP  0  0  0  0  0  0  0  0  0  0  0  0  # atno 17395 bound_to 11000

$$$$
