AV-unprocessed.smi:2880|AV-procd|sdf|11052|dock6
  -GOLD-   2272015523D 1   1.00000     0.00000
 Structure written by MMmdl.
 47 48  0  0  0  0  0  0  0  0  1 V2000
  146.0712  132.0872  149.5338 C   0  0  0  0  0  0  0  0  0  0  0  0
  144.6506  132.4889  149.9785 C   0  0  0  0  0  0  0  0  0  0  0  0
  143.7884  132.6999  148.7108 C   0  0  0  0  0  0  0  0  0  0  0  0
  144.0309  131.3555  150.8171 C   0  0  0  0  0  0  0  0  0  0  0  0
  144.7262  133.7021  150.8044 N   0  0  0  0  0  0  0  0  0  0  0  0
  143.6808  134.4778  151.2781 C   0  0  0  0  0  0  0  0  0  0  0  0
  144.2110  135.5280  151.9722 C   0  0  0  0  0  0  0  0  0  0  0  0
  145.6107  135.3199  151.8553 C   0  0  0  0  0  0  0  0  0  0  0  0
  146.5308  136.2201  152.4508 N   0  0  0  0  0  0  0  0  0  0  0  0
  146.3021  137.0773  153.4605 C   0  0  0  0  0  0  0  0  0  0  0  0
  145.2221  137.2263  154.0331 O   0  0  0  0  0  0  0  0  0  0  0  0
  147.4096  137.7686  153.7687 N   0  0  0  0  0  0  0  0  0  0  0  0
  147.5340  138.7759  154.8255 C   0  0  1  0  0  0  0  0  0  0  0  0
  148.4907  138.2634  155.9211 C   0  0  0  0  0  0  0  0  0  0  0  0
  149.9509  138.2079  155.4396 C   0  0  0  0  0  0  0  0  0  0  0  0
  150.4077  139.5684  154.8935 C   0  0  0  0  0  0  0  0  0  0  0  0
  149.4689  140.0719  153.7854 C   0  0  0  0  0  0  0  0  0  0  0  0
  148.0036  140.1473  154.2716 C   0  0  1  0  0  0  0  0  0  0  0  0
  147.0576  140.7067  153.1888 C   0  0  0  0  0  0  0  0  0  0  0  0
  146.9869  139.8309  152.0828 O   0  0  0  0  0  0  0  0  0  0  0  0
  145.9198  134.2416  151.1514 N   0  0  0  0  0  0  0  0  0  0  0  0
  146.0511  131.1993  148.9010 H   0  0  0  0  0  0  0  0  0  0  0  0
  146.7157  131.8610  150.3835 H   0  0  0  0  0  0  0  0  0  0  0  0
  146.5465  132.8858  148.9627 H   0  0  0  0  0  0  0  0  0  0  0  0
  144.1812  133.5049  148.0882 H   0  0  0  0  0  0  0  0  0  0  0  0
  142.7546  132.9443  148.9597 H   0  0  0  0  0  0  0  0  0  0  0  0
  143.7635  131.7993  148.0965 H   0  0  0  0  0  0  0  0  0  0  0  0
  143.9492  130.4342  150.2396 H   0  0  0  0  0  0  0  0  0  0  0  0
  143.0295  131.6192  151.1591 H   0  0  0  0  0  0  0  0  0  0  0  0
  144.6321  131.1344  151.6997 H   0  0  0  0  0  0  0  0  0  0  0  0
  142.6498  134.2222  151.0836 H   0  0  0  0  0  0  0  0  0  0  0  0
  143.6794  136.3207  152.4774 H   0  0  0  0  0  0  0  0  0  0  0  0
  147.4642  136.2089  152.0672 H   0  0  0  0  0  0  0  0  0  0  0  0
  148.2455  137.5763  153.2367 H   0  0  0  0  0  0  0  0  0  0  0  0
  146.5601  138.9188  155.2969 H   0  0  0  0  0  0  0  0  0  0  0  0
  148.4269  138.9229  156.7877 H   0  0  0  0  0  0  0  0  0  0  0  0
  148.1745  137.2789  156.2682 H   0  0  0  0  0  0  0  0  0  0  0  0
  150.6003  137.9009  156.2600 H   0  0  0  0  0  0  0  0  0  0  0  0
  150.0577  137.4482  154.6644 H   0  0  0  0  0  0  0  0  0  0  0  0
  150.4356  140.2963  155.7052 H   0  0  0  0  0  0  0  0  0  0  0  0
  151.4262  139.4923  154.5120 H   0  0  0  0  0  0  0  0  0  0  0  0
  149.8067  141.0538  153.4529 H   0  0  0  0  0  0  0  0  0  0  0  0
  149.5416  139.4150  152.9178 H   0  0  0  0  0  0  0  0  0  0  0  0
  147.9743  140.8458  155.1099 H   0  0  0  0  0  0  0  0  0  0  0  0
  146.0537  140.8640  153.5843 H   0  0  0  0  0  0  0  0  0  0  0  0
  147.4184  141.6721  152.8325 H   0  0  0  0  0  0  0  0  0  0  0  0
  147.8668  139.6165  151.8131 H   0  0  0  0  0  0  0  0  0  0  0  0
  1  2  1  0  0  0  0
  1 22  1  0  0  0  0
  1 23  1  0  0  0  0
  1 24  1  0  0  0  0
  2  3  1  0  0  0  0
  2  4  1  0  0  0  0
  2  5  1  0  0  0  0
  3 25  1  0  0  0  0
  3 26  1  0  0  0  0
  3 27  1  0  0  0  0
  4 28  1  0  0  0  0
  4 29  1  0  0  0  0
  4 30  1  0  0  0  0
  5 21  1  0  0  0  0
  5  6  1  0  0  0  0
  6  7  2  0  0  0  0
  6 31  1  0  0  0  0
  7  8  1  0  0  0  0
  7 32  1  0  0  0  0
  8  9  1  0  0  0  0
  8 21  2  0  0  0  0
  9 10  1  0  0  0  0
  9 33  1  0  0  0  0
 10 11  2  0  0  0  0
 10 12  1  0  0  0  0
 12 13  1  0  0  0  0
 12 34  1  0  0  0  0
 13 18  1  0  0  0  0
 13 14  1  0  0  0  0
 13 35  1  0  0  0  0
 14 15  1  0  0  0  0
 14 36  1  0  0  0  0
 14 37  1  0  0  0  0
 15 16  1  0  0  0  0
 15 38  1  0  0  0  0
 15 39  1  0  0  0  0
 16 17  1  0  0  0  0
 16 40  1  0  0  0  0
 16 41  1  0  0  0  0
 17 18  1  0  0  0  0
 17 42  1  0  0  0  0
 17 43  1  0  0  0  0
 18 19  1  0  0  0  0
 18 44  1  0  0  0  0
 19 20  1  0  0  0  0
 19 45  1  0  0  0  0
 19 46  1  0  0  0  0
 20 47  1  0  0  0  0
M  END
> <s_m_source_file>
AV-unprocessed.smi

> <i_m_source_file_index>
2880

> <i_lp_mmshare_version>
43012

> <i_f3d_flags>
0

> <s_epik_input>
W0NIM11DKFtDSDNdKShbQ0gzXSluMVtjSF1bY0hdYyhuMSlbTkhdQyg9TylbTkhdW0NAQEhdMltDSDJdW0NIMl1bQ0gyXVtDSDJdW0NASF0yW0NIMl1bT0hd

> <s_epik_cmdline>
J2VwaWtfcHl0aG9uJywgJy1waCcsICc3LjAnLCAnLXRuJywgJzgnLCAnLW1hJywgJzIwMCcsICctbWV0YWxfYmluZGluZycsICctaW1hZScsICc8aW5maWxlLm1hZT4nLCAnLW9tYWUnLCAnPG91dGZpbGUubWFlPic=

> <r_lp_tautomer_probability>
1

> <r_epik_Ionization_Penalty>
3.89283e-05

> <r_epik_Ionization_Penalty_Charging>
0

> <r_epik_Ionization_Penalty_Neutral>
3.89283e-05

> <r_epik_State_Penalty>
-0

> <r_epik_Charging_Adjusted_Penalty>
0

> <i_epik_Tot_Q>
0

> <i_epik_Tot_abs_Q>
0

> <r_epik_Metal_State_Penalty>
-0

> <b_epik_Metal_Only>
0

> <s_lp_Force_Field>
OPLS_2005

> <r_lp_Energy>
20.5246

> <b_lp_Chiralities_Consistent>
1

> <s_lp_Variant>
AV-unprocessed.smi:2880-2

> <Gold.Version>
5.8.1

> <Gold.Id.Protein>
6NUR|6NUR_protein|mol2

> <Gold.PLP.Fitness>
43.2923

> <Gold.PLP.PLP>
-32.7006

> <Gold.PLP.part.hbond>
-2.8037

> <Gold.PLP.part.metal>
0.0000

> <Gold.PLP.part.buried>
0.3426

> <Gold.PLP.part.nonpolar>
-30.4526

> <Gold.PLP.part.repulsive>
0.3013

> <Gold.PLP.ligand.clash>
0.0000

> <Gold.PLP.ligand.torsion>
0.2532

> <Gold.PLP.Chemscore.Hbond>
2.6864

> <Gold.PLP.Chemscore.CHOScore>
0.9998

> <Gold.PLP.Chemscore.Metal>
0.0000

> <Gold.Chemscore.Hbonds>
donor molecule, donor type, donor heavy atom, donor atom, acceptor molecule, acceptor atom, score
      L1  H     9    33       P1  7948  0.88
      L1  H    12    34       P1  7948  0.80
      L1  H    20    47       P1  7957  1.00
      L1  C     6    31       P1 10186  0.99

> <Gold.PLP.Chemscore.Internal.Correction>
0.0397

> <Gold.Rescore>
     Score         DG    S(hbond)    S(metal)    S(lipo)     H(rot)  DE(clash)    DE(int)     intcor
     16.13     -21.07       2.82        0.00      95.75       1.97       1.87       3.07       ----

> <Gold.Chemscore.Fitness>
16.1318

> <Gold.Chemscore.DG>
-21.0687

> <Gold.Chemscore.ZeroCoef>
-5.4800

> <Gold.Chemscore.Hbond>
2.8208

> <Gold.Chemscore.Metal>
0.0000

> <Gold.Chemscore.Lipo>
95.7541

> <Gold.Chemscore.Internal_Hbond>
0.0000

> <Gold.Chemscore.DEClash>
1.8689

> <Gold.Chemscore.DEInternal>
3.0679

> <Gold.Chemscore.Rot>
1.9672

> <Gold.Chemscore.Internal.Correction>
   9.000000E+99

> <Gold.Chemscore.Hbonds>
donor molecule, donor type, donor heavy atom, donor atom, acceptor molecule, acceptor atom, score
      L1  H     9    33       P1  7948  0.86
      L1  H    12    34       P1  7948  0.74
      L1  H    20    47       P1  7957  0.98

> <Gold.Chemscore.Hbond.Weighted>
-9.4215

> <Gold.Chemscore.Metal.Weighted>
-0.0000

> <Gold.Chemscore.Lipo.Weighted>
-11.2032

> <Gold.Chemscore.Internal_Hbond.Weighted>
0.0000

> <Gold.Chemscore.DEClash.Weighted>
1.8689

> <Gold.Chemscore.DEInternal.Weighted>
3.0679

> <Gold.Chemscore.Rot.Weighted>
5.0360

> <Gold.Chemscore.Internal.Correction.Weighted>
   9.000000E+99

> <Gold.Protein.RotatedTorsions>
[ 6907 6896 6895 6894 ] final  -33.14 input  -60.11 | X-H torsion
[ 7974 7965 7964 7962 ] final  154.13 input  175.53 | X-H torsion
[ 8008 7997 7996 7995 ] final  156.03 input   59.86 | X-H torsion
[ 10167 10162 10161 10158 ] final -125.62 input  -65.29 | X-H torsion
[ 10718 10713 10712 10709 ] final   24.28 input   66.30 | X-H torsion
[ 10763 10752 10751 10750 ] final  -93.48 input  -60.55 | X-H torsion
[ 11005 11000 10999 10996 ] final  -86.20 input  -57.11 | X-H torsion

> <Gold.Protein.ActiveResidues>
 VAL166  LYS551  ARG553  GLY616  TRP617  ASP618  TYR619  PRO620  LYS621  CYS622 
 ASP623  PHE694  ASN695  SER759  ASP760  ASP761  ALA762  ILE779  LEU786  VAL792 
 PHE793  MET794  SER795  GLU796  ALA797  LYS798  CYS799  TRP800  GLU811  SER814 

> <Gold.Protein.RotatedAtoms>
  151.0695  134.9789  159.8301 H   0  0  0  0  0  0  0  0  0  0  0  0  # atno 6907 bound_to 6896
  152.5406  134.2317  159.8837 H   0  0  0  0  0  0  0  0  0  0  0  0  # atno 6908 bound_to 6896
  151.2341  133.4391  159.2638 H   0  0  0  0  0  0  0  0  0  0  0  0  # atno 6909 bound_to 6896
  144.8109  139.6892  143.6142 H   0  0  0  0  0  0  0  0  0  0  0  0  # atno 7974 bound_to 7965
  156.2445  140.1923  156.6893 H   0  0  0  0  0  0  0  0  0  0  0  0  # atno 8008 bound_to 7997
  154.6263  140.0601  156.9704 H   0  0  0  0  0  0  0  0  0  0  0  0  # atno 8009 bound_to 7997
  155.1781  140.3274  155.4383 H   0  0  0  0  0  0  0  0  0  0  0  0  # atno 8010 bound_to 7997
  139.9802  143.5751  152.2381 H   0  0  0  0  0  0  0  0  0  0  0  0  # atno 10167 bound_to 10162
  157.1776  130.6788  149.6101 H   0  0  0  0  0  0  0  0  0  0  0  0  # atno 10718 bound_to 10713
  154.6963  135.5193  153.8463 H   0  0  0  0  0  0  0  0  0  0  0  0  # atno 10763 bound_to 10752
  153.0670  135.6588  154.0342 H   0  0  0  0  0  0  0  0  0  0  0  0  # atno 10764 bound_to 10752
  154.0208  135.2994  155.3361 H   0  0  0  0  0  0  0  0  0  0  0  0  # atno 10765 bound_to 10752
  141.1633  133.7441  156.9126 H   0  0  0  0  0  0  0  0  0  0  0  0  # atno 11005 bound_to 11000
  146.2407  139.5996  142.9493 LP  0  0  0  0  0  0  0  0  0  0  0  0  # atno 17320 bound_to 7965
  145.5327  141.0426  143.2374 LP  0  0  0  0  0  0  0  0  0  0  0  0  # atno 17321 bound_to 7965
  139.6416  144.7655  151.2328 LP  0  0  0  0  0  0  0  0  0  0  0  0  # atno 17342 bound_to 10162
  140.7492  143.6308  150.8425 LP  0  0  0  0  0  0  0  0  0  0  0  0  # atno 17343 bound_to 10162
  155.9729  130.4658  150.6265 LP  0  0  0  0  0  0  0  0  0  0  0  0  # atno 17370 bound_to 10713
  157.3984  131.0806  151.1331 LP  0  0  0  0  0  0  0  0  0  0  0  0  # atno 17371 bound_to 10713
  140.1506  134.9232  157.2588 LP  0  0  0  0  0  0  0  0  0  0  0  0  # atno 17394 bound_to 11000
  140.2727  134.3441  155.7368 LP  0  0  0  0  0  0  0  0  0  0  0  0  # atno 17395 bound_to 11000

$$$$
