AV-unprocessed.smi:1963|AV-procd|sdf|7926|dock4
  -GOLD-   2272010 93D 1   1.00000     0.00000
 Structure written by MMmdl.
 47 48  0  0  0  0  0  0  0  0  1 V2000
  158.6413  137.0569  161.4883 C   0  0  0  0  0  0  0  0  0  0  0  0
  157.2443  136.6336  161.0485 C   0  0  0  0  0  0  0  0  0  0  0  0
  156.9583  136.5940  159.8520 O   0  0  0  0  0  0  0  0  0  0  0  0
  156.3832  136.3170  162.0284 N   0  0  0  0  0  0  0  0  0  0  0  0
  154.9927  135.8994  161.8336 C   0  0  2  0  0  0  0  0  0  0  0  0
  154.1935  137.0858  161.2594 C   0  0  0  0  0  0  0  0  0  0  0  0
  153.1039  136.8896  160.7194 O   0  0  0  0  0  0  0  0  0  0  0  0
  154.7680  138.2944  161.4013 N   0  0  0  0  0  0  0  0  0  0  0  0
  154.3013  139.5583  160.9507 C   0  0  0  0  0  0  0  0  0  0  0  0
  153.3616  139.5794  159.9010 C   0  0  0  0  0  0  0  0  0  0  0  0
  152.8564  140.8153  159.4553 C   0  0  0  0  0  0  0  0  0  0  0  0
  153.3036  141.9981  160.0870 C   0  0  0  0  0  0  0  0  0  0  0  0
  152.8387  143.2612  159.6968 N   0  0  0  0  0  0  0  0  0  0  0  0
  152.2224  144.0299  160.7710 C   0  0  0  0  0  0  0  0  0  0  0  0
  151.8731  145.4416  160.2695 C   0  0  0  0  0  0  0  0  0  0  0  0
  151.0311  145.3435  159.1240 O   0  0  0  0  0  0  0  0  0  0  0  0
  151.6664  144.6540  158.0505 C   0  0  0  0  0  0  0  0  0  0  0  0
  152.0222  143.2229  158.4910 C   0  0  0  0  0  0  0  0  0  0  0  0
  154.1996  141.9868  161.0972 N   0  0  0  0  0  0  0  0  0  0  0  0
  154.6815  140.7982  161.5195 C   0  0  0  0  0  0  0  0  0  0  0  0
  154.3982  135.4673  163.2069 C   0  0  0  0  0  0  0  0  0  0  0  0
  154.4978  136.5935  164.2549 C   0  0  0  0  0  0  0  0  0  0  0  0
  155.0546  134.1922  163.7768 C   0  0  0  0  0  0  0  0  0  0  0  0
  158.5856  137.7973  162.2870 H   0  0  0  0  0  0  0  0  0  0  0  0
  159.1925  137.4954  160.6559 H   0  0  0  0  0  0  0  0  0  0  0  0
  159.1998  136.1946  161.8529 H   0  0  0  0  0  0  0  0  0  0  0  0
  156.7058  136.3854  162.9828 H   0  0  0  0  0  0  0  0  0  0  0  0
  154.9573  135.0541  161.1427 H   0  0  0  0  0  0  0  0  0  0  0  0
  155.6191  138.3159  161.9445 H   0  0  0  0  0  0  0  0  0  0  0  0
  153.0310  138.6607  159.4387 H   0  0  0  0  0  0  0  0  0  0  0  0
  152.1419  140.8480  158.6461 H   0  0  0  0  0  0  0  0  0  0  0  0
  151.3170  143.5303  161.1175 H   0  0  0  0  0  0  0  0  0  0  0  0
  152.9045  144.0903  161.6201 H   0  0  0  0  0  0  0  0  0  0  0  0
  151.3523  145.9999  161.0475 H   0  0  0  0  0  0  0  0  0  0  0  0
  152.7764  146.0023  160.0238 H   0  0  0  0  0  0  0  0  0  0  0  0
  150.9905  144.6275  157.1958 H   0  0  0  0  0  0  0  0  0  0  0  0
  152.5587  145.1971  157.7344 H   0  0  0  0  0  0  0  0  0  0  0  0
  152.5617  142.7090  157.6944 H   0  0  0  0  0  0  0  0  0  0  0  0
  151.1104  142.6554  158.6825 H   0  0  0  0  0  0  0  0  0  0  0  0
  155.3673  140.8603  162.3497 H   0  0  0  0  0  0  0  0  0  0  0  0
  153.3370  135.2503  163.0718 H   0  0  0  0  0  0  0  0  0  0  0  0
  155.5352  136.8834  164.4243 H   0  0  0  0  0  0  0  0  0  0  0  0
  154.0829  136.2768  165.2121 H   0  0  0  0  0  0  0  0  0  0  0  0
  153.9487  137.4850  163.9521 H   0  0  0  0  0  0  0  0  0  0  0  0
  156.1314  134.3206  163.8913 H   0  0  0  0  0  0  0  0  0  0  0  0
  154.8880  133.3226  163.1412 H   0  0  0  0  0  0  0  0  0  0  0  0
  154.6460  133.9457  164.7571 H   0  0  0  0  0  0  0  0  0  0  0  0
  1  2  1  0  0  0  0
  1 24  1  0  0  0  0
  1 25  1  0  0  0  0
  1 26  1  0  0  0  0
  2  3  2  0  0  0  0
  2  4  1  0  0  0  0
  4  5  1  0  0  0  0
  4 27  1  0  0  0  0
  5  6  1  0  0  0  0
  5 21  1  0  0  0  0
  5 28  1  0  0  0  0
  6  7  2  0  0  0  0
  6  8  1  0  0  0  0
  8  9  1  0  0  0  0
  8 29  1  0  0  0  0
  9 20  1  0  0  0  0
  9 10  2  0  0  0  0
 10 11  1  0  0  0  0
 10 30  1  0  0  0  0
 11 12  2  0  0  0  0
 11 31  1  0  0  0  0
 12 13  1  0  0  0  0
 12 19  1  0  0  0  0
 13 18  1  0  0  0  0
 13 14  1  0  0  0  0
 14 15  1  0  0  0  0
 14 32  1  0  0  0  0
 14 33  1  0  0  0  0
 15 16  1  0  0  0  0
 15 34  1  0  0  0  0
 15 35  1  0  0  0  0
 16 17  1  0  0  0  0
 17 18  1  0  0  0  0
 17 36  1  0  0  0  0
 17 37  1  0  0  0  0
 18 38  1  0  0  0  0
 18 39  1  0  0  0  0
 19 20  2  0  0  0  0
 20 40  1  0  0  0  0
 21 22  1  0  0  0  0
 21 23  1  0  0  0  0
 21 41  1  0  0  0  0
 22 42  1  0  0  0  0
 22 43  1  0  0  0  0
 22 44  1  0  0  0  0
 23 45  1  0  0  0  0
 23 46  1  0  0  0  0
 23 47  1  0  0  0  0
M  END
> <s_m_source_file>
AV-unprocessed.smi

> <i_m_source_file_index>
1963

> <i_lp_mmshare_version>
43012

> <i_f3d_flags>
0

> <s_epik_input>
W0NIM11DKD1PKVtOSF1bQ0BASF0oW0NIXShbQ0gzXSlbQ0gzXSlDKD1PKVtOSF1jMVtjSF1bY0hdYyhuW2NIXTEpTjJbQ0gyXVtDSDJdT1tDSDJdW0NIMl0y

> <s_epik_cmdline>
J2VwaWtfcHl0aG9uJywgJy1waCcsICc3LjAnLCAnLXRuJywgJzgnLCAnLW1hJywgJzIwMCcsICctbWV0YWxfYmluZGluZycsICctaW1hZScsICc8aW5maWxlLm1hZT4nLCAnLW9tYWUnLCAnPG91dGZpbGUubWFlPic=

> <r_lp_tautomer_probability>
1

> <r_epik_Ionization_Penalty>
0.00051446

> <r_epik_Ionization_Penalty_Charging>
0

> <r_epik_Ionization_Penalty_Neutral>
0.00051446

> <r_epik_State_Penalty>
0.00031949

> <r_epik_Charging_Adjusted_Penalty>
0.00031949

> <i_epik_Tot_Q>
0

> <i_epik_Tot_abs_Q>
0

> <r_epik_Metal_State_Penalty>
-0

> <b_epik_Metal_Only>
0

> <s_lp_Force_Field>
OPLS_2005

> <r_lp_Energy>
27.6856

> <b_lp_Chiralities_Consistent>
1

> <s_lp_Variant>
AV-unprocessed.smi:1963-1

> <Gold.Version>
5.8.1

> <Gold.Id.Protein>
6NUR|6NUR_protein|mol2

> <Gold.PLP.Fitness>
42.0301

> <Gold.PLP.PLP>
-42.4745

> <Gold.PLP.part.hbond>
-1.5345

> <Gold.PLP.part.metal>
0.0000

> <Gold.PLP.part.buried>
-5.4277

> <Gold.PLP.part.nonpolar>
-35.5713

> <Gold.PLP.part.repulsive>
0.1653

> <Gold.PLP.ligand.clash>
0.9271

> <Gold.PLP.ligand.torsion>
0.7315

> <Gold.PLP.Chemscore.Hbond>
0.6012

> <Gold.PLP.Chemscore.CHOScore>
0.0000

> <Gold.PLP.Chemscore.Metal>
0.0000

> <Gold.Chemscore.Hbonds>
donor molecule, donor type, donor heavy atom, donor atom, acceptor molecule, acceptor atom, score
      P1  H  6896  6908       L1     7  0.52

> <Gold.PLP.Chemscore.Internal.Correction>
0.1419

> <Gold.Rescore>
     Score         DG    S(hbond)    S(metal)    S(lipo)     H(rot)  DE(clash)    DE(int)     intcor
     14.18     -17.21       0.98        0.00     110.33       1.74       0.17       2.85       ----

> <Gold.Chemscore.Fitness>
14.1845

> <Gold.Chemscore.DG>
-17.2082

> <Gold.Chemscore.ZeroCoef>
-5.4800

> <Gold.Chemscore.Hbond>
0.9796

> <Gold.Chemscore.Metal>
0.0000

> <Gold.Chemscore.Lipo>
110.3338

> <Gold.Chemscore.Internal_Hbond>
0.0000

> <Gold.Chemscore.DEClash>
0.1690

> <Gold.Chemscore.DEInternal>
2.8547

> <Gold.Chemscore.Rot>
1.7394

> <Gold.Chemscore.Internal.Correction>
   9.000000E+99

> <Gold.Chemscore.Hbonds>
donor molecule, donor type, donor heavy atom, donor atom, acceptor molecule, acceptor atom, score
      P1  H  6896  6908       L1     7  0.52

> <Gold.Chemscore.Hbond.Weighted>
-3.2719

> <Gold.Chemscore.Metal.Weighted>
-0.0000

> <Gold.Chemscore.Lipo.Weighted>
-12.9090

> <Gold.Chemscore.Internal_Hbond.Weighted>
0.0000

> <Gold.Chemscore.DEClash.Weighted>
0.1690

> <Gold.Chemscore.DEInternal.Weighted>
2.8547

> <Gold.Chemscore.Rot.Weighted>
4.4528

> <Gold.Chemscore.Internal.Correction.Weighted>
   9.000000E+99

> <Gold.Protein.RotatedTorsions>
[ 6907 6896 6895 6894 ] final  -93.31 input  -60.11 | X-H torsion
[ 7974 7965 7964 7962 ] final  -87.65 input  175.53 | X-H torsion
[ 8008 7997 7996 7995 ] final  133.95 input   59.86 | X-H torsion
[ 10167 10162 10161 10158 ] final -151.83 input  -65.29 | X-H torsion
[ 10718 10713 10712 10709 ] final   78.59 input   66.30 | X-H torsion
[ 10763 10752 10751 10750 ] final   40.00 input  -60.55 | X-H torsion
[ 11005 11000 10999 10996 ] final  161.90 input  -57.11 | X-H torsion

> <Gold.Protein.ActiveResidues>
 VAL166  LYS551  ARG553  GLY616  TRP617  ASP618  TYR619  PRO620  LYS621  CYS622 
 ASP623  PHE694  ASN695  SER759  ASP760  ASP761  ALA762  ILE779  LEU786  VAL792 
 PHE793  MET794  SER795  GLU796  ALA797  LYS798  CYS799  TRP800  GLU811  SER814 

> <Gold.Protein.RotatedAtoms>
  150.6920  134.1987  159.4313 H   0  0  0  0  0  0  0  0  0  0  0  0  # atno 6907 bound_to 6896
  151.9954  134.9954  160.0572 H   0  0  0  0  0  0  0  0  0  0  0  0  # atno 6908 bound_to 6896
  152.1628  133.4558  159.4906 H   0  0  0  0  0  0  0  0  0  0  0  0  # atno 6909 bound_to 6896
  145.4637  140.9560  143.1955 H   0  0  0  0  0  0  0  0  0  0  0  0  # atno 7974 bound_to 7965
  156.2996  140.2508  156.3338 H   0  0  0  0  0  0  0  0  0  0  0  0  # atno 8008 bound_to 7997
  154.9120  140.0403  157.1970 H   0  0  0  0  0  0  0  0  0  0  0  0  # atno 8009 bound_to 7997
  154.8396  140.2889  155.5672 H   0  0  0  0  0  0  0  0  0  0  0  0  # atno 8010 bound_to 7997
  139.7233  143.8922  152.2511 H   0  0  0  0  0  0  0  0  0  0  0  0  # atno 10167 bound_to 10162
  157.6750  130.9875  150.1809 H   0  0  0  0  0  0  0  0  0  0  0  0  # atno 10718 bound_to 10713
  152.9950  135.6204  154.2555 H   0  0  0  0  0  0  0  0  0  0  0  0  # atno 10763 bound_to 10752
  154.2292  135.2793  155.2898 H   0  0  0  0  0  0  0  0  0  0  0  0  # atno 10764 bound_to 10752
  154.5463  135.5746  153.6941 H   0  0  0  0  0  0  0  0  0  0  0  0  # atno 10765 bound_to 10752
  140.2203  134.8201  157.3214 H   0  0  0  0  0  0  0  0  0  0  0  0  # atno 11005 bound_to 11000
  144.7987  139.6183  143.7081 LP  0  0  0  0  0  0  0  0  0  0  0  0  # atno 17320 bound_to 7965
  146.2436  139.6052  142.9475 LP  0  0  0  0  0  0  0  0  0  0  0  0  # atno 17321 bound_to 7965
  139.8824  144.7010  150.8862 LP  0  0  0  0  0  0  0  0  0  0  0  0  # atno 17342 bound_to 10162
  140.7758  143.3650  151.1756 LP  0  0  0  0  0  0  0  0  0  0  0  0  # atno 17343 bound_to 10162
  156.2542  130.3704  149.8200 LP  0  0  0  0  0  0  0  0  0  0  0  0  # atno 17370 bound_to 10713
  156.5964  130.8528  151.3421 LP  0  0  0  0  0  0  0  0  0  0  0  0  # atno 17371 bound_to 10713
  140.1856  134.4435  155.7746 LP  0  0  0  0  0  0  0  0  0  0  0  0  # atno 17394 bound_to 11000
  141.2223  133.7003  156.7942 LP  0  0  0  0  0  0  0  0  0  0  0  0  # atno 17395 bound_to 11000

$$$$
