AV-unprocessed.smi:184|AV-procd|sdf|1462|dock8
  -GOLD-   2262019273D 1   1.00000     0.00000
 Structure written by MMmdl.
 54 58  0  0  0  0  0  0  0  0  1 V2000
  155.5610  139.2117  163.3651 O   0  0  0  0  0  0  0  0  0  0  0  0
  155.0569  139.7462  162.3801 C   0  0  0  0  0  0  0  0  0  0  0  0
  154.9574  138.9608  161.0597 C   0  0  0  0  0  0  0  0  0  0  0  0
  154.3032  139.6725  159.9485 N   0  0  0  0  0  0  0  0  0  0  0  0
  153.9646  138.8105  158.9596 C   0  0  0  0  0  0  0  0  0  0  0  0
  154.9309  138.2385  158.1933 N   0  0  0  0  0  0  0  0  0  0  0  0
  154.5942  137.4058  157.2038 C   0  0  0  0  0  0  0  0  0  0  0  0
  153.3766  137.0226  156.8133 N   0  0  0  0  0  0  0  0  0  0  0  0
  152.4051  137.6042  157.5736 C   0  0  0  0  0  0  0  0  0  0  0  0
  152.6111  138.5073  158.6538 C   0  0  0  0  0  0  0  0  0  0  0  0
  151.3906  138.8988  159.1881 N   0  0  0  0  0  0  0  0  0  0  0  0
  150.5110  138.2607  158.4648 C   0  0  0  0  0  0  0  0  0  0  0  0
  151.0325  137.4525  157.4787 N   0  0  0  0  0  0  0  0  0  0  0  0
  150.2837  136.6333  156.5361 C   0  0  0  0  0  0  0  0  0  0  0  0
  149.9462  137.3511  155.2005 C   0  0  0  0  0  0  0  0  0  0  0  0
  148.9700  136.5729  154.5326 O   0  0  0  0  0  0  0  0  0  0  0  0
  149.3317  138.7451  155.4389 C   0  0  0  0  0  0  0  0  0  0  0  0
  150.3972  139.7718  155.8635 C   0  0  0  0  0  0  0  0  0  0  0  0
  151.4381  139.8247  154.8938 O   0  0  0  0  0  0  0  0  0  0  0  0
  152.1250  138.5871  154.7443 C   0  0  0  0  0  0  0  0  0  0  0  0
  151.1506  137.5051  154.2468 C   0  0  0  0  0  0  0  0  0  0  0  0
  153.3530  140.7400  160.2853 C   0  0  2  0  0  0  0  0  0  0  0  0
  152.8577  141.5479  159.0597 C   0  0  0  0  0  0  0  0  0  0  0  0
  151.8791  142.6565  159.4845 C   0  0  0  0  0  0  0  0  0  0  0  0
  152.5010  143.5895  160.5357 C   0  0  0  0  0  0  0  0  0  0  0  0
  153.0323  142.7989  161.7422 C   0  0  0  0  0  0  0  0  0  0  0  0
  154.0189  141.7098  161.2868 C   0  0  1  0  0  0  0  0  0  0  0  0
  154.5714  140.9964  162.4313 N   0  0  0  0  0  0  0  0  0  0  0  0
  155.9681  138.6858  160.7551 H   0  0  0  0  0  0  0  0  0  0  0  0
  154.4280  138.0296  161.2720 H   0  0  0  0  0  0  0  0  0  0  0  0
  155.4178  136.9881  156.6440 H   0  0  0  0  0  0  0  0  0  0  0  0
  149.4485  138.3576  158.6357 H   0  0  0  0  0  0  0  0  0  0  0  0
  150.8661  135.7319  156.3395 H   0  0  0  0  0  0  0  0  0  0  0  0
  149.3749  136.2953  157.0334 H   0  0  0  0  0  0  0  0  0  0  0  0
  148.9472  136.8353  153.6250 H   0  0  0  0  0  0  0  0  0  0  0  0
  148.8637  139.1026  154.5202 H   0  0  0  0  0  0  0  0  0  0  0  0
  148.5379  138.6942  156.1850 H   0  0  0  0  0  0  0  0  0  0  0  0
  149.9462  140.7610  155.9440 H   0  0  0  0  0  0  0  0  0  0  0  0
  150.8101  139.5363  156.8450 H   0  0  0  0  0  0  0  0  0  0  0  0
  152.9321  138.7199  154.0238 H   0  0  0  0  0  0  0  0  0  0  0  0
  152.5902  138.3021  155.6881 H   0  0  0  0  0  0  0  0  0  0  0  0
  151.6725  136.5587  154.1054 H   0  0  0  0  0  0  0  0  0  0  0  0
  150.7964  137.8000  153.2577 H   0  0  0  0  0  0  0  0  0  0  0  0
  152.4901  140.2779  160.7698 H   0  0  0  0  0  0  0  0  0  0  0  0
  153.7094  141.9884  158.5392 H   0  0  0  0  0  0  0  0  0  0  0  0
  152.3562  140.9064  158.3358 H   0  0  0  0  0  0  0  0  0  0  0  0
  151.5710  143.2342  158.6124 H   0  0  0  0  0  0  0  0  0  0  0  0
  150.9732  142.2042  159.8903 H   0  0  0  0  0  0  0  0  0  0  0  0
  153.3175  144.1533  160.0828 H   0  0  0  0  0  0  0  0  0  0  0  0
  151.7647  144.3234  160.8649 H   0  0  0  0  0  0  0  0  0  0  0  0
  153.5187  143.4805  162.4411 H   0  0  0  0  0  0  0  0  0  0  0  0
  152.1989  142.3447  162.2802 H   0  0  0  0  0  0  0  0  0  0  0  0
  154.8631  142.1968  160.7947 H   0  0  0  0  0  0  0  0  0  0  0  0
  154.6262  141.4958  163.3072 H   0  0  0  0  0  0  0  0  0  0  0  0
  1  2  2  0  0  0  0
  2 28  1  0  0  0  0
  2  3  1  0  0  0  0
  3  4  1  0  0  0  0
  3 29  1  0  0  0  0
  3 30  1  0  0  0  0
  4  5  1  0  0  0  0
  4 22  1  0  0  0  0
  5 10  1  0  0  0  0
  5  6  2  0  0  0  0
  6  7  1  0  0  0  0
  7  8  2  0  0  0  0
  7 31  1  0  0  0  0
  8  9  1  0  0  0  0
  9 13  1  0  0  0  0
  9 10  2  0  0  0  0
 10 11  1  0  0  0  0
 11 12  2  0  0  0  0
 12 13  1  0  0  0  0
 12 32  1  0  0  0  0
 13 14  1  0  0  0  0
 14 15  1  0  0  0  0
 14 33  1  0  0  0  0
 14 34  1  0  0  0  0
 15 21  1  0  0  0  0
 15 16  1  0  0  0  0
 15 17  1  0  0  0  0
 16 35  1  0  0  0  0
 17 18  1  0  0  0  0
 17 36  1  0  0  0  0
 17 37  1  0  0  0  0
 18 19  1  0  0  0  0
 18 38  1  0  0  0  0
 18 39  1  0  0  0  0
 19 20  1  0  0  0  0
 20 21  1  0  0  0  0
 20 40  1  0  0  0  0
 20 41  1  0  0  0  0
 21 42  1  0  0  0  0
 21 43  1  0  0  0  0
 22 27  1  0  0  0  0
 22 23  1  0  0  0  0
 22 44  1  0  0  0  0
 23 24  1  0  0  0  0
 23 45  1  0  0  0  0
 23 46  1  0  0  0  0
 24 25  1  0  0  0  0
 24 47  1  0  0  0  0
 24 48  1  0  0  0  0
 25 26  1  0  0  0  0
 25 49  1  0  0  0  0
 25 50  1  0  0  0  0
 26 27  1  0  0  0  0
 26 51  1  0  0  0  0
 26 52  1  0  0  0  0
 27 28  1  0  0  0  0
 27 53  1  0  0  0  0
 28 54  1  0  0  0  0
M  END
> <s_m_source_file>
AV-unprocessed.smi

> <i_m_source_file_index>
184

> <i_lp_mmshare_version>
43012

> <i_f3d_flags>
0

> <s_epik_input>
W0NIMl0xW0NIMl1bQ0gyXVtDSDJdW0NASF0oW0NASF0xMilbTkhdQyg9TylbQ0gyXU4yYyhuW2NIXW4zKWMoYzM0KW5bY0hdbjRbQ0gyXUM1KFtPSF0pW0NIMl1bQ0gyXU9bQ0gyXVtDSDJdNQ==

> <s_epik_cmdline>
J2VwaWtfcHl0aG9uJywgJy1waCcsICc3LjAnLCAnLXRuJywgJzgnLCAnLW1hJywgJzIwMCcsICctbWV0YWxfYmluZGluZycsICctaW1hZScsICc8aW5maWxlLm1hZT4nLCAnLW9tYWUnLCAnPG91dGZpbGUubWFlPic=

> <r_lp_tautomer_probability>
1

> <r_epik_Ionization_Penalty>
0.000822761

> <r_epik_Ionization_Penalty_Charging>
0

> <r_epik_Ionization_Penalty_Neutral>
0.000822761

> <r_epik_State_Penalty>
0.000403048

> <r_epik_Charging_Adjusted_Penalty>
0.000403048

> <i_epik_Tot_Q>
0

> <i_epik_Tot_abs_Q>
0

> <r_epik_Metal_State_Penalty>
-0

> <b_epik_Metal_Only>
0

> <s_lp_Force_Field>
OPLS_2005

> <r_lp_Energy>
34.5881

> <b_lp_Chiralities_Consistent>
1

> <s_lp_Variant>
AV-unprocessed.smi:184-2

> <Gold.Version>
5.8.1

> <Gold.Id.Protein>
6NUR|6NUR_protein|mol2

> <Gold.PLP.Fitness>
49.7695

> <Gold.PLP.PLP>
-42.4235

> <Gold.PLP.part.hbond>
-4.8655

> <Gold.PLP.part.metal>
0.0000

> <Gold.PLP.part.buried>
-4.7889

> <Gold.PLP.part.nonpolar>
-32.7131

> <Gold.PLP.part.repulsive>
0.0516

> <Gold.PLP.ligand.clash>
0.0000

> <Gold.PLP.ligand.torsion>
0.9505

> <Gold.PLP.Chemscore.Hbond>
2.9563

> <Gold.PLP.Chemscore.CHOScore>
0.0000

> <Gold.PLP.Chemscore.Metal>
0.0000

> <Gold.Chemscore.Hbonds>
donor molecule, donor type, donor heavy atom, donor atom, acceptor molecule, acceptor atom, score
      L1  H    16    35       P1  7948  0.90
      P1  H  7989  7998       L1    19  1.00
      P1  H  7997  8009       L1     6  0.50
      P1  H 10752 10765       L1     8  0.48

> <Gold.PLP.Chemscore.Internal.Correction>
0.3780

> <Gold.Rescore>
     Score         DG    S(hbond)    S(metal)    S(lipo)     H(rot)  DE(clash)    DE(int)     intcor
     14.34     -21.31       2.76        0.00     103.99       2.17       1.17       5.81       ----

> <Gold.Chemscore.Fitness>
14.3383

> <Gold.Chemscore.DG>
-21.3092

> <Gold.Chemscore.ZeroCoef>
-5.4800

> <Gold.Chemscore.Hbond>
2.7591

> <Gold.Chemscore.Metal>
0.0000

> <Gold.Chemscore.Lipo>
103.9938

> <Gold.Chemscore.Internal_Hbond>
0.0000

> <Gold.Chemscore.DEClash>
1.1651

> <Gold.Chemscore.DEInternal>
5.8058

> <Gold.Chemscore.Rot>
2.1693

> <Gold.Chemscore.Internal.Correction>
   9.000000E+99

> <Gold.Chemscore.Hbonds>
donor molecule, donor type, donor heavy atom, donor atom, acceptor molecule, acceptor atom, score
      L1  H    16    35       P1  7948  0.88
      P1  H  7989  7998       L1    19  0.82
      P1  H  7997  8009       L1     6  0.03
      P1  H 10752 10765       L1     8  0.35

> <Gold.Chemscore.Hbond.Weighted>
-9.2153

> <Gold.Chemscore.Metal.Weighted>
-0.0000

> <Gold.Chemscore.Lipo.Weighted>
-12.1673

> <Gold.Chemscore.Internal_Hbond.Weighted>
0.0000

> <Gold.Chemscore.DEClash.Weighted>
1.1651

> <Gold.Chemscore.DEInternal.Weighted>
5.8058

> <Gold.Chemscore.Rot.Weighted>
5.5533

> <Gold.Chemscore.Internal.Correction.Weighted>
   9.000000E+99

> <Gold.Protein.RotatedTorsions>
[ 6907 6896 6895 6894 ] final  125.41 input  -60.11 | X-H torsion
[ 7974 7965 7964 7962 ] final  168.17 input  175.53 | X-H torsion
[ 8008 7997 7996 7995 ] final   97.24 input   59.86 | X-H torsion
[ 10167 10162 10161 10158 ] final -117.03 input  -65.29 | X-H torsion
[ 10718 10713 10712 10709 ] final   22.81 input   66.30 | X-H torsion
[ 10763 10752 10751 10750 ] final -119.67 input  -60.55 | X-H torsion
[ 11005 11000 10999 10996 ] final  -37.50 input  -57.11 | X-H torsion

> <Gold.Protein.ActiveResidues>
 VAL166  LYS551  ARG553  GLY616  TRP617  ASP618  TYR619  PRO620  LYS621  CYS622 
 ASP623  PHE694  ASN695  SER759  ASP760  ASP761  ALA762  ILE779  LEU786  VAL792 
 PHE793  MET794  SER795  GLU796  ALA797  LYS798  CYS799  TRP800  GLU811  SER814 

> <Gold.Protein.RotatedAtoms>
  152.3994  133.6796  159.6303 H   0  0  0  0  0  0  0  0  0  0  0  0  # atno 6907 bound_to 6896
  150.7888  133.8817  159.3296 H   0  0  0  0  0  0  0  0  0  0  0  0  # atno 6908 bound_to 6896
  151.6586  135.0994  160.0226 H   0  0  0  0  0  0  0  0  0  0  0  0  # atno 6909 bound_to 6896
  144.7398  139.8868  143.6400 H   0  0  0  0  0  0  0  0  0  0  0  0  # atno 7974 bound_to 7965
  156.0881  140.3261  155.7779 H   0  0  0  0  0  0  0  0  0  0  0  0  # atno 8008 bound_to 7997
  155.5043  140.0572  157.2951 H   0  0  0  0  0  0  0  0  0  0  0  0  # atno 8009 bound_to 7997
  154.4621  140.1971  156.0233 H   0  0  0  0  0  0  0  0  0  0  0  0  # atno 8010 bound_to 7997
  140.0728  143.4861  152.1970 H   0  0  0  0  0  0  0  0  0  0  0  0  # atno 10167 bound_to 10162
  157.1574  130.6701  149.6032 H   0  0  0  0  0  0  0  0  0  0  0  0  # atno 10718 bound_to 10713
  154.8623  135.4230  154.2336 H   0  0  0  0  0  0  0  0  0  0  0  0  # atno 10763 bound_to 10752
  153.3316  135.6988  153.6949 H   0  0  0  0  0  0  0  0  0  0  0  0  # atno 10764 bound_to 10752
  153.5963  135.3545  155.2903 H   0  0  0  0  0  0  0  0  0  0  0  0  # atno 10765 bound_to 10752
  140.9956  133.6982  156.1929 H   0  0  0  0  0  0  0  0  0  0  0  0  # atno 11005 bound_to 11000
  146.1171  139.4184  143.0251 LP  0  0  0  0  0  0  0  0  0  0  0  0  # atno 17320 bound_to 7965
  145.7358  141.0026  143.1327 LP  0  0  0  0  0  0  0  0  0  0  0  0  # atno 17321 bound_to 7965
  139.5826  144.7517  151.3602 LP  0  0  0  0  0  0  0  0  0  0  0  0  # atno 17342 bound_to 10162
  140.7117  143.7373  150.7579 LP  0  0  0  0  0  0  0  0  0  0  0  0  # atno 17343 bound_to 10162
  155.9760  130.4723  150.6496 LP  0  0  0  0  0  0  0  0  0  0  0  0  # atno 17370 bound_to 10713
  157.4164  131.0831  151.1172 LP  0  0  0  0  0  0  0  0  0  0  0  0  # atno 17371 bound_to 10713
  140.6971  134.4604  157.5587 LP  0  0  0  0  0  0  0  0  0  0  0  0  # atno 17394 bound_to 11000
  139.9013  134.8549  156.1884 LP  0  0  0  0  0  0  0  0  0  0  0  0  # atno 17395 bound_to 11000

$$$$
