AV-unprocessed.smi:1644|AV-procd|sdf|6597|dock1
  -GOLD-   22720 7293D 1   1.00000     0.00000
 Structure written by MMmdl.
 49 51  0  0  0  0  0  0  0  0  3 V2000
  149.3553  131.8668  154.3535 C   0  0  0  0  0  0  0  0  0  0  0  0
  149.8053  133.2077  154.9441 C   0  0  0  0  0  0  0  0  0  0  0  0
  148.9805  133.6142  156.1761 C   0  0  0  0  0  0  0  0  0  0  0  0
  149.4185  134.9628  156.7861 C   0  0  1  0  0  0  0  0  0  0  0  0
  150.7395  134.8757  157.3749 N   0  5  0  0  0  0  0  0  0  0  0  0
  151.5481  135.7709  156.7617 C   0  0  0  0  0  0  0  0  0  0  0  0
  152.7389  135.9694  156.9992 O   0  0  0  0  0  0  0  0  0  0  0  0
  150.8838  136.4472  155.8057 N   0  0  0  0  0  0  0  0  0  0  0  0
  151.4738  137.4569  154.9200 C   0  0  0  0  0  0  0  0  0  0  0  0
  150.9608  138.8730  155.2545 C   0  0  2  0  0  0  0  0  0  0  0  0
  150.5489  139.4980  154.0546 O   0  0  0  0  0  0  0  0  0  0  0  0
  152.0543  139.7375  155.9118 C   0  0  0  0  0  0  0  0  0  0  0  0
  151.5334  141.0038  156.4467 N   0  0  0  0  0  0  0  0  0  0  0  0
  150.6914  141.9047  155.8725 C   0  0  0  0  0  0  0  0  0  0  0  0
  150.5035  142.9177  156.7630 N   0  3  0  0  0  0  0  0  0  0  0  0
  151.2406  142.6618  157.9212 C   0  0  0  0  0  0  0  0  0  0  0  0
  151.3731  143.3940  159.0950 C   0  0  0  0  0  0  0  0  0  0  0  0
  152.2123  142.8590  160.0982 C   0  0  0  0  0  0  0  0  0  0  0  0
  152.3803  143.6356  161.3930 C   0  0  0  0  0  0  0  0  0  0  0  0
  152.8861  141.6254  159.9047 C   0  0  0  0  0  0  0  0  0  0  0  0
  153.7897  141.0616  160.9880 C   0  0  0  0  0  0  0  0  0  0  0  0
  152.7362  140.8946  158.7042 C   0  0  0  0  0  0  0  0  0  0  0  0
  151.9050  141.4356  157.7257 C   0  0  0  0  0  0  0  0  0  0  0  0
  149.6161  136.0299  155.7287 C   0  0  0  0  0  0  0  0  0  0  0  0
  148.7449  136.4106  154.9454 O   0  0  0  0  0  0  0  0  0  0  0  0
  149.9592  131.6026  153.4851 H   0  0  0  0  0  0  0  0  0  0  0  0
  148.3134  131.9072  154.0348 H   0  0  0  0  0  0  0  0  0  0  0  0
  149.4525  131.0631  155.0839 H   0  0  0  0  0  0  0  0  0  0  0  0
  150.8598  133.1446  155.2148 H   0  0  0  0  0  0  0  0  0  0  0  0
  149.7295  133.9795  154.1774 H   0  0  0  0  0  0  0  0  0  0  0  0
  147.9212  133.6456  155.9147 H   0  0  0  0  0  0  0  0  0  0  0  0
  149.0804  132.8301  156.9281 H   0  0  0  0  0  0  0  0  0  0  0  0
  148.6671  135.3169  157.4932 H   0  0  0  0  0  0  0  0  0  0  0  0
  152.5573  137.4214  155.0467 H   0  0  0  0  0  0  0  0  0  0  0  0
  151.3042  137.2146  153.8692 H   0  0  0  0  0  0  0  0  0  0  0  0
  150.1067  138.8145  155.9309 H   0  0  0  0  0  0  0  0  0  0  0  0
  149.7399  139.0973  153.7727 H   0  0  0  0  0  0  0  0  0  0  0  0
  152.4946  139.1988  156.7517 H   0  0  0  0  0  0  0  0  0  0  0  0
  152.8715  139.9431  155.2198 H   0  0  0  0  0  0  0  0  0  0  0  0
  150.2525  141.8288  154.8880 H   0  0  0  0  0  0  0  0  0  0  0  0
  150.8582  144.3334  159.2346 H   0  0  0  0  0  0  0  0  0  0  0  0
  152.0186  143.0510  162.2392 H   0  0  0  0  0  0  0  0  0  0  0  0
  151.8223  144.5723  161.3716 H   0  0  0  0  0  0  0  0  0  0  0  0
  153.4297  143.8779  161.5619 H   0  0  0  0  0  0  0  0  0  0  0  0
  154.2146  140.1013  160.6939 H   0  0  0  0  0  0  0  0  0  0  0  0
  153.2322  140.9094  161.9125 H   0  0  0  0  0  0  0  0  0  0  0  0
  154.6162  141.7432  161.1896 H   0  0  0  0  0  0  0  0  0  0  0  0
  153.2554  139.9597  158.5534 H   0  0  0  0  0  0  0  0  0  0  0  0
  149.9171  143.7241  156.5900 H   0  0  0  0  0  0  0  0  0  0  0  0
  1  2  1  0  0  0  0
  1 26  1  0  0  0  0
  1 27  1  0  0  0  0
  1 28  1  0  0  0  0
  2  3  1  0  0  0  0
  2 29  1  0  0  0  0
  2 30  1  0  0  0  0
  3  4  1  0  0  0  0
  3 31  1  0  0  0  0
  3 32  1  0  0  0  0
  4 24  1  0  0  0  0
  4  5  1  0  0  0  0
  4 33  1  0  0  0  0
  5  6  1  0  0  0  0
  6  7  2  0  0  0  0
  6  8  1  0  0  0  0
  8  9  1  0  0  0  0
  8 24  1  0  0  0  0
  9 10  1  0  0  0  0
  9 34  1  0  0  0  0
  9 35  1  0  0  0  0
 10 11  1  0  0  0  0
 10 12  1  0  0  0  0
 10 36  1  0  0  0  0
 11 37  1  0  0  0  0
 12 13  1  0  0  0  0
 12 38  1  0  0  0  0
 12 39  1  0  0  0  0
 13 23  1  0  0  0  0
 13 14  1  0  0  0  0
 14 15  2  0  0  0  0
 14 40  1  0  0  0  0
 15 16  1  0  0  0  0
 15 49  1  0  0  0  0
 16 23  2  0  0  0  0
 16 17  1  0  0  0  0
 17 18  2  0  0  0  0
 17 41  1  0  0  0  0
 18 19  1  0  0  0  0
 18 20  1  0  0  0  0
 19 42  1  0  0  0  0
 19 43  1  0  0  0  0
 19 44  1  0  0  0  0
 20 21  1  0  0  0  0
 20 22  2  0  0  0  0
 21 45  1  0  0  0  0
 21 46  1  0  0  0  0
 21 47  1  0  0  0  0
 22 23  1  0  0  0  0
 22 48  1  0  0  0  0
 24 25  2  0  0  0  0
M  CHG  1   5  -1
M  CHG  1  15   1
M  END
> <s_m_source_file>
AV-unprocessed.smi

> <i_m_source_file_index>
1644

> <i_lp_mmshare_version>
43012

> <i_f3d_flags>
0

> <s_epik_input>
W0NIM11bQ0gyXVtDSDJdW0NAQEhdMVtOSF1DKD1PKU4oQzE9TylbQ0gyXVtDQEhdKFtPSF0pW0NIMl1uKFtjSF1uMiljKGMyMylbY0hdYyhbQ0gzXSljKFtjSF0zKVtDSDNd

> <s_epik_cmdline>
J2VwaWtfcHl0aG9uJywgJy1waCcsICc3LjAnLCAnLXRuJywgJzgnLCAnLW1hJywgJzIwMCcsICctbWV0YWxfYmluZGluZycsICctaW1hZScsICc8aW5maWxlLm1hZT4nLCAnLW9tYWUnLCAnPG91dGZpbGUubWFlPic=

> <r_lp_tautomer_probability>
1

> <r_epik_Ionization_Penalty>
6.86868

> <r_epik_Ionization_Penalty_Charging>
6.86868

> <r_epik_Ionization_Penalty_Neutral>
5.84798e-07

> <r_epik_State_Penalty>
6.92818

> <r_epik_Charging_Adjusted_Penalty>
13.7969

> <i_epik_Tot_Q>
0

> <i_epik_Tot_abs_Q>
2

> <r_epik_Metal_State_Penalty>
2.98017

> <b_epik_Metal_Only>
1

> <s_lp_Force_Field>
OPLS_2005

> <r_lp_Energy>
23.8384

> <b_lp_Chiralities_Consistent>
1

> <s_lp_Variant>
AV-unprocessed.smi:1644-14

> <Gold.Version>
5.8.1

> <Gold.Id.Protein>
6NUR|6NUR_protein|mol2

> <Gold.PLP.Fitness>
60.4334

> <Gold.PLP.PLP>
-48.3771

> <Gold.PLP.part.hbond>
-4.9401

> <Gold.PLP.part.metal>
0.0000

> <Gold.PLP.part.buried>
-7.3233

> <Gold.PLP.part.nonpolar>
-37.3165

> <Gold.PLP.part.repulsive>
0.1625

> <Gold.PLP.ligand.clash>
0.0000

> <Gold.PLP.ligand.torsion>
1.0922

> <Gold.PLP.Chemscore.Hbond>
4.7176

> <Gold.PLP.Chemscore.CHOScore>
0.0000

> <Gold.PLP.Chemscore.Metal>
0.0000

> <Gold.Chemscore.Hbonds>
donor molecule, donor type, donor heavy atom, donor atom, acceptor molecule, acceptor atom, score
      L1  H    15    49       P1  8028  2.00
      P1  H  6896  6907       L1     5  0.70
      P1  H  7989  7998       L1    11  1.00
      P1  H 10752 10764       L1     7  0.95

> <Gold.PLP.Chemscore.Internal.Correction>
0.0879

> <Gold.Rescore>
     Score         DG    S(hbond)    S(metal)    S(lipo)     H(rot)  DE(clash)    DE(int)     intcor
     21.04     -23.04       3.50        0.00     109.76       2.72       0.03       1.96       ----

> <Gold.Chemscore.Fitness>
21.0444

> <Gold.Chemscore.DG>
-23.0395

> <Gold.Chemscore.ZeroCoef>
-5.4800

> <Gold.Chemscore.Hbond>
3.5006

> <Gold.Chemscore.Metal>
0.0000

> <Gold.Chemscore.Lipo>
109.7636

> <Gold.Chemscore.Internal_Hbond>
0.0000

> <Gold.Chemscore.DEClash>
0.0344

> <Gold.Chemscore.DEInternal>
1.9607

> <Gold.Chemscore.Rot>
2.7245

> <Gold.Chemscore.Internal.Correction>
   9.000000E+99

> <Gold.Chemscore.Hbonds>
donor molecule, donor type, donor heavy atom, donor atom, acceptor molecule, acceptor atom, score
      L1  H    15    49       P1  8028  0.98
      P1  H  6896  6907       L1     5  0.29
      P1  H  7989  7998       L1    11  0.90
      P1  H 10752 10764       L1     7  0.21

> <Gold.Chemscore.Hbond.Weighted>
-11.6919

> <Gold.Chemscore.Metal.Weighted>
-0.0000

> <Gold.Chemscore.Lipo.Weighted>
-12.8423

> <Gold.Chemscore.Internal_Hbond.Weighted>
0.0000

> <Gold.Chemscore.DEClash.Weighted>
0.0344

> <Gold.Chemscore.DEInternal.Weighted>
1.9607

> <Gold.Chemscore.Rot.Weighted>
6.9748

> <Gold.Chemscore.Internal.Correction.Weighted>
   9.000000E+99

> <Gold.Protein.RotatedTorsions>
[ 6907 6896 6895 6894 ] final  -98.49 input  -60.11 | X-H torsion
[ 7974 7965 7964 7962 ] final -172.35 input  175.53 | X-H torsion
[ 8008 7997 7996 7995 ] final   68.52 input   59.86 | X-H torsion
[ 10167 10162 10161 10158 ] final  -57.53 input  -65.29 | X-H torsion
[ 10718 10713 10712 10709 ] final  -69.96 input   66.30 | X-H torsion
[ 10763 10752 10751 10750 ] final   -4.00 input  -60.55 | X-H torsion
[ 11005 11000 10999 10996 ] final  -69.77 input  -57.11 | X-H torsion

> <Gold.Protein.ActiveResidues>
 VAL166  LYS551  ARG553  GLY616  TRP617  ASP618  TYR619  PRO620  LYS621  CYS622 
 ASP623  PHE694  ASN695  SER759  ASP760  ASP761  ALA762  ILE779  LEU786  VAL792 
 PHE793  MET794  SER795  GLU796  ALA797  LYS798  CYS799  TRP800  GLU811  SER814 

> <Gold.Protein.RotatedAtoms>
  150.7049  134.1186  159.4026 H   0  0  0  0  0  0  0  0  0  0  0  0  # atno 6907 bound_to 6896
  151.9172  135.0311  160.0528 H   0  0  0  0  0  0  0  0  0  0  0  0  # atno 6908 bound_to 6896
  152.2286  133.5005  159.5240 H   0  0  0  0  0  0  0  0  0  0  0  0  # atno 6909 bound_to 6896
  144.7147  140.1786  143.6360 H   0  0  0  0  0  0  0  0  0  0  0  0  # atno 7974 bound_to 7965
  155.7096  140.3494  155.4968 H   0  0  0  0  0  0  0  0  0  0  0  0  # atno 8008 bound_to 7997
  155.9368  140.1094  157.1110 H   0  0  0  0  0  0  0  0  0  0  0  0  # atno 8009 bound_to 7997
  154.4095  140.1220  156.4861 H   0  0  0  0  0  0  0  0  0  0  0  0  # atno 8010 bound_to 7997
  140.6252  143.2435  151.5381 H   0  0  0  0  0  0  0  0  0  0  0  0  # atno 10167 bound_to 10162
  156.0430  130.4322  150.2225 H   0  0  0  0  0  0  0  0  0  0  0  0  # atno 10718 bound_to 10713
  153.3789  135.6997  153.6580 H   0  0  0  0  0  0  0  0  0  0  0  0  # atno 10763 bound_to 10752
  153.5199  135.3614  155.2627 H   0  0  0  0  0  0  0  0  0  0  0  0  # atno 10764 bound_to 10752
  154.8690  135.4155  154.3083 H   0  0  0  0  0  0  0  0  0  0  0  0  # atno 10765 bound_to 10752
  141.1561  133.6773  156.6650 H   0  0  0  0  0  0  0  0  0  0  0  0  # atno 11005 bound_to 11000
  145.8877  139.2358  143.1568 LP  0  0  0  0  0  0  0  0  0  0  0  0  # atno 17320 bound_to 7965
  145.9933  140.8583  143.0055 LP  0  0  0  0  0  0  0  0  0  0  0  0  # atno 17321 bound_to 7965
  139.5473  144.2486  152.1467 LP  0  0  0  0  0  0  0  0  0  0  0  0  # atno 17342 bound_to 10162
  140.1716  144.4930  150.6576 LP  0  0  0  0  0  0  0  0  0  0  0  0  # atno 17343 bound_to 10162
  157.0318  131.0009  151.3310 LP  0  0  0  0  0  0  0  0  0  0  0  0  # atno 17370 bound_to 10713
  157.5272  130.8035  149.7875 LP  0  0  0  0  0  0  0  0  0  0  0  0  # atno 17371 bound_to 10713
  140.3218  134.8001  157.4258 LP  0  0  0  0  0  0  0  0  0  0  0  0  # atno 17394 bound_to 11000
  140.1090  134.5371  155.8283 LP  0  0  0  0  0  0  0  0  0  0  0  0  # atno 17395 bound_to 11000

$$$$
