AV-unprocessed.smi:2450|AV-procd|sdf|9666|dock1
  -GOLD-   2272013303D 1   1.00000     0.00000
 Structure written by MMmdl.
 41 42  0  0  0  0  0  0  0  0  1 V2000
  144.4192  133.4332  150.4382 C   0  0  0  0  0  0  0  0  0  0  0  0
  145.5758  134.3518  150.8579 C   0  0  0  0  0  0  0  0  0  0  0  0
  145.1237  135.7012  151.4511 C   0  0  1  0  0  0  0  0  0  0  0  0
  144.1190  135.5046  152.5949 C   0  0  0  0  0  0  0  0  0  0  0  0
  146.2682  136.4627  151.9498 N   0  0  0  0  0  0  0  0  0  0  0  0
  146.2255  137.6955  152.4760 C   0  0  0  0  0  0  0  0  0  0  0  0
  145.1944  138.3593  152.5831 O   0  0  0  0  0  0  0  0  0  0  0  0
  147.4514  138.1052  152.8422 N   0  0  0  0  0  0  0  0  0  0  0  0
  147.8324  139.3581  153.4006 C   0  0  0  0  0  0  0  0  0  0  0  0
  147.0024  140.5010  153.2930 C   0  0  0  0  0  0  0  0  0  0  0  0
  147.3889  141.6968  153.9223 C   0  0  0  0  0  0  0  0  0  0  0  0
  148.5881  141.7050  154.6533 C   0  0  0  0  0  0  0  0  0  0  0  0
  149.3824  140.6231  154.7773 N   0  0  0  0  0  0  0  0  0  0  0  0
  149.0303  139.4658  154.1643 C   0  0  0  0  0  0  0  0  0  0  0  0
  149.9091  138.3690  154.3196 N   0  0  0  0  0  0  0  0  0  0  0  0
  149.4660  137.1567  154.9995 C   0  0  0  0  0  0  0  0  0  0  0  0
  150.7464  136.3840  155.3015 C   0  0  0  0  0  0  0  0  0  0  0  0
  151.7369  137.5033  155.6081 C   0  0  0  0  0  0  0  0  0  0  0  0
  151.2960  138.6445  154.6848 C   0  0  0  0  0  0  0  0  0  0  0  0
  144.7967  132.4725  150.0879 H   0  0  0  0  0  0  0  0  0  0  0  0
  143.8327  133.8689  149.6294 H   0  0  0  0  0  0  0  0  0  0  0  0
  143.7469  133.2409  151.2749 H   0  0  0  0  0  0  0  0  0  0  0  0
  146.1816  133.8250  151.5961 H   0  0  0  0  0  0  0  0  0  0  0  0
  146.2281  134.5239  150.0008 H   0  0  0  0  0  0  0  0  0  0  0  0
  144.6137  136.2648  150.6680 H   0  0  0  0  0  0  0  0  0  0  0  0
  143.2347  134.9667  152.2516 H   0  0  0  0  0  0  0  0  0  0  0  0
  143.7853  136.4632  152.9940 H   0  0  0  0  0  0  0  0  0  0  0  0
  144.5565  134.9354  153.4161 H   0  0  0  0  0  0  0  0  0  0  0  0
  147.1672  136.0063  151.8974 H   0  0  0  0  0  0  0  0  0  0  0  0
  148.2156  137.4899  152.6040 H   0  0  0  0  0  0  0  0  0  0  0  0
  146.0644  140.4745  152.7599 H   0  0  0  0  0  0  0  0  0  0  0  0
  146.7734  142.5816  153.8568 H   0  0  0  0  0  0  0  0  0  0  0  0
  148.9158  142.6017  155.1583 H   0  0  0  0  0  0  0  0  0  0  0  0
  148.9610  137.4002  155.9353 H   0  0  0  0  0  0  0  0  0  0  0  0
  148.7803  136.5796  154.3784 H   0  0  0  0  0  0  0  0  0  0  0  0
  150.6323  135.6753  156.1222 H   0  0  0  0  0  0  0  0  0  0  0  0
  151.0683  135.8330  154.4166 H   0  0  0  0  0  0  0  0  0  0  0  0
  151.6284  137.8117  156.6490 H   0  0  0  0  0  0  0  0  0  0  0  0
  152.7749  137.2087  155.4519 H   0  0  0  0  0  0  0  0  0  0  0  0
  151.9055  138.6455  153.7806 H   0  0  0  0  0  0  0  0  0  0  0  0
  151.4090  139.6153  155.1698 H   0  0  0  0  0  0  0  0  0  0  0  0
  1  2  1  0  0  0  0
  1 20  1  0  0  0  0
  1 21  1  0  0  0  0
  1 22  1  0  0  0  0
  2  3  1  0  0  0  0
  2 23  1  0  0  0  0
  2 24  1  0  0  0  0
  3  4  1  0  0  0  0
  3  5  1  0  0  0  0
  3 25  1  0  0  0  0
  4 26  1  0  0  0  0
  4 27  1  0  0  0  0
  4 28  1  0  0  0  0
  5  6  1  0  0  0  0
  5 29  1  0  0  0  0
  6  7  2  0  0  0  0
  6  8  1  0  0  0  0
  8  9  1  0  0  0  0
  8 30  1  0  0  0  0
  9 14  1  0  0  0  0
  9 10  2  0  0  0  0
 10 11  1  0  0  0  0
 10 31  1  0  0  0  0
 11 12  2  0  0  0  0
 11 32  1  0  0  0  0
 12 13  1  0  0  0  0
 12 33  1  0  0  0  0
 13 14  2  0  0  0  0
 14 15  1  0  0  0  0
 15 19  1  0  0  0  0
 15 16  1  0  0  0  0
 16 17  1  0  0  0  0
 16 34  1  0  0  0  0
 16 35  1  0  0  0  0
 17 18  1  0  0  0  0
 17 36  1  0  0  0  0
 17 37  1  0  0  0  0
 18 19  1  0  0  0  0
 18 38  1  0  0  0  0
 18 39  1  0  0  0  0
 19 40  1  0  0  0  0
 19 41  1  0  0  0  0
M  END
> <s_m_source_file>
AV-unprocessed.smi

> <i_m_source_file_index>
2450

> <i_lp_mmshare_version>
43012

> <i_f3d_flags>
0

> <s_epik_input>
W0NIM11bQ0gyXVtDQEhdKFtDSDNdKVtOSF1DKD1PKVtOSF1jMVtjSF1bY0hdW2NIXW5jMU4yW0NIMl1bQ0gyXVtDSDJdW0NIMl0y

> <s_epik_cmdline>
J2VwaWtfcHl0aG9uJywgJy1waCcsICc3LjAnLCAnLXRuJywgJzgnLCAnLW1hJywgJzIwMCcsICctbWV0YWxfYmluZGluZycsICctaW1hZScsICc8aW5maWxlLm1hZT4nLCAnLW9tYWUnLCAnPG91dGZpbGUubWFlPic=

> <r_lp_tautomer_probability>
1

> <r_epik_Ionization_Penalty>
0.103391

> <r_epik_Ionization_Penalty_Charging>
0

> <r_epik_Ionization_Penalty_Neutral>
0.103391

> <r_epik_State_Penalty>
0.0927616

> <r_epik_Charging_Adjusted_Penalty>
0.0927616

> <i_epik_Tot_Q>
0

> <i_epik_Tot_abs_Q>
0

> <r_epik_Metal_State_Penalty>
0.0789158

> <b_epik_Metal_Only>
0

> <s_lp_Force_Field>
OPLS_2005

> <r_lp_Energy>
32.3159

> <b_lp_Chiralities_Consistent>
1

> <s_lp_Variant>
AV-unprocessed.smi:2450-2

> <Gold.Version>
5.8.1

> <Gold.Id.Protein>
6NUR|6NUR_protein|mol2

> <Gold.PLP.Fitness>
37.0677

> <Gold.PLP.PLP>
-28.7566

> <Gold.PLP.part.hbond>
-2.0179

> <Gold.PLP.part.metal>
0.0000

> <Gold.PLP.part.buried>
-2.5190

> <Gold.PLP.part.nonpolar>
-28.7388

> <Gold.PLP.part.repulsive>
4.2863

> <Gold.PLP.ligand.clash>
0.0000

> <Gold.PLP.ligand.torsion>
0.4346

> <Gold.PLP.Chemscore.Hbond>
1.9440

> <Gold.PLP.Chemscore.CHOScore>
1.0000

> <Gold.PLP.Chemscore.Metal>
0.0000

> <Gold.Chemscore.Hbonds>
donor molecule, donor type, donor heavy atom, donor atom, acceptor molecule, acceptor atom, score
      L1  H     5    29       P1  7948  0.93
      L1  H     8    30       P1  7948  1.00
      L1  C    12    33       P1  8028  1.00

> <Gold.PLP.Chemscore.Internal.Correction>
0.3483

> <Gold.Rescore>
     Score         DG    S(hbond)    S(metal)    S(lipo)     H(rot)  DE(clash)    DE(int)     intcor
     14.38     -17.03       1.92        0.00      72.77       1.32       0.94       1.72       ----

> <Gold.Chemscore.Fitness>
14.3810

> <Gold.Chemscore.DG>
-17.0341

> <Gold.Chemscore.ZeroCoef>
-5.4800

> <Gold.Chemscore.Hbond>
1.9189

> <Gold.Chemscore.Metal>
0.0000

> <Gold.Chemscore.Lipo>
72.7735

> <Gold.Chemscore.Internal_Hbond>
0.0000

> <Gold.Chemscore.DEClash>
0.9373

> <Gold.Chemscore.DEInternal>
1.7158

> <Gold.Chemscore.Rot>
1.3163

> <Gold.Chemscore.Internal.Correction>
   9.000000E+99

> <Gold.Chemscore.Hbonds>
donor molecule, donor type, donor heavy atom, donor atom, acceptor molecule, acceptor atom, score
      L1  H     5    29       P1  7948  0.91
      L1  H     8    30       P1  7948  0.98

> <Gold.Chemscore.Hbond.Weighted>
-6.4092

> <Gold.Chemscore.Metal.Weighted>
-0.0000

> <Gold.Chemscore.Lipo.Weighted>
-8.5145

> <Gold.Chemscore.Internal_Hbond.Weighted>
0.0000

> <Gold.Chemscore.DEClash.Weighted>
0.9373

> <Gold.Chemscore.DEInternal.Weighted>
1.7158

> <Gold.Chemscore.Rot.Weighted>
3.3696

> <Gold.Chemscore.Internal.Correction.Weighted>
   9.000000E+99

> <Gold.Protein.RotatedTorsions>
[ 6907 6896 6895 6894 ] final  -47.11 input  -60.11 | X-H torsion
[ 7974 7965 7964 7962 ] final -148.48 input  175.53 | X-H torsion
[ 8008 7997 7996 7995 ] final   94.70 input   59.86 | X-H torsion
[ 10167 10162 10161 10158 ] final  -48.86 input  -65.29 | X-H torsion
[ 10718 10713 10712 10709 ] final  -27.81 input   66.30 | X-H torsion
[ 10763 10752 10751 10750 ] final   90.05 input  -60.55 | X-H torsion
[ 11005 11000 10999 10996 ] final  159.08 input  -57.11 | X-H torsion

> <Gold.Protein.ActiveResidues>
 VAL166  LYS551  ARG553  GLY616  TRP617  ASP618  TYR619  PRO620  LYS621  CYS622 
 ASP623  PHE694  ASN695  SER759  ASP760  ASP761  ALA762  ILE779  LEU786  VAL792 
 PHE793  MET794  SER795  GLU796  ALA797  LYS798  CYS799  TRP800  GLU811  SER814 

> <Gold.Protein.RotatedAtoms>
  150.9042  134.8456  159.7380 H   0  0  0  0  0  0  0  0  0  0  0  0  # atno 6907 bound_to 6896
  152.4909  134.4457  159.9568 H   0  0  0  0  0  0  0  0  0  0  0  0  # atno 6908 bound_to 6896
  151.4506  133.3579  159.2830 H   0  0  0  0  0  0  0  0  0  0  0  0  # atno 6909 bound_to 6896
  144.8027  140.5191  143.5696 H   0  0  0  0  0  0  0  0  0  0  0  0  # atno 7974 bound_to 7965
  156.0608  140.3296  155.7459 H   0  0  0  0  0  0  0  0  0  0  0  0  # atno 8008 bound_to 7997
  155.5458  140.0606  157.2878 H   0  0  0  0  0  0  0  0  0  0  0  0  # atno 8009 bound_to 7997
  154.4480  140.1903  156.0625 H   0  0  0  0  0  0  0  0  0  0  0  0  # atno 8010 bound_to 7997
  140.6712  143.2722  151.4131 H   0  0  0  0  0  0  0  0  0  0  0  0  # atno 10167 bound_to 10162
  156.4334  130.4449  149.7102 H   0  0  0  0  0  0  0  0  0  0  0  0  # atno 10718 bound_to 10713
  153.1935  135.4448  155.0178 H   0  0  0  0  0  0  0  0  0  0  0  0  # atno 10763 bound_to 10752
  154.8104  135.3292  154.7322 H   0  0  0  0  0  0  0  0  0  0  0  0  # atno 10764 bound_to 10752
  153.7773  135.6980  153.4950 H   0  0  0  0  0  0  0  0  0  0  0  0  # atno 10765 bound_to 10752
  140.1927  134.8395  157.2930 H   0  0  0  0  0  0  0  0  0  0  0  0  # atno 11005 bound_to 11000
  145.5514  139.1477  143.3392 LP  0  0  0  0  0  0  0  0  0  0  0  0  # atno 17320 bound_to 7965
  146.2312  140.5652  142.8974 LP  0  0  0  0  0  0  0  0  0  0  0  0  # atno 17321 bound_to 7965
  139.5981  144.1354  152.2167 LP  0  0  0  0  0  0  0  0  0  0  0  0  # atno 17342 bound_to 10162
  140.0729  144.5764  150.7178 LP  0  0  0  0  0  0  0  0  0  0  0  0  # atno 17343 bound_to 10162
  156.3996  130.7668  151.2675 LP  0  0  0  0  0  0  0  0  0  0  0  0  # atno 17370 bound_to 10713
  157.7508  131.0244  150.3874 LP  0  0  0  0  0  0  0  0  0  0  0  0  # atno 17371 bound_to 10713
  140.2141  134.4102  155.7598 LP  0  0  0  0  0  0  0  0  0  0  0  0  # atno 17394 bound_to 11000
  141.2226  133.7133  156.8386 LP  0  0  0  0  0  0  0  0  0  0  0  0  # atno 17395 bound_to 11000

$$$$
