#       Name:                AV-unprocessed.smi:39
#       Creating user name   scv26
#       Creation time:       Thu Mar 26 16:19:23 2020


#       File generated by GOLD software.
#

@<TRIPOS>MOLECULE
AV-unprocessed.smi:39
    42    43     1
SMALL
NO_CHARGES


@<TRIPOS>ATOM
      1 ****        -3.5615   1.5378   0.6302 C.3            1 S1                 0.0000
      2 ****        -2.8028   0.2212   0.6531 C.2            1 S1                 0.0000
      3 ****        -1.4461   0.1620   0.6448 C.2            1 S1                 0.0000
      4 ****        -0.7267  -1.0251   0.6641 N.am           1 S1                 0.0000
      5 ****         0.7837  -1.0408   0.6412 C.3            1 S1                 0.0000
      6 ****         1.3045  -1.0506  -0.7931 C.3            1 S1                 0.0000
      7 ****         2.6230  -0.3246  -0.6170 C.3            1 S1                 0.0000
      8 ****         3.1620   0.2164  -1.8685 N.2            1 S1                 0.0000
      9 ****         3.6651  -0.5983  -2.6533 N.1            1 S1                 1.0000
     10 ****         4.0092  -1.3873  -3.3978 N.1            1 S1                -1.0000
     11 ****         2.2671   0.7403   0.4376 C.3            1 S1                 0.0000
     12 ****         1.6782   2.0640  -0.0966 C.3            1 S1                 0.0000
     13 ****         2.7028   2.9443  -0.5096 O.3            1 S1                 0.0000
     14 ****         1.2758   0.1146   1.2567 O.3            1 S1                 0.0000
     15 ****        -1.4200  -2.2528   0.6616 C.2            1 S1                 0.0000
     16 ****        -0.8494  -3.3429   0.6425 O.2            1 S1                 0.0000
     17 ****        -2.8125  -2.1934   0.6753 N.am           1 S1                 0.0000
     18 ****        -3.5762  -1.0236   0.6775 C.2            1 S1                 0.0000
     19 ****        -4.8037  -1.0996   0.6952 O.2            1 S1                 0.0000
     20 ****         1.1135  -1.8984   1.2309 H              1 S1                 0.0000
     21 ****         3.3380  -1.0147  -0.1630 H              1 S1                 0.0000
     22 ****         3.1325   0.9586   1.0647 H              1 S1                 0.0000
     23 ****        -3.3128  -3.0704   0.6792 H              1 S1                 0.0000
     24 ****        -2.8867   2.3942   0.6197 H              1 S1                 0.0000
     25 ****        -4.1996   1.6263   1.5102 H              1 S1                 0.0000
     26 ****        -4.1922   1.5984  -0.2575 H              1 S1                 0.0000
     27 ****        -0.9051   1.0948   0.6164 H              1 S1                 0.0000
     28 ****         1.4036  -2.0689  -1.1705 H              1 S1                 0.0000
     29 ****         0.6272  -0.4901  -1.4398 H              1 S1                 0.0000
     30 ****         0.9774   1.8933  -0.9139 H              1 S1                 0.0000
     31 ****         1.1262   2.5688   0.6966 H              1 S1                 0.0000
     32 ****         2.3058   3.7452  -0.8159 H              1 S1                 0.0000
     33 ****         3.1251   1.1936  -2.0776 LP             1 S1                 0.0000
     34 ****         4.3115  -2.0805  -4.0520 LP             1 S1                 0.0000
     35 ****         3.2297   2.5251  -1.2489 LP             1 S1                 0.0000
     36 ****         3.3086   3.1417   0.2611 LP             1 S1                 0.0000
     37 ****         1.6836  -0.1302   2.1363 LP             1 S1                 0.0000
     38 ****         0.5215   0.7541   1.4054 LP             1 S1                 0.0000
     39 ****         0.1496  -3.3841   0.6278 LP             1 S1                 0.0000
     40 ****        -1.3848  -4.1875   0.6416 LP             1 S1                 0.0000
     41 ****        -5.3563  -0.2661   0.6935 LP             1 S1                 0.0000
     42 ****        -5.2491  -1.9948   0.7112 LP             1 S1                 0.0000
@<TRIPOS>BOND
    1    1    2 1     
    2    1   24 1     
    3    1   25 1     
    4    1   26 1     
    5    2   18 1     
    6    2    3 2     
    7    3    4 1     
    8    3   27 1     
    9    4    5 1     
   10    4   15 1     
   11    5   20 1     
   12    5   14 1     
   13    5    6 1     
   14    6    7 1     
   15    6   28 1     
   16    6   29 1     
   17    7   21 1     
   18    7    8 1     
   19    7   11 1     
   20    8    9 2     
   21    9   10 2     
   22   11   22 1     
   23   11   12 1     
   24   11   14 1     
   25   12   13 1     
   26   12   30 1     
   27   12   31 1     
   28   13   32 1     
   29   15   16 2     
   30   15   17 1     
   31   17   23 1     
   32   17   18 1     
   33   18   19 2     
   34    8   33 1     
   35   10   34 1     
   36   13   35 1     
   37   13   36 1     
   38   14   37 1     
   39   14   38 1     
   40   16   39 1     
   41   16   40 1     
   42   19   41 1     
   43   19   42 1     
@<TRIPOS>SUBSTRUCTURE
      1 S1             1
@<TRIPOS>SET
LONE_PAIRS      STATIC     ATOMS    <user>   **** ""
10 33 34 35 36 37 38 39 40 41 42
DONOR_HYDROGENS      STATIC     ATOMS    <user>   **** ""
2 32 23
ATOM$BLUE        STATIC     ATOMS    COLORGROUP SYSTEM
10 33 34 35 36 37 38 39 40 41 42
ATOM$RED        STATIC     ATOMS    COLORGROUP SYSTEM
2 32 23
