AV-unprocessed.smi:1230|AV-procd|sdf|5159|dock2
  -GOLD-   22720 4233D 1   1.00000     0.00000
 Structure written by MMmdl.
 39 40  0  0  0  0  0  0  0  0  1 V2000
  153.2914  141.1851  159.9122 C   0  0  0  0  0  0  0  0  0  0  0  0
  152.3424  142.3924  159.8345 C   0  0  1  0  0  0  0  0  0  0  0  0
  152.9201  143.5882  160.6180 C   0  0  0  0  0  0  0  0  0  0  0  0
  151.9966  144.8139  160.5521 C   0  0  0  0  0  0  0  0  0  0  0  0
  151.7108  145.2100  159.0971 C   0  0  0  0  0  0  0  0  0  0  0  0
  151.1234  144.0294  158.3098 C   0  0  0  0  0  0  0  0  0  0  0  0
  152.0426  142.7908  158.3715 C   0  0  2  0  0  0  0  0  0  0  0  0
  151.3984  141.6895  157.7423 O   0  0  0  0  0  0  0  0  0  0  0  0
  151.1690  141.8593  156.3521 C   0  0  0  0  0  0  0  0  0  0  0  0
  151.0746  140.4708  155.7021 C   0  0  0  0  0  0  0  0  0  0  0  0
  149.8626  140.2893  154.9431 N   0  0  0  0  0  0  0  0  0  0  0  0
  148.8088  141.1888  154.9991 C   0  0  0  0  0  0  0  0  0  0  0  0
  147.6599  141.0157  154.3037 C   0  0  0  0  0  0  0  0  0  0  0  0
  146.5840  141.9486  154.3731 C   0  0  0  0  0  0  0  0  0  0  0  0
  145.7257  142.7217  154.4433 N   0  0  0  0  0  0  0  0  0  0  0  0
  147.4742  139.8463  153.4462 C   0  0  0  0  0  0  0  0  0  0  0  0
  146.4737  139.6006  152.7751 O   0  0  0  0  0  0  0  0  0  0  0  0
  148.5607  138.9655  153.4300 N   0  0  0  0  0  0  0  0  0  0  0  0
  149.7504  139.1276  154.1431 C   0  0  0  0  0  0  0  0  0  0  0  0
  150.6369  138.2775  154.0583 O   0  0  0  0  0  0  0  0  0  0  0  0
  148.4765  138.1392  152.8556 H   0  0  0  0  0  0  0  0  0  0  0  0
  154.2488  141.4023  159.4376 H   0  0  0  0  0  0  0  0  0  0  0  0
  152.8659  140.3120  159.4170 H   0  0  0  0  0  0  0  0  0  0  0  0
  153.4891  140.9074  160.9479 H   0  0  0  0  0  0  0  0  0  0  0  0
  151.4017  142.1062  160.3076 H   0  0  0  0  0  0  0  0  0  0  0  0
  153.0786  143.3093  161.6603 H   0  0  0  0  0  0  0  0  0  0  0  0
  153.9001  143.8522  160.2178 H   0  0  0  0  0  0  0  0  0  0  0  0
  151.0589  144.5943  161.0640 H   0  0  0  0  0  0  0  0  0  0  0  0
  152.4511  145.6508  161.0829 H   0  0  0  0  0  0  0  0  0  0  0  0
  151.0218  146.0546  159.0703 H   0  0  0  0  0  0  0  0  0  0  0  0
  152.6323  145.5463  158.6203 H   0  0  0  0  0  0  0  0  0  0  0  0
  150.1427  143.7765  158.7150 H   0  0  0  0  0  0  0  0  0  0  0  0
  150.9591  144.3355  157.2771 H   0  0  0  0  0  0  0  0  0  0  0  0
  152.9891  143.0111  157.8737 H   0  0  0  0  0  0  0  0  0  0  0  0
  150.2528  142.4237  156.1802 H   0  0  0  0  0  0  0  0  0  0  0  0
  151.9910  142.4224  155.9074 H   0  0  0  0  0  0  0  0  0  0  0  0
  151.8982  140.3162  155.0034 H   0  0  0  0  0  0  0  0  0  0  0  0
  151.1359  139.6604  156.4318 H   0  0  0  0  0  0  0  0  0  0  0  0
  148.9014  142.0654  155.6248 H   0  0  0  0  0  0  0  0  0  0  0  0
  1  2  1  0  0  0  0
  1 22  1  0  0  0  0
  1 23  1  0  0  0  0
  1 24  1  0  0  0  0
  2  7  1  0  0  0  0
  2  3  1  0  0  0  0
  2 25  1  0  0  0  0
  3  4  1  0  0  0  0
  3 26  1  0  0  0  0
  3 27  1  0  0  0  0
  4  5  1  0  0  0  0
  4 28  1  0  0  0  0
  4 29  1  0  0  0  0
  5  6  1  0  0  0  0
  5 30  1  0  0  0  0
  5 31  1  0  0  0  0
  6  7  1  0  0  0  0
  6 32  1  0  0  0  0
  6 33  1  0  0  0  0
  7  8  1  0  0  0  0
  7 34  1  0  0  0  0
  8  9  1  0  0  0  0
  9 10  1  0  0  0  0
  9 35  1  0  0  0  0
  9 36  1  0  0  0  0
 10 11  1  0  0  0  0
 10 37  1  0  0  0  0
 10 38  1  0  0  0  0
 11 19  1  0  0  0  0
 11 12  1  0  0  0  0
 12 13  2  0  0  0  0
 12 39  1  0  0  0  0
 13 14  1  0  0  0  0
 13 16  1  0  0  0  0
 14 15  3  0  0  0  0
 16 17  2  0  0  0  0
 16 18  1  0  0  0  0
 18 21  1  0  0  0  0
 18 19  1  0  0  0  0
 19 20  2  0  0  0  0
M  END
> <s_m_source_file>
AV-unprocessed.smi

> <i_m_source_file_index>
1230

> <i_lp_mmshare_version>
43012

> <i_f3d_flags>
0

> <s_epik_input>
W0NIM11bQ0BASF0xW0NIMl1bQ0gyXVtDSDJdW0NIMl1bQ0BIXTFPW0NIMl1bQ0gyXW4yW2NIXWMoQyNOKWMoPU8pW25IXWMyPU8=

> <s_epik_cmdline>
J2VwaWtfcHl0aG9uJywgJy1waCcsICc3LjAnLCAnLXRuJywgJzgnLCAnLW1hJywgJzIwMCcsICctbWV0YWxfYmluZGluZycsICctaW1hZScsICc8aW5maWxlLm1hZT4nLCAnLW9tYWUnLCAnPG91dGZpbGUubWFlPic=

> <r_epik_Ionization_Penalty>
0.421541

> <r_epik_Ionization_Penalty_Charging>
0.421541

> <r_epik_Ionization_Penalty_Neutral>
2.29267e-11

> <r_epik_State_Penalty>
0.422277

> <r_epik_Charging_Adjusted_Penalty>
0.843818

> <i_epik_Tot_Q>
0

> <i_epik_Tot_abs_Q>
0

> <r_epik_Metal_State_Penalty>
4.11629

> <b_epik_Metal_Only>
0

> <s_lp_Force_Field>
OPLS_2005

> <r_lp_Energy>
13.3669

> <b_lp_Chiralities_Consistent>
1

> <s_lp_Variant>
AV-unprocessed.smi:1230-8

> <Gold.Version>
5.8.1

> <Gold.Id.Protein>
6NUR|6NUR_protein|mol2

> <Gold.PLP.Fitness>
50.2559

> <Gold.PLP.PLP>
-46.2418

> <Gold.PLP.part.hbond>
-1.9817

> <Gold.PLP.part.metal>
0.0000

> <Gold.PLP.part.buried>
-4.4658

> <Gold.PLP.part.nonpolar>
-40.0655

> <Gold.PLP.part.repulsive>
1.0312

> <Gold.PLP.ligand.clash>
0.0000

> <Gold.PLP.ligand.torsion>
0.6062

> <Gold.PLP.Chemscore.Hbond>
0.9588

> <Gold.PLP.Chemscore.CHOScore>
0.7694

> <Gold.PLP.Chemscore.Metal>
0.0000

> <Gold.Chemscore.Hbonds>
donor molecule, donor type, donor heavy atom, donor atom, acceptor molecule, acceptor atom, score
      L1  H    18    21       P1  7948  0.62
      L1  C    12    39       P1  8028  0.70

> <Gold.PLP.Chemscore.Internal.Correction>
0.0422

> <Gold.Rescore>
     Score         DG    S(hbond)    S(metal)    S(lipo)     H(rot)  DE(clash)    DE(int)     intcor
     15.49     -16.25       1.00        0.00     106.05       1.94       0.06       0.70       ----

> <Gold.Chemscore.Fitness>
15.4908

> <Gold.Chemscore.DG>
-16.2494

> <Gold.Chemscore.ZeroCoef>
-5.4800

> <Gold.Chemscore.Hbond>
0.9951

> <Gold.Chemscore.Metal>
0.0000

> <Gold.Chemscore.Lipo>
106.0535

> <Gold.Chemscore.Internal_Hbond>
0.0000

> <Gold.Chemscore.DEClash>
0.0618

> <Gold.Chemscore.DEInternal>
0.6967

> <Gold.Chemscore.Rot>
1.9385

> <Gold.Chemscore.Internal.Correction>
   9.000000E+99

> <Gold.Chemscore.Hbonds>
donor molecule, donor type, donor heavy atom, donor atom, acceptor molecule, acceptor atom, score
      L1  H    18    21       P1  7948  0.62

> <Gold.Chemscore.Hbond.Weighted>
-3.3236

> <Gold.Chemscore.Metal.Weighted>
-0.0000

> <Gold.Chemscore.Lipo.Weighted>
-12.4083

> <Gold.Chemscore.Internal_Hbond.Weighted>
0.0000

> <Gold.Chemscore.DEClash.Weighted>
0.0618

> <Gold.Chemscore.DEInternal.Weighted>
0.6967

> <Gold.Chemscore.Rot.Weighted>
4.9625

> <Gold.Chemscore.Internal.Correction.Weighted>
   9.000000E+99

> <Gold.Protein.RotatedTorsions>
[ 6907 6896 6895 6894 ] final  -86.96 input  -60.11 | X-H torsion
[ 7974 7965 7964 7962 ] final -145.73 input  175.53 | X-H torsion
[ 8008 7997 7996 7995 ] final  167.33 input   59.86 | X-H torsion
[ 10167 10162 10161 10158 ] final    0.67 input  -65.29 | X-H torsion
[ 10718 10713 10712 10709 ] final  -84.10 input   66.30 | X-H torsion
[ 10763 10752 10751 10750 ] final -164.71 input  -60.55 | X-H torsion
[ 11005 11000 10999 10996 ] final   -6.21 input  -57.11 | X-H torsion

> <Gold.Protein.ActiveResidues>
 VAL166  LYS551  ARG553  GLY616  TRP617  ASP618  TYR619  PRO620  LYS621  CYS622 
 ASP623  PHE694  ASN695  SER759  ASP760  ASP761  ALA762  ILE779  LEU786  VAL792 
 PHE793  MET794  SER795  GLU796  ALA797  LYS798  CYS799  TRP800  GLU811  SER814 

> <Gold.Protein.RotatedAtoms>
  150.6866  134.2970  159.4690 H   0  0  0  0  0  0  0  0  0  0  0  0  # atno 6907 bound_to 6896
  152.0869  134.9431  160.0582 H   0  0  0  0  0  0  0  0  0  0  0  0  # atno 6908 bound_to 6896
  152.0762  133.4095  159.4518 H   0  0  0  0  0  0  0  0  0  0  0  0  # atno 6909 bound_to 6896
  144.8207  140.5547  143.5580 H   0  0  0  0  0  0  0  0  0  0  0  0  # atno 7974 bound_to 7965
  156.1643  140.1620  156.8558 H   0  0  0  0  0  0  0  0  0  0  0  0  # atno 8008 bound_to 7997
  154.5192  140.0782  156.8174 H   0  0  0  0  0  0  0  0  0  0  0  0  # atno 8009 bound_to 7997
  155.3643  140.3397  155.4244 H   0  0  0  0  0  0  0  0  0  0  0  0  # atno 8010 bound_to 7997
  140.6718  143.7027  150.7939 H   0  0  0  0  0  0  0  0  0  0  0  0  # atno 10167 bound_to 10162
  156.0010  130.4687  150.4358 H   0  0  0  0  0  0  0  0  0  0  0  0  # atno 10718 bound_to 10713
  154.7002  135.2986  154.9352 H   0  0  0  0  0  0  0  0  0  0  0  0  # atno 10763 bound_to 10752
  154.0286  135.6673  153.4783 H   0  0  0  0  0  0  0  0  0  0  0  0  # atno 10764 bound_to 10752
  153.0676  135.5079  154.8142 H   0  0  0  0  0  0  0  0  0  0  0  0  # atno 10765 bound_to 10752
  140.6996  133.9001  155.8674 H   0  0  0  0  0  0  0  0  0  0  0  0  # atno 11005 bound_to 11000
  145.5111  139.1479  143.3604 LP  0  0  0  0  0  0  0  0  0  0  0  0  # atno 17320 bound_to 7965
  146.2513  140.5251  142.8892 LP  0  0  0  0  0  0  0  0  0  0  0  0  # atno 17321 bound_to 7965
  140.0713  143.5058  152.2578 LP  0  0  0  0  0  0  0  0  0  0  0  0  # atno 17342 bound_to 10162
  139.5990  144.7576  151.3216 LP  0  0  0  0  0  0  0  0  0  0  0  0  # atno 17343 bound_to 10162
  157.2403  131.0524  151.2440 LP  0  0  0  0  0  0  0  0  0  0  0  0  # atno 17370 bound_to 10713
  157.3627  130.7139  149.6512 LP  0  0  0  0  0  0  0  0  0  0  0  0  # atno 17371 bound_to 10713
  141.0175  134.0935  157.4156 LP  0  0  0  0  0  0  0  0  0  0  0  0  # atno 17394 bound_to 11000
  139.8900  135.0109  156.6714 LP  0  0  0  0  0  0  0  0  0  0  0  0  # atno 17395 bound_to 11000

$$$$
