AV-unprocessed.smi:1206|AV-procd|sdf|5048|dock2
  -GOLD-   22720 4 73D 1   1.00000     0.00000
 Structure written by MMmdl.
 40 41  0  0  0  0  0  0  0  0  3 V2000
  147.7639  137.1936  154.8120 C   0  0  0  0  0  0  0  0  0  0  0  0
  147.6126  135.8874  154.1192 N   0  3  0  0  0  0  0  0  0  0  0  0
  146.2311  135.7432  153.5946 C   0  0  0  0  0  0  0  0  0  0  0  0
  148.1946  134.6972  154.8474 C   0  0  0  0  0  0  0  0  0  0  0  0
  147.2859  134.3996  156.0830 C   0  0  0  0  0  0  0  0  0  0  0  0
  147.4884  135.3502  157.1771 N   0  0  0  0  0  0  0  0  0  0  0  0
  148.2759  135.1823  158.2490 C   0  0  0  0  0  0  0  0  0  0  0  0
  148.9606  134.1632  158.3588 O   0  0  0  0  0  0  0  0  0  0  0  0
  148.2046  136.1970  159.1376 N   0  5  0  0  0  0  0  0  0  0  0  0
  147.7326  135.9709  160.3749 C   0  0  0  0  0  0  0  0  0  0  0  0
  147.3593  136.9682  161.1927 N   0  0  0  0  0  0  0  0  0  0  0  0
  146.8995  136.5209  162.4240 N   0  0  0  0  0  0  0  0  0  0  0  0
  146.9481  135.1915  162.5071 C   0  0  0  0  0  0  0  0  0  0  0  0
  147.5591  134.3656  161.0891 S   0  0  0  0  0  0  0  0  0  0  0  0
  148.2568  133.4503  153.9140 C   0  0  0  0  0  0  0  0  0  0  0  0
  148.9679  132.2341  154.5392 C   0  0  0  0  0  0  0  0  0  0  0  0
  150.3791  132.5858  155.0274 C   0  0  0  0  0  0  0  0  0  0  0  0
  150.3524  133.7809  155.9889 C   0  0  0  0  0  0  0  0  0  0  0  0
  149.6518  134.9892  155.3410 C   0  0  0  0  0  0  0  0  0  0  0  0
  147.0613  137.2869  155.6407 H   0  0  0  0  0  0  0  0  0  0  0  0
  147.5643  138.0099  154.1175 H   0  0  0  0  0  0  0  0  0  0  0  0
  148.7691  137.3491  155.1996 H   0  0  0  0  0  0  0  0  0  0  0  0
  145.5283  135.4903  154.3890 H   0  0  0  0  0  0  0  0  0  0  0  0
  146.1741  134.9854  152.8133 H   0  0  0  0  0  0  0  0  0  0  0  0
  145.8949  136.6736  153.1358 H   0  0  0  0  0  0  0  0  0  0  0  0
  146.2338  134.3642  155.8001 H   0  0  0  0  0  0  0  0  0  0  0  0
  147.4802  133.4107  156.4920 H   0  0  0  0  0  0  0  0  0  0  0  0
  146.9593  136.2092  157.1315 H   0  0  0  0  0  0  0  0  0  0  0  0
  146.6252  134.6945  163.4096 H   0  0  0  0  0  0  0  0  0  0  0  0
  147.2553  133.1356  153.6202 H   0  0  0  0  0  0  0  0  0  0  0  0
  148.7751  133.7124  152.9908 H   0  0  0  0  0  0  0  0  0  0  0  0
  148.3796  131.8382  155.3672 H   0  0  0  0  0  0  0  0  0  0  0  0
  149.0264  131.4300  153.8049 H   0  0  0  0  0  0  0  0  0  0  0  0
  150.8315  131.7227  155.5164 H   0  0  0  0  0  0  0  0  0  0  0  0
  151.0106  132.8217  154.1701 H   0  0  0  0  0  0  0  0  0  0  0  0
  149.8677  133.5035  156.9245 H   0  0  0  0  0  0  0  0  0  0  0  0
  151.3739  134.0533  156.2560 H   0  0  0  0  0  0  0  0  0  0  0  0
  150.2889  135.2740  154.5040 H   0  0  0  0  0  0  0  0  0  0  0  0
  149.6667  135.8340  156.0303 H   0  0  0  0  0  0  0  0  0  0  0  0
  148.1866  135.9683  153.2908 H   0  0  0  0  0  0  0  0  0  0  0  0
  1  2  1  0  0  0  0
  1 20  1  0  0  0  0
  1 21  1  0  0  0  0
  1 22  1  0  0  0  0
  2  3  1  0  0  0  0
  2  4  1  0  0  0  0
  2 40  1  0  0  0  0
  3 23  1  0  0  0  0
  3 24  1  0  0  0  0
  3 25  1  0  0  0  0
  4 19  1  0  0  0  0
  4  5  1  0  0  0  0
  4 15  1  0  0  0  0
  5  6  1  0  0  0  0
  5 26  1  0  0  0  0
  5 27  1  0  0  0  0
  6  7  1  0  0  0  0
  6 28  1  0  0  0  0
  7  8  2  0  0  0  0
  7  9  1  0  0  0  0
  9 10  1  0  0  0  0
 10 14  1  0  0  0  0
 10 11  2  0  0  0  0
 11 12  1  0  0  0  0
 12 13  2  0  0  0  0
 13 14  1  0  0  0  0
 13 29  1  0  0  0  0
 15 16  1  0  0  0  0
 15 30  1  0  0  0  0
 15 31  1  0  0  0  0
 16 17  1  0  0  0  0
 16 32  1  0  0  0  0
 16 33  1  0  0  0  0
 17 18  1  0  0  0  0
 17 34  1  0  0  0  0
 17 35  1  0  0  0  0
 18 19  1  0  0  0  0
 18 36  1  0  0  0  0
 18 37  1  0  0  0  0
 19 38  1  0  0  0  0
 19 39  1  0  0  0  0
M  CHG  1   2   1
M  CHG  1   9  -1
M  END
> <s_m_source_file>
AV-unprocessed.smi

> <i_m_source_file_index>
1206

> <i_lp_mmshare_version>
43012

> <i_f3d_flags>
0

> <s_epik_input>
W0NIMl0xW0NIMl1bQ0gyXVtDSDJdW0NIMl1DMShOKFtDSDNdKVtDSDNdKVtDSDJdW05IXUMoPU8pW05IXWMybm5bY0hdczI=

> <s_epik_cmdline>
J2VwaWtfcHl0aG9uJywgJy1waCcsICc3LjAnLCAnLXRuJywgJzgnLCAnLW1hJywgJzIwMCcsICctbWV0YWxfYmluZGluZycsICctaW1hZScsICc8aW5maWxlLm1hZT4nLCAnLW9tYWUnLCAnPG91dGZpbGUubWFlPic=

> <r_lp_tautomer_probability>
1

> <r_epik_Ionization_Penalty>
3.99546

> <r_epik_Ionization_Penalty_Charging>
3.96229

> <r_epik_Ionization_Penalty_Neutral>
0.0331711

> <r_epik_State_Penalty>
3.95985

> <r_epik_Charging_Adjusted_Penalty>
7.92214

> <i_epik_Tot_Q>
0

> <i_epik_Tot_abs_Q>
2

> <r_epik_Metal_State_Penalty>
0.609364

> <b_epik_Metal_Only>
1

> <s_lp_Force_Field>
OPLS_2005

> <r_lp_Energy>
23.6676

> <b_lp_Chiralities_Consistent>
1

> <s_lp_Variant>
AV-unprocessed.smi:1206-2

> <Gold.Version>
5.8.1

> <Gold.Id.Protein>
6NUR|6NUR_protein|mol2

> <Gold.PLP.Fitness>
38.2448

> <Gold.PLP.PLP>
-25.7540

> <Gold.PLP.part.hbond>
-4.0000

> <Gold.PLP.part.metal>
0.0000

> <Gold.PLP.part.buried>
-4.7431

> <Gold.PLP.part.nonpolar>
-18.0665

> <Gold.PLP.part.repulsive>
0.0000

> <Gold.PLP.ligand.clash>
0.0000

> <Gold.PLP.ligand.torsion>
1.1048

> <Gold.PLP.Chemscore.Hbond>
4.8464

> <Gold.PLP.Chemscore.CHOScore>
0.0000

> <Gold.PLP.Chemscore.Metal>
0.0000

> <Gold.Chemscore.Hbonds>
donor molecule, donor type, donor heavy atom, donor atom, acceptor molecule, acceptor atom, score
      L1  H     2    40       P1  7948  2.00
      P1  H  6896  6909       L1     8  1.00
      P1  H  6931  6943       L1    11  0.47
      P1  H  6934  6947       L1    11  0.88

> <Gold.PLP.Chemscore.Internal.Correction>
0.1612

> <Gold.Rescore>
     Score         DG    S(hbond)    S(metal)    S(lipo)     H(rot)  DE(clash)    DE(int)     intcor
     15.73     -18.47       3.47        0.00      47.85       1.64       0.01       2.73       ----

> <Gold.Chemscore.Fitness>
15.7294

> <Gold.Chemscore.DG>
-18.4680

> <Gold.Chemscore.ZeroCoef>
-5.4800

> <Gold.Chemscore.Hbond>
3.4672

> <Gold.Chemscore.Metal>
0.0000

> <Gold.Chemscore.Lipo>
47.8504

> <Gold.Chemscore.Internal_Hbond>
0.0000

> <Gold.Chemscore.DEClash>
0.0073

> <Gold.Chemscore.DEInternal>
2.7312

> <Gold.Chemscore.Rot>
1.6371

> <Gold.Chemscore.Internal.Correction>
   9.000000E+99

> <Gold.Chemscore.Hbonds>
donor molecule, donor type, donor heavy atom, donor atom, acceptor molecule, acceptor atom, score
      L1  H     2    40       P1  7948  1.00
      P1  H  6896  6909       L1     8  0.97
      P1  H  6931  6943       L1    11  0.09
      P1  H  6934  6947       L1    11  0.70

> <Gold.Chemscore.Hbond.Weighted>
-11.5804

> <Gold.Chemscore.Metal.Weighted>
-0.0000

> <Gold.Chemscore.Lipo.Weighted>
-5.5985

> <Gold.Chemscore.Internal_Hbond.Weighted>
0.0000

> <Gold.Chemscore.DEClash.Weighted>
0.0073

> <Gold.Chemscore.DEInternal.Weighted>
2.7312

> <Gold.Chemscore.Rot.Weighted>
4.1909

> <Gold.Chemscore.Internal.Correction.Weighted>
   9.000000E+99

> <Gold.Protein.RotatedTorsions>
[ 6907 6896 6895 6894 ] final   10.48 input  -60.11 | X-H torsion
[ 7974 7965 7964 7962 ] final  139.40 input  175.53 | X-H torsion
[ 8008 7997 7996 7995 ] final -122.09 input   59.86 | X-H torsion
[ 10167 10162 10161 10158 ] final  142.01 input  -65.29 | X-H torsion
[ 10718 10713 10712 10709 ] final  179.38 input   66.30 | X-H torsion
[ 10763 10752 10751 10750 ] final  -92.39 input  -60.55 | X-H torsion
[ 11005 11000 10999 10996 ] final -139.29 input  -57.11 | X-H torsion

> <Gold.Protein.ActiveResidues>
 VAL166  LYS551  ARG553  GLY616  TRP617  ASP618  TYR619  PRO620  LYS621  CYS622 
 ASP623  PHE694  ASN695  SER759  ASP760  ASP761  ALA762  ILE779  LEU786  VAL792 
 PHE793  MET794  SER795  GLU796  ALA797  LYS798  CYS799  TRP800  GLU811  SER814 

> <Gold.Protein.RotatedAtoms>
  151.7390  135.0858  160.0312 H   0  0  0  0  0  0  0  0  0  0  0  0  # atno 6907 bound_to 6896
  152.3492  133.6154  159.5941 H   0  0  0  0  0  0  0  0  0  0  0  0  # atno 6908 bound_to 6896
  150.7528  133.9517  159.3529 H   0  0  0  0  0  0  0  0  0  0  0  0  # atno 6909 bound_to 6896
  144.9282  139.5080  143.5630 H   0  0  0  0  0  0  0  0  0  0  0  0  # atno 7974 bound_to 7965
  155.1586  140.0405  157.2837 H   0  0  0  0  0  0  0  0  0  0  0  0  # atno 8008 bound_to 7997
  154.6353  140.2534  155.7359 H   0  0  0  0  0  0  0  0  0  0  0  0  # atno 8009 bound_to 7997
  156.2505  140.2867  156.0722 H   0  0  0  0  0  0  0  0  0  0  0  0  # atno 8010 bound_to 7997
  139.5005  144.6135  151.6218 H   0  0  0  0  0  0  0  0  0  0  0  0  # atno 10167 bound_to 10162
  156.8766  130.9801  151.3067 H   0  0  0  0  0  0  0  0  0  0  0  0  # atno 10718 bound_to 10713
  154.6856  135.5233  153.8322 H   0  0  0  0  0  0  0  0  0  0  0  0  # atno 10763 bound_to 10752
  153.0595  135.6563  154.0505 H   0  0  0  0  0  0  0  0  0  0  0  0  # atno 10764 bound_to 10752
  154.0386  135.2979  155.3338 H   0  0  0  0  0  0  0  0  0  0  0  0  # atno 10765 bound_to 10752
  140.8534  134.2258  157.4748 H   0  0  0  0  0  0  0  0  0  0  0  0  # atno 11005 bound_to 11000
  146.3235  139.8213  142.8926 LP  0  0  0  0  0  0  0  0  0  0  0  0  # atno 17320 bound_to 7965
  145.3185  141.0238  143.3514 LP  0  0  0  0  0  0  0  0  0  0  0  0  # atno 17321 bound_to 7965
  140.5816  143.9936  150.6271 LP  0  0  0  0  0  0  0  0  0  0  0  0  # atno 17342 bound_to 10162
  140.3087  143.3212  152.0900 LP  0  0  0  0  0  0  0  0  0  0  0  0  # atno 17343 bound_to 10162
  157.6165  130.8622  149.9037 LP  0  0  0  0  0  0  0  0  0  0  0  0  # atno 17370 bound_to 10713
  156.0699  130.3686  150.0799 LP  0  0  0  0  0  0  0  0  0  0  0  0  # atno 17371 bound_to 10713
  139.8704  134.9694  156.4666 LP  0  0  0  0  0  0  0  0  0  0  0  0  # atno 17394 bound_to 11000
  140.8764  133.7950  155.9419 LP  0  0  0  0  0  0  0  0  0  0  0  0  # atno 17395 bound_to 11000

$$$$
