#       Name:                AV-unprocessed.smi:240
#       Creating user name   scv26
#       Creation time:       Thu Mar 26 20:43:59 2020


#       File generated by GOLD software.
#

@<TRIPOS>MOLECULE
AV-unprocessed.smi:240
    67    71     1
SMALL
NO_CHARGES


@<TRIPOS>ATOM
      1 ****        -3.5989  -3.5081   2.8429 O.3            1 S1                 0.0000
      2 ****        -2.2277  -3.3153   2.5603 C.3            1 S1                 0.0000
      3 ****        -1.7611  -4.5092   1.7189 C.3            1 S1                 0.0000
      4 ****        -2.0725  -4.1402   0.2576 C.3            1 S1                 0.0000
      5 ****        -2.3561  -2.6288   0.2357 C.3            1 S1                 0.0000
      6 ****        -1.9496  -2.1225   1.6275 C.3            1 S1                 0.0000
      7 ****        -2.4394  -0.6944   2.0422 C.3            1 S1                 0.0000
      8 ****        -3.9835  -0.5480   2.1188 C.3            1 S1                 0.0000
      9 ****        -4.3563   0.7835   2.4529 O.3            1 S1                 0.0000
     10 ****        -3.9221   1.7159   1.4756 C.3            1 S1                 0.0000
     11 ****        -2.3915   1.6957   1.4373 C.3            1 S1                 0.0000
     12 ****        -1.9065   0.3502   1.1502 N.3            1 S1                 0.0000
     13 ****        -0.5679   0.3833   0.9540 C.ar           1 S1                 0.0000
     14 ****         0.2824   0.3273   2.0134 N.ar           1 S1                 0.0000
     15 ****         1.6028   0.3677   1.8105 C.ar           1 S1                 0.0000
     16 ****         2.2678   0.4679   0.6569 N.ar           1 S1                 0.0000
     17 ****         1.4140   0.5362  -0.4051 C.ar           1 S1                 0.0000
     18 ****        -0.0065   0.5005  -0.3439 C.ar           1 S1                 0.0000
     19 ****        -0.5437   0.5861  -1.6212 N.2            1 S1                 0.0000
     20 ****         0.5028   0.6679  -2.3970 C.2            1 S1                 0.0000
     21 ****         1.7191   0.6554  -1.7500 N.pl3          1 S1                 0.0000
     22 ****         3.0354   0.7332  -2.3665 C.3            1 S1                 0.0000
     23 ****         3.4501   2.1692  -2.7695 C.3            1 S1                 0.0000
     24 ****         2.5669   2.6359  -3.7738 O.3            1 S1                 0.0000
     25 ****         4.8845   2.2349  -3.2989 C.3            1 S1                 0.0000
     26 ****         5.6459   2.9400  -2.1831 C.3            1 S1                 0.0000
     27 ****         4.6893   3.8610  -1.6909 O.3            1 S1                 0.0000
     28 ****         3.4543   3.1662  -1.5927 C.3            1 S1                 0.0000
     29 ****        -4.0623  -3.6018   2.0245 H              1 S1                 0.0000
     30 ****        -1.6782  -3.2384   3.4991 H              1 S1                 0.0000
     31 ****        -0.6822  -4.6240   1.8329 H              1 S1                 0.0000
     32 ****        -2.2147  -5.4538   2.0222 H              1 S1                 0.0000
     33 ****        -1.2323  -4.3958  -0.3889 H              1 S1                 0.0000
     34 ****        -2.9410  -4.6908  -0.1054 H              1 S1                 0.0000
     35 ****        -1.8088  -2.1212  -0.5592 H              1 S1                 0.0000
     36 ****        -3.4179  -2.4663   0.0549 H              1 S1                 0.0000
     37 ****        -0.8602  -2.0823   1.6098 H              1 S1                 0.0000
     38 ****        -2.0507  -0.4911   3.0413 H              1 S1                 0.0000
     39 ****        -4.4638  -0.8300   1.1817 H              1 S1                 0.0000
     40 ****        -4.4017  -1.1803   2.8979 H              1 S1                 0.0000
     41 ****        -4.3454   1.4748   0.4991 H              1 S1                 0.0000
     42 ****        -4.2795   2.7094   1.7460 H              1 S1                 0.0000
     43 ****        -2.0357   2.3948   0.6788 H              1 S1                 0.0000
     44 ****        -1.9934   2.0306   2.3965 H              1 S1                 0.0000
     45 ****         2.2139   0.3142   2.6994 H              1 S1                 0.0000
     46 ****         0.4156   0.7450  -3.4711 H              1 S1                 0.0000
     47 ****         3.7649   0.3179  -1.6700 H              1 S1                 0.0000
     48 ****         3.0420   0.0781  -3.2387 H              1 S1                 0.0000
     49 ****         2.8208   3.5154  -4.0090 H              1 S1                 0.0000
     50 ****         5.3074   1.2579  -3.5356 H              1 S1                 0.0000
     51 ****         4.9415   2.8426  -4.2037 H              1 S1                 0.0000
     52 ****         5.9258   2.2393  -1.3944 H              1 S1                 0.0000
     53 ****         6.5463   3.4419  -2.5377 H              1 S1                 0.0000
     54 ****         2.6078   3.8542  -1.5974 H              1 S1                 0.0000
     55 ****         3.4483   2.6458  -0.6348 H              1 S1                 0.0000
     56 ****        -3.9545  -2.7190   3.3439 LP             1 S1                 0.0000
     57 ****        -3.7171  -4.3339   3.3943 LP             1 S1                 0.0000
     58 ****        -3.9460   1.0229   3.3329 LP             1 S1                 0.0000
     59 ****        -5.3525   0.8317   2.5255 LP             1 S1                 0.0000
     60 ****        -2.2953   0.0368   0.2839 LP             1 S1                 0.0000
     61 ****        -0.0795   0.2560   2.9429 LP             1 S1                 0.0000
     62 ****         3.2647   0.4901   0.5810 LP             1 S1                 0.0000
     63 ****        -1.5081   0.5853  -1.8854 LP             1 S1                 0.0000
     64 ****         1.6296   2.6367  -3.4255 LP             1 S1                 0.0000
     65 ****         2.6238   2.0420  -4.5763 LP             1 S1                 0.0000
     66 ****         4.5999   4.6326  -2.3208 LP             1 S1                 0.0000
     67 ****         4.9671   4.1962  -0.7906 LP             1 S1                 0.0000
@<TRIPOS>BOND
    1    1    2 1     
    2    1   29 1     
    3    2    6 1     
    4    2    3 1     
    5    2   30 1     
    6    3    4 1     
    7    3   31 1     
    8    3   32 1     
    9    4    5 1     
   10    4   33 1     
   11    4   34 1     
   12    5    6 1     
   13    5   35 1     
   14    5   36 1     
   15    6    7 1     
   16    6   37 1     
   17    7   12 1     
   18    7    8 1     
   19    7   38 1     
   20    8    9 1     
   21    8   39 1     
   22    8   40 1     
   23    9   10 1     
   24   10   11 1     
   25   10   41 1     
   26   10   42 1     
   27   11   12 1     
   28   11   43 1     
   29   11   44 1     
   30   12   13 1     
   31   13   18 ar    
   32   13   14 ar    
   33   14   15 ar    
   34   15   16 ar    
   35   15   45 1     
   36   16   17 ar    
   37   17   21 1     
   38   17   18 ar    
   39   18   19 1     
   40   19   20 2     
   41   20   21 1     
   42   20   46 1     
   43   21   22 1     
   44   22   23 1     
   45   22   47 1     
   46   22   48 1     
   47   23   28 1     
   48   23   24 1     
   49   23   25 1     
   50   24   49 1     
   51   25   26 1     
   52   25   50 1     
   53   25   51 1     
   54   26   27 1     
   55   26   52 1     
   56   26   53 1     
   57   27   28 1     
   58   28   54 1     
   59   28   55 1     
   60    1   56 1     
   61    1   57 1     
   62    9   58 1     
   63    9   59 1     
   64   12   60 1     
   65   14   61 1     
   66   16   62 1     
   67   19   63 1     
   68   24   64 1     
   69   24   65 1     
   70   27   66 1     
   71   27   67 1     
@<TRIPOS>SUBSTRUCTURE
      1 S1             1
@<TRIPOS>SET
LONE_PAIRS      STATIC     ATOMS    <user>   **** ""
12 56 57 58 59 60 61 62 63 64 65 66 67
DONOR_HYDROGENS      STATIC     ATOMS    <user>   **** ""
2 29 49
ATOM$BLUE        STATIC     ATOMS    COLORGROUP SYSTEM
12 56 57 58 59 60 61 62 63 64 65 66 67
ATOM$RED        STATIC     ATOMS    COLORGROUP SYSTEM
2 29 49
