AV-unprocessed.smi:1929|AV-procd|sdf|7800|dock2
  -GOLD-   22720 9543D 1   1.00000     0.00000
 Structure written by MMmdl.
 43 44  0  0  0  0  0  0  0  0  2 V2000
  143.8733  136.5871  152.5529 C   0  0  0  0  0  0  0  0  0  0  0  0
  144.7738  137.5848  151.9953 N   0  0  0  0  0  0  0  0  0  0  0  0
  146.0705  137.6925  152.3166 C   0  0  0  0  0  0  0  0  0  0  0  0
  146.6317  136.9432  153.1168 O   0  0  0  0  0  0  0  0  0  0  0  0
  146.8531  138.8061  151.6130 C   0  0  0  0  0  0  0  0  0  0  0  0
  147.5199  139.7362  152.5603 N   0  3  2  0  0  0  0  0  0  0  0  0
  148.3728  139.0390  153.5601 C   0  0  0  0  0  0  0  0  0  0  0  0
  149.1513  140.0471  154.4211 C   0  0  0  0  0  0  0  0  0  0  0  0
  148.1968  141.0249  155.1245 C   0  0  1  0  0  0  0  0  0  0  0  0
  148.9622  142.0181  155.8726 N   0  0  0  0  0  0  0  0  0  0  0  0
  149.8425  141.7384  156.8451 C   0  0  0  0  0  0  0  0  0  0  0  0
  150.0983  140.5929  157.2157 O   0  0  0  0  0  0  0  0  0  0  0  0
  150.3728  142.8613  157.3598 N   0  0  0  0  0  0  0  0  0  0  0  0
  151.3444  142.9907  158.3891 C   0  0  0  0  0  0  0  0  0  0  0  0
  152.1428  141.8666  158.6845 C   0  0  0  0  0  0  0  0  0  0  0  0
  153.1006  141.9658  159.7136 C   0  0  0  0  0  0  0  0  0  0  0  0
  153.2902  143.0839  160.4452 N   0  0  0  0  0  0  0  0  0  0  0  0
  152.5145  144.1540  160.1710 C   0  0  0  0  0  0  0  0  0  0  0  0
  151.5293  144.1615  159.1633 C   0  0  0  0  0  0  0  0  0  0  0  0
  147.2924  141.7031  154.0788 C   0  0  0  0  0  0  0  0  0  0  0  0
  146.5608  140.6629  153.2139 C   0  0  0  0  0  0  0  0  0  0  0  0
  142.8727  136.7167  152.1401 H   0  0  0  0  0  0  0  0  0  0  0  0
  143.8093  136.6839  153.6376 H   0  0  0  0  0  0  0  0  0  0  0  0
  144.2126  135.5787  152.3121 H   0  0  0  0  0  0  0  0  0  0  0  0
  144.3857  138.2314  151.3235 H   0  0  0  0  0  0  0  0  0  0  0  0
  147.6030  138.3136  150.9928 H   0  0  0  0  0  0  0  0  0  0  0  0
  146.2036  139.3638  150.9362 H   0  0  0  0  0  0  0  0  0  0  0  0
  147.7495  138.4073  154.1951 H   0  0  0  0  0  0  0  0  0  0  0  0
  149.0801  138.3784  153.0580 H   0  0  0  0  0  0  0  0  0  0  0  0
  149.7519  139.5139  155.1591 H   0  0  0  0  0  0  0  0  0  0  0  0
  149.8517  140.5969  153.7903 H   0  0  0  0  0  0  0  0  0  0  0  0
  147.5757  140.4551  155.8191 H   0  0  0  0  0  0  0  0  0  0  0  0
  148.8103  142.9873  155.6335 H   0  0  0  0  0  0  0  0  0  0  0  0
  149.9973  143.7309  157.0109 H   0  0  0  0  0  0  0  0  0  0  0  0
  152.0318  140.9444  158.1328 H   0  0  0  0  0  0  0  0  0  0  0  0
  153.7294  141.1222  159.9571 H   0  0  0  0  0  0  0  0  0  0  0  0
  152.6779  145.0312  160.7793 H   0  0  0  0  0  0  0  0  0  0  0  0
  150.9347  145.0498  159.0171 H   0  0  0  0  0  0  0  0  0  0  0  0
  146.5616  142.3459  154.5715 H   0  0  0  0  0  0  0  0  0  0  0  0
  147.8899  142.3520  153.4364 H   0  0  0  0  0  0  0  0  0  0  0  0
  145.9735  141.1814  152.4551 H   0  0  0  0  0  0  0  0  0  0  0  0
  145.8586  140.0918  153.8236 H   0  0  0  0  0  0  0  0  0  0  0  0
  148.1337  140.3111  152.0001 H   0  0  0  0  0  0  0  0  0  0  0  0
  1  2  1  0  0  0  0
  1 22  1  0  0  0  0
  1 23  1  0  0  0  0
  1 24  1  0  0  0  0
  2  3  1  0  0  0  0
  2 25  1  0  0  0  0
  3  4  2  0  0  0  0
  3  5  1  0  0  0  0
  5  6  1  0  0  0  0
  5 26  1  0  0  0  0
  5 27  1  0  0  0  0
  6 21  1  0  0  0  0
  6  7  1  0  0  0  0
  6 43  1  0  0  0  0
  7  8  1  0  0  0  0
  7 28  1  0  0  0  0
  7 29  1  0  0  0  0
  8  9  1  0  0  0  0
  8 30  1  0  0  0  0
  8 31  1  0  0  0  0
  9 10  1  0  0  0  0
  9 20  1  0  0  0  0
  9 32  1  0  0  0  0
 10 11  1  0  0  0  0
 10 33  1  0  0  0  0
 11 12  2  0  0  0  0
 11 13  1  0  0  0  0
 13 14  1  0  0  0  0
 13 34  1  0  0  0  0
 14 19  1  0  0  0  0
 14 15  2  0  0  0  0
 15 16  1  0  0  0  0
 15 35  1  0  0  0  0
 16 17  2  0  0  0  0
 16 36  1  0  0  0  0
 17 18  1  0  0  0  0
 18 19  2  0  0  0  0
 18 37  1  0  0  0  0
 19 38  1  0  0  0  0
 20 21  1  0  0  0  0
 20 39  1  0  0  0  0
 20 40  1  0  0  0  0
 21 41  1  0  0  0  0
 21 42  1  0  0  0  0
M  CHG  1   6   1
M  END
> <s_m_source_file>
AV-unprocessed.smi

> <i_m_source_file_index>
1929

> <i_lp_mmshare_version>
43012

> <i_f3d_flags>
0

> <s_epik_input>
W0NIM11bTkhdQyg9TylbQ0gyXU4xW0NIMl1bQ0gyXVtDSF0oW0NIMl1bQ0gyXTEpW05IXUMoPU8pW05IXWMyW2NIXVtjSF1uW2NIXVtjSF0y

> <s_epik_cmdline>
J2VwaWtfcHl0aG9uJywgJy1waCcsICc3LjAnLCAnLXRuJywgJzgnLCAnLW1hJywgJzIwMCcsICctbWV0YWxfYmluZGluZycsICctaW1hZScsICc8aW5maWxlLm1hZT4nLCAnLW9tYWUnLCAnPG91dGZpbGUubWFlPic=

> <r_epik_Ionization_Penalty>
0.938295

> <r_epik_Ionization_Penalty_Charging>
0.838844

> <r_epik_Ionization_Penalty_Neutral>
0.0994513

> <r_epik_State_Penalty>
0.957722

> <r_epik_Charging_Adjusted_Penalty>
1.79657

> <i_epik_Tot_Q>
1

> <i_epik_Tot_abs_Q>
1

> <r_epik_Metal_State_Penalty>
0.961727

> <b_epik_Metal_Only>
0

> <s_lp_Force_Field>
OPLS_2005

> <r_lp_Energy>
19.1228

> <b_lp_Chiralities_Consistent>
1

> <s_lp_Variant>
AV-unprocessed.smi:1929-2

> <Gold.Version>
5.8.1

> <Gold.Id.Protein>
6NUR|6NUR_protein|mol2

> <Gold.PLP.Fitness>
52.7217

> <Gold.PLP.PLP>
-41.1647

> <Gold.PLP.part.hbond>
-4.7815

> <Gold.PLP.part.metal>
0.0000

> <Gold.PLP.part.buried>
-3.3180

> <Gold.PLP.part.nonpolar>
-34.1233

> <Gold.PLP.part.repulsive>
0.4048

> <Gold.PLP.ligand.clash>
0.0000

> <Gold.PLP.ligand.torsion>
0.1722

> <Gold.PLP.Chemscore.Hbond>
3.9600

> <Gold.PLP.Chemscore.CHOScore>
0.0000

> <Gold.PLP.Chemscore.Metal>
0.0000

> <Gold.Chemscore.Hbonds>
donor molecule, donor type, donor heavy atom, donor atom, acceptor molecule, acceptor atom, score
      L1  H     2    25       P1 10171  1.00
      L1  H     6    43       P1  7957  0.70
      L1  H    10    33       P1  8028  1.00
      L1  H    13    34       P1  8028  1.00

> <Gold.PLP.Chemscore.Internal.Correction>
0.0213

> <Gold.Rescore>
     Score         DG    S(hbond)    S(metal)    S(lipo)     H(rot)  DE(clash)    DE(int)     intcor
     20.82     -26.02       3.92        0.00     100.47       1.69       1.23       3.97       ----

> <Gold.Chemscore.Fitness>
20.8228

> <Gold.Chemscore.DG>
-26.0196

> <Gold.Chemscore.ZeroCoef>
-5.4800

> <Gold.Chemscore.Hbond>
3.9234

> <Gold.Chemscore.Metal>
0.0000

> <Gold.Chemscore.Lipo>
100.4673

> <Gold.Chemscore.Internal_Hbond>
0.0000

> <Gold.Chemscore.DEClash>
1.2264

> <Gold.Chemscore.DEInternal>
3.9704

> <Gold.Chemscore.Rot>
1.6873

> <Gold.Chemscore.Internal.Correction>
   9.000000E+99

> <Gold.Chemscore.Hbonds>
donor molecule, donor type, donor heavy atom, donor atom, acceptor molecule, acceptor atom, score
      L1  H     2    25       P1 10171  0.96
      L1  H     6    43       P1  7957  0.70
      L1  H    10    33       P1  8028  1.00
      L1  H    13    34       P1  8028  0.90

> <Gold.Chemscore.Hbond.Weighted>
-13.1043

> <Gold.Chemscore.Metal.Weighted>
-0.0000

> <Gold.Chemscore.Lipo.Weighted>
-11.7547

> <Gold.Chemscore.Internal_Hbond.Weighted>
0.0000

> <Gold.Chemscore.DEClash.Weighted>
1.2264

> <Gold.Chemscore.DEInternal.Weighted>
3.9704

> <Gold.Chemscore.Rot.Weighted>
4.3194

> <Gold.Chemscore.Internal.Correction.Weighted>
   9.000000E+99

> <Gold.Protein.RotatedTorsions>
[ 6907 6896 6895 6894 ] final  131.70 input  -60.11 | X-H torsion
[ 7974 7965 7964 7962 ] final   80.80 input  175.53 | X-H torsion
[ 8008 7997 7996 7995 ] final  169.30 input   59.86 | X-H torsion
[ 10167 10162 10161 10158 ] final  -32.63 input  -65.29 | X-H torsion
[ 10718 10713 10712 10709 ] final   59.05 input   66.30 | X-H torsion
[ 10763 10752 10751 10750 ] final    7.65 input  -60.55 | X-H torsion
[ 11005 11000 10999 10996 ] final -102.47 input  -57.11 | X-H torsion

> <Gold.Protein.ActiveResidues>
 VAL166  LYS551  ARG553  GLY616  TRP617  ASP618  TYR619  PRO620  LYS621  CYS622 
 ASP623  PHE694  ASN695  SER759  ASP760  ASP761  ALA762  ILE779  LEU786  VAL792 
 PHE793  MET794  SER795  GLU796  ALA797  LYS798  CYS799  TRP800  GLU811  SER814 

> <Gold.Protein.RotatedAtoms>
  152.3400  133.6055  159.5869 H   0  0  0  0  0  0  0  0  0  0  0  0  # atno 6907 bound_to 6896
  150.7473  133.9737  159.3563 H   0  0  0  0  0  0  0  0  0  0  0  0  # atno 6908 bound_to 6896
  151.7602  135.0812  160.0395 H   0  0  0  0  0  0  0  0  0  0  0  0  # atno 6909 bound_to 6896
  145.6465  139.2437  143.2001 H   0  0  0  0  0  0  0  0  0  0  0  0  # atno 7974 bound_to 7965
  156.1470  140.1568  156.8831 H   0  0  0  0  0  0  0  0  0  0  0  0  # atno 8008 bound_to 7997
  154.5037  140.0818  156.7888 H   0  0  0  0  0  0  0  0  0  0  0  0  # atno 8009 bound_to 7997
  155.3969  140.3412  155.4257 H   0  0  0  0  0  0  0  0  0  0  0  0  # atno 8010 bound_to 7997
  140.7218  143.3680  151.1833 H   0  0  0  0  0  0  0  0  0  0  0  0  # atno 10167 bound_to 10162
  157.5645  130.8860  149.9164 H   0  0  0  0  0  0  0  0  0  0  0  0  # atno 10718 bound_to 10713
  153.2339  135.6896  153.7859 H   0  0  0  0  0  0  0  0  0  0  0  0  # atno 10763 bound_to 10752
  153.7013  135.3297  155.3226 H   0  0  0  0  0  0  0  0  0  0  0  0  # atno 10764 bound_to 10752
  154.8326  135.4568  154.1235 H   0  0  0  0  0  0  0  0  0  0  0  0  # atno 10765 bound_to 10752
  141.1187  133.8561  157.1364 H   0  0  0  0  0  0  0  0  0  0  0  0  # atno 11005 bound_to 11000
  146.1238  140.7274  142.9444 LP  0  0  0  0  0  0  0  0  0  0  0  0  # atno 17320 bound_to 7965
  144.7138  140.4136  143.7060 LP  0  0  0  0  0  0  0  0  0  0  0  0  # atno 17321 bound_to 7965
  139.7245  143.9169  152.2998 LP  0  0  0  0  0  0  0  0  0  0  0  0  # atno 17342 bound_to 10162
  139.8938  144.6951  150.8741 LP  0  0  0  0  0  0  0  0  0  0  0  0  # atno 17343 bound_to 10162
  156.0694  130.3687  150.0808 LP  0  0  0  0  0  0  0  0  0  0  0  0  # atno 17370 bound_to 10713
  156.8968  130.9607  151.3581 LP  0  0  0  0  0  0  0  0  0  0  0  0  # atno 17371 bound_to 10713
  140.0128  134.9980  157.0432 LP  0  0  0  0  0  0  0  0  0  0  0  0  # atno 17394 bound_to 11000
  140.4570  134.1523  155.7187 LP  0  0  0  0  0  0  0  0  0  0  0  0  # atno 17395 bound_to 11000

$$$$
