#       Name:                AV-unprocessed.smi:193
#       Creating user name   scv26
#       Creation time:       Thu Mar 26 19:33:39 2020


#       File generated by GOLD software.
#

@<TRIPOS>MOLECULE
AV-unprocessed.smi:193
    69    73     1
SMALL
NO_CHARGES


@<TRIPOS>ATOM
      1 ****        -2.8401  -2.9799   3.7704 C.3            1 S1                 0.0000
      2 ****        -2.4712  -1.8961   2.7454 C.3            1 S1                 0.0000
      3 ****        -2.4959  -2.5129   1.3279 C.3            1 S1                 0.0000
      4 ****        -1.9106  -1.6566   0.2970 N.pl3          1 S1                 0.0000
      5 ****        -0.5955  -1.8167  -0.0127 C.ar           1 S1                 0.0000
      6 ****         0.2609  -2.2934   0.9300 N.ar           1 S1                 0.0000
      7 ****         1.5608  -2.4341   0.6565 C.ar           1 S1                 0.0000
      8 ****         2.2077  -2.1610  -0.4771 N.ar           1 S1                 0.0000
      9 ****         1.3559  -1.6898  -1.4316 C.ar           1 S1                 0.0000
     10 ****        -0.0472  -1.4936  -1.2874 C.ar           1 S1                 0.0000
     11 ****        -0.5805  -1.0227  -2.4819 N.2            1 S1                 0.0000
     12 ****         0.4478  -0.9335  -3.2799 C.2            1 S1                 0.0000
     13 ****         1.6529  -1.3009  -2.7261 N.pl3          1 S1                 0.0000
     14 ****         2.9518  -1.2916  -3.3815 C.3            1 S1                 0.0000
     15 ****         3.7272   0.0406  -3.2251 C.3            1 S1                 0.0000
     16 ****         3.9864   0.2334  -1.8452 O.3            1 S1                 0.0000
     17 ****         5.0761  -0.0354  -3.9687 C.3            1 S1                 0.0000
     18 ****         5.8062   1.3192  -3.9885 C.3            1 S1                 0.0000
     19 ****         4.9627   2.3174  -4.5501 O.3            1 S1                 0.0000
     20 ****         3.7855   2.5370  -3.7826 C.3            1 S1                 0.0000
     21 ****         2.9306   1.2578  -3.7440 C.3            1 S1                 0.0000
     22 ****        -2.4603  -0.3126   0.1314 C.3            1 S1                 0.0000
     23 ****        -2.0056   0.6292   1.2616 C.3            1 S1                 0.0000
     24 ****        -2.8851   0.6212   2.4607 N.4            1 S1                 1.0000
     25 ****        -2.2499   1.3277   3.5998 C.3            1 S1                 0.0000
     26 ****        -3.2347   1.9439   4.5689 C.3            1 S1                 0.0000
     27 ****        -2.4491   2.8339   3.6321 C.3            1 S1                 0.0000
     28 ****        -3.1710   3.6185   2.5518 C.3            1 S1                 0.0000
     29 ****        -3.4479  -0.7008   2.8588 C.3            1 S1                 0.0000
     30 ****        -3.8483  -3.3601   3.6016 H              1 S1                 0.0000
     31 ****        -2.7952  -2.5932   4.7889 H              1 S1                 0.0000
     32 ****        -2.1525  -3.8245   3.7142 H              1 S1                 0.0000
     33 ****        -1.4607  -1.5684   2.9925 H              1 S1                 0.0000
     34 ****        -1.9837  -3.4763   1.3296 H              1 S1                 0.0000
     35 ****        -3.5234  -2.7385   1.0403 H              1 S1                 0.0000
     36 ****         2.1703  -2.8178   1.4614 H              1 S1                 0.0000
     37 ****         0.3565  -0.5872  -4.2993 H              1 S1                 0.0000
     38 ****         3.5403  -2.1216  -2.9882 H              1 S1                 0.0000
     39 ****         2.7933  -1.5082  -4.4388 H              1 S1                 0.0000
     40 ****         4.4825   1.0307  -1.7406 H              1 S1                 0.0000
     41 ****         5.7159  -0.7995  -3.5253 H              1 S1                 0.0000
     42 ****         4.9019  -0.3457  -4.9999 H              1 S1                 0.0000
     43 ****         6.1203   1.6131  -2.9858 H              1 S1                 0.0000
     44 ****         6.7107   1.2448  -4.5924 H              1 S1                 0.0000
     45 ****         4.0498   2.8640  -2.7759 H              1 S1                 0.0000
     46 ****         3.2181   3.3489  -4.2375 H              1 S1                 0.0000
     47 ****         2.5735   1.0489  -4.7532 H              1 S1                 0.0000
     48 ****         2.0434   1.4321  -3.1341 H              1 S1                 0.0000
     49 ****        -2.1395   0.1045  -0.8212 H              1 S1                 0.0000
     50 ****        -3.5481  -0.3569   0.0717 H              1 S1                 0.0000
     51 ****        -0.9737   0.4172   1.5461 H              1 S1                 0.0000
     52 ****        -1.9973   1.6477   0.8753 H              1 S1                 0.0000
     53 ****        -1.3307   0.8832   3.9777 H              1 S1                 0.0000
     54 ****        -4.2982   1.8192   4.3730 H              1 S1                 0.0000
     55 ****        -2.9583   1.9657   5.6211 H              1 S1                 0.0000
     56 ****        -1.6357   3.3948   4.0885 H              1 S1                 0.0000
     57 ****        -4.0153   3.0593   2.1483 H              1 S1                 0.0000
     58 ****        -2.4854   3.8569   1.7388 H              1 S1                 0.0000
     59 ****        -3.5495   4.5537   2.9650 H              1 S1                 0.0000
     60 ****        -4.3355  -0.8937   2.2554 H              1 S1                 0.0000
     61 ****        -3.8234  -0.6220   3.8797 H              1 S1                 0.0000
     62 ****        -3.6896   1.1800   2.2150 H              1 S1                 0.0000
     63 ****        -0.0852  -2.5405   1.8350 LP             1 S1                 0.0000
     64 ****         3.1909  -2.2857  -0.6100 LP             1 S1                 0.0000
     65 ****        -1.5349  -0.8025  -2.6835 LP             1 S1                 0.0000
     66 ****         4.5119  -0.5396  -1.4898 LP             1 S1                 0.0000
     67 ****         3.1224   0.3063  -1.3470 LP             1 S1                 0.0000
     68 ****         4.6958   2.0302  -5.4701 LP             1 S1                 0.0000
     69 ****         5.4741   3.1751  -4.6040 LP             1 S1                 0.0000
@<TRIPOS>BOND
    1    1    2 1     
    2    1   30 1     
    3    1   31 1     
    4    1   32 1     
    5    2   29 1     
    6    2    3 1     
    7    2   33 1     
    8    3    4 1     
    9    3   34 1     
   10    3   35 1     
   11    4    5 1     
   12    4   22 1     
   13    5   10 ar    
   14    5    6 ar    
   15    6    7 ar    
   16    7    8 ar    
   17    7   36 1     
   18    8    9 ar    
   19    9   13 1     
   20    9   10 ar    
   21   10   11 1     
   22   11   12 2     
   23   12   13 1     
   24   12   37 1     
   25   13   14 1     
   26   14   15 1     
   27   14   38 1     
   28   14   39 1     
   29   15   21 1     
   30   15   16 1     
   31   15   17 1     
   32   16   40 1     
   33   17   18 1     
   34   17   41 1     
   35   17   42 1     
   36   18   19 1     
   37   18   43 1     
   38   18   44 1     
   39   19   20 1     
   40   20   21 1     
   41   20   45 1     
   42   20   46 1     
   43   21   47 1     
   44   21   48 1     
   45   22   23 1     
   46   22   49 1     
   47   22   50 1     
   48   23   24 1     
   49   23   51 1     
   50   23   52 1     
   51   24   25 1     
   52   24   29 1     
   53   24   62 1     
   54   25   27 1     
   55   25   26 1     
   56   25   53 1     
   57   26   27 1     
   58   26   54 1     
   59   26   55 1     
   60   27   28 1     
   61   27   56 1     
   62   28   57 1     
   63   28   58 1     
   64   28   59 1     
   65   29   60 1     
   66   29   61 1     
   67    6   63 1     
   68    8   64 1     
   69   11   65 1     
   70   16   66 1     
   71   16   67 1     
   72   19   68 1     
   73   19   69 1     
@<TRIPOS>SUBSTRUCTURE
      1 S1             1
@<TRIPOS>SET
LONE_PAIRS      STATIC     ATOMS    <user>   **** ""
7 63 64 65 66 67 68 69
DONOR_HYDROGENS      STATIC     ATOMS    <user>   **** ""
2 40 62
ATOM$BLUE        STATIC     ATOMS    COLORGROUP SYSTEM
7 63 64 65 66 67 68 69
ATOM$RED        STATIC     ATOMS    COLORGROUP SYSTEM
2 40 62
