AV-unprocessed.smi:2841|AV-procd|sdf|10935|dock4
  -GOLD-   2272015383D 1   1.00000     0.00000
 Structure written by MMmdl.
 46 48  0  0  0  0  0  0  0  0  1 V2000
  145.8796  138.3903  153.9693 O   0  0  0  0  0  0  0  0  0  0  0  0
  146.7542  137.8168  153.3211 C   0  0  0  0  0  0  0  0  0  0  0  0
  146.5099  136.8053  152.4770 N   0  0  0  0  0  0  0  0  0  0  0  0
  145.1908  136.2443  152.1925 C   0  0  0  0  0  0  0  0  0  0  0  0
  145.1785  135.2348  151.0121 C   0  0  0  0  0  0  0  0  0  0  0  0
  145.2957  135.9992  149.8261 O   0  0  0  0  0  0  0  0  0  0  0  0
  146.3697  134.2409  151.0640 C   0  0  0  0  0  0  0  0  0  0  0  0
  146.2241  132.9600  150.2222 C   0  0  0  0  0  0  0  0  0  0  0  0
  145.5035  131.8273  150.9748 C   0  0  0  0  0  0  0  0  0  0  0  0
  143.9879  132.0190  151.1321 C   0  0  0  0  0  0  0  0  0  0  0  0
  143.5721  133.3344  151.8128 C   0  0  0  0  0  0  0  0  0  0  0  0
  143.7857  134.5626  150.9104 C   0  0  0  0  0  0  0  0  0  0  0  0
  148.0674  138.0961  153.3738 N   0  0  0  0  0  0  0  0  0  0  0  0
  148.7220  139.0951  154.1421 C   0  0  0  0  0  0  0  0  0  0  0  0
  148.0764  140.1820  154.7818 C   0  0  0  0  0  0  0  0  0  0  0  0
  148.7700  141.1051  155.4829 N   0  0  0  0  0  0  0  0  0  0  0  0
  150.0945  140.9447  155.5529 C   0  0  0  0  0  0  0  0  0  0  0  0
  150.8606  141.9897  156.3033 C   0  0  0  0  0  0  0  0  0  0  0  0
  151.7031  141.6169  157.5062 C   0  0  0  0  0  0  0  0  0  0  0  0
  150.4413  142.4115  157.6968 C   0  0  0  0  0  0  0  0  0  0  0  0
  150.8109  139.9780  154.9724 N   0  0  0  0  0  0  0  0  0  0  0  0
  150.1263  139.0524  154.2671 C   0  0  0  0  0  0  0  0  0  0  0  0
  147.2920  136.3931  151.9902 H   0  0  0  0  0  0  0  0  0  0  0  0
  144.8875  135.7297  153.1043 H   0  0  0  0  0  0  0  0  0  0  0  0
  144.4526  137.0355  152.0449 H   0  0  0  0  0  0  0  0  0  0  0  0
  145.5365  135.4212  149.1185 H   0  0  0  0  0  0  0  0  0  0  0  0
  147.2765  134.7604  150.7496 H   0  0  0  0  0  0  0  0  0  0  0  0
  146.5583  133.9517  152.0986 H   0  0  0  0  0  0  0  0  0  0  0  0
  145.7458  133.1667  149.2642 H   0  0  0  0  0  0  0  0  0  0  0  0
  147.2265  132.6052  149.9805 H   0  0  0  0  0  0  0  0  0  0  0  0
  145.6724  130.8921  150.4399 H   0  0  0  0  0  0  0  0  0  0  0  0
  145.9591  131.6893  151.9559 H   0  0  0  0  0  0  0  0  0  0  0  0
  143.5068  131.9429  150.1563 H   0  0  0  0  0  0  0  0  0  0  0  0
  143.5976  131.1851  151.7166 H   0  0  0  0  0  0  0  0  0  0  0  0
  142.5077  133.2650  152.0397 H   0  0  0  0  0  0  0  0  0  0  0  0
  144.0728  133.4544  152.7739 H   0  0  0  0  0  0  0  0  0  0  0  0
  143.0218  135.3061  151.1434 H   0  0  0  0  0  0  0  0  0  0  0  0
  143.5769  134.2712  149.8794 H   0  0  0  0  0  0  0  0  0  0  0  0
  148.6743  137.4863  152.8454 H   0  0  0  0  0  0  0  0  0  0  0  0
  147.0112  140.3429  154.7262 H   0  0  0  0  0  0  0  0  0  0  0  0
  151.2438  142.7569  155.6334 H   0  0  0  0  0  0  0  0  0  0  0  0
  151.6932  140.5786  157.8321 H   0  0  0  0  0  0  0  0  0  0  0  0
  152.6504  142.1367  157.6338 H   0  0  0  0  0  0  0  0  0  0  0  0
  150.5432  143.4640  157.9536 H   0  0  0  0  0  0  0  0  0  0  0  0
  149.5927  141.9017  158.1488 H   0  0  0  0  0  0  0  0  0  0  0  0
  150.7066  138.2694  153.8011 H   0  0  0  0  0  0  0  0  0  0  0  0
  1  2  2  0  0  0  0
  2  3  1  0  0  0  0
  2 13  1  0  0  0  0
  3  4  1  0  0  0  0
  3 23  1  0  0  0  0
  4  5  1  0  0  0  0
  4 24  1  0  0  0  0
  4 25  1  0  0  0  0
  5 12  1  0  0  0  0
  5  6  1  0  0  0  0
  5  7  1  0  0  0  0
  6 26  1  0  0  0  0
  7  8  1  0  0  0  0
  7 27  1  0  0  0  0
  7 28  1  0  0  0  0
  8  9  1  0  0  0  0
  8 29  1  0  0  0  0
  8 30  1  0  0  0  0
  9 10  1  0  0  0  0
  9 31  1  0  0  0  0
  9 32  1  0  0  0  0
 10 11  1  0  0  0  0
 10 33  1  0  0  0  0
 10 34  1  0  0  0  0
 11 12  1  0  0  0  0
 11 35  1  0  0  0  0
 11 36  1  0  0  0  0
 12 37  1  0  0  0  0
 12 38  1  0  0  0  0
 13 14  1  0  0  0  0
 13 39  1  0  0  0  0
 14 22  1  0  0  0  0
 14 15  2  0  0  0  0
 15 16  1  0  0  0  0
 15 40  1  0  0  0  0
 16 17  2  0  0  0  0
 17 18  1  0  0  0  0
 17 21  1  0  0  0  0
 18 20  1  0  0  0  0
 18 19  1  0  0  0  0
 18 41  1  0  0  0  0
 19 20  1  0  0  0  0
 19 42  1  0  0  0  0
 19 43  1  0  0  0  0
 20 44  1  0  0  0  0
 20 45  1  0  0  0  0
 21 22  2  0  0  0  0
 22 46  1  0  0  0  0
M  END
> <s_m_source_file>
AV-unprocessed.smi

> <i_m_source_file_index>
2841

> <i_lp_mmshare_version>
43012

> <i_f3d_flags>
0

> <s_epik_input>
W0NIMl0xW0NIMl1bQ0hdMWMobltjSF0yKW5bY0hdYzJbTkhdQyg9TylbTkhdW0NIMl1DMyhbT0hdKVtDSDJdW0NIMl1bQ0gyXVtDSDJdW0NIMl1bQ0gyXTM=

> <s_epik_cmdline>
J2VwaWtfcHl0aG9uJywgJy1waCcsICc3LjAnLCAnLXRuJywgJzgnLCAnLW1hJywgJzIwMCcsICctbWV0YWxfYmluZGluZycsICctaW1hZScsICc8aW5maWxlLm1hZT4nLCAnLW9tYWUnLCAnPG91dGZpbGUubWFlPic=

> <r_lp_tautomer_probability>
1

> <r_epik_Ionization_Penalty>
2.96041e-05

> <r_epik_Ionization_Penalty_Charging>
0

> <r_epik_Ionization_Penalty_Neutral>
2.96041e-05

> <r_epik_State_Penalty>
-0

> <r_epik_Charging_Adjusted_Penalty>
0

> <i_epik_Tot_Q>
0

> <i_epik_Tot_abs_Q>
0

> <r_epik_Metal_State_Penalty>
-0

> <b_epik_Metal_Only>
0

> <s_lp_Force_Field>
OPLS_2005

> <r_lp_Energy>
18.825

> <b_lp_Chiralities_Consistent>
1

> <s_lp_Variant>
AV-unprocessed.smi:2841-1

> <Gold.Version>
5.8.1

> <Gold.Id.Protein>
6NUR|6NUR_protein|mol2

> <Gold.PLP.Fitness>
50.6061

> <Gold.PLP.PLP>
-39.4399

> <Gold.PLP.part.hbond>
-5.1379

> <Gold.PLP.part.metal>
0.0000

> <Gold.PLP.part.buried>
-4.3835

> <Gold.PLP.part.nonpolar>
-30.4852

> <Gold.PLP.part.repulsive>
0.3895

> <Gold.PLP.ligand.clash>
0.0000

> <Gold.PLP.ligand.torsion>
0.3314

> <Gold.PLP.Chemscore.Hbond>
3.8920

> <Gold.PLP.Chemscore.CHOScore>
0.0000

> <Gold.PLP.Chemscore.Metal>
0.0000

> <Gold.Chemscore.Hbonds>
donor molecule, donor type, donor heavy atom, donor atom, acceptor molecule, acceptor atom, score
      L1  H     3    23       P1  7948  0.99
      L1  H     6    26       P1  7921  1.00
      L1  H    13    39       P1  7948  1.00
      P1  H  7989  7998       L1    21  0.90

> <Gold.PLP.Chemscore.Internal.Correction>
0.1530

> <Gold.Rescore>
     Score         DG    S(hbond)    S(metal)    S(lipo)     H(rot)  DE(clash)    DE(int)     intcor
     20.14     -21.76       3.10        0.00      92.69       1.92       0.12       1.50       ----

> <Gold.Chemscore.Fitness>
20.1374

> <Gold.Chemscore.DG>
-21.7619

> <Gold.Chemscore.ZeroCoef>
-5.4800

> <Gold.Chemscore.Hbond>
3.0962

> <Gold.Chemscore.Metal>
0.0000

> <Gold.Chemscore.Lipo>
92.6876

> <Gold.Chemscore.Internal_Hbond>
0.0000

> <Gold.Chemscore.DEClash>
0.1238

> <Gold.Chemscore.DEInternal>
1.5006

> <Gold.Chemscore.Rot>
1.9156

> <Gold.Chemscore.Internal.Correction>
   9.000000E+99

> <Gold.Chemscore.Hbonds>
donor molecule, donor type, donor heavy atom, donor atom, acceptor molecule, acceptor atom, score
      L1  H     3    23       P1  7948  0.93
      L1  H     6    26       P1  7921  1.00
      L1  H    13    39       P1  7948  0.96
      P1  H  7989  7998       L1    21  0.07

> <Gold.Chemscore.Hbond.Weighted>
-10.3415

> <Gold.Chemscore.Metal.Weighted>
-0.0000

> <Gold.Chemscore.Lipo.Weighted>
-10.8444

> <Gold.Chemscore.Internal_Hbond.Weighted>
0.0000

> <Gold.Chemscore.DEClash.Weighted>
0.1238

> <Gold.Chemscore.DEInternal.Weighted>
1.5006

> <Gold.Chemscore.Rot.Weighted>
4.9040

> <Gold.Chemscore.Internal.Correction.Weighted>
   9.000000E+99

> <Gold.Protein.RotatedTorsions>
[ 6907 6896 6895 6894 ] final   81.59 input  -60.11 | X-H torsion
[ 7974 7965 7964 7962 ] final  -98.91 input  175.53 | X-H torsion
[ 8008 7997 7996 7995 ] final  -75.34 input   59.86 | X-H torsion
[ 10167 10162 10161 10158 ] final   19.25 input  -65.29 | X-H torsion
[ 10718 10713 10712 10709 ] final   65.49 input   66.30 | X-H torsion
[ 10763 10752 10751 10750 ] final  141.11 input  -60.55 | X-H torsion
[ 11005 11000 10999 10996 ] final -166.89 input  -57.11 | X-H torsion

> <Gold.Protein.ActiveResidues>
 VAL166  LYS551  ARG553  GLY616  TRP617  ASP618  TYR619  PRO620  LYS621  CYS622 
 ASP623  PHE694  ASN695  SER759  ASP760  ASP761  ALA762  ILE779  LEU786  VAL792 
 PHE793  MET794  SER795  GLU796  ALA797  LYS798  CYS799  TRP800  GLU811  SER814 

> <Gold.Protein.RotatedAtoms>
  152.5273  134.3180  159.9137 H   0  0  0  0  0  0  0  0  0  0  0  0  # atno 6907 bound_to 6896
  151.3130  133.4066  159.2656 H   0  0  0  0  0  0  0  0  0  0  0  0  # atno 6908 bound_to 6896
  151.0023  134.9348  159.8018 H   0  0  0  0  0  0  0  0  0  0  0  0  # atno 6909 bound_to 6896
  145.3145  140.9408  143.2751 H   0  0  0  0  0  0  0  0  0  0  0  0  # atno 7974 bound_to 7965
  154.5409  140.0745  156.8507 H   0  0  0  0  0  0  0  0  0  0  0  0  # atno 8008 bound_to 7997
  155.3184  140.3394  155.4223 H   0  0  0  0  0  0  0  0  0  0  0  0  # atno 8009 bound_to 7997
  156.1873  140.1673  156.8147 H   0  0  0  0  0  0  0  0  0  0  0  0  # atno 8010 bound_to 7997
  140.5593  143.9367  150.6631 H   0  0  0  0  0  0  0  0  0  0  0  0  # atno 10167 bound_to 10162
  157.6109  130.9217  149.9984 H   0  0  0  0  0  0  0  0  0  0  0  0  # atno 10718 bound_to 10713
  153.9338  135.2987  155.3445 H   0  0  0  0  0  0  0  0  0  0  0  0  # atno 10763 bound_to 10752
  154.7513  135.4979  153.9297 H   0  0  0  0  0  0  0  0  0  0  0  0  # atno 10764 bound_to 10752
  153.1078  135.6751  153.9660 H   0  0  0  0  0  0  0  0  0  0  0  0  # atno 10765 bound_to 10752
  140.5594  134.5348  157.5140 H   0  0  0  0  0  0  0  0  0  0  0  0  # atno 11005 bound_to 11000
  144.8989  139.4676  143.6642 LP  0  0  0  0  0  0  0  0  0  0  0  0  # atno 17320 bound_to 7965
  146.3105  139.7731  142.9023 LP  0  0  0  0  0  0  0  0  0  0  0  0  # atno 17321 bound_to 7965
  140.2813  143.3387  152.1148 LP  0  0  0  0  0  0  0  0  0  0  0  0  # atno 17342 bound_to 10162
  139.5062  144.6810  151.6009 LP  0  0  0  0  0  0  0  0  0  0  0  0  # atno 17343 bound_to 10162
  156.1211  130.3646  149.9885 LP  0  0  0  0  0  0  0  0  0  0  0  0  # atno 17370 bound_to 10713
  156.7965  130.9275  151.3646 LP  0  0  0  0  0  0  0  0  0  0  0  0  # atno 17371 bound_to 10713
  139.9415  134.7778  156.0666 LP  0  0  0  0  0  0  0  0  0  0  0  0  # atno 17394 bound_to 11000
  141.1123  133.6639  156.3010 LP  0  0  0  0  0  0  0  0  0  0  0  0  # atno 17395 bound_to 11000

$$$$
