#       Name:                AV-unprocessed.smi:2208
#       Creating user name   scv26
#       Creation time:       Fri Mar 27 12:16:17 2020


#       File generated by GOLD software.
#

@<TRIPOS>MOLECULE
AV-unprocessed.smi:2208
    42    43     1
SMALL
NO_CHARGES


@<TRIPOS>ATOM
      1 ****        -0.4138   1.1636   2.7939 C.3            1 S1                 0.0000
      2 ****        -1.3614   0.5300   1.8160 C.2            1 S1                 0.0000
      3 ****        -2.3691   1.2448   1.3456 N.2            1 S1                 0.0000
      4 ****        -3.0596   0.4044   0.4677 O.3            1 S1                 0.0000
      5 ****        -2.4310  -0.7977   0.4409 C.2            1 S1                 0.0000
      6 ****        -3.0154  -1.8350  -0.4567 C.3            1 S1                 0.0000
      7 ****        -1.3450  -0.7883   1.2729 C.2            1 S1                 0.0000
      8 ****        -0.3572  -1.8983   1.5332 C.3            1 S1                 0.0000
      9 ****         0.7338  -1.8567   0.4642 C.2            1 S1                 0.0000
     10 ****         0.7300  -2.6777  -0.4525 O.2            1 S1                 0.0000
     11 ****         1.6389  -0.8728   0.5775 N.am           1 S1                 0.0000
     12 ****         2.6513  -0.5392  -0.4187 C.3            1 S1                 0.0000
     13 ****         2.1289   0.4654  -1.4658 C.3            1 S1                 0.0000
     14 ****         1.5751   1.7813  -0.9042 C.3            1 S1                 0.0000
     15 ****         0.5513   2.1616  -1.9493 C.3            1 S1                 0.0000
     16 ****        -0.0205   0.7992  -2.3226 C.3            1 S1                 0.0000
     17 ****         1.0794  -0.1018  -2.2494 O.3            1 S1                 0.0000
     18 ****         0.3537   0.4636   3.1222 H              1 S1                 0.0000
     19 ****        -0.9421   1.5126   3.6814 H              1 S1                 0.0000
     20 ****         0.0923   2.0207   2.3493 H              1 S1                 0.0000
     21 ****        -3.3795  -1.3880  -1.3821 H              1 S1                 0.0000
     22 ****        -3.8508  -2.3389   0.0290 H              1 S1                 0.0000
     23 ****        -2.2721  -2.5880  -0.7193 H              1 S1                 0.0000
     24 ****         0.1001  -1.8148   2.5193 H              1 S1                 0.0000
     25 ****        -0.8438  -2.8743   1.5089 H              1 S1                 0.0000
     26 ****         1.5640  -0.2541   1.3717 H              1 S1                 0.0000
     27 ****         3.5032  -0.1061   0.1057 H              1 S1                 0.0000
     28 ****         3.0212  -1.4407  -0.9095 H              1 S1                 0.0000
     29 ****         2.9364   0.7007  -2.1604 H              1 S1                 0.0000
     30 ****         1.0729   1.6330   0.0516 H              1 S1                 0.0000
     31 ****         2.3454   2.5402  -0.7653 H              1 S1                 0.0000
     32 ****        -0.2046   2.8542  -1.5781 H              1 S1                 0.0000
     33 ****         1.0423   2.6150  -2.8113 H              1 S1                 0.0000
     34 ****        -0.7719   0.4915  -1.5951 H              1 S1                 0.0000
     35 ****        -0.4811   0.7915  -3.3105 H              1 S1                 0.0000
     36 ****        -2.5919   2.1931   1.5717 LP             1 S1                 0.0000
     37 ****        -3.0636   0.8038  -0.4491 LP             1 S1                 0.0000
     38 ****        -4.0010   0.2861   0.7838 LP             1 S1                 0.0000
     39 ****         0.0125  -3.3728  -0.4982 LP             1 S1                 0.0000
     40 ****         1.4443  -2.6498  -1.1517 LP             1 S1                 0.0000
     41 ****         0.7782  -0.9575  -1.8286 LP             1 S1                 0.0000
     42 ****         1.4181  -0.2854  -3.1722 LP             1 S1                 0.0000
@<TRIPOS>BOND
    1    1    2 1     
    2    1   18 1     
    3    1   19 1     
    4    1   20 1     
    5    2    7 1     
    6    2    3 2     
    7    3    4 1     
    8    4    5 1     
    9    5    6 1     
   10    5    7 2     
   11    6   21 1     
   12    6   22 1     
   13    6   23 1     
   14    7    8 1     
   15    8    9 1     
   16    8   24 1     
   17    8   25 1     
   18    9   10 2     
   19    9   11 am    
   20   11   12 1     
   21   11   26 1     
   22   12   13 1     
   23   12   27 1     
   24   12   28 1     
   25   13   17 1     
   26   13   14 1     
   27   13   29 1     
   28   14   15 1     
   29   14   30 1     
   30   14   31 1     
   31   15   16 1     
   32   15   32 1     
   33   15   33 1     
   34   16   17 1     
   35   16   34 1     
   36   16   35 1     
   37    3   36 1     
   38    4   37 1     
   39    4   38 1     
   40   10   39 1     
   41   10   40 1     
   42   17   41 1     
   43   17   42 1     
@<TRIPOS>SUBSTRUCTURE
      1 S1             1
@<TRIPOS>SET
LONE_PAIRS      STATIC     ATOMS    <user>   **** ""
7 36 37 38 39 40 41 42
DONOR_HYDROGENS      STATIC     ATOMS    <user>   **** ""
1 26
ATOM$BLUE        STATIC     ATOMS    COLORGROUP SYSTEM
7 36 37 38 39 40 41 42
ATOM$RED        STATIC     ATOMS    COLORGROUP SYSTEM
1 26
