AV-unprocessed.smi:709|AV-procd|sdf|3458|dock4
  -GOLD-   22720 0443D 1   1.00000     0.00000
 Structure written by MMmdl.
 48 50  0  0  0  0  0  0  0  0  1 V2000
  150.3110  135.9788  159.3993 C   0  0  0  0  0  0  0  0  0  0  0  0
  149.7228  137.0490  158.4778 C   0  0  0  0  0  0  0  0  0  0  0  0
  150.6206  137.2761  157.4044 O   0  0  0  0  0  0  0  0  0  0  0  0
  150.3212  136.4924  156.2598 C   0  0  2  0  0  0  0  0  0  0  0  0
  150.4538  134.9920  156.5277 C   0  0  0  0  0  0  0  0  0  0  0  0
  151.0516  134.8679  155.1223 C   0  0  1  0  0  0  0  0  0  0  0  0
  150.0077  134.6113  154.1279 N   0  0  0  0  0  0  0  0  0  0  0  0
  149.2267  133.5230  154.1043 C   0  0  0  0  0  0  0  0  0  0  0  0
  149.3059  132.6188  154.9356 O   0  0  0  0  0  0  0  0  0  0  0  0
  148.3665  133.5726  153.0708 N   0  0  0  0  0  0  0  0  0  0  0  0
  147.4168  132.6228  152.6559 C   0  0  0  0  0  0  0  0  0  0  0  0
  147.4007  131.3253  153.0529 C   0  0  0  0  0  0  0  0  0  0  0  0
  146.3942  130.4130  152.5657 C   0  0  0  0  0  0  0  0  0  0  0  0
  145.4789  130.8756  151.7029 C   0  0  0  0  0  0  0  0  0  0  0  0
  145.4823  132.2127  151.2710 N   0  0  0  0  0  0  0  0  0  0  0  0
  144.4412  132.6222  150.3247 C   0  0  0  0  0  0  0  0  0  0  0  0
  146.4104  133.1202  151.6977 C   0  0  0  0  0  0  0  0  0  0  0  0
  146.3942  134.2864  151.2958 O   0  0  0  0  0  0  0  0  0  0  0  0
  151.4688  136.3618  155.2223 C   0  0  0  0  0  0  0  0  0  0  0  0
  152.8946  136.6200  155.7179 C   0  0  0  0  0  0  0  0  0  0  0  0
  153.2364  138.0712  155.3822 C   0  0  0  0  0  0  0  0  0  0  0  0
  152.3724  138.4243  154.1700 C   0  0  0  0  0  0  0  0  0  0  0  0
  151.4045  137.2506  153.9761 C   0  0  0  0  0  0  0  0  0  0  0  0
  149.6427  135.7753  160.2362 H   0  0  0  0  0  0  0  0  0  0  0  0
  151.2698  136.2998  159.8071 H   0  0  0  0  0  0  0  0  0  0  0  0
  150.4699  135.0434  158.8624 H   0  0  0  0  0  0  0  0  0  0  0  0
  148.7576  136.7203  158.0901 H   0  0  0  0  0  0  0  0  0  0  0  0
  149.5530  137.9675  159.0388 H   0  0  0  0  0  0  0  0  0  0  0  0
  149.3515  136.7240  155.8125 H   0  0  0  0  0  0  0  0  0  0  0  0
  151.1737  134.7602  157.3146 H   0  0  0  0  0  0  0  0  0  0  0  0
  149.5093  134.4697  156.6844 H   0  0  0  0  0  0  0  0  0  0  0  0
  151.8908  134.1715  155.0795 H   0  0  0  0  0  0  0  0  0  0  0  0
  149.8762  135.3105  153.4118 H   0  0  0  0  0  0  0  0  0  0  0  0
  148.3770  134.4194  152.5208 H   0  0  0  0  0  0  0  0  0  0  0  0
  148.1417  130.9262  153.7263 H   0  0  0  0  0  0  0  0  0  0  0  0
  146.3794  129.3826  152.8891 H   0  0  0  0  0  0  0  0  0  0  0  0
  144.6945  130.2561  151.2930 H   0  0  0  0  0  0  0  0  0  0  0  0
  144.8876  132.9664  149.3906 H   0  0  0  0  0  0  0  0  0  0  0  0
  143.8459  133.4376  150.7381 H   0  0  0  0  0  0  0  0  0  0  0  0
  143.7537  131.8127  150.0778 H   0  0  0  0  0  0  0  0  0  0  0  0
  153.0179  136.4199  156.7827 H   0  0  0  0  0  0  0  0  0  0  0  0
  153.5906  135.9618  155.1961 H   0  0  0  0  0  0  0  0  0  0  0  0
  152.9769  138.7165  156.2218 H   0  0  0  0  0  0  0  0  0  0  0  0
  154.3005  138.2051  155.1856 H   0  0  0  0  0  0  0  0  0  0  0  0
  151.8323  139.3554  154.3437 H   0  0  0  0  0  0  0  0  0  0  0  0
  152.9837  138.5666  153.2784 H   0  0  0  0  0  0  0  0  0  0  0  0
  151.7153  136.6865  153.0962 H   0  0  0  0  0  0  0  0  0  0  0  0
  150.3932  137.6060  153.7769 H   0  0  0  0  0  0  0  0  0  0  0  0
  1  2  1  0  0  0  0
  1 24  1  0  0  0  0
  1 25  1  0  0  0  0
  1 26  1  0  0  0  0
  2  3  1  0  0  0  0
  2 27  1  0  0  0  0
  2 28  1  0  0  0  0
  3  4  1  0  0  0  0
  4 19  1  0  0  0  0
  4  5  1  0  0  0  0
  4 29  1  0  0  0  0
  5  6  1  0  0  0  0
  5 30  1  0  0  0  0
  5 31  1  0  0  0  0
  6  7  1  0  0  0  0
  6 19  1  0  0  0  0
  6 32  1  0  0  0  0
  7  8  1  0  0  0  0
  7 33  1  0  0  0  0
  8  9  2  0  0  0  0
  8 10  1  0  0  0  0
 10 11  1  0  0  0  0
 10 34  1  0  0  0  0
 11 17  1  0  0  0  0
 11 12  2  0  0  0  0
 12 13  1  0  0  0  0
 12 35  1  0  0  0  0
 13 14  2  0  0  0  0
 13 36  1  0  0  0  0
 14 15  1  0  0  0  0
 14 37  1  0  0  0  0
 15 16  1  0  0  0  0
 15 17  1  0  0  0  0
 16 38  1  0  0  0  0
 16 39  1  0  0  0  0
 16 40  1  0  0  0  0
 17 18  2  0  0  0  0
 19 23  1  0  0  0  0
 19 20  1  0  0  0  0
 20 21  1  0  0  0  0
 20 41  1  0  0  0  0
 20 42  1  0  0  0  0
 21 22  1  0  0  0  0
 21 43  1  0  0  0  0
 21 44  1  0  0  0  0
 22 23  1  0  0  0  0
 22 45  1  0  0  0  0
 22 46  1  0  0  0  0
 23 47  1  0  0  0  0
 23 48  1  0  0  0  0
M  END
> <s_m_source_file>
AV-unprocessed.smi

> <i_m_source_file_index>
709

> <i_lp_mmshare_version>
43012

> <i_f3d_flags>
0

> <s_epik_input>
W0NIMl0xW0NIMl1bQ0gyXVtDSDJdQzEyW0NASF0oT1tDSDJdW0NIM10pW0NIMl1bQ0BIXTJbTkhdQyg9TylbTkhdYzNbY0hdW2NIXVtjSF1uKFtDSDNdKWMzPU8=

> <s_epik_cmdline>
J2VwaWtfcHl0aG9uJywgJy1waCcsICc3LjAnLCAnLXRuJywgJzgnLCAnLW1hJywgJzIwMCcsICctbWV0YWxfYmluZGluZycsICctaW1hZScsICc8aW5maWxlLm1hZT4nLCAnLW9tYWUnLCAnPG91dGZpbGUubWFlPic=

> <r_lp_tautomer_probability>
1

> <r_epik_Ionization_Penalty>
2.50859e-05

> <r_epik_Ionization_Penalty_Charging>
5.10493e-06

> <r_epik_Ionization_Penalty_Neutral>
1.9981e-05

> <r_epik_State_Penalty>
-0

> <r_epik_Charging_Adjusted_Penalty>
5.10493e-06

> <i_epik_Tot_Q>
0

> <i_epik_Tot_abs_Q>
0

> <r_epik_Metal_State_Penalty>
-0

> <b_epik_Metal_Only>
0

> <s_lp_Force_Field>
OPLS_2005

> <r_lp_Energy>
50.6908

> <b_lp_Chiralities_Consistent>
1

> <s_lp_Variant>
AV-unprocessed.smi:709-1

> <Gold.Version>
5.8.1

> <Gold.Id.Protein>
6NUR|6NUR_protein|mol2

> <Gold.PLP.Fitness>
42.8930

> <Gold.PLP.PLP>
-37.5357

> <Gold.PLP.part.hbond>
-2.0000

> <Gold.PLP.part.metal>
0.0000

> <Gold.PLP.part.buried>
-5.8299

> <Gold.PLP.part.nonpolar>
-30.3206

> <Gold.PLP.part.repulsive>
0.2618

> <Gold.PLP.ligand.clash>
0.0000

> <Gold.PLP.ligand.torsion>
0.4926

> <Gold.PLP.Chemscore.Hbond>
2.0000

> <Gold.PLP.Chemscore.CHOScore>
0.0000

> <Gold.PLP.Chemscore.Metal>
0.0000

> <Gold.Chemscore.Hbonds>
donor molecule, donor type, donor heavy atom, donor atom, acceptor molecule, acceptor atom, score
      L1  H     7    33       P1  7948  0.25
      L1  H    10    34       P1  7948  0.75

> <Gold.PLP.Chemscore.Internal.Correction>
0.3425

> <Gold.Rescore>
     Score         DG    S(hbond)    S(metal)    S(lipo)     H(rot)  DE(clash)    DE(int)     intcor
     15.52     -17.01       1.58        0.00      83.22       1.36       0.06       1.42       ----

> <Gold.Chemscore.Fitness>
15.5242

> <Gold.Chemscore.DG>
-17.0128

> <Gold.Chemscore.ZeroCoef>
-5.4800

> <Gold.Chemscore.Hbond>
1.5802

> <Gold.Chemscore.Metal>
0.0000

> <Gold.Chemscore.Lipo>
83.2169

> <Gold.Chemscore.Internal_Hbond>
0.0000

> <Gold.Chemscore.DEClash>
0.0640

> <Gold.Chemscore.DEInternal>
1.4246

> <Gold.Chemscore.Rot>
1.3599

> <Gold.Chemscore.Internal.Correction>
   9.000000E+99

> <Gold.Chemscore.Hbonds>
donor molecule, donor type, donor heavy atom, donor atom, acceptor molecule, acceptor atom, score
      L1  H    10    34       P1  7948  0.09

> <Gold.Chemscore.Hbond.Weighted>
-5.2777

> <Gold.Chemscore.Metal.Weighted>
-0.0000

> <Gold.Chemscore.Lipo.Weighted>
-9.7364

> <Gold.Chemscore.Internal_Hbond.Weighted>
0.0000

> <Gold.Chemscore.DEClash.Weighted>
0.0640

> <Gold.Chemscore.DEInternal.Weighted>
1.4246

> <Gold.Chemscore.Rot.Weighted>
3.4813

> <Gold.Chemscore.Internal.Correction.Weighted>
   9.000000E+99

> <Gold.Protein.RotatedTorsions>
[ 6907 6896 6895 6894 ] final  136.90 input  -60.11 | X-H torsion
[ 7974 7965 7964 7962 ] final  161.86 input  175.53 | X-H torsion
[ 8008 7997 7996 7995 ] final -162.83 input   59.86 | X-H torsion
[ 10167 10162 10161 10158 ] final   -1.82 input  -65.29 | X-H torsion
[ 10718 10713 10712 10709 ] final    2.28 input   66.30 | X-H torsion
[ 10763 10752 10751 10750 ] final -155.44 input  -60.55 | X-H torsion
[ 11005 11000 10999 10996 ] final  123.35 input  -57.11 | X-H torsion

> <Gold.Protein.ActiveResidues>
 VAL166  LYS551  ARG553  GLY616  TRP617  ASP618  TYR619  PRO620  LYS621  CYS622 
 ASP623  PHE694  ASN695  SER759  ASP760  ASP761  ALA762  ILE779  LEU786  VAL792 
 PHE793  MET794  SER795  GLU796  ALA797  LYS798  CYS799  TRP800  GLU811  SER814 

> <Gold.Protein.RotatedAtoms>
  152.2842  133.5499  159.5516 H   0  0  0  0  0  0  0  0  0  0  0  0  # atno 6907 bound_to 6896
  150.7208  134.0521  159.3811 H   0  0  0  0  0  0  0  0  0  0  0  0  # atno 6908 bound_to 6896
  151.8430  135.0584  160.0501 H   0  0  0  0  0  0  0  0  0  0  0  0  # atno 6909 bound_to 6896
  144.7665  139.7958  143.6313 H   0  0  0  0  0  0  0  0  0  0  0  0  # atno 7974 bound_to 7965
  155.8124  140.0907  157.1896 H   0  0  0  0  0  0  0  0  0  0  0  0  # atno 8008 bound_to 7997
  154.3979  140.1452  156.3463 H   0  0  0  0  0  0  0  0  0  0  0  0  # atno 8009 bound_to 7997
  155.8351  140.3441  155.5599 H   0  0  0  0  0  0  0  0  0  0  0  0  # atno 8010 bound_to 7997
  140.6826  143.6730  150.8169 H   0  0  0  0  0  0  0  0  0  0  0  0  # atno 10167 bound_to 10162
  156.8607  130.5585  149.5663 H   0  0  0  0  0  0  0  0  0  0  0  0  # atno 10718 bound_to 10713
  154.7787  135.3167  154.8037 H   0  0  0  0  0  0  0  0  0  0  0  0  # atno 10763 bound_to 10752
  153.8754  135.6840  153.4775 H   0  0  0  0  0  0  0  0  0  0  0  0  # atno 10764 bound_to 10752
  153.1417  135.4736  154.9442 H   0  0  0  0  0  0  0  0  0  0  0  0  # atno 10765 bound_to 10752
  139.9309  134.9641  156.8246 H   0  0  0  0  0  0  0  0  0  0  0  0  # atno 11005 bound_to 11000
  146.1776  139.4954  142.9887 LP  0  0  0  0  0  0  0  0  0  0  0  0  # atno 17320 bound_to 7965
  145.6455  141.0275  143.1788 LP  0  0  0  0  0  0  0  0  0  0  0  0  # atno 17321 bound_to 7965
  140.0432  143.5325  152.2708 LP  0  0  0  0  0  0  0  0  0  0  0  0  # atno 17342 bound_to 10162
  139.6159  144.7619  151.2846 LP  0  0  0  0  0  0  0  0  0  0  0  0  # atno 17343 bound_to 10162
  156.0778  130.5796  150.9507 LP  0  0  0  0  0  0  0  0  0  0  0  0  # atno 17370 bound_to 10713
  157.6252  131.0926  150.8548 LP  0  0  0  0  0  0  0  0  0  0  0  0  # atno 17371 bound_to 10713
  140.6206  133.9998  155.7616 LP  0  0  0  0  0  0  0  0  0  0  0  0  # atno 17394 bound_to 11000
  141.0896  133.9937  157.3258 LP  0  0  0  0  0  0  0  0  0  0  0  0  # atno 17395 bound_to 11000

$$$$
