AV-unprocessed.smi:2947|AV-procd|sdf|11282|dock2
  -GOLD-   2272016173D 1   1.00000     0.00000
 Structure written by MMmdl.
 33 34  0  0  0  0  0  0  0  0  1 V2000
  150.7531  140.7019  156.3326 O   0  0  0  0  0  0  0  0  0  0  0  0
  150.0949  141.7345  156.2031 C   0  0  0  0  0  0  0  0  0  0  0  0
  149.0124  141.8741  155.4175 N   0  0  0  0  0  0  0  0  0  0  0  0
  148.4019  140.9006  154.5822 C   0  0  0  0  0  0  0  0  0  0  0  0
  147.4435  141.4069  153.6753 C   0  0  0  0  0  0  0  0  0  0  0  0
  146.7807  140.5227  152.8020 C   0  0  0  0  0  0  0  0  0  0  0  0
  147.0940  139.1528  152.8578 C   0  0  0  0  0  0  0  0  0  0  0  0
  148.0600  138.7313  153.7899 C   0  0  0  0  0  0  0  0  0  0  0  0
  148.6963  139.5769  154.6278 N   0  0  0  0  0  0  0  0  0  0  0  0
  150.3785  142.8778  156.8446 N   0  0  0  0  0  0  0  0  0  0  0  0
  151.4893  143.0716  157.7721 C   0  0  0  0  0  0  0  0  0  0  0  0
  151.4933  141.9719  158.8545 C   0  0  0  0  0  0  0  0  0  0  0  0
  152.6083  142.2032  159.8872 C   0  0  0  0  0  0  0  0  0  0  0  0
  152.5018  143.5991  160.5209 C   0  0  0  0  0  0  0  0  0  0  0  0
  152.5045  144.6971  159.4459 C   0  0  0  0  0  0  0  0  0  0  0  0
  151.3887  144.4690  158.4131 C   0  0  0  0  0  0  0  0  0  0  0  0
  148.5742  142.7832  155.4157 H   0  0  0  0  0  0  0  0  0  0  0  0
  147.2151  142.4624  153.6453 H   0  0  0  0  0  0  0  0  0  0  0  0
  146.0455  140.8903  152.1016 H   0  0  0  0  0  0  0  0  0  0  0  0
  146.6074  138.4439  152.2044 H   0  0  0  0  0  0  0  0  0  0  0  0
  148.3295  137.6881  153.8649 H   0  0  0  0  0  0  0  0  0  0  0  0
  149.7832  143.6758  156.6787 H   0  0  0  0  0  0  0  0  0  0  0  0
  152.4281  143.0221  157.2164 H   0  0  0  0  0  0  0  0  0  0  0  0
  150.5285  141.9507  159.3635 H   0  0  0  0  0  0  0  0  0  0  0  0
  151.6211  140.9907  158.3956 H   0  0  0  0  0  0  0  0  0  0  0  0
  152.5613  141.4379  160.6623 H   0  0  0  0  0  0  0  0  0  0  0  0
  153.5803  142.0943  159.4044 H   0  0  0  0  0  0  0  0  0  0  0  0
  151.5854  143.6649  161.1088 H   0  0  0  0  0  0  0  0  0  0  0  0
  153.3275  143.7563  161.2156 H   0  0  0  0  0  0  0  0  0  0  0  0
  152.3844  145.6750  159.9132 H   0  0  0  0  0  0  0  0  0  0  0  0
  153.4715  144.7124  158.9413 H   0  0  0  0  0  0  0  0  0  0  0  0
  151.4406  145.2390  157.6424 H   0  0  0  0  0  0  0  0  0  0  0  0
  150.4190  144.5842  158.9001 H   0  0  0  0  0  0  0  0  0  0  0  0
  1  2  2  0  0  0  0
  2  3  1  0  0  0  0
  2 10  1  0  0  0  0
  3  4  1  0  0  0  0
  3 17  1  0  0  0  0
  4  9  1  0  0  0  0
  4  5  2  0  0  0  0
  5  6  1  0  0  0  0
  5 18  1  0  0  0  0
  6  7  2  0  0  0  0
  6 19  1  0  0  0  0
  7  8  1  0  0  0  0
  7 20  1  0  0  0  0
  8  9  2  0  0  0  0
  8 21  1  0  0  0  0
 10 11  1  0  0  0  0
 10 22  1  0  0  0  0
 11 16  1  0  0  0  0
 11 12  1  0  0  0  0
 11 23  1  0  0  0  0
 12 13  1  0  0  0  0
 12 24  1  0  0  0  0
 12 25  1  0  0  0  0
 13 14  1  0  0  0  0
 13 26  1  0  0  0  0
 13 27  1  0  0  0  0
 14 15  1  0  0  0  0
 14 28  1  0  0  0  0
 14 29  1  0  0  0  0
 15 16  1  0  0  0  0
 15 30  1  0  0  0  0
 15 31  1  0  0  0  0
 16 32  1  0  0  0  0
 16 33  1  0  0  0  0
M  END
> <s_m_source_file>
AV-unprocessed.smi

> <i_m_source_file_index>
2947

> <i_lp_mmshare_version>
43012

> <i_f3d_flags>
0

> <s_epik_input>
W0NIMl0xW0NIMl1bQ0gyXVtDSDJdW0NIMl1bQ0hdMVtOSF1DKD1PKVtOSF1jMltjSF1bY0hdW2NIXVtjSF1uMg==

> <s_epik_cmdline>
J2VwaWtfcHl0aG9uJywgJy1waCcsICc3LjAnLCAnLXRuJywgJzgnLCAnLW1hJywgJzIwMCcsICctbWV0YWxfYmluZGluZycsICctaW1hZScsICc8aW5maWxlLm1hZT4nLCAnLW9tYWUnLCAnPG91dGZpbGUubWFlPic=

> <r_lp_tautomer_probability>
1

> <r_epik_Ionization_Penalty>
5.26121e-05

> <r_epik_Ionization_Penalty_Charging>
0

> <r_epik_Ionization_Penalty_Neutral>
5.26121e-05

> <r_epik_State_Penalty>
-0

> <r_epik_Charging_Adjusted_Penalty>
0

> <i_epik_Tot_Q>
0

> <i_epik_Tot_abs_Q>
0

> <r_epik_Metal_State_Penalty>
-0

> <b_epik_Metal_Only>
0

> <s_lp_Force_Field>
OPLS_2005

> <r_lp_Energy>
11.3585

> <b_lp_Chiralities_Consistent>
1

> <s_lp_Variant>
AV-unprocessed.smi:2947-1

> <Gold.Version>
5.8.1

> <Gold.Id.Protein>
6NUR|6NUR_protein|mol2

> <Gold.PLP.Fitness>
43.5673

> <Gold.PLP.PLP>
-35.3559

> <Gold.PLP.part.hbond>
-2.0000

> <Gold.PLP.part.metal>
0.0000

> <Gold.PLP.part.buried>
-2.8950

> <Gold.PLP.part.nonpolar>
-30.7546

> <Gold.PLP.part.repulsive>
0.3138

> <Gold.PLP.ligand.clash>
0.0000

> <Gold.PLP.ligand.torsion>
0.0844

> <Gold.PLP.Chemscore.Hbond>
1.9120

> <Gold.PLP.Chemscore.CHOScore>
0.8803

> <Gold.PLP.Chemscore.Metal>
0.0000

> <Gold.Chemscore.Hbonds>
donor molecule, donor type, donor heavy atom, donor atom, acceptor molecule, acceptor atom, score
      L1  H     3    17       P1  8028  0.91
      L1  H    10    22       P1  8028  1.00
      L1  C     8    21       P1  7948  0.84

> <Gold.PLP.Chemscore.Internal.Correction>
0.0034

> <Gold.Rescore>
     Score         DG    S(hbond)    S(metal)    S(lipo)     H(rot)  DE(clash)    DE(int)     intcor
     18.42     -20.68       1.87        0.00      98.32       1.00       0.33       1.94       ----

> <Gold.Chemscore.Fitness>
18.4228

> <Gold.Chemscore.DG>
-20.6833

> <Gold.Chemscore.ZeroCoef>
-5.4800

> <Gold.Chemscore.Hbond>
1.8743

> <Gold.Chemscore.Metal>
0.0000

> <Gold.Chemscore.Lipo>
98.3186

> <Gold.Chemscore.Internal_Hbond>
0.0000

> <Gold.Chemscore.DEClash>
0.3253

> <Gold.Chemscore.DEInternal>
1.9351

> <Gold.Chemscore.Rot>
1.0000

> <Gold.Chemscore.Internal.Correction>
   9.000000E+99

> <Gold.Chemscore.Hbonds>
donor molecule, donor type, donor heavy atom, donor atom, acceptor molecule, acceptor atom, score
      L1  H     3    17       P1  8028  0.88
      L1  H    10    22       P1  8028  0.97

> <Gold.Chemscore.Hbond.Weighted>
-6.2600

> <Gold.Chemscore.Metal.Weighted>
-0.0000

> <Gold.Chemscore.Lipo.Weighted>
-11.5033

> <Gold.Chemscore.Internal_Hbond.Weighted>
0.0000

> <Gold.Chemscore.DEClash.Weighted>
0.3253

> <Gold.Chemscore.DEInternal.Weighted>
1.9351

> <Gold.Chemscore.Rot.Weighted>
2.5600

> <Gold.Chemscore.Internal.Correction.Weighted>
   9.000000E+99

> <Gold.Protein.RotatedTorsions>
[ 6907 6896 6895 6894 ] final   -8.34 input  -60.11 | X-H torsion
[ 7974 7965 7964 7962 ] final  124.03 input  175.53 | X-H torsion
[ 8008 7997 7996 7995 ] final   22.49 input   59.86 | X-H torsion
[ 10167 10162 10161 10158 ] final  139.15 input  -65.29 | X-H torsion
[ 10718 10713 10712 10709 ] final -107.19 input   66.30 | X-H torsion
[ 10763 10752 10751 10750 ] final  -72.88 input  -60.55 | X-H torsion
[ 11005 11000 10999 10996 ] final   86.17 input  -57.11 | X-H torsion

> <Gold.Protein.ActiveResidues>
 VAL166  LYS551  ARG553  GLY616  TRP617  ASP618  TYR619  PRO620  LYS621  CYS622 
 ASP623  PHE694  ASN695  SER759  ASP760  ASP761  ALA762  ILE779  LEU786  VAL792 
 PHE793  MET794  SER795  GLU796  ALA797  LYS798  CYS799  TRP800  GLU811  SER814 

> <Gold.Protein.RotatedAtoms>
  151.4351  135.1014  159.9653 H   0  0  0  0  0  0  0  0  0  0  0  0  # atno 6907 bound_to 6896
  152.4942  133.8581  159.7246 H   0  0  0  0  0  0  0  0  0  0  0  0  # atno 6908 bound_to 6896
  150.9127  133.6919  159.2878 H   0  0  0  0  0  0  0  0  0  0  0  0  # atno 6909 bound_to 6896
  145.0891  139.3600  143.4870 H   0  0  0  0  0  0  0  0  0  0  0  0  # atno 7974 bound_to 7965
  154.9665  140.3084  155.5007 H   0  0  0  0  0  0  0  0  0  0  0  0  # atno 8008 bound_to 7997
  156.2971  140.2292  156.4693 H   0  0  0  0  0  0  0  0  0  0  0  0  # atno 8009 bound_to 7997
  154.7916  140.0439  157.1194 H   0  0  0  0  0  0  0  0  0  0  0  0  # atno 8010 bound_to 7997
  139.5088  144.6312  151.5814 H   0  0  0  0  0  0  0  0  0  0  0  0  # atno 10167 bound_to 10162
  156.0425  130.5650  150.7786 H   0  0  0  0  0  0  0  0  0  0  0  0  # atno 10718 bound_to 10713
  154.4518  135.5915  153.6197 H   0  0  0  0  0  0  0  0  0  0  0  0  # atno 10763 bound_to 10752
  152.9814  135.6023  154.3595 H   0  0  0  0  0  0  0  0  0  0  0  0  # atno 10764 bound_to 10752
  154.3457  135.2841  155.2378 H   0  0  0  0  0  0  0  0  0  0  0  0  # atno 10765 bound_to 10752
  139.8951  134.8337  156.2683 H   0  0  0  0  0  0  0  0  0  0  0  0  # atno 11005 bound_to 11000
  146.3531  140.0717  142.8623 LP  0  0  0  0  0  0  0  0  0  0  0  0  # atno 17320 bound_to 7965
  145.1087  140.9391  143.4669 LP  0  0  0  0  0  0  0  0  0  0  0  0  # atno 17321 bound_to 7965
  140.6045  143.9550  150.6409 LP  0  0  0  0  0  0  0  0  0  0  0  0  # atno 17342 bound_to 10162
  140.2772  143.3414  152.1184 LP  0  0  0  0  0  0  0  0  0  0  0  0  # atno 17343 bound_to 10162
  157.5260  131.0934  151.0017 LP  0  0  0  0  0  0  0  0  0  0  0  0  # atno 17370 bound_to 10713
  157.0335  130.5721  149.5346 LP  0  0  0  0  0  0  0  0  0  0  0  0  # atno 17371 bound_to 10713
  141.0117  133.7092  156.1123 LP  0  0  0  0  0  0  0  0  0  0  0  0  # atno 17394 bound_to 11000
  140.7358  134.4205  157.5561 LP  0  0  0  0  0  0  0  0  0  0  0  0  # atno 17395 bound_to 11000

$$$$
