AV-unprocessed.smi:2973|AV-procd|sdf|11344|dock4
  -GOLD-   2272016253D 1   1.00000     0.00000
 Structure written by MMmdl.
 50 52  0  0  0  0  0  0  0  0  2 V2000
  145.9792  134.3891  158.6990 C   0  0  0  0  0  0  0  0  0  0  0  0
  146.1269  134.9495  160.1293 C   0  0  1  0  0  0  0  0  0  0  0  0
  146.8831  133.9510  161.0326 C   0  0  0  0  0  0  0  0  0  0  0  0
  146.9549  134.4433  162.4865 C   0  0  0  0  0  0  0  0  0  0  0  0
  147.5956  135.8352  162.5776 C   0  0  0  0  0  0  0  0  0  0  0  0
  146.8571  136.8475  161.6837 C   0  0  0  0  0  0  0  0  0  0  0  0
  146.7385  136.3842  160.2095 C   0  0  2  0  0  0  0  0  0  0  0  0
  145.9384  137.3395  159.4625 N   0  0  0  0  0  0  0  0  0  0  0  0
  146.6215  137.9551  158.4901 C   0  0  0  0  0  0  0  0  0  0  0  0
  146.1660  138.8151  157.7379 O   0  0  0  0  0  0  0  0  0  0  0  0
  147.8763  137.4725  158.4848 N   0  0  0  0  0  0  0  0  0  0  0  0
  148.9290  137.9296  157.5687 C   0  0  0  0  0  0  0  0  0  0  0  0
  149.3642  139.3785  157.8286 C   0  0  0  0  0  0  0  0  0  0  0  0
  149.9716  139.6834  158.8561 O   0  0  0  0  0  0  0  0  0  0  0  0
  149.0512  140.2653  156.8723 N   0  0  0  0  0  0  0  0  0  0  0  0
  149.3649  141.6885  156.9151 C   0  0  0  0  0  0  0  0  0  0  0  0
  150.8827  141.9378  156.8974 C   0  0  0  0  0  0  0  0  0  0  0  0
  151.3105  142.9467  157.9447 C   0  0  0  0  0  0  0  0  0  0  0  0
  152.2869  142.6479  158.9197 C   0  0  0  0  0  0  0  0  0  0  0  0
  152.6445  143.6352  159.8615 C   0  0  0  0  0  0  0  0  0  0  0  0
  152.0200  144.8988  159.8078 C   0  0  0  0  0  0  0  0  0  0  0  0
  151.0533  145.1439  158.8113 C   0  0  0  0  0  0  0  0  0  0  0  0
  150.7387  144.1726  157.9263 N   0  3  0  0  0  0  0  0  0  0  0  0
  148.0543  136.5571  159.4470 C   0  0  0  0  0  0  0  0  0  0  0  0
  149.0938  135.9469  159.6974 O   0  0  0  0  0  0  0  0  0  0  0  0
  146.9474  134.2320  158.2229 H   0  0  0  0  0  0  0  0  0  0  0  0
  145.3976  135.0559  158.0626 H   0  0  0  0  0  0  0  0  0  0  0  0
  145.4642  133.4283  158.7120 H   0  0  0  0  0  0  0  0  0  0  0  0
  145.1133  135.0217  160.5271 H   0  0  0  0  0  0  0  0  0  0  0  0
  146.3852  132.9813  161.0090 H   0  0  0  0  0  0  0  0  0  0  0  0
  147.8902  133.7807  160.6517 H   0  0  0  0  0  0  0  0  0  0  0  0
  145.9504  134.4765  162.9103 H   0  0  0  0  0  0  0  0  0  0  0  0
  147.5210  133.7344  163.0912 H   0  0  0  0  0  0  0  0  0  0  0  0
  147.5818  136.1797  163.6119 H   0  0  0  0  0  0  0  0  0  0  0  0
  148.6463  135.7757  162.2943 H   0  0  0  0  0  0  0  0  0  0  0  0
  145.8579  137.0108  162.0899 H   0  0  0  0  0  0  0  0  0  0  0  0
  147.3623  137.8133  161.7411 H   0  0  0  0  0  0  0  0  0  0  0  0
  144.9692  137.5235  159.6776 H   0  0  0  0  0  0  0  0  0  0  0  0
  149.8071  137.2862  157.6454 H   0  0  0  0  0  0  0  0  0  0  0  0
  148.5817  137.8343  156.5383 H   0  0  0  0  0  0  0  0  0  0  0  0
  148.5588  139.9284  156.0572 H   0  0  0  0  0  0  0  0  0  0  0  0
  148.8839  142.1996  156.0794 H   0  0  0  0  0  0  0  0  0  0  0  0
  148.9284  142.1013  157.8249 H   0  0  0  0  0  0  0  0  0  0  0  0
  151.4177  141.0024  157.0675 H   0  0  0  0  0  0  0  0  0  0  0  0
  151.1977  142.2969  155.9166 H   0  0  0  0  0  0  0  0  0  0  0  0
  152.7582  141.6758  158.9459 H   0  0  0  0  0  0  0  0  0  0  0  0
  153.3893  143.4259  160.6155 H   0  0  0  0  0  0  0  0  0  0  0  0
  152.2798  145.6684  160.5200 H   0  0  0  0  0  0  0  0  0  0  0  0
  150.5263  146.0797  158.6957 H   0  0  0  0  0  0  0  0  0  0  0  0
  150.0362  144.3723  157.2139 H   0  0  0  0  0  0  0  0  0  0  0  0
  1  2  1  0  0  0  0
  1 26  1  0  0  0  0
  1 27  1  0  0  0  0
  1 28  1  0  0  0  0
  2  7  1  0  0  0  0
  2  3  1  0  0  0  0
  2 29  1  0  0  0  0
  3  4  1  0  0  0  0
  3 30  1  0  0  0  0
  3 31  1  0  0  0  0
  4  5  1  0  0  0  0
  4 32  1  0  0  0  0
  4 33  1  0  0  0  0
  5  6  1  0  0  0  0
  5 34  1  0  0  0  0
  5 35  1  0  0  0  0
  6  7  1  0  0  0  0
  6 36  1  0  0  0  0
  6 37  1  0  0  0  0
  7 24  1  0  0  0  0
  7  8  1  0  0  0  0
  8  9  1  0  0  0  0
  8 38  1  0  0  0  0
  9 10  2  0  0  0  0
  9 11  1  0  0  0  0
 11 12  1  0  0  0  0
 11 24  1  0  0  0  0
 12 13  1  0  0  0  0
 12 39  1  0  0  0  0
 12 40  1  0  0  0  0
 13 14  2  0  0  0  0
 13 15  1  0  0  0  0
 15 16  1  0  0  0  0
 15 41  1  0  0  0  0
 16 17  1  0  0  0  0
 16 42  1  0  0  0  0
 16 43  1  0  0  0  0
 17 18  1  0  0  0  0
 17 44  1  0  0  0  0
 17 45  1  0  0  0  0
 18 23  1  0  0  0  0
 18 19  2  0  0  0  0
 19 20  1  0  0  0  0
 19 46  1  0  0  0  0
 20 21  2  0  0  0  0
 20 47  1  0  0  0  0
 21 22  1  0  0  0  0
 21 48  1  0  0  0  0
 22 23  2  0  0  0  0
 22 49  1  0  0  0  0
 23 50  1  0  0  0  0
 24 25  2  0  0  0  0
M  CHG  1  23   1
M  END
> <s_m_source_file>
AV-unprocessed.smi

> <i_m_source_file_index>
2973

> <i_lp_mmshare_version>
43012

> <i_f3d_flags>
0

> <s_epik_input>
W0NIMl0xW0NIMl1bQ0gyXVtDSDJdW0NAQEhdKFtDSDNdKVtDQF0xMltOSF1DKD1PKU4oQzI9TylbQ0gyXUMoPU8pW05IXVtDSDJdW0NIMl1jM1tjSF1bY0hdW2NIXVtjSF1uMw==

> <s_epik_cmdline>
J2VwaWtfcHl0aG9uJywgJy1waCcsICc3LjAnLCAnLXRuJywgJzgnLCAnLW1hJywgJzIwMCcsICctbWV0YWxfYmluZGluZycsICctaW1hZScsICc8aW5maWxlLm1hZT4nLCAnLW9tYWUnLCAnPG91dGZpbGUubWFlPic=

> <r_lp_tautomer_probability>
1

> <r_epik_Ionization_Penalty>
1.90043

> <r_epik_Ionization_Penalty_Charging>
1.90039

> <r_epik_Ionization_Penalty_Neutral>
4.65525e-05

> <r_epik_State_Penalty>
2.02162

> <r_epik_Charging_Adjusted_Penalty>
3.922

> <i_epik_Tot_Q>
1

> <i_epik_Tot_abs_Q>
1

> <r_epik_Metal_State_Penalty>
2.06631

> <b_epik_Metal_Only>
0

> <s_lp_Force_Field>
OPLS_2005

> <r_lp_Energy>
22.9905

> <b_lp_Chiralities_Consistent>
1

> <s_lp_Variant>
AV-unprocessed.smi:2973-8

> <Gold.Version>
5.8.1

> <Gold.Id.Protein>
6NUR|6NUR_protein|mol2

> <Gold.PLP.Fitness>
49.9075

> <Gold.PLP.PLP>
-41.8368

> <Gold.PLP.part.hbond>
-2.6149

> <Gold.PLP.part.metal>
0.0000

> <Gold.PLP.part.buried>
-3.8335

> <Gold.PLP.part.nonpolar>
-35.9589

> <Gold.PLP.part.repulsive>
0.1693

> <Gold.PLP.ligand.clash>
0.0000

> <Gold.PLP.ligand.torsion>
0.4874

> <Gold.PLP.Chemscore.Hbond>
3.0000

> <Gold.PLP.Chemscore.CHOScore>
0.0000

> <Gold.PLP.Chemscore.Metal>
0.0000

> <Gold.Chemscore.Hbonds>
donor molecule, donor type, donor heavy atom, donor atom, acceptor molecule, acceptor atom, score
      L1  H    23    50       P1  8028  2.00
      P1  H  6896  6908       L1    25  0.94

> <Gold.PLP.Chemscore.Internal.Correction>
0.0456

> <Gold.Rescore>
     Score         DG    S(hbond)    S(metal)    S(lipo)     H(rot)  DE(clash)    DE(int)     intcor
     20.47     -21.17       1.97        0.00     120.84       1.96       0.21       0.49       ----

> <Gold.Chemscore.Fitness>
20.4730

> <Gold.Chemscore.DG>
-21.1679

> <Gold.Chemscore.ZeroCoef>
-5.4800

> <Gold.Chemscore.Hbond>
1.9693

> <Gold.Chemscore.Metal>
0.0000

> <Gold.Chemscore.Lipo>
120.8363

> <Gold.Chemscore.Internal_Hbond>
0.0000

> <Gold.Chemscore.DEClash>
0.2077

> <Gold.Chemscore.DEInternal>
0.4871

> <Gold.Chemscore.Rot>
1.9638

> <Gold.Chemscore.Internal.Correction>
   9.000000E+99

> <Gold.Chemscore.Hbonds>
donor molecule, donor type, donor heavy atom, donor atom, acceptor molecule, acceptor atom, score
      L1  H    23    50       P1  8028  0.55
      P1  H  6896  6908       L1    25  0.89

> <Gold.Chemscore.Hbond.Weighted>
-6.5774

> <Gold.Chemscore.Metal.Weighted>
-0.0000

> <Gold.Chemscore.Lipo.Weighted>
-14.1378

> <Gold.Chemscore.Internal_Hbond.Weighted>
0.0000

> <Gold.Chemscore.DEClash.Weighted>
0.2077

> <Gold.Chemscore.DEInternal.Weighted>
0.4871

> <Gold.Chemscore.Rot.Weighted>
5.0274

> <Gold.Chemscore.Internal.Correction.Weighted>
   9.000000E+99

> <Gold.Protein.RotatedTorsions>
[ 6907 6896 6895 6894 ] final -165.81 input  -60.11 | X-H torsion
[ 7974 7965 7964 7962 ] final  117.21 input  175.53 | X-H torsion
[ 8008 7997 7996 7995 ] final  144.82 input   59.86 | X-H torsion
[ 10167 10162 10161 10158 ] final  -62.57 input  -65.29 | X-H torsion
[ 10718 10713 10712 10709 ] final -167.51 input   66.30 | X-H torsion
[ 10763 10752 10751 10750 ] final  -83.18 input  -60.55 | X-H torsion
[ 11005 11000 10999 10996 ] final  135.15 input  -57.11 | X-H torsion

> <Gold.Protein.ActiveResidues>
 VAL166  LYS551  ARG553  GLY616  TRP617  ASP618  TYR619  PRO620  LYS621  CYS622 
 ASP623  PHE694  ASN695  SER759  ASP760  ASP761  ALA762  ILE779  LEU786  VAL792 
 PHE793  MET794  SER795  GLU796  ALA797  LYS798  CYS799  TRP800  GLU811  SER814 

> <Gold.Protein.RotatedAtoms>
  151.4335  133.3663  159.2771 H   0  0  0  0  0  0  0  0  0  0  0  0  # atno 6907 bound_to 6896
  150.9208  134.8627  159.7498 H   0  0  0  0  0  0  0  0  0  0  0  0  # atno 6908 bound_to 6896
  152.4980  134.4273  159.9552 H   0  0  0  0  0  0  0  0  0  0  0  0  # atno 6909 bound_to 6896
  145.1701  139.3106  143.4472 H   0  0  0  0  0  0  0  0  0  0  0  0  # atno 7974 bound_to 7965
  156.2899  140.2225  156.5115 H   0  0  0  0  0  0  0  0  0  0  0  0  # atno 8008 bound_to 7997
  154.7605  140.0473  157.0991 H   0  0  0  0  0  0  0  0  0  0  0  0  # atno 8009 bound_to 7997
  154.9997  140.3100  155.4875 H   0  0  0  0  0  0  0  0  0  0  0  0  # atno 8010 bound_to 7997
  140.5930  143.2345  151.6098 H   0  0  0  0  0  0  0  0  0  0  0  0  # atno 10167 bound_to 10162
  156.6835  130.9131  151.3060 H   0  0  0  0  0  0  0  0  0  0  0  0  # atno 10718 bound_to 10713
  154.5847  135.5565  153.7219 H   0  0  0  0  0  0  0  0  0  0  0  0  # atno 10763 bound_to 10752
  153.0094  135.6328  154.1933 H   0  0  0  0  0  0  0  0  0  0  0  0  # atno 10764 bound_to 10752
  154.1874  135.2884  155.3013 H   0  0  0  0  0  0  0  0  0  0  0  0  # atno 10765 bound_to 10752
  139.9961  134.9497  156.9967 H   0  0  0  0  0  0  0  0  0  0  0  0  # atno 11005 bound_to 11000
  146.3470  140.1843  142.8589 LP  0  0  0  0  0  0  0  0  0  0  0  0  # atno 17320 bound_to 7965
  145.0242  140.8818  143.5149 LP  0  0  0  0  0  0  0  0  0  0  0  0  # atno 17321 bound_to 7965
  139.5240  144.3118  152.0987 LP  0  0  0  0  0  0  0  0  0  0  0  0  # atno 17342 bound_to 10162
  140.2285  144.4393  150.6310 LP  0  0  0  0  0  0  0  0  0  0  0  0  # atno 17343 bound_to 10162
  157.7035  130.9359  150.0858 LP  0  0  0  0  0  0  0  0  0  0  0  0  # atno 17370 bound_to 10713
  156.1850  130.3652  149.8985 LP  0  0  0  0  0  0  0  0  0  0  0  0  # atno 17371 bound_to 10713
  140.4816  134.1284  155.7218 LP  0  0  0  0  0  0  0  0  0  0  0  0  # atno 17394 bound_to 11000
  141.1605  133.8801  157.1860 LP  0  0  0  0  0  0  0  0  0  0  0  0  # atno 17395 bound_to 11000

$$$$
