AV-unprocessed.smi:1586|AV-procd|sdf|6378|dock7
  -GOLD-   22720 7 13D 1   1.00000     0.00000
 Structure written by MMmdl.
 46 47  0  0  0  0  0  0  0  0  1 V2000
  151.9760  144.3872  159.5444 C   0  0  0  0  0  0  0  0  0  0  0  0
  151.8070  144.1003  158.0457 C   0  0  0  0  0  0  0  0  0  0  0  0
  151.3242  142.7582  157.7260 N   0  0  0  0  0  0  0  0  0  0  0  0
  151.2912  142.5470  156.2821 C   0  0  0  0  0  0  0  0  0  0  0  0
  150.7622  141.1471  155.9234 C   0  0  0  0  0  0  0  0  0  0  0  0
  151.5825  140.0719  156.5025 N   0  0  0  0  0  0  0  0  0  0  0  0
  151.0817  138.7219  156.1526 C   0  0  1  0  0  0  0  0  0  0  0  0
  149.6972  138.4194  156.7813 C   0  0  0  0  0  0  0  0  0  0  0  0
  151.0117  138.4754  154.6182 C   0  0  0  0  0  0  0  0  0  0  0  0
  150.3416  137.2249  154.2675 N   0  0  0  0  0  0  0  0  0  0  0  0
  150.4829  136.0557  154.9102 C   0  0  0  0  0  0  0  0  0  0  0  0
  151.2062  135.9000  155.8943 O   0  0  0  0  0  0  0  0  0  0  0  0
  149.7451  135.0922  154.3332 N   0  0  0  0  0  0  0  0  0  0  0  0
  149.6677  133.7250  154.7021 C   0  0  0  0  0  0  0  0  0  0  0  0
  148.9614  132.7924  153.8971 C   0  0  0  0  0  0  0  0  0  0  0  0
  149.1246  131.6164  154.5738 C   0  0  0  0  0  0  0  0  0  0  0  0
  148.6599  130.2243  154.3150 C   0  0  0  0  0  0  0  0  0  0  0  0
  149.8651  131.8152  155.6979 O   0  0  0  0  0  0  0  0  0  0  0  0
  150.2112  133.1694  155.7742 N   0  0  0  0  0  0  0  0  0  0  0  0
  151.6391  140.3031  157.9545 C   0  0  0  0  0  0  0  0  0  0  0  0
  152.1590  141.7090  158.3093 C   0  0  0  0  0  0  0  0  0  0  0  0
  152.2406  145.4321  159.7061 H   0  0  0  0  0  0  0  0  0  0  0  0
  152.7653  143.7820  159.9895 H   0  0  0  0  0  0  0  0  0  0  0  0
  151.0514  144.1923  160.0887 H   0  0  0  0  0  0  0  0  0  0  0  0
  151.0994  144.8309  157.6520 H   0  0  0  0  0  0  0  0  0  0  0  0
  152.7497  144.2889  157.5299 H   0  0  0  0  0  0  0  0  0  0  0  0
  150.6535  143.2979  155.8143 H   0  0  0  0  0  0  0  0  0  0  0  0
  152.2890  142.6797  155.8600 H   0  0  0  0  0  0  0  0  0  0  0  0
  149.7264  141.0476  156.2519 H   0  0  0  0  0  0  0  0  0  0  0  0
  150.7571  141.0846  154.8371 H   0  0  0  0  0  0  0  0  0  0  0  0
  151.7809  137.9897  156.5597 H   0  0  0  0  0  0  0  0  0  0  0  0
  149.3191  137.4368  156.5041 H   0  0  0  0  0  0  0  0  0  0  0  0
  148.9547  139.1556  156.4719 H   0  0  0  0  0  0  0  0  0  0  0  0
  149.7273  138.4058  157.8695 H   0  0  0  0  0  0  0  0  0  0  0  0
  150.5488  139.3297  154.1212 H   0  0  0  0  0  0  0  0  0  0  0  0
  152.0074  138.3770  154.1902 H   0  0  0  0  0  0  0  0  0  0  0  0
  149.7264  137.2536  153.4676 H   0  0  0  0  0  0  0  0  0  0  0  0
  149.1922  135.3616  153.5331 H   0  0  0  0  0  0  0  0  0  0  0  0
  148.4245  132.9554  152.9742 H   0  0  0  0  0  0  0  0  0  0  0  0
  148.2807  130.1228  153.2981 H   0  0  0  0  0  0  0  0  0  0  0  0
  147.8606  129.9505  155.0037 H   0  0  0  0  0  0  0  0  0  0  0  0
  149.4761  129.5130  154.4430 H   0  0  0  0  0  0  0  0  0  0  0  0
  150.6533  140.1517  158.3970 H   0  0  0  0  0  0  0  0  0  0  0  0
  152.3128  139.5940  158.4310 H   0  0  0  0  0  0  0  0  0  0  0  0
  153.1897  141.8152  157.9668 H   0  0  0  0  0  0  0  0  0  0  0  0
  152.1798  141.8046  159.3944 H   0  0  0  0  0  0  0  0  0  0  0  0
  1  2  1  0  0  0  0
  1 22  1  0  0  0  0
  1 23  1  0  0  0  0
  1 24  1  0  0  0  0
  2  3  1  0  0  0  0
  2 25  1  0  0  0  0
  2 26  1  0  0  0  0
  3 21  1  0  0  0  0
  3  4  1  0  0  0  0
  4  5  1  0  0  0  0
  4 27  1  0  0  0  0
  4 28  1  0  0  0  0
  5  6  1  0  0  0  0
  5 29  1  0  0  0  0
  5 30  1  0  0  0  0
  6  7  1  0  0  0  0
  6 20  1  0  0  0  0
  7  8  1  0  0  0  0
  7  9  1  0  0  0  0
  7 31  1  0  0  0  0
  8 32  1  0  0  0  0
  8 33  1  0  0  0  0
  8 34  1  0  0  0  0
  9 10  1  0  0  0  0
  9 35  1  0  0  0  0
  9 36  1  0  0  0  0
 10 11  1  0  0  0  0
 10 37  1  0  0  0  0
 11 12  2  0  0  0  0
 11 13  1  0  0  0  0
 13 14  1  0  0  0  0
 13 38  1  0  0  0  0
 14 19  2  0  0  0  0
 14 15  1  0  0  0  0
 15 16  2  0  0  0  0
 15 39  1  0  0  0  0
 16 17  1  0  0  0  0
 16 18  1  0  0  0  0
 17 40  1  0  0  0  0
 17 41  1  0  0  0  0
 17 42  1  0  0  0  0
 18 19  1  0  0  0  0
 20 21  1  0  0  0  0
 20 43  1  0  0  0  0
 20 44  1  0  0  0  0
 21 45  1  0  0  0  0
 21 46  1  0  0  0  0
M  END
> <s_m_source_file>
AV-unprocessed.smi

> <i_m_source_file_index>
1586

> <i_lp_mmshare_version>
43012

> <i_f3d_flags>
0

> <s_epik_input>
W0NIM11bQ0gyXU4xW0NIMl1bQ0gyXU4oW0NIMl1bQ0gyXTEpW0NASF0oW0NIM10pW0NIMl1bTkhdQyg9TylbTkhdYzJbY0hdYyhbQ0gzXSlvbjI=

> <s_epik_cmdline>
J2VwaWtfcHl0aG9uJywgJy1waCcsICc3LjAnLCAnLXRuJywgJzgnLCAnLW1hJywgJzIwMCcsICctbWV0YWxfYmluZGluZycsICctaW1hZScsICc8aW5maWxlLm1hZT4nLCAnLW9tYWUnLCAnPG91dGZpbGUubWFlPic=

> <r_epik_Ionization_Penalty>
2.42597

> <r_epik_Ionization_Penalty_Charging>
0

> <r_epik_Ionization_Penalty_Neutral>
2.42597

> <r_epik_State_Penalty>
1.76326

> <r_epik_Charging_Adjusted_Penalty>
1.76326

> <i_epik_Tot_Q>
0

> <i_epik_Tot_abs_Q>
0

> <r_epik_Metal_State_Penalty>
1.7742

> <b_epik_Metal_Only>
0

> <s_lp_Force_Field>
OPLS_2005

> <r_lp_Energy>
39.6445

> <b_lp_Chiralities_Consistent>
1

> <s_lp_Variant>
AV-unprocessed.smi:1586-6

> <Gold.Version>
5.8.1

> <Gold.Id.Protein>
6NUR|6NUR_protein|mol2

> <Gold.PLP.Fitness>
44.5907

> <Gold.PLP.PLP>
-36.3662

> <Gold.PLP.part.hbond>
-4.3149

> <Gold.PLP.part.metal>
0.0000

> <Gold.PLP.part.buried>
-5.3626

> <Gold.PLP.part.nonpolar>
-27.0674

> <Gold.PLP.part.repulsive>
0.2531

> <Gold.PLP.ligand.clash>
0.0000

> <Gold.PLP.ligand.torsion>
0.2431

> <Gold.PLP.Chemscore.Hbond>
2.8882

> <Gold.PLP.Chemscore.CHOScore>
0.0000

> <Gold.PLP.Chemscore.Metal>
0.0000

> <Gold.Chemscore.Hbonds>
donor molecule, donor type, donor heavy atom, donor atom, acceptor molecule, acceptor atom, score
      L1  H    10    37       P1  7948  0.91
      L1  H    13    38       P1  7948  1.00
      P1  H 10752 10763       L1    12  0.67

> <Gold.PLP.Chemscore.Internal.Correction>
0.0463

> <Gold.Rescore>
     Score         DG    S(hbond)    S(metal)    S(lipo)     H(rot)  DE(clash)    DE(int)     intcor
     14.72     -17.92       2.01        0.00      86.45       1.72       0.30       2.90       ----

> <Gold.Chemscore.Fitness>
14.7182

> <Gold.Chemscore.DG>
-17.9160

> <Gold.Chemscore.ZeroCoef>
-5.4800

> <Gold.Chemscore.Hbond>
2.0116

> <Gold.Chemscore.Metal>
0.0000

> <Gold.Chemscore.Lipo>
86.4510

> <Gold.Chemscore.Internal_Hbond>
0.0000

> <Gold.Chemscore.DEClash>
0.3020

> <Gold.Chemscore.DEInternal>
2.8957

> <Gold.Chemscore.Rot>
1.7178

> <Gold.Chemscore.Internal.Correction>
   9.000000E+99

> <Gold.Chemscore.Hbonds>
donor molecule, donor type, donor heavy atom, donor atom, acceptor molecule, acceptor atom, score
      L1  H    10    37       P1  7948  0.59
      L1  H    13    38       P1  7948  0.38
      P1  H 10752 10763       L1    12  0.33

> <Gold.Chemscore.Hbond.Weighted>
-6.7189

> <Gold.Chemscore.Metal.Weighted>
-0.0000

> <Gold.Chemscore.Lipo.Weighted>
-10.1148

> <Gold.Chemscore.Internal_Hbond.Weighted>
0.0000

> <Gold.Chemscore.DEClash.Weighted>
0.3020

> <Gold.Chemscore.DEInternal.Weighted>
2.8957

> <Gold.Chemscore.Rot.Weighted>
4.3976

> <Gold.Chemscore.Internal.Correction.Weighted>
   9.000000E+99

> <Gold.Protein.RotatedTorsions>
[ 6907 6896 6895 6894 ] final   64.72 input  -60.11 | X-H torsion
[ 7974 7965 7964 7962 ] final -179.89 input  175.53 | X-H torsion
[ 8008 7997 7996 7995 ] final -136.23 input   59.86 | X-H torsion
[ 10167 10162 10161 10158 ] final   12.22 input  -65.29 | X-H torsion
[ 10718 10713 10712 10709 ] final  -56.03 input   66.30 | X-H torsion
[ 10763 10752 10751 10750 ] final   92.66 input  -60.55 | X-H torsion
[ 11005 11000 10999 10996 ] final -166.12 input  -57.11 | X-H torsion

> <Gold.Protein.ActiveResidues>
 VAL166  LYS551  ARG553  GLY616  TRP617  ASP618  TYR619  PRO620  LYS621  CYS622 
 ASP623  PHE694  ASN695  SER759  ASP760  ASP761  ALA762  ILE779  LEU786  VAL792 
 PHE793  MET794  SER795  GLU796  ALA797  LYS798  CYS799  TRP800  GLU811  SER814 

> <Gold.Protein.RotatedAtoms>
  152.4353  134.5699  159.9917 H   0  0  0  0  0  0  0  0  0  0  0  0  # atno 6907 bound_to 6896
  151.5811  133.3372  159.3016 H   0  0  0  0  0  0  0  0  0  0  0  0  # atno 6908 bound_to 6896
  150.8250  134.7512  159.6870 H   0  0  0  0  0  0  0  0  0  0  0  0  # atno 6909 bound_to 6896
  144.7140  140.0650  143.6431 H   0  0  0  0  0  0  0  0  0  0  0  0  # atno 7974 bound_to 7965
  155.3919  140.0500  157.3040 H   0  0  0  0  0  0  0  0  0  0  0  0  # atno 8008 bound_to 7997
  154.5032  140.2164  155.9265 H   0  0  0  0  0  0  0  0  0  0  0  0  # atno 8009 bound_to 7997
  156.1493  140.3139  155.8627 H   0  0  0  0  0  0  0  0  0  0  0  0  # atno 8010 bound_to 7997
  140.6082  143.8463  150.7036 H   0  0  0  0  0  0  0  0  0  0  0  0  # atno 10167 bound_to 10162
  156.1321  130.4159  150.0250 H   0  0  0  0  0  0  0  0  0  0  0  0  # atno 10718 bound_to 10713
  153.2216  135.4353  155.0495 H   0  0  0  0  0  0  0  0  0  0  0  0  # atno 10763 bound_to 10752
  154.8252  135.3357  154.6919 H   0  0  0  0  0  0  0  0  0  0  0  0  # atno 10764 bound_to 10752
  153.7351  135.7008  153.5036 H   0  0  0  0  0  0  0  0  0  0  0  0  # atno 10765 bound_to 10752
  140.5680  134.5266  157.5156 H   0  0  0  0  0  0  0  0  0  0  0  0  # atno 11005 bound_to 11000
  145.9832  139.2957  143.1029 LP  0  0  0  0  0  0  0  0  0  0  0  0  # atno 17320 bound_to 7965
  145.8987  140.9257  143.0514 LP  0  0  0  0  0  0  0  0  0  0  0  0  # atno 17321 bound_to 7965
  140.2025  143.3947  152.1780 LP  0  0  0  0  0  0  0  0  0  0  0  0  # atno 17342 bound_to 10162
  139.5341  144.7191  151.4954 LP  0  0  0  0  0  0  0  0  0  0  0  0  # atno 17343 bound_to 10162
  156.8160  130.9342  151.3643 LP  0  0  0  0  0  0  0  0  0  0  0  0  # atno 17370 bound_to 10713
  157.6498  130.8874  149.9609 LP  0  0  0  0  0  0  0  0  0  0  0  0  # atno 17371 bound_to 10713
  139.9375  134.7848  156.0764 LP  0  0  0  0  0  0  0  0  0  0  0  0  # atno 17394 bound_to 11000
  141.1073  133.6655  156.2895 LP  0  0  0  0  0  0  0  0  0  0  0  0  # atno 17395 bound_to 11000

$$$$
