AV-unprocessed.smi:2410|AV-procd|sdf|9526|dock3
  -GOLD-   2272013153D 1   1.00000     0.00000
 Structure written by MMmdl.
 46 48  0  0  0  0  0  0  0  0  1 V2000
  151.9222  142.4434  158.3491 C   0  0  0  0  0  0  0  0  0  0  0  0
  151.0106  141.7679  157.3399 C   0  0  0  0  0  0  0  0  0  0  0  0
  151.5748  140.9032  156.3747 C   0  0  0  0  0  0  0  0  0  0  0  0
  150.7611  140.2516  155.4221 C   0  0  0  0  0  0  0  0  0  0  0  0
  151.0935  139.3752  154.4028 N   0  0  0  0  0  0  0  0  0  0  0  0
  149.9014  139.1157  153.8729 C   0  0  0  0  0  0  0  0  0  0  0  0
  148.8348  139.7207  154.4301 N   0  0  0  0  0  0  0  0  0  0  0  0
  147.4434  139.5953  154.0370 C   0  0  0  0  0  0  0  0  0  0  0  0
  147.2241  138.4498  153.0301 C   0  0  2  0  0  0  0  0  0  0  0  0
  147.1624  139.0048  151.7300 O   0  0  0  0  0  0  0  0  0  0  0  0
  145.9132  137.6825  153.3059 C   0  0  0  0  0  0  0  0  0  0  0  0
  145.9231  136.3407  152.7000 N   0  0  0  0  0  0  0  0  0  0  0  0
  145.6052  136.2720  151.3340 C   0  0  0  0  0  0  0  0  0  0  0  0
  145.5770  135.1458  150.6994 N   0  0  0  0  0  0  0  0  0  0  0  0
  145.8748  133.9579  151.3735 C   0  0  0  0  0  0  0  0  0  0  0  0
  145.8049  132.6931  150.5362 C   0  0  0  0  0  0  0  0  0  0  0  0
  146.2059  133.9580  152.6939 C   0  0  0  0  0  0  0  0  0  0  0  0
  146.5438  132.6968  153.4792 C   0  0  0  0  0  0  0  0  0  0  0  0
  146.2471  135.2329  153.4281 C   0  0  0  0  0  0  0  0  0  0  0  0
  146.5534  135.3091  154.6199 O   0  0  0  0  0  0  0  0  0  0  0  0
  149.3567  140.4911  155.4626 C   0  0  0  0  0  0  0  0  0  0  0  0
  148.7836  141.3520  156.4151 C   0  0  0  0  0  0  0  0  0  0  0  0
  149.6109  141.9947  157.3594 C   0  0  0  0  0  0  0  0  0  0  0  0
  148.9814  142.9193  158.3864 C   0  0  0  0  0  0  0  0  0  0  0  0
  152.9607  142.1407  158.2126 H   0  0  0  0  0  0  0  0  0  0  0  0
  151.6281  142.1802  159.3654 H   0  0  0  0  0  0  0  0  0  0  0  0
  151.8728  143.5272  158.2428 H   0  0  0  0  0  0  0  0  0  0  0  0
  152.6410  140.7308  156.3594 H   0  0  0  0  0  0  0  0  0  0  0  0
  149.7961  138.4434  153.0339 H   0  0  0  0  0  0  0  0  0  0  0  0
  146.8579  139.4189  154.9402 H   0  0  0  0  0  0  0  0  0  0  0  0
  147.1026  140.5458  153.6237 H   0  0  0  0  0  0  0  0  0  0  0  0
  148.0777  137.7721  153.0772 H   0  0  0  0  0  0  0  0  0  0  0  0
  148.0110  139.3593  151.5131 H   0  0  0  0  0  0  0  0  0  0  0  0
  145.7797  137.5648  154.3830 H   0  0  0  0  0  0  0  0  0  0  0  0
  145.0473  138.2717  152.9964 H   0  0  0  0  0  0  0  0  0  0  0  0
  145.3897  137.2275  150.8530 H   0  0  0  0  0  0  0  0  0  0  0  0
  145.0654  132.0046  150.9456 H   0  0  0  0  0  0  0  0  0  0  0  0
  146.7742  132.1941  150.5161 H   0  0  0  0  0  0  0  0  0  0  0  0
  145.5208  132.9134  149.5064 H   0  0  0  0  0  0  0  0  0  0  0  0
  147.5580  132.7618  153.8752 H   0  0  0  0  0  0  0  0  0  0  0  0
  146.4835  131.7891  152.8811 H   0  0  0  0  0  0  0  0  0  0  0  0
  145.8582  132.5815  154.3195 H   0  0  0  0  0  0  0  0  0  0  0  0
  147.7154  141.5124  156.4200 H   0  0  0  0  0  0  0  0  0  0  0  0
  147.9088  143.0259  158.2207 H   0  0  0  0  0  0  0  0  0  0  0  0
  149.4266  143.9131  158.3335 H   0  0  0  0  0  0  0  0  0  0  0  0
  149.1283  142.5264  159.3926 H   0  0  0  0  0  0  0  0  0  0  0  0
  1  2  1  0  0  0  0
  1 25  1  0  0  0  0
  1 26  1  0  0  0  0
  1 27  1  0  0  0  0
  2 23  1  0  0  0  0
  2  3  2  0  0  0  0
  3  4  1  0  0  0  0
  3 28  1  0  0  0  0
  4 21  2  0  0  0  0
  4  5  1  0  0  0  0
  5  6  2  0  0  0  0
  6  7  1  0  0  0  0
  6 29  1  0  0  0  0
  7  8  1  0  0  0  0
  7 21  1  0  0  0  0
  8  9  1  0  0  0  0
  8 30  1  0  0  0  0
  8 31  1  0  0  0  0
  9 10  1  0  0  0  0
  9 11  1  0  0  0  0
  9 32  1  0  0  0  0
 10 33  1  0  0  0  0
 11 12  1  0  0  0  0
 11 34  1  0  0  0  0
 11 35  1  0  0  0  0
 12 19  1  0  0  0  0
 12 13  1  0  0  0  0
 13 14  2  0  0  0  0
 13 36  1  0  0  0  0
 14 15  1  0  0  0  0
 15 16  1  0  0  0  0
 15 17  2  0  0  0  0
 16 37  1  0  0  0  0
 16 38  1  0  0  0  0
 16 39  1  0  0  0  0
 17 18  1  0  0  0  0
 17 19  1  0  0  0  0
 18 40  1  0  0  0  0
 18 41  1  0  0  0  0
 18 42  1  0  0  0  0
 19 20  2  0  0  0  0
 21 22  1  0  0  0  0
 22 23  2  0  0  0  0
 22 43  1  0  0  0  0
 23 24  1  0  0  0  0
 24 44  1  0  0  0  0
 24 45  1  0  0  0  0
 24 46  1  0  0  0  0
M  END
> <s_m_source_file>
AV-unprocessed.smi

> <i_m_source_file_index>
2410

> <i_lp_mmshare_version>
43012

> <i_f3d_flags>
0

> <s_epik_input>
W0NIM11jKFtjSF0xKWMoW0NIM10pW2NIXWMoYzEyKW4oW2NIXW4yKVtDSDJdW0NASF0oW09IXSlbQ0gyXW4zW2NIXW5jKFtDSDNdKWMoW0NIM10pYzM9Tw==

> <s_epik_cmdline>
J2VwaWtfcHl0aG9uJywgJy1waCcsICc3LjAnLCAnLXRuJywgJzgnLCAnLW1hJywgJzIwMCcsICctbWV0YWxfYmluZGluZycsICctaW1hZScsICc8aW5maWxlLm1hZT4nLCAnLW9tYWUnLCAnPG91dGZpbGUubWFlPic=

> <r_lp_tautomer_probability>
1

> <r_epik_Ionization_Penalty>
0.113377

> <r_epik_Ionization_Penalty_Charging>
7.56033e-08

> <r_epik_Ionization_Penalty_Neutral>
0.113377

> <r_epik_State_Penalty>
0.103025

> <r_epik_Charging_Adjusted_Penalty>
0.103025

> <i_epik_Tot_Q>
0

> <i_epik_Tot_abs_Q>
0

> <r_epik_Metal_State_Penalty>
0.0863476

> <b_epik_Metal_Only>
0

> <s_lp_Force_Field>
OPLS_2005

> <r_lp_Energy>
18.2684

> <b_lp_Chiralities_Consistent>
1

> <s_lp_Variant>
AV-unprocessed.smi:2410-1

> <Gold.Version>
5.8.1

> <Gold.Id.Protein>
6NUR|6NUR_protein|mol2

> <Gold.PLP.Fitness>
43.3997

> <Gold.PLP.PLP>
-34.7104

> <Gold.PLP.part.hbond>
-2.5707

> <Gold.PLP.part.metal>
0.0000

> <Gold.PLP.part.buried>
-2.3702

> <Gold.PLP.part.nonpolar>
-30.2283

> <Gold.PLP.part.repulsive>
0.6086

> <Gold.PLP.ligand.clash>
0.0000

> <Gold.PLP.ligand.torsion>
1.1677

> <Gold.PLP.Chemscore.Hbond>
1.3500

> <Gold.PLP.Chemscore.CHOScore>
2.3099

> <Gold.PLP.Chemscore.Metal>
0.0000

> <Gold.Chemscore.Hbonds>
donor molecule, donor type, donor heavy atom, donor atom, acceptor molecule, acceptor atom, score
      L1  H    10    33       P1  7957  1.00
      P1  H  7989  7998       L1     5  0.30
      L1  C     6    29       P1  7948  0.84
      L1  C     6    29       P1  7957  0.44
      L1  C    13    36       P1 10171  1.00

> <Gold.PLP.Chemscore.Internal.Correction>
0.0451

> <Gold.Rescore>
     Score         DG    S(hbond)    S(metal)    S(lipo)     H(rot)  DE(clash)    DE(int)     intcor
     11.32     -12.34       1.00        0.00      81.47       2.35       0.01       1.01       ----

> <Gold.Chemscore.Fitness>
11.3215

> <Gold.Chemscore.DG>
-12.3353

> <Gold.Chemscore.ZeroCoef>
-5.4800

> <Gold.Chemscore.Hbond>
0.9982

> <Gold.Chemscore.Metal>
0.0000

> <Gold.Chemscore.Lipo>
81.4682

> <Gold.Chemscore.Internal_Hbond>
0.0000

> <Gold.Chemscore.DEClash>
0.0056

> <Gold.Chemscore.DEInternal>
1.0082

> <Gold.Chemscore.Rot>
2.3479

> <Gold.Chemscore.Internal.Correction>
   9.000000E+99

> <Gold.Chemscore.Hbonds>
donor molecule, donor type, donor heavy atom, donor atom, acceptor molecule, acceptor atom, score
      L1  H    10    33       P1  7957  0.97

> <Gold.Chemscore.Hbond.Weighted>
-3.3341

> <Gold.Chemscore.Metal.Weighted>
-0.0000

> <Gold.Chemscore.Lipo.Weighted>
-9.5318

> <Gold.Chemscore.Internal_Hbond.Weighted>
0.0000

> <Gold.Chemscore.DEClash.Weighted>
0.0056

> <Gold.Chemscore.DEInternal.Weighted>
1.0082

> <Gold.Chemscore.Rot.Weighted>
6.0106

> <Gold.Chemscore.Internal.Correction.Weighted>
   9.000000E+99

> <Gold.Protein.RotatedTorsions>
[ 6907 6896 6895 6894 ] final  -41.73 input  -60.11 | X-H torsion
[ 7974 7965 7964 7962 ] final   78.27 input  175.53 | X-H torsion
[ 8008 7997 7996 7995 ] final  -42.96 input   59.86 | X-H torsion
[ 10167 10162 10161 10158 ] final -141.94 input  -65.29 | X-H torsion
[ 10718 10713 10712 10709 ] final   21.84 input   66.30 | X-H torsion
[ 10763 10752 10751 10750 ] final  -81.28 input  -60.55 | X-H torsion
[ 11005 11000 10999 10996 ] final -176.40 input  -57.11 | X-H torsion

> <Gold.Protein.ActiveResidues>
 VAL166  LYS551  ARG553  GLY616  TRP617  ASP618  TYR619  PRO620  LYS621  CYS622 
 ASP623  PHE694  ASN695  SER759  ASP760  ASP761  ALA762  ILE779  LEU786  VAL792 
 PHE793  MET794  SER795  GLU796  ALA797  LYS798  CYS799  TRP800  GLU811  SER814 

> <Gold.Protein.RotatedAtoms>
  150.9633  134.9018  159.7743 H   0  0  0  0  0  0  0  0  0  0  0  0  # atno 6907 bound_to 6896
  152.5164  134.3642  159.9305 H   0  0  0  0  0  0  0  0  0  0  0  0  # atno 6908 bound_to 6896
  151.3653  133.3834  159.2728 H   0  0  0  0  0  0  0  0  0  0  0  0  # atno 6909 bound_to 6896
  145.6793  139.2519  143.1823 H   0  0  0  0  0  0  0  0  0  0  0  0  # atno 7974 bound_to 7965
  154.3997  140.1460  156.3441 H   0  0  0  0  0  0  0  0  0  0  0  0  # atno 8008 bound_to 7997
  155.8330  140.3465  155.5563 H   0  0  0  0  0  0  0  0  0  0  0  0  # atno 8009 bound_to 7997
  155.8168  140.0892  157.1862 H   0  0  0  0  0  0  0  0  0  0  0  0  # atno 8010 bound_to 7997
  139.8136  143.7669  152.2664 H   0  0  0  0  0  0  0  0  0  0  0  0  # atno 10167 bound_to 10162
  157.1440  130.6645  149.5990 H   0  0  0  0  0  0  0  0  0  0  0  0  # atno 10718 bound_to 10713
  154.5617  135.5631  153.7013 H   0  0  0  0  0  0  0  0  0  0  0  0  # atno 10763 bound_to 10752
  153.0020  135.6275  154.2236 H   0  0  0  0  0  0  0  0  0  0  0  0  # atno 10764 bound_to 10752
  154.2174  135.2871  155.2917 H   0  0  0  0  0  0  0  0  0  0  0  0  # atno 10765 bound_to 10752
  140.4526  134.6329  157.4807 H   0  0  0  0  0  0  0  0  0  0  0  0  # atno 11005 bound_to 11000
  146.0978  140.7580  142.9564 LP  0  0  0  0  0  0  0  0  0  0  0  0  # atno 17320 bound_to 7965
  144.7031  140.3739  143.7140 LP  0  0  0  0  0  0  0  0  0  0  0  0  # atno 17321 bound_to 7965
  139.7826  144.7439  151.0067 LP  0  0  0  0  0  0  0  0  0  0  0  0  # atno 17342 bound_to 10162
  140.7817  143.4526  151.0391 LP  0  0  0  0  0  0  0  0  0  0  0  0  # atno 17343 bound_to 10162
  155.9783  130.4767  150.6647 LP  0  0  0  0  0  0  0  0  0  0  0  0  # atno 17370 bound_to 10713
  157.4281  131.0845  151.1065 LP  0  0  0  0  0  0  0  0  0  0  0  0  # atno 17371 bound_to 10713
  139.9997  134.6855  155.9550 LP  0  0  0  0  0  0  0  0  0  0  0  0  # atno 17394 bound_to 11000
  141.1657  133.6537  156.4473 LP  0  0  0  0  0  0  0  0  0  0  0  0  # atno 17395 bound_to 11000

$$$$
