AV-unprocessed.smi:2036|AV-procd|sdf|8275|dock2
  -GOLD-   2272010543D 1   1.00000     0.00000
 Structure written by MMmdl.
 41 42  0  0  0  0  0  0  0  0  1 V2000
  145.8525  137.0189  151.3738 C   0  0  0  0  0  0  0  0  0  0  0  0
  146.0809  137.8114  152.5257 O   0  0  0  0  0  0  0  0  0  0  0  0
  146.8080  138.9957  152.2355 C   0  0  0  0  0  0  0  0  0  0  0  0
  147.0902  139.7626  153.5296 C   0  0  0  0  0  0  0  0  0  0  0  0
  146.1590  140.1611  154.2292 O   0  0  0  0  0  0  0  0  0  0  0  0
  148.3928  139.9647  153.8005 N   0  0  0  0  0  0  0  0  0  0  0  0
  148.9827  140.6306  154.9095 C   0  0  0  0  0  0  0  0  0  0  0  0
  148.2570  141.1919  155.9877 C   0  0  0  0  0  0  0  0  0  0  0  0
  148.9649  141.8097  157.0366 C   0  0  0  0  0  0  0  0  0  0  0  0
  150.3731  141.8421  156.9816 C   0  0  0  0  0  0  0  0  0  0  0  0
  151.0810  142.4559  158.0244 N   0  0  0  0  0  0  0  0  0  0  0  0
  152.0305  141.5711  158.6846 C   0  0  0  0  0  0  0  0  0  0  0  0
  152.6255  142.2681  159.9207 C   0  0  1  0  0  0  0  0  0  0  0  0
  153.7088  141.4166  160.5904 C   0  0  0  0  0  0  0  0  0  0  0  0
  153.2157  143.5080  159.5277 O   0  0  0  0  0  0  0  0  0  0  0  0
  152.3291  144.4137  158.8647 C   0  0  2  0  0  0  0  0  0  0  0  0
  151.3073  145.0349  159.8336 C   0  0  0  0  0  0  0  0  0  0  0  0
  151.6828  143.7274  157.6442 C   0  0  0  0  0  0  0  0  0  0  0  0
  151.0747  141.2975  155.9597 N   0  0  0  0  0  0  0  0  0  0  0  0
  150.3902  140.7068  154.9580 C   0  0  0  0  0  0  0  0  0  0  0  0
  145.2905  136.1265  151.6490 H   0  0  0  0  0  0  0  0  0  0  0  0
  146.7929  136.6995  150.9227 H   0  0  0  0  0  0  0  0  0  0  0  0
  145.2732  137.5652  150.6280 H   0  0  0  0  0  0  0  0  0  0  0  0
  147.7540  138.7498  151.7506 H   0  0  0  0  0  0  0  0  0  0  0  0
  146.2376  139.6327  151.5575 H   0  0  0  0  0  0  0  0  0  0  0  0
  149.0419  139.6455  153.0960 H   0  0  0  0  0  0  0  0  0  0  0  0
  147.1806  141.1511  156.0422 H   0  0  0  0  0  0  0  0  0  0  0  0
  148.4334  142.2457  157.8699 H   0  0  0  0  0  0  0  0  0  0  0  0
  151.5303  140.6472  158.9777 H   0  0  0  0  0  0  0  0  0  0  0  0
  152.8271  141.3011  157.9894 H   0  0  0  0  0  0  0  0  0  0  0  0
  151.8379  142.4510  160.6523 H   0  0  0  0  0  0  0  0  0  0  0  0
  153.3082  140.4562  160.9153 H   0  0  0  0  0  0  0  0  0  0  0  0
  154.1136  141.9215  161.4676 H   0  0  0  0  0  0  0  0  0  0  0  0
  154.5353  141.2211  159.9066 H   0  0  0  0  0  0  0  0  0  0  0  0
  152.9490  145.2309  158.4950 H   0  0  0  0  0  0  0  0  0  0  0  0
  150.7256  145.8104  159.3349 H   0  0  0  0  0  0  0  0  0  0  0  0
  151.8095  145.4956  160.6845 H   0  0  0  0  0  0  0  0  0  0  0  0
  150.6015  144.2995  160.2190 H   0  0  0  0  0  0  0  0  0  0  0  0
  152.4449  143.5489  156.8840 H   0  0  0  0  0  0  0  0  0  0  0  0
  150.9316  144.3784  157.1951 H   0  0  0  0  0  0  0  0  0  0  0  0
  150.9898  140.2827  154.1658 H   0  0  0  0  0  0  0  0  0  0  0  0
  1  2  1  0  0  0  0
  1 21  1  0  0  0  0
  1 22  1  0  0  0  0
  1 23  1  0  0  0  0
  2  3  1  0  0  0  0
  3  4  1  0  0  0  0
  3 24  1  0  0  0  0
  3 25  1  0  0  0  0
  4  5  2  0  0  0  0
  4  6  1  0  0  0  0
  6  7  1  0  0  0  0
  6 26  1  0  0  0  0
  7 20  1  0  0  0  0
  7  8  2  0  0  0  0
  8  9  1  0  0  0  0
  8 27  1  0  0  0  0
  9 10  2  0  0  0  0
  9 28  1  0  0  0  0
 10 11  1  0  0  0  0
 10 19  1  0  0  0  0
 11 18  1  0  0  0  0
 11 12  1  0  0  0  0
 12 13  1  0  0  0  0
 12 29  1  0  0  0  0
 12 30  1  0  0  0  0
 13 14  1  0  0  0  0
 13 15  1  0  0  0  0
 13 31  1  0  0  0  0
 14 32  1  0  0  0  0
 14 33  1  0  0  0  0
 14 34  1  0  0  0  0
 15 16  1  0  0  0  0
 16 17  1  0  0  0  0
 16 18  1  0  0  0  0
 16 35  1  0  0  0  0
 17 36  1  0  0  0  0
 17 37  1  0  0  0  0
 17 38  1  0  0  0  0
 18 39  1  0  0  0  0
 18 40  1  0  0  0  0
 19 20  2  0  0  0  0
 20 41  1  0  0  0  0
M  END
> <s_m_source_file>
AV-unprocessed.smi

> <i_m_source_file_index>
2036

> <i_lp_mmshare_version>
43012

> <i_f3d_flags>
0

> <s_epik_input>
W0NIM11PW0NIMl1DKD1PKVtOSF1jMVtjSF1bY0hdYyhuW2NIXTEpTjJbQ0gyXVtDQEBIXShbQ0gzXSlPW0NAQEhdKFtDSDNdKVtDSDJdMg==

> <s_epik_cmdline>
J2VwaWtfcHl0aG9uJywgJy1waCcsICc3LjAnLCAnLXRuJywgJzgnLCAnLW1hJywgJzIwMCcsICctbWV0YWxfYmluZGluZycsICctaW1hZScsICc8aW5maWxlLm1hZT4nLCAnLW9tYWUnLCAnPG91dGZpbGUubWFlPic=

> <r_lp_tautomer_probability>
1

> <r_epik_Ionization_Penalty>
0.000662619

> <r_epik_Ionization_Penalty_Charging>
0

> <r_epik_Ionization_Penalty_Neutral>
0.000662619

> <r_epik_State_Penalty>
0.000419321

> <r_epik_Charging_Adjusted_Penalty>
0.000419321

> <i_epik_Tot_Q>
0

> <i_epik_Tot_abs_Q>
0

> <r_epik_Metal_State_Penalty>
-0

> <b_epik_Metal_Only>
0

> <s_lp_Force_Field>
OPLS_2005

> <r_lp_Energy>
28.2221

> <b_lp_Chiralities_Consistent>
1

> <s_lp_Variant>
AV-unprocessed.smi:2036-3

> <Gold.Version>
5.8.1

> <Gold.Id.Protein>
6NUR|6NUR_protein|mol2

> <Gold.PLP.Fitness>
40.3525

> <Gold.PLP.PLP>
-38.0341

> <Gold.PLP.part.hbond>
-1.3071

> <Gold.PLP.part.metal>
0.0000

> <Gold.PLP.part.buried>
-0.4486

> <Gold.PLP.part.nonpolar>
-37.1369

> <Gold.PLP.part.repulsive>
1.0253

> <Gold.PLP.ligand.clash>
0.0000

> <Gold.PLP.ligand.torsion>
0.1355

> <Gold.PLP.Chemscore.Hbond>
0.8268

> <Gold.PLP.Chemscore.CHOScore>
0.0000

> <Gold.PLP.Chemscore.Metal>
0.0000

> <Gold.Chemscore.Hbonds>
donor molecule, donor type, donor heavy atom, donor atom, acceptor molecule, acceptor atom, score
      L1  H     6    26       P1  7957  0.77

> <Gold.PLP.Chemscore.Internal.Correction>
0.1090

> <Gold.Rescore>
     Score         DG    S(hbond)    S(metal)    S(lipo)     H(rot)  DE(clash)    DE(int)     intcor
     13.96     -16.96       0.77        0.00     107.04       1.41       1.64       1.36       ----

> <Gold.Chemscore.Fitness>
13.9623

> <Gold.Chemscore.DG>
-16.9620

> <Gold.Chemscore.ZeroCoef>
-5.4800

> <Gold.Chemscore.Hbond>
0.7672

> <Gold.Chemscore.Metal>
0.0000

> <Gold.Chemscore.Lipo>
107.0361

> <Gold.Chemscore.Internal_Hbond>
0.0000

> <Gold.Chemscore.DEClash>
1.6408

> <Gold.Chemscore.DEInternal>
1.3589

> <Gold.Chemscore.Rot>
1.4077

> <Gold.Chemscore.Internal.Correction>
   9.000000E+99

> <Gold.Chemscore.Hbonds>
donor molecule, donor type, donor heavy atom, donor atom, acceptor molecule, acceptor atom, score
      L1  H     6    26       P1  7957  0.73

> <Gold.Chemscore.Hbond.Weighted>
-2.5624

> <Gold.Chemscore.Metal.Weighted>
-0.0000

> <Gold.Chemscore.Lipo.Weighted>
-12.5232

> <Gold.Chemscore.Internal_Hbond.Weighted>
0.0000

> <Gold.Chemscore.DEClash.Weighted>
1.6408

> <Gold.Chemscore.DEInternal.Weighted>
1.3589

> <Gold.Chemscore.Rot.Weighted>
3.6036

> <Gold.Chemscore.Internal.Correction.Weighted>
   9.000000E+99

> <Gold.Protein.RotatedTorsions>
[ 6907 6896 6895 6894 ] final  126.84 input  -60.11 | X-H torsion
[ 7974 7965 7964 7962 ] final   48.79 input  175.53 | X-H torsion
[ 8008 7997 7996 7995 ] final  -29.04 input   59.86 | X-H torsion
[ 10167 10162 10161 10158 ] final  134.28 input  -65.29 | X-H torsion
[ 10718 10713 10712 10709 ] final -162.37 input   66.30 | X-H torsion
[ 10763 10752 10751 10750 ] final  -39.41 input  -60.55 | X-H torsion
[ 11005 11000 10999 10996 ] final  136.53 input  -57.11 | X-H torsion

> <Gold.Protein.ActiveResidues>
 VAL166  LYS551  ARG553  GLY616  TRP617  ASP618  TYR619  PRO620  LYS621  CYS622 
 ASP623  PHE694  ASN695  SER759  ASP760  ASP761  ALA762  ILE779  LEU786  VAL792 
 PHE793  MET794  SER795  GLU796  ALA797  LYS798  CYS799  TRP800  GLU811  SER814 

> <Gold.Protein.RotatedAtoms>
  152.3867  133.6621  159.6204 H   0  0  0  0  0  0  0  0  0  0  0  0  # atno 6907 bound_to 6896
  150.7784  133.9023  159.3354 H   0  0  0  0  0  0  0  0  0  0  0  0  # atno 6908 bound_to 6896
  151.6818  135.0962  160.0269 H   0  0  0  0  0  0  0  0  0  0  0  0  # atno 6909 bound_to 6896
  146.0171  139.4608  142.9920 H   0  0  0  0  0  0  0  0  0  0  0  0  # atno 7974 bound_to 7965
  154.4306  140.1829  156.1184 H   0  0  0  0  0  0  0  0  0  0  0  0  # atno 8008 bound_to 7997
  156.0162  140.3345  155.6966 H   0  0  0  0  0  0  0  0  0  0  0  0  # atno 8009 bound_to 7997
  155.6041  140.0643  157.2715 H   0  0  0  0  0  0  0  0  0  0  0  0  # atno 8010 bound_to 7997
  139.5262  144.6575  151.5118 H   0  0  0  0  0  0  0  0  0  0  0  0  # atno 10167 bound_to 10162
  156.6094  130.8844  151.2933 H   0  0  0  0  0  0  0  0  0  0  0  0  # atno 10718 bound_to 10713
  153.9289  135.6774  153.4746 H   0  0  0  0  0  0  0  0  0  0  0  0  # atno 10763 bound_to 10752
  153.0990  135.4837  154.8828 H   0  0  0  0  0  0  0  0  0  0  0  0  # atno 10764 bound_to 10752
  154.7438  135.3167  154.8638 H   0  0  0  0  0  0  0  0  0  0  0  0  # atno 10765 bound_to 10752
  140.0053  134.9462  157.0160 H   0  0  0  0  0  0  0  0  0  0  0  0  # atno 11005 bound_to 11000
  145.7252  141.0061  143.1381 LP  0  0  0  0  0  0  0  0  0  0  0  0  # atno 17320 bound_to 7965
  144.6975  139.8918  143.7453 LP  0  0  0  0  0  0  0  0  0  0  0  0  # atno 17321 bound_to 7965
  140.6407  143.8895  150.6689 LP  0  0  0  0  0  0  0  0  0  0  0  0  # atno 17342 bound_to 10162
  140.2228  143.3795  152.1629 LP  0  0  0  0  0  0  0  0  0  0  0  0  # atno 17343 bound_to 10162
  157.7258  130.9621  150.1630 LP  0  0  0  0  0  0  0  0  0  0  0  0  # atno 17370 bound_to 10713
  156.2402  130.3690  149.8346 LP  0  0  0  0  0  0  0  0  0  0  0  0  # atno 17371 bound_to 10713
  140.4653  134.1442  155.7196 LP  0  0  0  0  0  0  0  0  0  0  0  0  # atno 17394 bound_to 11000
  141.1672  133.8680  157.1680 LP  0  0  0  0  0  0  0  0  0  0  0  0  # atno 17395 bound_to 11000

$$$$
