AV-unprocessed.smi:2427|AV-procd|sdf|9578|dock4
  -GOLD-   2272013213D 1   1.00000     0.00000
 Structure written by MMmdl.
 35 36  0  0  0  0  0  0  0  0  3 V2000
  152.8309  139.9729  157.0093 O   0  0  0  0  0  0  0  0  0  0  0  0
  152.0679  139.9474  157.9760 C   0  0  0  0  0  0  0  0  0  0  0  0
  150.6621  139.3450  157.8465 C   0  0  0  0  0  0  0  0  0  0  0  0
  149.7577  140.1715  157.0296 N   0  0  0  0  0  0  0  0  0  0  0  0
  148.6216  140.7049  157.6695 C   0  0  0  0  0  0  0  0  0  0  0  0
  147.7243  141.4689  157.0160 C   0  0  0  0  0  0  0  0  0  0  0  0
  146.5592  142.0024  157.6871 N   0  3  0  0  0  0  0  0  0  0  0  0
  146.4453  141.8276  158.8958 O   0  0  0  0  0  0  0  0  0  0  0  0
  145.7203  142.6120  157.0305 O   0  5  0  0  0  0  0  0  0  0  0  0
  147.9632  141.7362  155.6108 C   0  0  0  0  0  0  0  0  0  0  0  0
  149.0455  141.2250  154.9918 C   0  0  0  0  0  0  0  0  0  0  0  0
  150.0169  140.3882  155.7035 C   0  0  0  0  0  0  0  0  0  0  0  0
  151.0034  139.9110  155.1420 O   0  0  0  0  0  0  0  0  0  0  0  0
  152.3974  140.4191  159.1879 N   0  0  0  0  0  0  0  0  0  0  0  0
  153.6632  141.0581  159.5324 C   0  0  0  0  0  0  0  0  0  0  0  0
  153.4619  142.5167  159.9790 C   0  0  2  0  0  0  0  0  0  0  0  0
  152.8616  142.6947  161.3742 C   0  0  0  0  0  0  0  0  0  0  0  0
  152.2665  144.0800  161.2712 C   0  0  0  0  0  0  0  0  0  0  0  0
  151.7352  144.0894  159.8400 C   0  0  0  0  0  0  0  0  0  0  0  0
  152.5498  143.1770  159.1065 O   0  0  0  0  0  0  0  0  0  0  0  0
  150.7595  138.3443  157.4232 H   0  0  0  0  0  0  0  0  0  0  0  0
  150.2340  139.1939  158.8395 H   0  0  0  0  0  0  0  0  0  0  0  0
  148.5301  140.4421  158.7136 H   0  0  0  0  0  0  0  0  0  0  0  0
  147.2757  142.3474  155.0446 H   0  0  0  0  0  0  0  0  0  0  0  0
  149.2034  141.4361  153.9442 H   0  0  0  0  0  0  0  0  0  0  0  0
  151.7108  140.3489  159.9249 H   0  0  0  0  0  0  0  0  0  0  0  0
  154.1084  140.4886  160.3483 H   0  0  0  0  0  0  0  0  0  0  0  0
  154.3702  141.0045  158.7030 H   0  0  0  0  0  0  0  0  0  0  0  0
  154.4096  143.0555  159.9259 H   0  0  0  0  0  0  0  0  0  0  0  0
  152.0720  141.9630  161.5506 H   0  0  0  0  0  0  0  0  0  0  0  0
  153.5993  142.6033  162.1720 H   0  0  0  0  0  0  0  0  0  0  0  0
  151.4930  144.2730  162.0149 H   0  0  0  0  0  0  0  0  0  0  0  0
  153.0487  144.8315  161.3873 H   0  0  0  0  0  0  0  0  0  0  0  0
  150.7054  143.7312  159.8120 H   0  0  0  0  0  0  0  0  0  0  0  0
  151.7585  145.0859  159.3982 H   0  0  0  0  0  0  0  0  0  0  0  0
  1  2  2  0  0  0  0
  2  3  1  0  0  0  0
  2 14  1  0  0  0  0
  3  4  1  0  0  0  0
  3 21  1  0  0  0  0
  3 22  1  0  0  0  0
  4 12  1  0  0  0  0
  4  5  1  0  0  0  0
  5  6  2  0  0  0  0
  5 23  1  0  0  0  0
  6  7  1  0  0  0  0
  6 10  1  0  0  0  0
  7  8  2  0  0  0  0
  7  9  1  0  0  0  0
 10 11  2  0  0  0  0
 10 24  1  0  0  0  0
 11 12  1  0  0  0  0
 11 25  1  0  0  0  0
 12 13  2  0  0  0  0
 14 15  1  0  0  0  0
 14 26  1  0  0  0  0
 15 16  1  0  0  0  0
 15 27  1  0  0  0  0
 15 28  1  0  0  0  0
 16 20  1  0  0  0  0
 16 17  1  0  0  0  0
 16 29  1  0  0  0  0
 17 18  1  0  0  0  0
 17 30  1  0  0  0  0
 17 31  1  0  0  0  0
 18 19  1  0  0  0  0
 18 32  1  0  0  0  0
 18 33  1  0  0  0  0
 19 20  1  0  0  0  0
 19 34  1  0  0  0  0
 19 35  1  0  0  0  0
M  CHG  1   7   1
M  CHG  1   9  -1
M  END
> <s_m_source_file>
AV-unprocessed.smi

> <i_m_source_file_index>
2427

> <i_lp_mmshare_version>
43012

> <i_f3d_flags>
0

> <s_epik_input>
TzFbQ0gyXVtDSDJdW0NIMl1bQ0BIXTFbQ0gyXVtOSF1DKD1PKVtDSDJdbjJbY0hdYyhbTitdKD1PKVtPLV0pW2NIXVtjSF1jMj1P

> <s_epik_cmdline>
J2VwaWtfcHl0aG9uJywgJy1waCcsICc3LjAnLCAnLXRuJywgJzgnLCAnLW1hJywgJzIwMCcsICctbWV0YWxfYmluZGluZycsICctaW1hZScsICc8aW5maWxlLm1hZT4nLCAnLW9tYWUnLCAnPG91dGZpbGUubWFlPic=

> <r_lp_tautomer_probability>
1

> <r_epik_Ionization_Penalty>
2.69366e-08

> <r_epik_Ionization_Penalty_Charging>
7.76344e-11

> <r_epik_Ionization_Penalty_Neutral>
2.6859e-08

> <r_epik_State_Penalty>
-0

> <r_epik_Charging_Adjusted_Penalty>
7.76344e-11

> <i_epik_Tot_Q>
0

> <i_epik_Tot_abs_Q>
2

> <r_epik_Metal_State_Penalty>
-0

> <b_epik_Metal_Only>
0

> <s_lp_Force_Field>
OPLS_2005

> <r_lp_Energy>
28.4558

> <b_lp_Chiralities_Consistent>
1

> <s_lp_Variant>
AV-unprocessed.smi:2427-1

> <Gold.Version>
5.8.1

> <Gold.Id.Protein>
6NUR|6NUR_protein|mol2

> <Gold.PLP.Fitness>
42.0386

> <Gold.PLP.PLP>
-34.2455

> <Gold.PLP.part.hbond>
-3.0000

> <Gold.PLP.part.metal>
0.0000

> <Gold.PLP.part.buried>
-4.7299

> <Gold.PLP.part.nonpolar>
-26.8071

> <Gold.PLP.part.repulsive>
0.2817

> <Gold.PLP.ligand.clash>
0.0000

> <Gold.PLP.ligand.torsion>
0.2310

> <Gold.PLP.Chemscore.Hbond>
2.7360

> <Gold.PLP.Chemscore.CHOScore>
0.0000

> <Gold.PLP.Chemscore.Metal>
0.0000

> <Gold.Chemscore.Hbonds>
donor molecule, donor type, donor heavy atom, donor atom, acceptor molecule, acceptor atom, score
      P1  H  6934  6946       L1     8  0.66
      P1  H  7989  7998       L1    13  1.00
      P1  H  7997  8009       L1     1  1.00

> <Gold.PLP.Chemscore.Internal.Correction>
0.0471

> <Gold.Rescore>
     Score         DG    S(hbond)    S(metal)    S(lipo)     H(rot)  DE(clash)    DE(int)     intcor
     16.25     -18.34       2.82        0.00      71.12       1.90       0.10       1.99       ----

> <Gold.Chemscore.Fitness>
16.2468

> <Gold.Chemscore.DG>
-18.3433

> <Gold.Chemscore.ZeroCoef>
-5.4800

> <Gold.Chemscore.Hbond>
2.8196

> <Gold.Chemscore.Metal>
0.0000

> <Gold.Chemscore.Lipo>
71.1195

> <Gold.Chemscore.Internal_Hbond>
0.0000

> <Gold.Chemscore.DEClash>
0.1019

> <Gold.Chemscore.DEInternal>
1.9946

> <Gold.Chemscore.Rot>
1.9044

> <Gold.Chemscore.Internal.Correction>
   9.000000E+99

> <Gold.Chemscore.Hbonds>
donor molecule, donor type, donor heavy atom, donor atom, acceptor molecule, acceptor atom, score
      P1  H  6934  6946       L1     8  0.65
      P1  H  7989  7998       L1    13  0.89
      P1  H  7997  8009       L1     1  0.98

> <Gold.Chemscore.Hbond.Weighted>
-9.4176

> <Gold.Chemscore.Metal.Weighted>
-0.0000

> <Gold.Chemscore.Lipo.Weighted>
-8.3210

> <Gold.Chemscore.Internal_Hbond.Weighted>
0.0000

> <Gold.Chemscore.DEClash.Weighted>
0.1019

> <Gold.Chemscore.DEInternal.Weighted>
1.9946

> <Gold.Chemscore.Rot.Weighted>
4.8753

> <Gold.Chemscore.Internal.Correction.Weighted>
   9.000000E+99

> <Gold.Protein.RotatedTorsions>
[ 6907 6896 6895 6894 ] final  -51.55 input  -60.11 | X-H torsion
[ 7974 7965 7964 7962 ] final  162.94 input  175.53 | X-H torsion
[ 8008 7997 7996 7995 ] final -173.72 input   59.86 | X-H torsion
[ 10167 10162 10161 10158 ] final   43.85 input  -65.29 | X-H torsion
[ 10718 10713 10712 10709 ] final   13.55 input   66.30 | X-H torsion
[ 10763 10752 10751 10750 ] final -112.17 input  -60.55 | X-H torsion
[ 11005 11000 10999 10996 ] final  147.94 input  -57.11 | X-H torsion

> <Gold.Protein.ActiveResidues>
 VAL166  LYS551  ARG553  GLY616  TRP617  ASP618  TYR619  PRO620  LYS621  CYS622 
 ASP623  PHE694  ASN695  SER759  ASP760  ASP761  ALA762  ILE779  LEU786  VAL792 
 PHE793  MET794  SER795  GLU796  ALA797  LYS798  CYS799  TRP800  GLU811  SER814 

> <Gold.Protein.RotatedAtoms>
  150.8601  134.7950  159.7075 H   0  0  0  0  0  0  0  0  0  0  0  0  # atno 6907 bound_to 6896
  152.4640  134.5114  159.9765 H   0  0  0  0  0  0  0  0  0  0  0  0  # atno 6908 bound_to 6896
  151.5220  133.3426  159.2938 H   0  0  0  0  0  0  0  0  0  0  0  0  # atno 6909 bound_to 6896
  144.7613  139.8112  143.6331 H   0  0  0  0  0  0  0  0  0  0  0  0  # atno 7974 bound_to 7965
  155.9610  140.1144  157.0895 H   0  0  0  0  0  0  0  0  0  0  0  0  # atno 8008 bound_to 7997
  154.4132  140.1182  156.5246 H   0  0  0  0  0  0  0  0  0  0  0  0  # atno 8009 bound_to 7997
  155.6720  140.3473  155.4824 H   0  0  0  0  0  0  0  0  0  0  0  0  # atno 8010 bound_to 7997
  140.3402  144.2479  150.6156 H   0  0  0  0  0  0  0  0  0  0  0  0  # atno 10167 bound_to 10162
  157.0263  130.6175  149.5728 H   0  0  0  0  0  0  0  0  0  0  0  0  # atno 10718 bound_to 10713
  154.8336  135.4501  154.1152 H   0  0  0  0  0  0  0  0  0  0  0  0  # atno 10763 bound_to 10752
  153.2403  135.6915  153.7797 H   0  0  0  0  0  0  0  0  0  0  0  0  # atno 10764 bound_to 10752
  153.7147  135.3351  155.3230 H   0  0  0  0  0  0  0  0  0  0  0  0  # atno 10765 bound_to 10752
  140.0918  134.9036  157.1662 H   0  0  0  0  0  0  0  0  0  0  0  0  # atno 11005 bound_to 11000
  146.1678  139.4816  142.9947 LP  0  0  0  0  0  0  0  0  0  0  0  0  # atno 17320 bound_to 7965
  145.6612  141.0240  143.1708 LP  0  0  0  0  0  0  0  0  0  0  0  0  # atno 17321 bound_to 7965
  140.5316  143.2242  151.8230 LP  0  0  0  0  0  0  0  0  0  0  0  0  # atno 17342 bound_to 10162
  139.4842  144.4713  151.9421 LP  0  0  0  0  0  0  0  0  0  0  0  0  # atno 17343 bound_to 10162
  156.0085  130.5174  150.7910 LP  0  0  0  0  0  0  0  0  0  0  0  0  # atno 17370 bound_to 10713
  157.5212  131.0931  151.0076 LP  0  0  0  0  0  0  0  0  0  0  0  0  # atno 17371 bound_to 10713
  140.3342  134.2776  155.7223 LP  0  0  0  0  0  0  0  0  0  0  0  0  # atno 17394 bound_to 11000
  141.2080  133.7790  157.0085 LP  0  0  0  0  0  0  0  0  0  0  0  0  # atno 17395 bound_to 11000

$$$$
