AV-unprocessed.smi:972|AV-procd|sdf|4298|dock9
  -GOLD-   22720 2203D 1   1.00000     0.00000
 Structure written by MMmdl.
 50 52  0  0  0  0  0  0  0  0  1 V2000
  146.7039  133.3015  150.5976 C   0  0  0  0  0  0  0  0  0  0  0  0
  145.6721  133.0379  151.7198 C   0  0  0  0  0  0  0  0  0  0  0  0
  144.7985  131.8600  151.2278 C   0  0  0  0  0  0  0  0  0  0  0  0
  146.4089  132.6328  153.0097 C   0  0  0  0  0  0  0  0  0  0  0  0
  144.8143  134.2861  151.9905 C   0  0  0  0  0  0  0  0  0  0  0  0
  145.1667  135.4169  151.3647 N   0  0  0  0  0  0  0  0  0  0  0  0
  144.5061  136.5465  151.6932 C   0  0  0  0  0  0  0  0  0  0  0  0
  143.5079  136.5660  152.6876 C   0  0  0  0  0  0  0  0  0  0  0  0
  142.8488  137.7920  152.9730 N   0  0  0  0  0  0  0  0  0  0  0  0
  141.6882  137.9897  153.6208 C   0  0  0  0  0  0  0  0  0  0  0  0
  140.9835  137.1047  154.1051 O   0  0  0  0  0  0  0  0  0  0  0  0
  141.3955  139.2960  153.6908 N   0  0  0  0  0  0  0  0  0  0  0  0
  140.2224  139.8771  154.3381 C   0  0  0  0  0  0  0  0  0  0  0  0
  138.9389  139.3482  153.6786 C   0  0  0  0  0  0  0  0  0  0  0  0
  137.6964  140.0698  154.2298 C   0  0  0  0  0  0  0  0  0  0  0  0
  137.8116  141.5122  154.0119 N   0  0  0  0  0  0  0  0  0  0  0  0
  136.6059  142.1600  154.5017 C   0  0  0  0  0  0  0  0  0  0  0  0
  135.2981  141.8011  153.8339 C   0  0  0  0  0  0  0  0  0  0  0  0
  135.9249  143.1521  153.5868 C   0  0  0  0  0  0  0  0  0  0  0  0
  138.9614  142.0362  154.7492 C   0  0  0  0  0  0  0  0  0  0  0  0
  140.2620  141.4086  154.2189 C   0  0  0  0  0  0  0  0  0  0  0  0
  143.2350  135.3236  153.3085 C   0  0  0  0  0  0  0  0  0  0  0  0
  143.9024  134.2005  152.9678 N   0  0  0  0  0  0  0  0  0  0  0  0
  147.2810  132.4045  150.3703 H   0  0  0  0  0  0  0  0  0  0  0  0
  147.4217  134.0743  150.8752 H   0  0  0  0  0  0  0  0  0  0  0  0
  146.2157  133.6190  149.6754 H   0  0  0  0  0  0  0  0  0  0  0  0
  144.2415  132.1275  150.3289 H   0  0  0  0  0  0  0  0  0  0  0  0
  144.0768  131.5425  151.9813 H   0  0  0  0  0  0  0  0  0  0  0  0
  145.4065  130.9870  150.9881 H   0  0  0  0  0  0  0  0  0  0  0  0
  147.0262  131.7474  152.8547 H   0  0  0  0  0  0  0  0  0  0  0  0
  145.7065  132.4080  153.8131 H   0  0  0  0  0  0  0  0  0  0  0  0
  147.0626  133.4328  153.3594 H   0  0  0  0  0  0  0  0  0  0  0  0
  144.7863  137.4444  151.1625 H   0  0  0  0  0  0  0  0  0  0  0  0
  143.3432  138.6242  152.6863 H   0  0  0  0  0  0  0  0  0  0  0  0
  142.0399  139.9455  153.2643 H   0  0  0  0  0  0  0  0  0  0  0  0
  140.1957  139.6180  155.3981 H   0  0  0  0  0  0  0  0  0  0  0  0
  138.9877  139.4888  152.5975 H   0  0  0  0  0  0  0  0  0  0  0  0
  138.8477  138.2746  153.8472 H   0  0  0  0  0  0  0  0  0  0  0  0
  136.8054  139.6953  153.7246 H   0  0  0  0  0  0  0  0  0  0  0  0
  137.5748  139.8571  155.2933 H   0  0  0  0  0  0  0  0  0  0  0  0
  136.5359  142.3880  155.5642 H   0  0  0  0  0  0  0  0  0  0  0  0
  135.3216  141.0810  153.0178 H   0  0  0  0  0  0  0  0  0  0  0  0
  134.4090  141.7661  154.4602 H   0  0  0  0  0  0  0  0  0  0  0  0
  135.4548  144.0179  154.0488 H   0  0  0  0  0  0  0  0  0  0  0  0
  136.3646  143.3286  152.6068 H   0  0  0  0  0  0  0  0  0  0  0  0
  139.0068  143.1195  154.6312 H   0  0  0  0  0  0  0  0  0  0  0  0
  138.8499  141.8347  155.8160 H   0  0  0  0  0  0  0  0  0  0  0  0
  141.1149  141.8045  154.7713 H   0  0  0  0  0  0  0  0  0  0  0  0
  140.4052  141.7006  153.1771 H   0  0  0  0  0  0  0  0  0  0  0  0
  142.4818  135.2007  154.0705 H   0  0  0  0  0  0  0  0  0  0  0  0
  1  2  1  0  0  0  0
  1 24  1  0  0  0  0
  1 25  1  0  0  0  0
  1 26  1  0  0  0  0
  2  3  1  0  0  0  0
  2  4  1  0  0  0  0
  2  5  1  0  0  0  0
  3 27  1  0  0  0  0
  3 28  1  0  0  0  0
  3 29  1  0  0  0  0
  4 30  1  0  0  0  0
  4 31  1  0  0  0  0
  4 32  1  0  0  0  0
  5 23  1  0  0  0  0
  5  6  2  0  0  0  0
  6  7  1  0  0  0  0
  7  8  2  0  0  0  0
  7 33  1  0  0  0  0
  8  9  1  0  0  0  0
  8 22  1  0  0  0  0
  9 10  1  0  0  0  0
  9 34  1  0  0  0  0
 10 11  2  0  0  0  0
 10 12  1  0  0  0  0
 12 13  1  0  0  0  0
 12 35  1  0  0  0  0
 13 21  1  0  0  0  0
 13 14  1  0  0  0  0
 13 36  1  0  0  0  0
 14 15  1  0  0  0  0
 14 37  1  0  0  0  0
 14 38  1  0  0  0  0
 15 16  1  0  0  0  0
 15 39  1  0  0  0  0
 15 40  1  0  0  0  0
 16 17  1  0  0  0  0
 16 20  1  0  0  0  0
 17 19  1  0  0  0  0
 17 18  1  0  0  0  0
 17 41  1  0  0  0  0
 18 19  1  0  0  0  0
 18 42  1  0  0  0  0
 18 43  1  0  0  0  0
 19 44  1  0  0  0  0
 19 45  1  0  0  0  0
 20 21  1  0  0  0  0
 20 46  1  0  0  0  0
 20 47  1  0  0  0  0
 21 48  1  0  0  0  0
 21 49  1  0  0  0  0
 22 23  2  0  0  0  0
 22 50  1  0  0  0  0
M  END
> <s_m_source_file>
AV-unprocessed.smi

> <i_m_source_file_index>
972

> <i_lp_mmshare_version>
43012

> <i_f3d_flags>
0

> <s_epik_input>
W0NIM11DKFtDSDNdKShbQ0gzXSljMW5bY0hdYyhbY0hdbjEpW05IXUMoPU8pW05IXVtDSF0yW0NIMl1bQ0gyXU4oW0NIMl1bQ0gyXTIpW0NIXTNbQ0gyXVtDSDJdMw==

> <s_epik_cmdline>
J2VwaWtfcHl0aG9uJywgJy1waCcsICc3LjAnLCAnLXRuJywgJzgnLCAnLW1hJywgJzIwMCcsICctbWV0YWxfYmluZGluZycsICctaW1hZScsICc8aW5maWxlLm1hZT4nLCAnLW9tYWUnLCAnPG91dGZpbGUubWFlPic=

> <r_lp_tautomer_probability>
1

> <r_epik_Ionization_Penalty>
0.990889

> <r_epik_Ionization_Penalty_Charging>
0

> <r_epik_Ionization_Penalty_Neutral>
0.990889

> <r_epik_State_Penalty>
1.03856

> <r_epik_Charging_Adjusted_Penalty>
1.03856

> <i_epik_Tot_Q>
0

> <i_epik_Tot_abs_Q>
0

> <r_epik_Metal_State_Penalty>
1.03856

> <b_epik_Metal_Only>
0

> <s_lp_Force_Field>
OPLS_2005

> <r_lp_Energy>
19.7386

> <b_lp_Chiralities_Consistent>
1

> <s_lp_Variant>
AV-unprocessed.smi:972-3

> <Gold.Version>
5.8.1

> <Gold.Id.Protein>
6NUR|6NUR_protein|mol2

> <Gold.PLP.Fitness>
43.5110

> <Gold.PLP.PLP>
-34.9145

> <Gold.PLP.part.hbond>
-3.0733

> <Gold.PLP.part.metal>
0.0000

> <Gold.PLP.part.buried>
-2.8672

> <Gold.PLP.part.nonpolar>
-28.3655

> <Gold.PLP.part.repulsive>
0.5227

> <Gold.PLP.ligand.clash>
0.0000

> <Gold.PLP.ligand.torsion>
0.8292

> <Gold.PLP.Chemscore.Hbond>
2.0000

> <Gold.PLP.Chemscore.CHOScore>
0.9825

> <Gold.PLP.Chemscore.Metal>
0.0000

> <Gold.Chemscore.Hbonds>
donor molecule, donor type, donor heavy atom, donor atom, acceptor molecule, acceptor atom, score
      L1  H     9    34       P1 10175  1.00
      L1  H    12    35       P1 10175  1.00
      L1  C     7    33       P1 10171  0.91

> <Gold.PLP.Chemscore.Internal.Correction>
1.3075

> <Gold.Rescore>
     Score         DG    S(hbond)    S(metal)    S(lipo)     H(rot)  DE(clash)    DE(int)     intcor
     15.86     -17.98       1.70        0.00      86.56       1.30       0.09       2.02       ----

> <Gold.Chemscore.Fitness>
15.8649

> <Gold.Chemscore.DG>
-17.9794

> <Gold.Chemscore.ZeroCoef>
-5.4800

> <Gold.Chemscore.Hbond>
1.7029

> <Gold.Chemscore.Metal>
0.0000

> <Gold.Chemscore.Lipo>
86.5558

> <Gold.Chemscore.Internal_Hbond>
0.0000

> <Gold.Chemscore.DEClash>
0.0917

> <Gold.Chemscore.DEInternal>
2.0228

> <Gold.Chemscore.Rot>
1.2951

> <Gold.Chemscore.Internal.Correction>
   9.000000E+99

> <Gold.Chemscore.Hbonds>
donor molecule, donor type, donor heavy atom, donor atom, acceptor molecule, acceptor atom, score
      L1  H     9    34       P1 10175  0.99
      L1  H    12    35       P1 10175  0.55

> <Gold.Chemscore.Hbond.Weighted>
-5.6877

> <Gold.Chemscore.Metal.Weighted>
-0.0000

> <Gold.Chemscore.Lipo.Weighted>
-10.1270

> <Gold.Chemscore.Internal_Hbond.Weighted>
0.0000

> <Gold.Chemscore.DEClash.Weighted>
0.0917

> <Gold.Chemscore.DEInternal.Weighted>
2.0228

> <Gold.Chemscore.Rot.Weighted>
3.3154

> <Gold.Chemscore.Internal.Correction.Weighted>
   9.000000E+99

> <Gold.Protein.RotatedTorsions>
[ 6907 6896 6895 6894 ] final   45.29 input  -60.11 | X-H torsion
[ 7974 7965 7964 7962 ] final   81.18 input  175.53 | X-H torsion
[ 8008 7997 7996 7995 ] final  -25.58 input   59.86 | X-H torsion
[ 10167 10162 10161 10158 ] final  -13.97 input  -65.29 | X-H torsion
[ 10718 10713 10712 10709 ] final   48.05 input   66.30 | X-H torsion
[ 10763 10752 10751 10750 ] final  179.52 input  -60.55 | X-H torsion
[ 11005 11000 10999 10996 ] final   92.87 input  -57.11 | X-H torsion

> <Gold.Protein.ActiveResidues>
 VAL166  LYS551  ARG553  GLY616  TRP617  ASP618  TYR619  PRO620  LYS621  CYS622 
 ASP623  PHE694  ASN695  SER759  ASP760  ASP761  ALA762  ILE779  LEU786  VAL792 
 PHE793  MET794  SER795  GLU796  ALA797  LYS798  CYS799  TRP800  GLU811  SER814 

> <Gold.Protein.RotatedAtoms>
  152.2428  134.8211  160.0457 H   0  0  0  0  0  0  0  0  0  0  0  0  # atno 6907 bound_to 6896
  151.8920  133.3513  159.3809 H   0  0  0  0  0  0  0  0  0  0  0  0  # atno 6908 bound_to 6896
  150.7059  134.4841  159.5528 H   0  0  0  0  0  0  0  0  0  0  0  0  # atno 6909 bound_to 6896
  145.6415  139.2426  143.2028 H   0  0  0  0  0  0  0  0  0  0  0  0  # atno 7974 bound_to 7965
  154.4468  140.1922  156.0642 H   0  0  0  0  0  0  0  0  0  0  0  0  # atno 8008 bound_to 7997
  156.0560  140.3302  155.7379 H   0  0  0  0  0  0  0  0  0  0  0  0  # atno 8009 bound_to 7997
  155.5484  140.0593  157.2846 H   0  0  0  0  0  0  0  0  0  0  0  0  # atno 8010 bound_to 7997
  140.7192  143.5370  150.9453 H   0  0  0  0  0  0  0  0  0  0  0  0  # atno 10167 bound_to 10162
  157.4648  130.8218  149.7924 H   0  0  0  0  0  0  0  0  0  0  0  0  # atno 10718 bound_to 10713
  154.5218  135.2794  155.1256 H   0  0  0  0  0  0  0  0  0  0  0  0  # atno 10763 bound_to 10752
  154.2811  135.6285  153.5351 H   0  0  0  0  0  0  0  0  0  0  0  0  # atno 10764 bound_to 10752
  152.9938  135.5651  154.5709 H   0  0  0  0  0  0  0  0  0  0  0  0  # atno 10765 bound_to 10752
  139.8817  134.8757  156.3635 H   0  0  0  0  0  0  0  0  0  0  0  0  # atno 11005 bound_to 11000
  146.1277  140.7226  142.9427 LP  0  0  0  0  0  0  0  0  0  0  0  0  # atno 17320 bound_to 7965
  144.7156  140.4196  143.7047 LP  0  0  0  0  0  0  0  0  0  0  0  0  # atno 17321 bound_to 7965
  139.9092  143.6741  152.3118 LP  0  0  0  0  0  0  0  0  0  0  0  0  # atno 17342 bound_to 10162
  139.7118  144.7619  151.1100 LP  0  0  0  0  0  0  0  0  0  0  0  0  # atno 17343 bound_to 10162
  156.0045  130.3862  150.2482 LP  0  0  0  0  0  0  0  0  0  0  0  0  # atno 17370 bound_to 10713
  157.0661  131.0103  151.3206 LP  0  0  0  0  0  0  0  0  0  0  0  0  # atno 17371 bound_to 10713
  140.9513  133.7449  156.0276 LP  0  0  0  0  0  0  0  0  0  0  0  0  # atno 17394 bound_to 11000
  140.8102  134.3408  157.5414 LP  0  0  0  0  0  0  0  0  0  0  0  0  # atno 17395 bound_to 11000

$$$$
