#       Name:                AV-unprocessed.smi:189
#       Creating user name   scv26
#       Creation time:       Thu Mar 26 19:30:18 2020


#       File generated by GOLD software.
#

@<TRIPOS>MOLECULE
AV-unprocessed.smi:189
    61    65     1
SMALL
NO_CHARGES


@<TRIPOS>ATOM
      1 ****        -2.0790   0.4887   3.3297 C.3            1 S1                 0.0000
      2 ****        -2.7533   0.3694   1.9491 C.3            1 S1                 0.0000
      3 ****        -3.5347   1.6128   1.4855 C.3            1 S1                 0.0000
      4 ****        -3.2193   1.7327  -0.0125 C.3            1 S1                 0.0000
      5 ****        -4.3701   2.1863  -0.9336 C.3            1 S1                 0.0000
      6 ****        -5.3459   1.0563  -1.2890 C.3            1 S1                 0.0000
      7 ****        -4.5920  -0.1527  -1.8567 C.3            1 S1                 0.0000
      8 ****        -3.6030  -0.6906  -0.8171 C.3            1 S1                 0.0000
      9 ****        -2.5750   0.3796  -0.3800 C.3            1 S1                 0.0000
     10 ****        -1.8832  -0.0331   0.8377 N.3            1 S1                 0.0000
     11 ****        -0.5679   0.2907   0.8692 C.ar           1 S1                 0.0000
     12 ****        -0.1671   1.5862   0.9690 N.ar           1 S1                 0.0000
     13 ****         1.1358   1.8837   0.9829 C.ar           1 S1                 0.0000
     14 ****         2.1818   1.0580   0.9021 N.ar           1 S1                 0.0000
     15 ****         1.7798  -0.2415   0.7966 C.ar           1 S1                 0.0000
     16 ****         0.4360  -0.7073   0.7756 C.ar           1 S1                 0.0000
     17 ****         0.4107  -2.0911   0.6620 N.2            1 S1                 0.0000
     18 ****         1.6715  -2.4258   0.6142 C.2            1 S1                 0.0000
     19 ****         2.5622  -1.3768   0.6759 N.pl3          1 S1                 0.0000
     20 ****         4.0143  -1.4607   0.6358 C.3            1 S1                 0.0000
     21 ****         4.5955  -1.6385  -0.7898 C.3            1 S1                 0.0000
     22 ****         4.1447  -2.8713  -1.3214 O.3            1 S1                 0.0000
     23 ****         4.2342  -0.5123  -1.7611 C.3            1 S1                 0.0000
     24 ****         5.4662   0.3788  -1.7203 C.3            1 S1                 0.0000
     25 ****         6.5198  -0.5670  -1.6744 O.3            1 S1                 0.0000
     26 ****         6.1379  -1.6074  -0.7818 C.3            1 S1                 0.0000
     27 ****        -2.8252   0.6563   4.1063 H              1 S1                 0.0000
     28 ****        -1.3759   1.3201   3.3748 H              1 S1                 0.0000
     29 ****        -1.5399  -0.4242   3.5844 H              1 S1                 0.0000
     30 ****        -3.4731  -0.4431   2.0496 H              1 S1                 0.0000
     31 ****        -4.6012   1.4780   1.6680 H              1 S1                 0.0000
     32 ****        -3.2207   2.5136   2.0142 H              1 S1                 0.0000
     33 ****        -2.4452   2.4963  -0.0963 H              1 S1                 0.0000
     34 ****        -4.9061   3.0216  -0.4819 H              1 S1                 0.0000
     35 ****        -3.9407   2.5702  -1.8598 H              1 S1                 0.0000
     36 ****        -5.9101   0.7592  -0.4043 H              1 S1                 0.0000
     37 ****        -6.0757   1.4142  -2.0157 H              1 S1                 0.0000
     38 ****        -5.2995  -0.9348  -2.1335 H              1 S1                 0.0000
     39 ****        -4.0625   0.1278  -2.7682 H              1 S1                 0.0000
     40 ****        -4.1751  -1.0544   0.0365 H              1 S1                 0.0000
     41 ****        -3.0776  -1.5585  -1.2170 H              1 S1                 0.0000
     42 ****        -1.8690   0.5306  -1.1990 H              1 S1                 0.0000
     43 ****         1.3741   2.9336   1.0675 H              1 S1                 0.0000
     44 ****         1.9892  -3.4546   0.5248 H              1 S1                 0.0000
     45 ****         4.4196  -0.5581   1.0948 H              1 S1                 0.0000
     46 ****         4.3231  -2.2901   1.2736 H              1 S1                 0.0000
     47 ****         4.5178  -2.9797  -2.1829 H              1 S1                 0.0000
     48 ****         4.1190  -0.8991  -2.7751 H              1 S1                 0.0000
     49 ****         3.3193   0.0249  -1.5162 H              1 S1                 0.0000
     50 ****         5.5456   1.0307  -2.5904 H              1 S1                 0.0000
     51 ****         5.4774   0.9951  -0.8199 H              1 S1                 0.0000
     52 ****         6.5256  -1.3717   0.2104 H              1 S1                 0.0000
     53 ****         6.5894  -2.5513  -1.0905 H              1 S1                 0.0000
     54 ****        -1.7639  -1.0237   0.9043 LP             1 S1                 0.0000
     55 ****        -0.8474   2.3165   1.0320 LP             1 S1                 0.0000
     56 ****         3.1369   1.3539   0.9170 LP             1 S1                 0.0000
     57 ****        -0.3880  -2.6917   0.6253 LP             1 S1                 0.0000
     58 ****         3.1466  -2.8672  -1.3839 LP             1 S1                 0.0000
     59 ****         4.4385  -3.6218  -0.7295 LP             1 S1                 0.0000
     60 ****         7.3560  -0.1279  -1.3459 LP             1 S1                 0.0000
     61 ****         6.6776  -0.9438  -2.5872 LP             1 S1                 0.0000
@<TRIPOS>BOND
    1    1    2 1     
    2    1   27 1     
    3    1   28 1     
    4    1   29 1     
    5    2   10 1     
    6    2    3 1     
    7    2   30 1     
    8    3    4 1     
    9    3   31 1     
   10    3   32 1     
   11    4    9 1     
   12    4    5 1     
   13    4   33 1     
   14    5    6 1     
   15    5   34 1     
   16    5   35 1     
   17    6    7 1     
   18    6   36 1     
   19    6   37 1     
   20    7    8 1     
   21    7   38 1     
   22    7   39 1     
   23    8    9 1     
   24    8   40 1     
   25    8   41 1     
   26    9   10 1     
   27    9   42 1     
   28   10   11 1     
   29   11   16 ar    
   30   11   12 ar    
   31   12   13 ar    
   32   13   14 ar    
   33   13   43 1     
   34   14   15 ar    
   35   15   19 1     
   36   15   16 ar    
   37   16   17 1     
   38   17   18 2     
   39   18   19 1     
   40   18   44 1     
   41   19   20 1     
   42   20   21 1     
   43   20   45 1     
   44   20   46 1     
   45   21   26 1     
   46   21   22 1     
   47   21   23 1     
   48   22   47 1     
   49   23   24 1     
   50   23   48 1     
   51   23   49 1     
   52   24   25 1     
   53   24   50 1     
   54   24   51 1     
   55   25   26 1     
   56   26   52 1     
   57   26   53 1     
   58   10   54 1     
   59   12   55 1     
   60   14   56 1     
   61   17   57 1     
   62   22   58 1     
   63   22   59 1     
   64   25   60 1     
   65   25   61 1     
@<TRIPOS>SUBSTRUCTURE
      1 S1             1
@<TRIPOS>SET
LONE_PAIRS      STATIC     ATOMS    <user>   **** ""
8 54 55 56 57 58 59 60 61
DONOR_HYDROGENS      STATIC     ATOMS    <user>   **** ""
1 47
ATOM$BLUE        STATIC     ATOMS    COLORGROUP SYSTEM
8 54 55 56 57 58 59 60 61
ATOM$RED        STATIC     ATOMS    COLORGROUP SYSTEM
1 47
