AV-unprocessed.smi:3265|AV-procd|sdf|12497|dock1
  -GOLD-   2272018403D 1   1.00000     0.00000
 Structure written by MMmdl.
 41 42  0  0  0  0  0  0  0  0  2 V2000
  151.7883  134.3312  150.9436 C   0  0  0  0  0  0  0  0  0  0  0  0
  152.8005  134.5520  152.0814 C   0  0  1  0  0  0  0  0  0  0  0  0
  153.6230  135.8418  151.9062 C   0  0  0  0  0  0  0  0  0  0  0  0
  152.7788  137.0859  152.2158 C   0  0  0  0  0  0  0  0  0  0  0  0
  152.1238  136.9772  153.6018 C   0  0  0  0  0  0  0  0  0  0  0  0
  151.3104  135.7391  153.7171 N   0  3  2  0  0  0  0  0  0  0  0  0
  150.5491  135.6887  154.9907 C   0  0  0  0  0  0  0  0  0  0  0  0
  149.5691  134.5015  155.0473 C   0  0  0  0  0  0  0  0  0  0  0  0
  148.4600  134.6829  154.1195 N   0  0  0  0  0  0  0  0  0  0  0  0
  147.2991  134.0071  154.1609 C   0  0  0  0  0  0  0  0  0  0  0  0
  147.0691  133.1270  154.9897 O   0  0  0  0  0  0  0  0  0  0  0  0
  146.2379  134.3452  153.1046 C   0  0  0  0  0  0  0  0  0  0  0  0
  145.9176  133.2246  152.2334 N   0  0  0  0  0  0  0  0  0  0  0  0
  145.2175  132.0758  152.5389 C   0  0  0  0  0  0  0  0  0  0  0  0
  145.1742  131.3129  151.4074 C   0  0  0  0  0  0  0  0  0  0  0  0
  145.8799  132.0910  150.4475 C   0  0  0  0  0  0  0  0  0  0  0  0
  146.3231  133.2347  150.9443 N   0  0  0  0  0  0  0  0  0  0  0  0
  152.1316  134.5219  153.4714 C   0  0  0  0  0  0  0  0  0  0  0  0
  151.0264  135.1105  150.9176 H   0  0  0  0  0  0  0  0  0  0  0  0
  151.2757  133.3756  151.0562 H   0  0  0  0  0  0  0  0  0  0  0  0
  152.2859  134.3220  149.9735 H   0  0  0  0  0  0  0  0  0  0  0  0
  153.4982  133.7146  152.0371 H   0  0  0  0  0  0  0  0  0  0  0  0
  154.4785  135.8161  152.5825 H   0  0  0  0  0  0  0  0  0  0  0  0
  154.0333  135.9024  150.8977 H   0  0  0  0  0  0  0  0  0  0  0  0
  153.4047  137.9775  152.1706 H   0  0  0  0  0  0  0  0  0  0  0  0
  152.0099  137.2152  151.4534 H   0  0  0  0  0  0  0  0  0  0  0  0
  152.8867  136.9864  154.3821 H   0  0  0  0  0  0  0  0  0  0  0  0
  151.4931  137.8520  153.7647 H   0  0  0  0  0  0  0  0  0  0  0  0
  151.2400  135.6624  155.8349 H   0  0  0  0  0  0  0  0  0  0  0  0
  149.9742  136.6102  155.0930 H   0  0  0  0  0  0  0  0  0  0  0  0
  150.0872  133.5648  154.8334 H   0  0  0  0  0  0  0  0  0  0  0  0
  149.1381  134.3970  156.0420 H   0  0  0  0  0  0  0  0  0  0  0  0
  148.5686  135.3917  153.4081 H   0  0  0  0  0  0  0  0  0  0  0  0
  145.3270  134.6729  153.6065 H   0  0  0  0  0  0  0  0  0  0  0  0
  146.5815  135.1789  152.4902 H   0  0  0  0  0  0  0  0  0  0  0  0
  144.8152  131.8977  153.5254 H   0  0  0  0  0  0  0  0  0  0  0  0
  144.7078  130.3469  151.2832 H   0  0  0  0  0  0  0  0  0  0  0  0
  146.0824  131.8600  149.4122 H   0  0  0  0  0  0  0  0  0  0  0  0
  151.5240  133.6215  153.5531 H   0  0  0  0  0  0  0  0  0  0  0  0
  152.8964  134.4487  154.2463 H   0  0  0  0  0  0  0  0  0  0  0  0
  150.6241  135.7858  152.9773 H   0  0  0  0  0  0  0  0  0  0  0  0
  1  2  1  0  0  0  0
  1 19  1  0  0  0  0
  1 20  1  0  0  0  0
  1 21  1  0  0  0  0
  2 18  1  0  0  0  0
  2  3  1  0  0  0  0
  2 22  1  0  0  0  0
  3  4  1  0  0  0  0
  3 23  1  0  0  0  0
  3 24  1  0  0  0  0
  4  5  1  0  0  0  0
  4 25  1  0  0  0  0
  4 26  1  0  0  0  0
  5  6  1  0  0  0  0
  5 27  1  0  0  0  0
  5 28  1  0  0  0  0
  6  7  1  0  0  0  0
  6 18  1  0  0  0  0
  6 41  1  0  0  0  0
  7  8  1  0  0  0  0
  7 29  1  0  0  0  0
  7 30  1  0  0  0  0
  8  9  1  0  0  0  0
  8 31  1  0  0  0  0
  8 32  1  0  0  0  0
  9 10  1  0  0  0  0
  9 33  1  0  0  0  0
 10 11  2  0  0  0  0
 10 12  1  0  0  0  0
 12 13  1  0  0  0  0
 12 34  1  0  0  0  0
 12 35  1  0  0  0  0
 13 17  1  0  0  0  0
 13 14  1  0  0  0  0
 14 15  2  0  0  0  0
 14 36  1  0  0  0  0
 15 16  1  0  0  0  0
 15 37  1  0  0  0  0
 16 17  2  0  0  0  0
 16 38  1  0  0  0  0
 18 39  1  0  0  0  0
 18 40  1  0  0  0  0
M  CHG  1   6   1
M  END
> <s_m_source_file>
AV-unprocessed.smi

> <i_m_source_file_index>
3265

> <i_lp_mmshare_version>
43012

> <i_f3d_flags>
0

> <s_epik_input>
W0NIM11bQ0BASF0xW0NIMl1bQ0gyXVtDSDJdTihbQ0gyXTEpW0NIMl1bQ0gyXVtOSF1DKD1PKVtDSDJdbjJbY0hdW2NIXVtjSF1uMg==

> <s_epik_cmdline>
J2VwaWtfcHl0aG9uJywgJy1waCcsICc3LjAnLCAnLXRuJywgJzgnLCAnLW1hJywgJzIwMCcsICctbWV0YWxfYmluZGluZycsICctaW1hZScsICc8aW5maWxlLm1hZT4nLCAnLW9tYWUnLCAnPG91dGZpbGUubWFlPic=

> <r_lp_tautomer_probability>
1

> <r_epik_Ionization_Penalty>
0.00231455

> <r_epik_Ionization_Penalty_Charging>
0.00230623

> <r_epik_Ionization_Penalty_Neutral>
8.31727e-06

> <r_epik_State_Penalty>
0.00159065

> <r_epik_Charging_Adjusted_Penalty>
0.00389688

> <i_epik_Tot_Q>
1

> <i_epik_Tot_abs_Q>
1

> <r_epik_Metal_State_Penalty>
-0

> <b_epik_Metal_Only>
0

> <s_lp_Force_Field>
OPLS_2005

> <r_lp_Energy>
19.1739

> <b_lp_Chiralities_Consistent>
1

> <s_lp_Variant>
AV-unprocessed.smi:3265-2

> <Gold.Version>
5.8.1

> <Gold.Id.Protein>
6NUR|6NUR_protein|mol2

> <Gold.PLP.Fitness>
-139.1518

> <Gold.PLP.PLP>
142.9408

> <Gold.PLP.part.hbond>
-2.0053

> <Gold.PLP.part.metal>
0.0000

> <Gold.PLP.part.buried>
64.0497

> <Gold.PLP.part.nonpolar>
72.3201

> <Gold.PLP.part.repulsive>
3.3181

> <Gold.PLP.ligand.clash>
0.0000

> <Gold.PLP.ligand.torsion>
0.2717

> <Gold.PLP.Chemscore.Hbond>
1.0704

> <Gold.PLP.Chemscore.CHOScore>
0.3639

> <Gold.PLP.Chemscore.Metal>
0.0000

> <Gold.Chemscore.Hbonds>
donor molecule, donor type, donor heavy atom, donor atom, acceptor molecule, acceptor atom, score
      L1  H     6    41       P1  7949  0.07
      L1  H     9    33       P1  7948  1.00
      L1  C    14    36       P1 10957  0.36

> <Gold.PLP.Chemscore.Internal.Correction>
0.0296

> <Gold.Rescore>
     Score         DG    S(hbond)    S(metal)    S(lipo)     H(rot)  DE(clash)    DE(int)     intcor
      6.09      -6.45       0.00        0.00      48.52       1.84       0.05       0.32       ----

> <Gold.Chemscore.Fitness>
6.0877

> <Gold.Chemscore.DG>
-6.4502

> <Gold.Chemscore.ZeroCoef>
-5.4800

> <Gold.Chemscore.Hbond>
0.0000

> <Gold.Chemscore.Metal>
0.0000

> <Gold.Chemscore.Lipo>
48.5218

> <Gold.Chemscore.Internal_Hbond>
0.0000

> <Gold.Chemscore.DEClash>
0.0462

> <Gold.Chemscore.DEInternal>
0.3162

> <Gold.Chemscore.Rot>
1.8386

> <Gold.Chemscore.Internal.Correction>
   9.000000E+99

> <Gold.Chemscore.Hbonds>
donor molecule, donor type, donor heavy atom, donor atom, acceptor molecule, acceptor atom, score
      L1  H     9    33       P1  7948  0.95

> <Gold.Chemscore.Hbond.Weighted>
-0.0000

> <Gold.Chemscore.Metal.Weighted>
-0.0000

> <Gold.Chemscore.Lipo.Weighted>
-5.6770

> <Gold.Chemscore.Internal_Hbond.Weighted>
0.0000

> <Gold.Chemscore.DEClash.Weighted>
0.0462

> <Gold.Chemscore.DEInternal.Weighted>
0.3162

> <Gold.Chemscore.Rot.Weighted>
4.7069

> <Gold.Chemscore.Internal.Correction.Weighted>
   9.000000E+99

> <Gold.Protein.RotatedTorsions>
[ 6907 6896 6895 6894 ] final   31.29 input  -60.11 | X-H torsion
[ 7974 7965 7964 7962 ] final   98.18 input  175.53 | X-H torsion
[ 8008 7997 7996 7995 ] final  -61.08 input   59.86 | X-H torsion
[ 10167 10162 10161 10158 ] final  100.65 input  -65.29 | X-H torsion
[ 10718 10713 10712 10709 ] final   91.61 input   66.30 | X-H torsion
[ 10763 10752 10751 10750 ] final -106.96 input  -60.55 | X-H torsion
[ 11005 11000 10999 10996 ] final  134.14 input  -57.11 | X-H torsion

> <Gold.Protein.ActiveResidues>
 VAL166  LYS551  ARG553  GLY616  TRP617  ASP618  TYR619  PRO620  LYS621  CYS622 
 ASP623  PHE694  ASN695  SER759  ASP760  ASP761  ALA762  ILE779  LEU786  VAL792 
 PHE793  MET794  SER795  GLU796  ALA797  LYS798  CYS799  TRP800  GLU811  SER814 

> <Gold.Protein.RotatedAtoms>
  152.0582  134.9611  160.0574 H   0  0  0  0  0  0  0  0  0  0  0  0  # atno 6907 bound_to 6896
  152.0985  133.4232  159.4584 H   0  0  0  0  0  0  0  0  0  0  0  0  # atno 6908 bound_to 6896
  150.6838  134.2708  159.4631 H   0  0  0  0  0  0  0  0  0  0  0  0  # atno 6909 bound_to 6896
  145.4156  139.2328  143.3224 H   0  0  0  0  0  0  0  0  0  0  0  0  # atno 7974 bound_to 7965
  154.4430  140.1025  156.6374 H   0  0  0  0  0  0  0  0  0  0  0  0  # atno 8008 bound_to 7997
  155.5538  140.3486  155.4456 H   0  0  0  0  0  0  0  0  0  0  0  0  # atno 8009 bound_to 7997
  156.0509  140.1304  157.0040 H   0  0  0  0  0  0  0  0  0  0  0  0  # atno 8010 bound_to 7997
  139.7508  144.6984  151.0434 H   0  0  0  0  0  0  0  0  0  0  0  0  # atno 10167 bound_to 10162
  157.6960  131.0413  150.3755 H   0  0  0  0  0  0  0  0  0  0  0  0  # atno 10718 bound_to 10713
  154.8045  135.4692  154.0358 H   0  0  0  0  0  0  0  0  0  0  0  0  # atno 10763 bound_to 10752
  153.1838  135.6844  153.8449 H   0  0  0  0  0  0  0  0  0  0  0  0  # atno 10764 bound_to 10752
  153.7991  135.3232  155.3365 H   0  0  0  0  0  0  0  0  0  0  0  0  # atno 10765 bound_to 10752
  139.9896  134.9520  156.9825 H   0  0  0  0  0  0  0  0  0  0  0  0  # atno 11005 bound_to 11000
  146.2683  140.4873  142.8825 LP  0  0  0  0  0  0  0  0  0  0  0  0  # atno 17320 bound_to 7965
  144.8280  140.6660  143.6310 LP  0  0  0  0  0  0  0  0  0  0  0  0  # atno 17321 bound_to 7965
  140.7797  143.4811  151.0017 LP  0  0  0  0  0  0  0  0  0  0  0  0  # atno 17342 bound_to 10162
  139.8498  143.7453  152.3178 LP  0  0  0  0  0  0  0  0  0  0  0  0  # atno 17343 bound_to 10162
  156.4175  130.3946  149.6848 LP  0  0  0  0  0  0  0  0  0  0  0  0  # atno 17370 bound_to 10713
  156.4110  130.7722  151.2735 LP  0  0  0  0  0  0  0  0  0  0  0  0  # atno 17371 bound_to 10713
  140.4934  134.1170  155.7237 LP  0  0  0  0  0  0  0  0  0  0  0  0  # atno 17394 bound_to 11000
  141.1554  133.8891  157.1990 LP  0  0  0  0  0  0  0  0  0  0  0  0  # atno 17395 bound_to 11000

$$$$
