AV-unprocessed.smi:2748|AV-procd|sdf|10584|dock1
  -GOLD-   2272015 33D 1   1.00000     0.00000
 Structure written by MMmdl.
 29 31  0  0  0  0  0  0  0  0  2 V2000
  149.8671  135.7580  154.3225 O   0  0  0  0  0  0  0  0  0  0  0  0
  150.2188  136.9078  154.5823 C   0  0  0  0  0  0  0  0  0  0  0  0
  151.5257  137.2519  154.7780 N   0  5  0  0  0  0  0  0  0  0  0  0
  151.9364  138.5257  155.0657 C   0  0  0  0  0  0  0  0  0  0  0  0
  153.1205  138.8108  155.2472 O   0  0  0  0  0  0  0  0  0  0  0  0
  150.9981  139.5144  155.1555 N   0  0  0  0  0  0  0  0  0  0  0  0
  151.3491  140.9077  155.4613 C   0  0  0  0  0  0  0  0  0  0  0  0
  150.6233  141.4154  156.7215 C   0  0  1  0  0  0  0  0  0  0  0  0
  151.1969  140.8009  158.0263 C   0  0  0  0  0  0  0  0  0  0  0  0
  151.6398  142.0135  158.7671 C   0  0  0  0  0  0  0  0  0  0  0  0
  152.2470  142.0909  160.0321 C   0  0  0  0  0  0  0  0  0  0  0  0
  152.5822  143.3713  160.5249 C   0  0  0  0  0  0  0  0  0  0  0  0
  152.3101  144.5291  159.7567 C   0  0  0  0  0  0  0  0  0  0  0  0
  151.6992  144.4212  158.4869 C   0  0  0  0  0  0  0  0  0  0  0  0
  151.3706  143.1398  158.0103 C   0  0  0  0  0  0  0  0  0  0  0  0
  150.7761  142.8454  156.8166 O   0  0  0  0  0  0  0  0  0  0  0  0
  149.6385  139.2123  154.9705 C   0  0  0  0  0  0  0  0  0  0  0  0
  149.2149  137.9643  154.6916 C   0  0  0  0  0  0  0  0  0  0  0  0
  147.5357  137.6217  154.4721 Cl  0  0  0  0  0  0  0  0  0  0  0  0
  152.4288  140.9987  155.5920 H   0  0  0  0  0  0  0  0  0  0  0  0
  151.1117  141.5536  154.6146 H   0  0  0  0  0  0  0  0  0  0  0  0
  149.5576  141.1913  156.6591 H   0  0  0  0  0  0  0  0  0  0  0  0
  150.4359  140.2626  158.5919 H   0  0  0  0  0  0  0  0  0  0  0  0
  152.0425  140.1360  157.8463 H   0  0  0  0  0  0  0  0  0  0  0  0
  152.4514  141.2006  160.6084 H   0  0  0  0  0  0  0  0  0  0  0  0
  153.0495  143.4680  161.4939 H   0  0  0  0  0  0  0  0  0  0  0  0
  152.5713  145.5028  160.1442 H   0  0  0  0  0  0  0  0  0  0  0  0
  151.4888  145.3009  157.8967 H   0  0  0  0  0  0  0  0  0  0  0  0
  148.9659  140.0510  155.0751 H   0  0  0  0  0  0  0  0  0  0  0  0
  1  2  2  0  0  0  0
  2 18  1  0  0  0  0
  2  3  1  0  0  0  0
  3  4  1  0  0  0  0
  4  5  2  0  0  0  0
  4  6  1  0  0  0  0
  6  7  1  0  0  0  0
  6 17  1  0  0  0  0
  7  8  1  0  0  0  0
  7 20  1  0  0  0  0
  7 21  1  0  0  0  0
  8 16  1  0  0  0  0
  8  9  1  0  0  0  0
  8 22  1  0  0  0  0
  9 10  1  0  0  0  0
  9 23  1  0  0  0  0
  9 24  1  0  0  0  0
 10 15  2  0  0  0  0
 10 11  1  0  0  0  0
 11 12  2  0  0  0  0
 11 25  1  0  0  0  0
 12 13  1  0  0  0  0
 12 26  1  0  0  0  0
 13 14  2  0  0  0  0
 13 27  1  0  0  0  0
 14 15  1  0  0  0  0
 14 28  1  0  0  0  0
 15 16  1  0  0  0  0
 17 18  2  0  0  0  0
 17 29  1  0  0  0  0
 18 19  1  0  0  0  0
M  CHG  1   3  -1
M  END
> <s_m_source_file>
AV-unprocessed.smi

> <i_m_source_file_index>
2748

> <i_lp_mmshare_version>
43012

> <i_f3d_flags>
0

> <s_epik_input>
Tz1jMVtuSF1jKD1PKW4oW2NIXWMxQ2wpW0NIMl1bQ0BIXShbQ0gyXTIpT2MoYzIzKVtjSF1bY0hdW2NIXVtjSF0z

> <s_epik_cmdline>
J2VwaWtfcHl0aG9uJywgJy1waCcsICc3LjAnLCAnLXRuJywgJzgnLCAnLW1hJywgJzIwMCcsICctbWV0YWxfYmluZGluZycsICctaW1hZScsICc8aW5maWxlLm1hZT4nLCAnLW9tYWUnLCAnPG91dGZpbGUubWFlPic=

> <r_lp_tautomer_probability>
1

> <r_epik_Ionization_Penalty>
2.00749

> <r_epik_Ionization_Penalty_Charging>
2.26533e-08

> <r_epik_Ionization_Penalty_Neutral>
2.00749

> <r_epik_State_Penalty>
2.13675

> <r_epik_Charging_Adjusted_Penalty>
2.13675

> <i_epik_Tot_Q>
-1

> <i_epik_Tot_abs_Q>
1

> <r_epik_Metal_State_Penalty>
0.0208594

> <b_epik_Metal_Only>
0

> <s_lp_Force_Field>
OPLS_2005

> <r_lp_Energy>
29.9215

> <b_lp_Chiralities_Consistent>
1

> <s_lp_Variant>
AV-unprocessed.smi:2748-4

> <Gold.Version>
5.8.1

> <Gold.Id.Protein>
6NUR|6NUR_protein|mol2

> <Gold.PLP.Fitness>
46.5732

> <Gold.PLP.PLP>
-37.7839

> <Gold.PLP.part.hbond>
-2.0000

> <Gold.PLP.part.metal>
0.0000

> <Gold.PLP.part.buried>
-5.4112

> <Gold.PLP.part.nonpolar>
-32.1413

> <Gold.PLP.part.repulsive>
0.9622

> <Gold.PLP.ligand.clash>
0.0000

> <Gold.PLP.ligand.torsion>
0.0818

> <Gold.PLP.Chemscore.Hbond>
2.9840

> <Gold.PLP.Chemscore.CHOScore>
0.0000

> <Gold.PLP.Chemscore.Metal>
0.0000

> <Gold.Chemscore.Hbonds>
donor molecule, donor type, donor heavy atom, donor atom, acceptor molecule, acceptor atom, score
      P1  H  7997  8009       L1     5  1.00
      P1  H 10752 10764       L1     3  1.20

> <Gold.PLP.Chemscore.Internal.Correction>
0.0009

> <Gold.Rescore>
     Score         DG    S(hbond)    S(metal)    S(lipo)     H(rot)  DE(clash)    DE(int)     intcor
     18.56     -18.87       1.67        0.00      95.04       1.29       0.13       0.18       ----

> <Gold.Chemscore.Fitness>
18.5574

> <Gold.Chemscore.DG>
-18.8651

> <Gold.Chemscore.ZeroCoef>
-5.4800

> <Gold.Chemscore.Hbond>
1.6703

> <Gold.Chemscore.Metal>
0.0000

> <Gold.Chemscore.Lipo>
95.0361

> <Gold.Chemscore.Internal_Hbond>
0.0000

> <Gold.Chemscore.DEClash>
0.1274

> <Gold.Chemscore.DEInternal>
0.1803

> <Gold.Chemscore.Rot>
1.2942

> <Gold.Chemscore.Internal.Correction>
   9.000000E+99

> <Gold.Chemscore.Hbonds>
donor molecule, donor type, donor heavy atom, donor atom, acceptor molecule, acceptor atom, score
      P1  H  7997  8009       L1     5  0.94
      P1  H 10752 10764       L1     3  0.52

> <Gold.Chemscore.Hbond.Weighted>
-5.5790

> <Gold.Chemscore.Metal.Weighted>
-0.0000

> <Gold.Chemscore.Lipo.Weighted>
-11.1192

> <Gold.Chemscore.Internal_Hbond.Weighted>
0.0000

> <Gold.Chemscore.DEClash.Weighted>
0.1274

> <Gold.Chemscore.DEInternal.Weighted>
0.1803

> <Gold.Chemscore.Rot.Weighted>
3.3131

> <Gold.Chemscore.Internal.Correction.Weighted>
   9.000000E+99

> <Gold.Protein.RotatedTorsions>
[ 6907 6896 6895 6894 ] final  143.19 input  -60.11 | X-H torsion
[ 7974 7965 7964 7962 ] final -137.54 input  175.53 | X-H torsion
[ 8008 7997 7996 7995 ] final -137.37 input   59.86 | X-H torsion
[ 10167 10162 10161 10158 ] final  -70.83 input  -65.29 | X-H torsion
[ 10718 10713 10712 10709 ] final -111.71 input   66.30 | X-H torsion
[ 10763 10752 10751 10750 ] final  -56.58 input  -60.55 | X-H torsion
[ 11005 11000 10999 10996 ] final  -79.63 input  -57.11 | X-H torsion

> <Gold.Protein.ActiveResidues>
 VAL166  LYS551  ARG553  GLY616  TRP617  ASP618  TYR619  PRO620  LYS621  CYS622 
 ASP623  PHE694  ASN695  SER759  ASP760  ASP761  ALA762  ILE779  LEU786  VAL792 
 PHE793  MET794  SER795  GLU796  ALA797  LYS798  CYS799  TRP800  GLU811  SER814 

> <Gold.Protein.RotatedAtoms>
  152.2093  133.4899  159.5101 H   0  0  0  0  0  0  0  0  0  0  0  0  # atno 6907 bound_to 6896
  150.6987  134.1487  159.4141 H   0  0  0  0  0  0  0  0  0  0  0  0  # atno 6908 bound_to 6896
  151.9406  135.0215  160.0586 H   0  0  0  0  0  0  0  0  0  0  0  0  # atno 6909 bound_to 6896
  144.8833  140.6538  143.5192 H   0  0  0  0  0  0  0  0  0  0  0  0  # atno 7974 bound_to 7965
  155.4107  140.0512  157.3032 H   0  0  0  0  0  0  0  0  0  0  0  0  # atno 8008 bound_to 7997
  154.4947  140.2134  155.9432 H   0  0  0  0  0  0  0  0  0  0  0  0  # atno 8009 bound_to 7997
  156.1390  140.3158  155.8470 H   0  0  0  0  0  0  0  0  0  0  0  0  # atno 8010 bound_to 7997
  140.5321  143.2321  151.7243 H   0  0  0  0  0  0  0  0  0  0  0  0  # atno 10167 bound_to 10162
  156.0663  130.5882  150.8410 H   0  0  0  0  0  0  0  0  0  0  0  0  # atno 10718 bound_to 10713
  154.2089  135.6398  153.5109 H   0  0  0  0  0  0  0  0  0  0  0  0  # atno 10763 bound_to 10752
  152.9994  135.5469  154.6236 H   0  0  0  0  0  0  0  0  0  0  0  0  # atno 10764 bound_to 10752
  154.5668  135.2913  155.0840 H   0  0  0  0  0  0  0  0  0  0  0  0  # atno 10765 bound_to 10752
  141.1667  133.7114  156.8152 H   0  0  0  0  0  0  0  0  0  0  0  0  # atno 11005 bound_to 11000
  145.3915  139.1616  143.4227 LP  0  0  0  0  0  0  0  0  0  0  0  0  # atno 17320 bound_to 7965
  146.3008  140.4004  142.8704 LP  0  0  0  0  0  0  0  0  0  0  0  0  # atno 17321 bound_to 7965
  139.4958  144.4098  152.0093 LP  0  0  0  0  0  0  0  0  0  0  0  0  # atno 17342 bound_to 10162
  140.3201  144.3438  150.6012 LP  0  0  0  0  0  0  0  0  0  0  0  0  # atno 17343 bound_to 10162
  157.5706  131.0946  150.9423 LP  0  0  0  0  0  0  0  0  0  0  0  0  # atno 17370 bound_to 10713
  156.9640  130.5466  149.5287 LP  0  0  0  0  0  0  0  0  0  0  0  0  # atno 17371 bound_to 10713
  140.2159  134.8793  157.3325 LP  0  0  0  0  0  0  0  0  0  0  0  0  # atno 17394 bound_to 11000
  140.2038  134.4222  155.7648 LP  0  0  0  0  0  0  0  0  0  0  0  0  # atno 17395 bound_to 11000

$$$$
