AV-unprocessed.smi:354|AV-procd|sdf|2405|dock4
  -GOLD-   2262022333D 1   1.00000     0.00000
 Structure written by MMmdl.
 37 39  0  0  0  0  0  0  0  0  2 V2000
  151.2310  136.3927  154.4894 O   0  0  0  0  0  0  0  0  0  0  0  0
  151.7120  137.7182  154.4936 C   0  0  0  0  0  0  0  0  0  0  0  0
  150.6121  138.7216  154.3658 C   0  0  0  0  0  0  0  0  0  0  0  0
  149.5526  138.6232  153.5138 N   0  3  0  0  0  0  0  0  0  0  0  0
  148.7295  139.7414  153.6488 C   0  0  0  0  0  0  0  0  0  0  0  0
  147.5481  140.0878  153.0004 C   0  0  0  0  0  0  0  0  0  0  0  0
  146.9565  141.3121  153.3751 C   0  0  0  0  0  0  0  0  0  0  0  0
  147.5386  142.1388  154.3580 C   0  0  0  0  0  0  0  0  0  0  0  0
  148.7371  141.7770  155.0078 C   0  0  0  0  0  0  0  0  0  0  0  0
  149.3153  140.5647  154.6314 C   0  0  0  0  0  0  0  0  0  0  0  0
  150.4746  139.8991  155.0445 N   0  0  0  0  0  0  0  0  0  0  0  0
  151.3235  140.5268  156.0701 C   0  0  0  0  0  0  0  0  0  0  0  0
  150.8570  140.2177  157.5068 C   0  0  2  0  0  0  0  0  0  0  0  0
  149.4767  140.5035  157.6339 O   0  0  0  0  0  0  0  0  0  0  0  0
  151.7120  140.9546  158.5292 C   0  0  0  0  0  0  0  0  0  0  0  0
  152.4588  140.2423  159.4950 C   0  0  0  0  0  0  0  0  0  0  0  0
  153.2363  140.9328  160.4447 C   0  0  0  0  0  0  0  0  0  0  0  0
  153.2689  142.3400  160.4398 C   0  0  0  0  0  0  0  0  0  0  0  0
  152.5212  143.0563  159.4862 C   0  0  0  0  0  0  0  0  0  0  0  0
  151.7435  142.3678  158.5347 C   0  0  0  0  0  0  0  0  0  0  0  0
  151.0216  143.0722  157.6299 F   0  0  0  0  0  0  0  0  0  0  0  0
  151.0175  136.1526  153.6006 H   0  0  0  0  0  0  0  0  0  0  0  0
  152.2509  137.8952  155.4247 H   0  0  0  0  0  0  0  0  0  0  0  0
  152.4321  137.8394  153.6857 H   0  0  0  0  0  0  0  0  0  0  0  0
  147.1008  139.4566  152.2467 H   0  0  0  0  0  0  0  0  0  0  0  0
  146.0384  141.6239  152.8984 H   0  0  0  0  0  0  0  0  0  0  0  0
  147.0569  143.0701  154.6187 H   0  0  0  0  0  0  0  0  0  0  0  0
  149.1766  142.4185  155.7575 H   0  0  0  0  0  0  0  0  0  0  0  0
  152.3501  140.1923  155.9153 H   0  0  0  0  0  0  0  0  0  0  0  0
  151.3301  141.6027  155.8971 H   0  0  0  0  0  0  0  0  0  0  0  0
  150.9582  139.1479  157.6914 H   0  0  0  0  0  0  0  0  0  0  0  0
  149.3576  141.4392  157.5738 H   0  0  0  0  0  0  0  0  0  0  0  0
  152.4375  139.1626  159.5169 H   0  0  0  0  0  0  0  0  0  0  0  0
  153.8056  140.3820  161.1788 H   0  0  0  0  0  0  0  0  0  0  0  0
  153.8633  142.8695  161.1695 H   0  0  0  0  0  0  0  0  0  0  0  0
  152.5411  144.1361  159.4865 H   0  0  0  0  0  0  0  0  0  0  0  0
  149.4113  137.8469  152.8804 H   0  0  0  0  0  0  0  0  0  0  0  0
  1  2  1  0  0  0  0
  1 22  1  0  0  0  0
  2  3  1  0  0  0  0
  2 23  1  0  0  0  0
  2 24  1  0  0  0  0
  3 11  1  0  0  0  0
  3  4  2  0  0  0  0
  4  5  1  0  0  0  0
  4 37  1  0  0  0  0
  5 10  2  0  0  0  0
  5  6  1  0  0  0  0
  6  7  2  0  0  0  0
  6 25  1  0  0  0  0
  7  8  1  0  0  0  0
  7 26  1  0  0  0  0
  8  9  2  0  0  0  0
  8 27  1  0  0  0  0
  9 10  1  0  0  0  0
  9 28  1  0  0  0  0
 10 11  1  0  0  0  0
 11 12  1  0  0  0  0
 12 13  1  0  0  0  0
 12 29  1  0  0  0  0
 12 30  1  0  0  0  0
 13 14  1  0  0  0  0
 13 15  1  0  0  0  0
 13 31  1  0  0  0  0
 14 32  1  0  0  0  0
 15 20  1  0  0  0  0
 15 16  2  0  0  0  0
 16 17  1  0  0  0  0
 16 33  1  0  0  0  0
 17 18  2  0  0  0  0
 17 34  1  0  0  0  0
 18 19  1  0  0  0  0
 18 35  1  0  0  0  0
 19 20  2  0  0  0  0
 19 36  1  0  0  0  0
 20 21  1  0  0  0  0
M  CHG  1   4   1
M  END
> <s_m_source_file>
AV-unprocessed.smi

> <i_m_source_file_index>
354

> <i_lp_mmshare_version>
43012

> <i_f3d_flags>
0

> <s_epik_input>
W2NIXTFbY0hdW2NIXVtjSF1jKGMxMiluKGMobjIpW0NIMl1bT0hdKVtDSDJdW0NASF0oW09IXSljM1tjSF1bY0hdW2NIXVtjSF1jM0Y=

> <s_epik_cmdline>
J2VwaWtfcHl0aG9uJywgJy1waCcsICc3LjAnLCAnLXRuJywgJzgnLCAnLW1hJywgJzIwMCcsICctbWV0YWxfYmluZGluZycsICctaW1hZScsICc8aW5maWxlLm1hZT4nLCAnLW9tYWUnLCAnPG91dGZpbGUubWFlPic=

> <r_epik_Ionization_Penalty>
1.35643

> <r_epik_Ionization_Penalty_Charging>
1.35557

> <r_epik_Ionization_Penalty_Neutral>
0.000857128

> <r_epik_State_Penalty>
1.43401

> <r_epik_Charging_Adjusted_Penalty>
2.78958

> <i_epik_Tot_Q>
1

> <i_epik_Tot_abs_Q>
1

> <r_epik_Metal_State_Penalty>
5.47166

> <b_epik_Metal_Only>
0

> <s_lp_Force_Field>
OPLS_2005

> <r_lp_Energy>
14.4216

> <b_lp_Chiralities_Consistent>
1

> <s_lp_Variant>
AV-unprocessed.smi:354-3

> <Gold.Version>
5.8.1

> <Gold.Id.Protein>
6NUR|6NUR_protein|mol2

> <Gold.PLP.Fitness>
59.7835

> <Gold.PLP.PLP>
-48.9709

> <Gold.PLP.part.hbond>
-4.0000

> <Gold.PLP.part.metal>
0.0000

> <Gold.PLP.part.buried>
0.3494

> <Gold.PLP.part.nonpolar>
-45.8296

> <Gold.PLP.part.repulsive>
0.0805

> <Gold.PLP.ligand.clash>
0.0000

> <Gold.PLP.ligand.torsion>
0.6205

> <Gold.PLP.Chemscore.Hbond>
4.0000

> <Gold.PLP.Chemscore.CHOScore>
0.0000

> <Gold.PLP.Chemscore.Metal>
0.0000

> <Gold.Chemscore.Hbonds>
donor molecule, donor type, donor heavy atom, donor atom, acceptor molecule, acceptor atom, score
      L1  H     1    22       P1  7949  0.74
      L1  H     4    37       P1  7948  2.00
      P1  H 10752 10763       L1     1  0.42

> <Gold.PLP.Chemscore.Internal.Correction>
0.0535

> <Gold.Rescore>
     Score         DG    S(hbond)    S(metal)    S(lipo)     H(rot)  DE(clash)    DE(int)     intcor
     13.57     -15.91       0.97        0.00     123.22       2.82       0.43       1.91       ----

> <Gold.Chemscore.Fitness>
13.5681

> <Gold.Chemscore.DG>
-15.9118

> <Gold.Chemscore.ZeroCoef>
-5.4800

> <Gold.Chemscore.Hbond>
0.9699

> <Gold.Chemscore.Metal>
0.0000

> <Gold.Chemscore.Lipo>
123.2175

> <Gold.Chemscore.Internal_Hbond>
0.0000

> <Gold.Chemscore.DEClash>
0.4291

> <Gold.Chemscore.DEInternal>
1.9145

> <Gold.Chemscore.Rot>
2.8219

> <Gold.Chemscore.Internal.Correction>
   9.000000E+99

> <Gold.Chemscore.Hbonds>
donor molecule, donor type, donor heavy atom, donor atom, acceptor molecule, acceptor atom, score
      L1  H     1    22       P1  7949  0.17
      L1  H     4    37       P1  7948  0.90

> <Gold.Chemscore.Hbond.Weighted>
-3.2394

> <Gold.Chemscore.Metal.Weighted>
-0.0000

> <Gold.Chemscore.Lipo.Weighted>
-14.4165

> <Gold.Chemscore.Internal_Hbond.Weighted>
0.0000

> <Gold.Chemscore.DEClash.Weighted>
0.4291

> <Gold.Chemscore.DEInternal.Weighted>
1.9145

> <Gold.Chemscore.Rot.Weighted>
7.2240

> <Gold.Chemscore.Internal.Correction.Weighted>
   9.000000E+99

> <Gold.Protein.RotatedTorsions>
[ 6907 6896 6895 6894 ] final   -9.97 input  -60.11 | X-H torsion
[ 7974 7965 7964 7962 ] final   37.33 input  175.53 | X-H torsion
[ 8008 7997 7996 7995 ] final -142.18 input   59.86 | X-H torsion
[ 10167 10162 10161 10158 ] final  -10.71 input  -65.29 | X-H torsion
[ 10718 10713 10712 10709 ] final   74.86 input   66.30 | X-H torsion
[ 10763 10752 10751 10750 ] final   47.10 input  -60.55 | X-H torsion
[ 11005 11000 10999 10996 ] final  169.75 input  -57.11 | X-H torsion

> <Gold.Protein.ActiveResidues>
 VAL166  LYS551  ARG553  GLY616  TRP617  ASP618  TYR619  PRO620  LYS621  CYS622 
 ASP623  PHE694  ASN695  SER759  ASP760  ASP761  ALA762  ILE779  LEU786  VAL792 
 PHE793  MET794  SER795  GLU796  ALA797  LYS798  CYS799  TRP800  GLU811  SER814 

> <Gold.Protein.RotatedAtoms>
  151.4093  135.0982  159.9579 H   0  0  0  0  0  0  0  0  0  0  0  0  # atno 6907 bound_to 6896
  152.5025  133.8813  159.7358 H   0  0  0  0  0  0  0  0  0  0  0  0  # atno 6908 bound_to 6896
  150.9304  133.6717  159.2840 H   0  0  0  0  0  0  0  0  0  0  0  0  # atno 6909 bound_to 6896
  146.1145  139.5907  142.9330 H   0  0  0  0  0  0  0  0  0  0  0  0  # atno 7974 bound_to 7965
  155.4900  140.0567  157.2955 H   0  0  0  0  0  0  0  0  0  0  0  0  # atno 8008 bound_to 7997
  154.4627  140.2004  156.0153 H   0  0  0  0  0  0  0  0  0  0  0  0  # atno 8009 bound_to 7997
  156.0919  140.3232  155.7831 H   0  0  0  0  0  0  0  0  0  0  0  0  # atno 8010 bound_to 7997
  140.7120  143.5719  150.9084 H   0  0  0  0  0  0  0  0  0  0  0  0  # atno 10167 bound_to 10162
  157.6610  130.9698  150.1271 H   0  0  0  0  0  0  0  0  0  0  0  0  # atno 10718 bound_to 10713
  152.9803  135.5987  154.3708 H   0  0  0  0  0  0  0  0  0  0  0  0  # atno 10763 bound_to 10752
  154.3381  135.2768  155.2439 H   0  0  0  0  0  0  0  0  0  0  0  0  # atno 10764 bound_to 10752
  154.4532  135.5984  153.6261 H   0  0  0  0  0  0  0  0  0  0  0  0  # atno 10765 bound_to 10752
  140.3011  134.7594  157.3917 H   0  0  0  0  0  0  0  0  0  0  0  0  # atno 11005 bound_to 11000
  145.5594  141.0406  143.2234 LP  0  0  0  0  0  0  0  0  0  0  0  0  # atno 17320 bound_to 7965
  144.7541  139.7119  143.7261 LP  0  0  0  0  0  0  0  0  0  0  0  0  # atno 17321 bound_to 7965
  139.9445  143.6344  152.3045 LP  0  0  0  0  0  0  0  0  0  0  0  0  # atno 17342 bound_to 10162
  139.6840  144.7653  151.1557 LP  0  0  0  0  0  0  0  0  0  0  0  0  # atno 17343 bound_to 10162
  156.2127  130.3668  149.8650 LP  0  0  0  0  0  0  0  0  0  0  0  0  # atno 17370 bound_to 10713
  156.6524  130.8749  151.3533 LP  0  0  0  0  0  0  0  0  0  0  0  0  # atno 17371 bound_to 10713
  140.1108  134.5347  155.8267 LP  0  0  0  0  0  0  0  0  0  0  0  0  # atno 17394 bound_to 11000
  141.2128  133.6724  156.6686 LP  0  0  0  0  0  0  0  0  0  0  0  0  # atno 17395 bound_to 11000

$$$$
