AV-unprocessed.smi:311|AV-procd|sdf|2300|dock8
  -GOLD-   2262022203D 1   1.00000     0.00000
 Structure written by MMmdl.
 44 46  0  0  0  0  0  0  0  0  2 V2000
  152.5571  138.8802  154.6567 C   0  0  0  0  0  0  0  0  0  0  0  0
  151.9419  139.7034  155.7521 C   0  0  0  0  0  0  0  0  0  0  0  0
  152.4483  139.6527  156.9726 N   0  0  0  0  0  0  0  0  0  0  0  0
  151.6646  140.5118  157.7489 O   0  0  0  0  0  0  0  0  0  0  0  0
  150.7071  141.0546  156.9553 C   0  0  0  0  0  0  0  0  0  0  0  0
  149.7556  142.0000  157.6078 C   0  0  0  0  0  0  0  0  0  0  0  0
  150.8252  140.5845  155.6758 C   0  0  0  0  0  0  0  0  0  0  0  0
  149.9822  140.9068  154.4681 C   0  0  0  0  0  0  0  0  0  0  0  0
  148.6312  140.1981  154.5686 C   0  0  0  0  0  0  0  0  0  0  0  0
  148.0755  140.0826  155.6603 O   0  0  0  0  0  0  0  0  0  0  0  0
  148.1195  139.7181  153.4238 N   0  0  0  0  0  0  0  0  0  0  0  0
  146.8372  139.0304  153.2908 C   0  0  1  0  0  0  0  0  0  0  0  0
  146.4945  138.6803  151.8301 C   0  0  0  0  0  0  0  0  0  0  0  0
  145.8887  137.2747  151.9010 C   0  0  0  0  0  0  0  0  0  0  0  0
  146.6212  136.6580  153.0128 N   0  3  2  0  0  0  0  0  0  0  0  0
  146.1420  135.3661  153.5450 C   0  0  0  0  0  0  0  0  0  0  0  0
  147.1735  134.8476  154.5707 C   0  0  0  0  0  0  0  0  0  0  0  0
  147.5097  135.9016  155.6503 C   0  0  0  0  0  0  0  0  0  0  0  0
  147.8794  137.2649  155.0263 C   0  0  0  0  0  0  0  0  0  0  0  0
  146.7622  137.6884  154.0562 C   0  0  1  0  0  0  0  0  0  0  0  0
  151.7917  138.3448  154.0946 H   0  0  0  0  0  0  0  0  0  0  0  0
  153.2549  138.1401  155.0505 H   0  0  0  0  0  0  0  0  0  0  0  0
  153.1032  139.5114  153.9556 H   0  0  0  0  0  0  0  0  0  0  0  0
  149.4301  142.7703  156.9086 H   0  0  0  0  0  0  0  0  0  0  0  0
  150.2200  142.4956  158.4607 H   0  0  0  0  0  0  0  0  0  0  0  0
  148.8716  141.4707  157.9633 H   0  0  0  0  0  0  0  0  0  0  0  0
  149.8098  141.9794  154.3729 H   0  0  0  0  0  0  0  0  0  0  0  0
  150.4798  140.5993  153.5473 H   0  0  0  0  0  0  0  0  0  0  0  0
  148.6504  139.8626  152.5770 H   0  0  0  0  0  0  0  0  0  0  0  0
  146.0468  139.6825  153.6685 H   0  0  0  0  0  0  0  0  0  0  0  0
  145.8177  139.4028  151.3727 H   0  0  0  0  0  0  0  0  0  0  0  0
  147.4015  138.6506  151.2240 H   0  0  0  0  0  0  0  0  0  0  0  0
  144.8257  137.3259  152.1426 H   0  0  0  0  0  0  0  0  0  0  0  0
  146.0078  136.7162  150.9719 H   0  0  0  0  0  0  0  0  0  0  0  0
  145.1607  135.4888  154.0059 H   0  0  0  0  0  0  0  0  0  0  0  0
  146.0305  134.6507  152.7293 H   0  0  0  0  0  0  0  0  0  0  0  0
  146.8069  133.9346  155.0411 H   0  0  0  0  0  0  0  0  0  0  0  0
  148.0900  134.5739  154.0464 H   0  0  0  0  0  0  0  0  0  0  0  0
  146.6476  136.0292  156.3063 H   0  0  0  0  0  0  0  0  0  0  0  0
  148.3243  135.5446  156.2813 H   0  0  0  0  0  0  0  0  0  0  0  0
  148.0065  138.0080  155.8141 H   0  0  0  0  0  0  0  0  0  0  0  0
  148.8325  137.1903  154.5010 H   0  0  0  0  0  0  0  0  0  0  0  0
  145.8262  137.7130  154.6187 H   0  0  0  0  0  0  0  0  0  0  0  0
  147.5526  136.4923  152.6590 H   0  0  0  0  0  0  0  0  0  0  0  0
  1  2  1  0  0  0  0
  1 21  1  0  0  0  0
  1 22  1  0  0  0  0
  1 23  1  0  0  0  0
  2  7  1  0  0  0  0
  2  3  2  0  0  0  0
  3  4  1  0  0  0  0
  4  5  1  0  0  0  0
  5  6  1  0  0  0  0
  5  7  2  0  0  0  0
  6 24  1  0  0  0  0
  6 25  1  0  0  0  0
  6 26  1  0  0  0  0
  7  8  1  0  0  0  0
  8  9  1  0  0  0  0
  8 27  1  0  0  0  0
  8 28  1  0  0  0  0
  9 10  2  0  0  0  0
  9 11  1  0  0  0  0
 11 12  1  0  0  0  0
 11 29  1  0  0  0  0
 12 20  1  0  0  0  0
 12 13  1  0  0  0  0
 12 30  1  0  0  0  0
 13 14  1  0  0  0  0
 13 31  1  0  0  0  0
 13 32  1  0  0  0  0
 14 15  1  0  0  0  0
 14 33  1  0  0  0  0
 14 34  1  0  0  0  0
 15 20  1  0  0  0  0
 15 16  1  0  0  0  0
 15 44  1  0  0  0  0
 16 17  1  0  0  0  0
 16 35  1  0  0  0  0
 16 36  1  0  0  0  0
 17 18  1  0  0  0  0
 17 37  1  0  0  0  0
 17 38  1  0  0  0  0
 18 19  1  0  0  0  0
 18 39  1  0  0  0  0
 18 40  1  0  0  0  0
 19 20  1  0  0  0  0
 19 41  1  0  0  0  0
 19 42  1  0  0  0  0
 20 43  1  0  0  0  0
M  CHG  1  15   1
M  END
> <s_m_source_file>
AV-unprocessed.smi

> <i_m_source_file_index>
311

> <i_lp_mmshare_version>
43012

> <i_f3d_flags>
0

> <s_epik_input>
W0NIM11jMW5vYyhbQ0gzXSljMVtDSDJdQyg9TylbTkhdW0NASF0oW0NIMl1bQ0gyXTIpW0NAQEhdKE4yMylbQ0gyXVtDSDJdW0NIMl1bQ0gyXTM=

> <s_epik_cmdline>
J2VwaWtfcHl0aG9uJywgJy1waCcsICc3LjAnLCAnLXRuJywgJzgnLCAnLW1hJywgJzIwMCcsICctbWV0YWxfYmluZGluZycsICctaW1hZScsICc8aW5maWxlLm1hZT4nLCAnLW9tYWUnLCAnPG91dGZpbGUubWFlPic=

> <r_epik_Ionization_Penalty>
0.00173669

> <r_epik_Ionization_Penalty_Charging>
0.0017366

> <r_epik_Ionization_Penalty_Neutral>
9.2145e-08

> <r_epik_State_Penalty>
0.00117499

> <r_epik_Charging_Adjusted_Penalty>
0.00291159

> <i_epik_Tot_Q>
1

> <i_epik_Tot_abs_Q>
1

> <r_epik_Metal_State_Penalty>
-0

> <b_epik_Metal_Only>
0

> <s_lp_Force_Field>
OPLS_2005

> <r_lp_Energy>
35.4626

> <b_lp_Chiralities_Consistent>
1

> <s_lp_Variant>
AV-unprocessed.smi:311-4

> <Gold.Version>
5.8.1

> <Gold.Id.Protein>
6NUR|6NUR_protein|mol2

> <Gold.PLP.Fitness>
39.9004

> <Gold.PLP.PLP>
-28.9393

> <Gold.PLP.part.hbond>
-3.0000

> <Gold.PLP.part.metal>
0.0000

> <Gold.PLP.part.buried>
0.3833

> <Gold.PLP.part.nonpolar>
-27.1645

> <Gold.PLP.part.repulsive>
0.1194

> <Gold.PLP.ligand.clash>
0.0000

> <Gold.PLP.ligand.torsion>
0.5197

> <Gold.PLP.Chemscore.Hbond>
4.0000

> <Gold.PLP.Chemscore.CHOScore>
0.0000

> <Gold.PLP.Chemscore.Metal>
0.0000

> <Gold.Chemscore.Hbonds>
donor molecule, donor type, donor heavy atom, donor atom, acceptor molecule, acceptor atom, score
      L1  H    11    29       P1  7957  1.00
      L1  H    15    44       P1  7948  2.00
      P1  H  7997  8008       L1     3  1.00

> <Gold.PLP.Chemscore.Internal.Correction>
0.0006

> <Gold.Rescore>
     Score         DG    S(hbond)    S(metal)    S(lipo)     H(rot)  DE(clash)    DE(int)     intcor
     18.05     -20.00       2.74        0.00      75.43       1.36       1.34       0.62       ----

> <Gold.Chemscore.Fitness>
18.0462

> <Gold.Chemscore.DG>
-19.9980

> <Gold.Chemscore.ZeroCoef>
-5.4800

> <Gold.Chemscore.Hbond>
2.7444

> <Gold.Chemscore.Metal>
0.0000

> <Gold.Chemscore.Lipo>
75.4258

> <Gold.Chemscore.Internal_Hbond>
0.0000

> <Gold.Chemscore.DEClash>
1.3355

> <Gold.Chemscore.DEInternal>
0.6163

> <Gold.Chemscore.Rot>
1.3567

> <Gold.Chemscore.Internal.Correction>
   9.000000E+99

> <Gold.Chemscore.Hbonds>
donor molecule, donor type, donor heavy atom, donor atom, acceptor molecule, acceptor atom, score
      L1  H    11    29       P1  7957  1.00
      L1  H    15    44       P1  7948  0.99
      P1  H  7997  8008       L1     3  0.37

> <Gold.Chemscore.Hbond.Weighted>
-9.1663

> <Gold.Chemscore.Metal.Weighted>
-0.0000

> <Gold.Chemscore.Lipo.Weighted>
-8.8248

> <Gold.Chemscore.Internal_Hbond.Weighted>
0.0000

> <Gold.Chemscore.DEClash.Weighted>
1.3355

> <Gold.Chemscore.DEInternal.Weighted>
0.6163

> <Gold.Chemscore.Rot.Weighted>
3.4731

> <Gold.Chemscore.Internal.Correction.Weighted>
   9.000000E+99

> <Gold.Protein.RotatedTorsions>
[ 6907 6896 6895 6894 ] final   99.71 input  -60.11 | X-H torsion
[ 7974 7965 7964 7962 ] final   44.51 input  175.53 | X-H torsion
[ 8008 7997 7996 7995 ] final  -63.61 input   59.86 | X-H torsion
[ 10167 10162 10161 10158 ] final   69.97 input  -65.29 | X-H torsion
[ 10718 10713 10712 10709 ] final  -12.09 input   66.30 | X-H torsion
[ 10763 10752 10751 10750 ] final -136.17 input  -60.55 | X-H torsion
[ 11005 11000 10999 10996 ] final -113.70 input  -57.11 | X-H torsion

> <Gold.Protein.ActiveResidues>
 VAL166  LYS551  ARG553  GLY616  TRP617  ASP618  TYR619  PRO620  LYS621  CYS622 
 ASP623  PHE694  ASN695  SER759  ASP760  ASP761  ALA762  ILE779  LEU786  VAL792 
 PHE793  MET794  SER795  GLU796  ALA797  LYS798  CYS799  TRP800  GLU811  SER814 

> <Gold.Protein.RotatedAtoms>
  152.5387  134.0387  159.8057 H   0  0  0  0  0  0  0  0  0  0  0  0  # atno 6907 bound_to 6896
  151.0546  133.5587  159.2646 H   0  0  0  0  0  0  0  0  0  0  0  0  # atno 6908 bound_to 6896
  151.2509  135.0629  159.9115 H   0  0  0  0  0  0  0  0  0  0  0  0  # atno 6909 bound_to 6896
  146.0562  139.5066  142.9687 H   0  0  0  0  0  0  0  0  0  0  0  0  # atno 7974 bound_to 7965
  154.4564  140.0971  156.6769 H   0  0  0  0  0  0  0  0  0  0  0  0  # atno 8008 bound_to 7997
  155.5126  140.3477  155.4373 H   0  0  0  0  0  0  0  0  0  0  0  0  # atno 8009 bound_to 7997
  156.0786  140.1367  156.9730 H   0  0  0  0  0  0  0  0  0  0  0  0  # atno 8010 bound_to 7997
  140.0620  144.5225  150.7288 H   0  0  0  0  0  0  0  0  0  0  0  0  # atno 10167 bound_to 10162
  156.6497  130.4951  149.6066 H   0  0  0  0  0  0  0  0  0  0  0  0  # atno 10718 bound_to 10713
  154.8689  135.3681  154.5018 H   0  0  0  0  0  0  0  0  0  0  0  0  # atno 10763 bound_to 10752
  153.5658  135.7022  153.5531 H   0  0  0  0  0  0  0  0  0  0  0  0  # atno 10764 bound_to 10752
  153.3586  135.4052  155.1664 H   0  0  0  0  0  0  0  0  0  0  0  0  # atno 10765 bound_to 10752
  141.0598  133.9553  157.2687 H   0  0  0  0  0  0  0  0  0  0  0  0  # atno 11005 bound_to 11000
  145.6639  141.0233  143.1694 LP  0  0  0  0  0  0  0  0  0  0  0  0  # atno 17320 bound_to 7965
  144.7149  139.8233  143.7402 LP  0  0  0  0  0  0  0  0  0  0  0  0  # atno 17321 bound_to 7965
  140.7167  143.2551  151.4410 LP  0  0  0  0  0  0  0  0  0  0  0  0  # atno 17342 bound_to 10162
  139.5888  144.1545  152.2062 LP  0  0  0  0  0  0  0  0  0  0  0  0  # atno 17343 bound_to 10162
  156.2094  130.6669  151.1253 LP  0  0  0  0  0  0  0  0  0  0  0  0  # atno 17370 bound_to 10713
  157.7145  131.0717  150.6379 LP  0  0  0  0  0  0  0  0  0  0  0  0  # atno 17371 bound_to 10713
  139.9422  135.0189  156.8744 LP  0  0  0  0  0  0  0  0  0  0  0  0  # atno 17394 bound_to 11000
  140.5891  134.0279  155.7493 LP  0  0  0  0  0  0  0  0  0  0  0  0  # atno 17395 bound_to 11000

$$$$
