AV-unprocessed.smi:1570|AV-procd|sdf|6323|dock9
  -GOLD-   22720 6533D 1   1.00000     0.00000
 Structure written by MMmdl.
 52 54  0  0  0  0  0  0  0  0  2 V2000
  150.6074  145.0767  160.1059 C   0  0  0  0  0  0  0  0  0  0  0  0
  151.8302  144.8700  159.2033 C   0  0  0  0  0  0  0  0  0  0  0  0
  151.9789  143.4659  158.8291 N   0  0  0  0  0  0  0  0  0  0  0  0
  151.5811  142.8932  157.6694 C   0  0  0  0  0  0  0  0  0  0  0  0
  151.0120  143.4620  156.7375 O   0  0  0  0  0  0  0  0  0  0  0  0
  151.9334  141.5858  157.7020 N   0  0  0  0  0  0  0  0  0  0  0  0
  151.6939  140.5973  156.6511 C   0  0  0  0  0  0  0  0  0  0  0  0
  150.3686  140.8601  155.9070 C   0  0  1  0  0  0  0  0  0  0  0  0
  150.4027  140.1538  154.6821 O   0  0  0  0  0  0  0  0  0  0  0  0
  149.1524  140.3504  156.7071 C   0  0  0  0  0  0  0  0  0  0  0  0
  147.9970  141.2804  156.6300 N   0  3  1  0  0  0  0  0  0  0  0  0
  147.5836  141.5657  155.2369 C   0  0  0  0  0  0  0  0  0  0  0  0
  146.4622  142.6206  155.2145 C   0  0  1  0  0  0  0  0  0  0  0  0
  145.9420  142.8771  153.7958 C   0  0  0  0  0  0  0  0  0  0  0  0
  145.3674  142.1680  156.0070 O   0  0  0  0  0  0  0  0  0  0  0  0
  145.6896  141.8763  157.3669 C   0  0  2  0  0  0  0  0  0  0  0  0
  145.9666  143.1483  158.1881 C   0  0  0  0  0  0  0  0  0  0  0  0
  146.8288  140.8407  157.4324 C   0  0  0  0  0  0  0  0  0  0  0  0
  152.5899  141.3180  158.9123 C   0  0  0  0  0  0  0  0  0  0  0  0
  153.1595  140.1358  159.4174 C   0  0  0  0  0  0  0  0  0  0  0  0
  153.7652  140.2034  160.6940 C   0  0  0  0  0  0  0  0  0  0  0  0
  153.7915  141.4202  161.4233 C   0  0  0  0  0  0  0  0  0  0  0  0
  153.2139  142.5962  160.8905 C   0  0  0  0  0  0  0  0  0  0  0  0
  152.6176  142.5012  159.6211 C   0  0  0  0  0  0  0  0  0  0  0  0
  150.5001  146.1266  160.3784 H   0  0  0  0  0  0  0  0  0  0  0  0
  150.6951  144.5008  161.0279 H   0  0  0  0  0  0  0  0  0  0  0  0
  149.6895  144.7689  159.6040 H   0  0  0  0  0  0  0  0  0  0  0  0
  151.7396  145.4802  158.3043 H   0  0  0  0  0  0  0  0  0  0  0  0
  152.7300  145.2169  159.7135 H   0  0  0  0  0  0  0  0  0  0  0  0
  152.5341  140.5427  155.9584 H   0  0  0  0  0  0  0  0  0  0  0  0
  151.6538  139.6198  157.1344 H   0  0  0  0  0  0  0  0  0  0  0  0
  150.2627  141.9244  155.7009 H   0  0  0  0  0  0  0  0  0  0  0  0
  149.5908  140.3053  154.2224 H   0  0  0  0  0  0  0  0  0  0  0  0
  148.8689  139.3676  156.3266 H   0  0  0  0  0  0  0  0  0  0  0  0
  149.4157  140.2025  157.7558 H   0  0  0  0  0  0  0  0  0  0  0  0
  148.4380  141.9316  154.6662 H   0  0  0  0  0  0  0  0  0  0  0  0
  147.2498  140.6428  154.7592 H   0  0  0  0  0  0  0  0  0  0  0  0
  146.8388  143.5639  155.6107 H   0  0  0  0  0  0  0  0  0  0  0  0
  146.7376  143.2415  153.1453 H   0  0  0  0  0  0  0  0  0  0  0  0
  145.1490  143.6255  153.8009 H   0  0  0  0  0  0  0  0  0  0  0  0
  145.5369  141.9670  153.3525 H   0  0  0  0  0  0  0  0  0  0  0  0
  144.7989  141.4152  157.7947 H   0  0  0  0  0  0  0  0  0  0  0  0
  146.0804  142.9078  159.2455 H   0  0  0  0  0  0  0  0  0  0  0  0
  145.1409  143.8548  158.0997 H   0  0  0  0  0  0  0  0  0  0  0  0
  146.8780  143.6558  157.8735 H   0  0  0  0  0  0  0  0  0  0  0  0
  146.4726  139.8841  157.0461 H   0  0  0  0  0  0  0  0  0  0  0  0
  147.1090  140.6710  158.4715 H   0  0  0  0  0  0  0  0  0  0  0  0
  153.1423  139.2120  158.8590 H   0  0  0  0  0  0  0  0  0  0  0  0
  154.2154  139.3180  161.1185 H   0  0  0  0  0  0  0  0  0  0  0  0
  154.2598  141.4498  162.3962 H   0  0  0  0  0  0  0  0  0  0  0  0
  153.2349  143.5265  161.4388 H   0  0  0  0  0  0  0  0  0  0  0  0
  148.3129  142.1584  157.0177 H   0  0  0  0  0  0  0  0  0  0  0  0
  1  2  1  0  0  0  0
  1 25  1  0  0  0  0
  1 26  1  0  0  0  0
  1 27  1  0  0  0  0
  2  3  1  0  0  0  0
  2 28  1  0  0  0  0
  2 29  1  0  0  0  0
  3 24  1  0  0  0  0
  3  4  1  0  0  0  0
  4  5  2  0  0  0  0
  4  6  1  0  0  0  0
  6  7  1  0  0  0  0
  6 19  1  0  0  0  0
  7  8  1  0  0  0  0
  7 30  1  0  0  0  0
  7 31  1  0  0  0  0
  8  9  1  0  0  0  0
  8 10  1  0  0  0  0
  8 32  1  0  0  0  0
  9 33  1  0  0  0  0
 10 11  1  0  0  0  0
 10 34  1  0  0  0  0
 10 35  1  0  0  0  0
 11 18  1  0  0  0  0
 11 12  1  0  0  0  0
 11 52  1  0  0  0  0
 12 13  1  0  0  0  0
 12 36  1  0  0  0  0
 12 37  1  0  0  0  0
 13 14  1  0  0  0  0
 13 15  1  0  0  0  0
 13 38  1  0  0  0  0
 14 39  1  0  0  0  0
 14 40  1  0  0  0  0
 14 41  1  0  0  0  0
 15 16  1  0  0  0  0
 16 17  1  0  0  0  0
 16 18  1  0  0  0  0
 16 42  1  0  0  0  0
 17 43  1  0  0  0  0
 17 44  1  0  0  0  0
 17 45  1  0  0  0  0
 18 46  1  0  0  0  0
 18 47  1  0  0  0  0
 19 24  2  0  0  0  0
 19 20  1  0  0  0  0
 20 21  2  0  0  0  0
 20 48  1  0  0  0  0
 21 22  1  0  0  0  0
 21 49  1  0  0  0  0
 22 23  2  0  0  0  0
 22 50  1  0  0  0  0
 23 24  1  0  0  0  0
 23 51  1  0  0  0  0
M  CHG  1  11   1
M  END
> <s_m_source_file>
AV-unprocessed.smi

> <i_m_source_file_index>
1570

> <i_lp_mmshare_version>
43012

> <i_f3d_flags>
0

> <s_epik_input>
W2NIXTFbY0hdW2NIXVtjSF1jKGMxMiluKFtDSDJdW0NIM10pYyg9TyluMltDSDJdW0NASF0oW09IXSlbQ0gyXU4zW0NIMl1bQ0BASF0oW0NIM10pT1tDQEBIXShbQ0gzXSlbQ0gyXTM=

> <s_epik_cmdline>
J2VwaWtfcHl0aG9uJywgJy1waCcsICc3LjAnLCAnLXRuJywgJzgnLCAnLW1hJywgJzIwMCcsICctbWV0YWxfYmluZGluZycsICctaW1hZScsICc8aW5maWxlLm1hZT4nLCAnLW9tYWUnLCAnPG91dGZpbGUubWFlPic=

> <r_epik_Ionization_Penalty>
0.706332

> <r_epik_Ionization_Penalty_Charging>
0.706318

> <r_epik_Ionization_Penalty_Neutral>
1.42224e-05

> <r_epik_State_Penalty>
0.729493

> <r_epik_Charging_Adjusted_Penalty>
1.43581

> <i_epik_Tot_Q>
1

> <i_epik_Tot_abs_Q>
1

> <r_epik_Metal_State_Penalty>
0.729493

> <b_epik_Metal_Only>
0

> <s_lp_Force_Field>
OPLS_2005

> <r_lp_Energy>
55.371

> <b_lp_Chiralities_Consistent>
1

> <s_lp_Variant>
AV-unprocessed.smi:1570-12

> <Gold.Version>
5.8.1

> <Gold.Id.Protein>
6NUR|6NUR_protein|mol2

> <Gold.PLP.Fitness>
46.4165

> <Gold.PLP.PLP>
-46.2161

> <Gold.PLP.part.hbond>
-1.0000

> <Gold.PLP.part.metal>
0.0000

> <Gold.PLP.part.buried>
-8.3268

> <Gold.PLP.part.nonpolar>
-40.0592

> <Gold.PLP.part.repulsive>
3.0524

> <Gold.PLP.ligand.clash>
0.0000

> <Gold.PLP.ligand.torsion>
1.4266

> <Gold.PLP.Chemscore.Hbond>
1.0000

> <Gold.PLP.Chemscore.CHOScore>
0.0000

> <Gold.PLP.Chemscore.Metal>
0.0000

> <Gold.Chemscore.Hbonds>
donor molecule, donor type, donor heavy atom, donor atom, acceptor molecule, acceptor atom, score
      P1  H  7989  7998       L1     9  1.00

> <Gold.PLP.Chemscore.Internal.Correction>
0.0536

> <Gold.Rescore>
     Score         DG    S(hbond)    S(metal)    S(lipo)     H(rot)  DE(clash)    DE(int)     intcor
     10.00     -13.11       0.03        0.00     111.10       2.13       0.33       2.78       ----

> <Gold.Chemscore.Fitness>
9.9997

> <Gold.Chemscore.DG>
-13.1136

> <Gold.Chemscore.ZeroCoef>
-5.4800

> <Gold.Chemscore.Hbond>
0.0263

> <Gold.Chemscore.Metal>
0.0000

> <Gold.Chemscore.Lipo>
111.1040

> <Gold.Chemscore.Internal_Hbond>
0.0000

> <Gold.Chemscore.DEClash>
0.3308

> <Gold.Chemscore.DEInternal>
2.7830

> <Gold.Chemscore.Rot>
2.1303

> <Gold.Chemscore.Internal.Correction>
   9.000000E+99

> <Gold.Chemscore.Hbonds>
donor molecule, donor type, donor heavy atom, donor atom, acceptor molecule, acceptor atom, score
      P1  H  7989  7998       L1     9  0.24

> <Gold.Chemscore.Hbond.Weighted>
-0.0879

> <Gold.Chemscore.Metal.Weighted>
-0.0000

> <Gold.Chemscore.Lipo.Weighted>
-12.9992

> <Gold.Chemscore.Internal_Hbond.Weighted>
0.0000

> <Gold.Chemscore.DEClash.Weighted>
0.3308

> <Gold.Chemscore.DEInternal.Weighted>
2.7830

> <Gold.Chemscore.Rot.Weighted>
5.4535

> <Gold.Chemscore.Internal.Correction.Weighted>
   9.000000E+99

> <Gold.Protein.RotatedTorsions>
[ 6907 6896 6895 6894 ] final  107.31 input  -60.11 | X-H torsion
[ 7974 7965 7964 7962 ] final    8.14 input  175.53 | X-H torsion
[ 8008 7997 7996 7995 ] final  146.73 input   59.86 | X-H torsion
[ 10167 10162 10161 10158 ] final  -63.67 input  -65.29 | X-H torsion
[ 10718 10713 10712 10709 ] final   37.87 input   66.30 | X-H torsion
[ 10763 10752 10751 10750 ] final -133.27 input  -60.55 | X-H torsion
[ 11005 11000 10999 10996 ] final  162.54 input  -57.11 | X-H torsion

> <Gold.Protein.ActiveResidues>
 VAL166  LYS551  ARG553  GLY616  TRP617  ASP618  TYR619  PRO620  LYS621  CYS622 
 ASP623  PHE694  ASN695  SER759  ASP760  ASP761  ALA762  ILE779  LEU786  VAL792 
 PHE793  MET794  SER795  GLU796  ALA797  LYS798  CYS799  TRP800  GLU811  SER814 

> <Gold.Protein.RotatedAtoms>
  152.5159  133.9253  159.7553 H   0  0  0  0  0  0  0  0  0  0  0  0  # atno 6907 bound_to 6896
  150.9615  133.6431  159.2760 H   0  0  0  0  0  0  0  0  0  0  0  0  # atno 6908 bound_to 6896
  151.3674  135.0921  159.9507 H   0  0  0  0  0  0  0  0  0  0  0  0  # atno 6909 bound_to 6896
  146.2419  139.9977  142.8419 H   0  0  0  0  0  0  0  0  0  0  0  0  # atno 7974 bound_to 7965
  156.2846  140.2174  156.5423 H   0  0  0  0  0  0  0  0  0  0  0  0  # atno 8008 bound_to 7997
  154.7359  140.0491  157.0790 H   0  0  0  0  0  0  0  0  0  0  0  0  # atno 8009 bound_to 7997
  155.0293  140.3133  155.4767 H   0  0  0  0  0  0  0  0  0  0  0  0  # atno 8010 bound_to 7997
  140.5854  143.2333  151.6253 H   0  0  0  0  0  0  0  0  0  0  0  0  # atno 10167 bound_to 10162
  157.3521  130.7604  149.6986 H   0  0  0  0  0  0  0  0  0  0  0  0  # atno 10718 bound_to 10713
  154.8734  135.3771  154.4546 H   0  0  0  0  0  0  0  0  0  0  0  0  # atno 10763 bound_to 10752
  153.5219  135.7029  153.5732 H   0  0  0  0  0  0  0  0  0  0  0  0  # atno 10764 bound_to 10752
  153.3975  135.3956  155.1931 H   0  0  0  0  0  0  0  0  0  0  0  0  # atno 10765 bound_to 10752
  140.2268  134.8155  157.3276 H   0  0  0  0  0  0  0  0  0  0  0  0  # atno 11005 bound_to 11000
  145.1444  140.9589  143.4469 LP  0  0  0  0  0  0  0  0  0  0  0  0  # atno 17320 bound_to 7965
  145.0265  139.3378  143.6046 LP  0  0  0  0  0  0  0  0  0  0  0  0  # atno 17321 bound_to 7965
  139.5195  144.3252  152.0875 LP  0  0  0  0  0  0  0  0  0  0  0  0  # atno 17342 bound_to 10162
  140.2409  144.4271  150.6260 LP  0  0  0  0  0  0  0  0  0  0  0  0  # atno 17343 bound_to 10162
  155.9723  130.4137  150.4098 LP  0  0  0  0  0  0  0  0  0  0  0  0  # atno 17370 bound_to 10713
  157.2162  131.0472  151.2572 LP  0  0  0  0  0  0  0  0  0  0  0  0  # atno 17371 bound_to 10713
  140.1792  134.4511  155.7782 LP  0  0  0  0  0  0  0  0  0  0  0  0  # atno 17394 bound_to 11000
  141.2220  133.6976  156.7840 LP  0  0  0  0  0  0  0  0  0  0  0  0  # atno 17395 bound_to 11000

$$$$
