AV-unprocessed.smi:99|AV-procd|sdf|891|dock8
  -GOLD-   2262017383D 1   1.00000     0.00000
 Structure written by MMmdl.
 52 55  0  0  0  0  0  0  0  0  2 V2000
  147.6203  133.6080  153.4490 O   0  0  0  0  0  0  0  0  0  0  0  0
  146.3893  133.6661  153.4161 C   0  0  0  0  0  0  0  0  0  0  0  0
  145.6384  134.1490  154.4248 O   0  0  0  0  0  0  0  0  0  0  0  0
  146.2625  134.6458  155.5970 C   0  0  0  0  0  0  0  0  0  0  0  0
  146.5313  136.1478  155.4310 C   0  0  2  0  0  0  0  0  0  0  0  0
  147.8174  136.3761  154.8785 O   0  0  0  0  0  0  0  0  0  0  0  0
  148.1662  137.7018  155.1210 C   0  0  2  0  0  0  0  0  0  0  0  0
  149.6755  137.7898  155.1995 N   0  0  0  0  0  0  0  0  0  0  0  0
  150.3047  138.9058  154.6773 C   0  0  0  0  0  0  0  0  0  0  0  0
  151.6477  139.0295  154.6889 C   0  0  0  0  0  0  0  0  0  0  0  0
  152.4604  137.9583  155.2569 C   0  0  0  0  0  0  0  0  0  0  0  0
  153.6830  138.0858  155.2790 O   0  0  0  0  0  0  0  0  0  0  0  0
  151.8206  136.8543  155.7384 N   0  5  0  0  0  0  0  0  0  0  0  0
  150.4621  136.7216  155.7172 C   0  0  0  0  0  0  0  0  0  0  0  0
  149.8866  135.7138  156.1217 O   0  0  0  0  0  0  0  0  0  0  0  0
  147.4492  138.1467  156.4123 C   0  0  1  0  0  0  0  0  0  0  0  0
  146.6430  139.2883  156.2025 O   0  0  0  0  0  0  0  0  0  0  0  0
  146.5437  136.9552  156.7367 C   0  0  2  0  0  0  0  0  0  0  0  0
  147.0802  136.1796  157.8021 O   0  0  0  0  0  0  0  0  0  0  0  0
  147.2941  136.7155  159.0207 C   0  0  0  0  0  0  0  0  0  0  0  0
  147.4597  137.9207  159.2192 O   0  0  0  0  0  0  0  0  0  0  0  0
  147.3101  135.6906  160.1036 C   0  0  0  0  0  0  0  0  0  0  0  0
  147.3093  136.1076  161.4551 C   0  0  0  0  0  0  0  0  0  0  0  0
  147.3286  135.1605  162.4976 C   0  0  0  0  0  0  0  0  0  0  0  0
  147.3511  133.7852  162.2011 C   0  0  0  0  0  0  0  0  0  0  0  0
  147.3534  133.3578  160.8607 C   0  0  0  0  0  0  0  0  0  0  0  0
  147.3323  134.3032  159.8171 C   0  0  0  0  0  0  0  0  0  0  0  0
  145.5752  133.2121  152.2514 C   0  0  0  0  0  0  0  0  0  0  0  0
  146.2260  132.6495  151.1286 C   0  0  0  0  0  0  0  0  0  0  0  0
  145.4851  132.2212  150.0099 C   0  0  0  0  0  0  0  0  0  0  0  0
  144.0840  132.3497  150.0007 C   0  0  0  0  0  0  0  0  0  0  0  0
  143.4244  132.9058  151.1122 C   0  0  0  0  0  0  0  0  0  0  0  0
  144.1637  133.3352  152.2317 C   0  0  0  0  0  0  0  0  0  0  0  0
  145.6039  134.4796  156.4507 H   0  0  0  0  0  0  0  0  0  0  0  0
  147.1930  134.1082  155.7861 H   0  0  0  0  0  0  0  0  0  0  0  0
  145.7901  136.5845  154.7593 H   0  0  0  0  0  0  0  0  0  0  0  0
  147.8738  138.3014  154.2575 H   0  0  0  0  0  0  0  0  0  0  0  0
  149.7151  139.7034  154.2505 H   0  0  0  0  0  0  0  0  0  0  0  0
  152.1189  139.9105  154.2787 H   0  0  0  0  0  0  0  0  0  0  0  0
  148.1586  138.3641  157.2112 H   0  0  0  0  0  0  0  0  0  0  0  0
  146.1951  139.1904  155.3764 H   0  0  0  0  0  0  0  0  0  0  0  0
  145.5282  137.2634  156.9918 H   0  0  0  0  0  0  0  0  0  0  0  0
  147.2943  137.1581  161.7067 H   0  0  0  0  0  0  0  0  0  0  0  0
  147.3283  135.4905  163.5258 H   0  0  0  0  0  0  0  0  0  0  0  0
  147.3681  133.0591  163.0004 H   0  0  0  0  0  0  0  0  0  0  0  0
  147.3743  132.3029  160.6304 H   0  0  0  0  0  0  0  0  0  0  0  0
  147.3389  133.9401  158.7995 H   0  0  0  0  0  0  0  0  0  0  0  0
  147.3011  132.5424  151.1116 H   0  0  0  0  0  0  0  0  0  0  0  0
  145.9936  131.7955  149.1574 H   0  0  0  0  0  0  0  0  0  0  0  0
  143.5162  132.0229  149.1420 H   0  0  0  0  0  0  0  0  0  0  0  0
  142.3490  133.0057  151.1063 H   0  0  0  0  0  0  0  0  0  0  0  0
  143.6266  133.7608  153.0666 H   0  0  0  0  0  0  0  0  0  0  0  0
  1  2  2  0  0  0  0
  2  3  1  0  0  0  0
  2 28  1  0  0  0  0
  3  4  1  0  0  0  0
  4  5  1  0  0  0  0
  4 34  1  0  0  0  0
  4 35  1  0  0  0  0
  5 18  1  0  0  0  0
  5  6  1  0  0  0  0
  5 36  1  0  0  0  0
  6  7  1  0  0  0  0
  7  8  1  0  0  0  0
  7 16  1  0  0  0  0
  7 37  1  0  0  0  0
  8 14  1  0  0  0  0
  8  9  1  0  0  0  0
  9 10  2  0  0  0  0
  9 38  1  0  0  0  0
 10 11  1  0  0  0  0
 10 39  1  0  0  0  0
 11 12  2  0  0  0  0
 11 13  1  0  0  0  0
 13 14  1  0  0  0  0
 14 15  2  0  0  0  0
 16 17  1  0  0  0  0
 16 18  1  0  0  0  0
 16 40  1  0  0  0  0
 17 41  1  0  0  0  0
 18 19  1  0  0  0  0
 18 42  1  0  0  0  0
 19 20  1  0  0  0  0
 20 21  2  0  0  0  0
 20 22  1  0  0  0  0
 22 27  1  0  0  0  0
 22 23  2  0  0  0  0
 23 24  1  0  0  0  0
 23 43  1  0  0  0  0
 24 25  2  0  0  0  0
 24 44  1  0  0  0  0
 25 26  1  0  0  0  0
 25 45  1  0  0  0  0
 26 27  2  0  0  0  0
 26 46  1  0  0  0  0
 27 47  1  0  0  0  0
 28 33  1  0  0  0  0
 28 29  2  0  0  0  0
 29 30  1  0  0  0  0
 29 48  1  0  0  0  0
 30 31  2  0  0  0  0
 30 49  1  0  0  0  0
 31 32  1  0  0  0  0
 31 50  1  0  0  0  0
 32 33  2  0  0  0  0
 32 51  1  0  0  0  0
 33 52  1  0  0  0  0
M  CHG  1  13  -1
M  END
> <s_m_source_file>
AV-unprocessed.smi

> <i_m_source_file_index>
99

> <i_lp_mmshare_version>
43012

> <i_f3d_flags>
0

> <s_epik_input>
W2NIXTFbY0hdW2NIXVtjSF1bY0hdYzFDKD1PKU9bQ0gyXVtDQEBIXTJPW0NAQEhdKG4zW2NIXVtjSF1jKD1PKVtuSF1jMz1PKVtDQEBIXShbT0hdKVtDQEhdMk9DKD1PKWM0W2NIXVtjSF1bY0hdW2NIXVtjSF00

> <s_epik_cmdline>
J2VwaWtfcHl0aG9uJywgJy1waCcsICc3LjAnLCAnLXRuJywgJzgnLCAnLW1hJywgJzIwMCcsICctbWV0YWxfYmluZGluZycsICctaW1hZScsICc8aW5maWxlLm1hZT4nLCAnLW9tYWUnLCAnPG91dGZpbGUubWFlPic=

> <r_lp_tautomer_probability>
1

> <r_epik_Ionization_Penalty>
2.89159

> <r_epik_Ionization_Penalty_Charging>
2.1077e-08

> <r_epik_Ionization_Penalty_Neutral>
2.89159

> <r_epik_State_Penalty>
2.88671

> <r_epik_Charging_Adjusted_Penalty>
2.88671

> <i_epik_Tot_Q>
-1

> <i_epik_Tot_abs_Q>
1

> <r_epik_Metal_State_Penalty>
0.0727308

> <b_epik_Metal_Only>
1

> <s_epik_Chemistry_Notes>
This compound has an ester and may undergo hydrolysis at high or low pH. This compound contains an acetal/aminal-like group ( X-CH(R)-Y where X, Y are N, S, or O) that may be acid/base labile, releasing an aldehyde.

> <s_lp_Force_Field>
OPLS_2005

> <r_lp_Energy>
34.2079

> <b_lp_Chiralities_Consistent>
1

> <s_lp_Variant>
AV-unprocessed.smi:99-27

> <Gold.Version>
5.8.1

> <Gold.Id.Protein>
6NUR|6NUR_protein|mol2

> <Gold.PLP.Fitness>
53.4662

> <Gold.PLP.PLP>
-47.1454

> <Gold.PLP.part.hbond>
-3.4264

> <Gold.PLP.part.metal>
0.0000

> <Gold.PLP.part.buried>
-6.6466

> <Gold.PLP.part.nonpolar>
-38.5828

> <Gold.PLP.part.repulsive>
0.4630

> <Gold.PLP.ligand.clash>
0.0000

> <Gold.PLP.ligand.torsion>
1.6451

> <Gold.PLP.Chemscore.Hbond>
3.0938

> <Gold.PLP.Chemscore.CHOScore>
0.0000

> <Gold.PLP.Chemscore.Metal>
0.0000

> <Gold.Chemscore.Hbonds>
donor molecule, donor type, donor heavy atom, donor atom, acceptor molecule, acceptor atom, score
      P1  H  6934  6947       L1    21  0.53
      P1  H  7997  8010       L1    12  0.22
      P1  H 10752 10765       L1    13  1.50

> <Gold.PLP.Chemscore.Internal.Correction>
0.3295

> <Gold.Rescore>
     Score         DG    S(hbond)    S(metal)    S(lipo)     H(rot)  DE(clash)    DE(int)     intcor
     13.01     -16.71       2.31        0.00      98.61       3.13       0.21       3.49       ----

> <Gold.Chemscore.Fitness>
13.0065

> <Gold.Chemscore.DG>
-16.7059

> <Gold.Chemscore.ZeroCoef>
-5.4800

> <Gold.Chemscore.Hbond>
2.3093

> <Gold.Chemscore.Metal>
0.0000

> <Gold.Chemscore.Lipo>
98.6099

> <Gold.Chemscore.Internal_Hbond>
0.0000

> <Gold.Chemscore.DEClash>
0.2135

> <Gold.Chemscore.DEInternal>
3.4858

> <Gold.Chemscore.Rot>
3.1346

> <Gold.Chemscore.Internal.Correction>
   9.000000E+99

> <Gold.Chemscore.Hbonds>
donor molecule, donor type, donor heavy atom, donor atom, acceptor molecule, acceptor atom, score
      P1  H  6934  6947       L1    21  0.49
      P1  H  7997  8010       L1    12  0.20
      P1  H 10752 10765       L1    13  0.09

> <Gold.Chemscore.Hbond.Weighted>
-7.7131

> <Gold.Chemscore.Metal.Weighted>
-0.0000

> <Gold.Chemscore.Lipo.Weighted>
-11.5374

> <Gold.Chemscore.Internal_Hbond.Weighted>
0.0000

> <Gold.Chemscore.DEClash.Weighted>
0.2135

> <Gold.Chemscore.DEInternal.Weighted>
3.4858

> <Gold.Chemscore.Rot.Weighted>
8.0246

> <Gold.Chemscore.Internal.Correction.Weighted>
   9.000000E+99

> <Gold.Protein.RotatedTorsions>
[ 6907 6896 6895 6894 ] final  -98.19 input  -60.11 | X-H torsion
[ 7974 7965 7964 7962 ] final  100.76 input  175.53 | X-H torsion
[ 8008 7997 7996 7995 ] final   94.83 input   59.86 | X-H torsion
[ 10167 10162 10161 10158 ] final  -36.83 input  -65.29 | X-H torsion
[ 10718 10713 10712 10709 ] final   28.44 input   66.30 | X-H torsion
[ 10763 10752 10751 10750 ] final -163.34 input  -60.55 | X-H torsion
[ 11005 11000 10999 10996 ] final  -78.43 input  -57.11 | X-H torsion

> <Gold.Protein.ActiveResidues>
 VAL166  LYS551  ARG553  GLY616  TRP617  ASP618  TYR619  PRO620  LYS621  CYS622 
 ASP623  PHE694  ASN695  SER759  ASP760  ASP761  ALA762  ILE779  LEU786  VAL792 
 PHE793  MET794  SER795  GLU796  ALA797  LYS798  CYS799  TRP800  GLU811  SER814 

> <Gold.Protein.RotatedAtoms>
  150.7039  134.1233  159.4042 H   0  0  0  0  0  0  0  0  0  0  0  0  # atno 6907 bound_to 6896
  151.9219  135.0292  160.0532 H   0  0  0  0  0  0  0  0  0  0  0  0  # atno 6908 bound_to 6896
  152.2248  133.4977  159.5219 H   0  0  0  0  0  0  0  0  0  0  0  0  # atno 6909 bound_to 6896
  145.3812  139.2379  143.3402 H   0  0  0  0  0  0  0  0  0  0  0  0  # atno 7974 bound_to 7965
  156.0623  140.3294  155.7476 H   0  0  0  0  0  0  0  0  0  0  0  0  # atno 8008 bound_to 7997
  155.5436  140.0604  157.2882 H   0  0  0  0  0  0  0  0  0  0  0  0  # atno 8009 bound_to 7997
  154.4487  140.1906  156.0604 H   0  0  0  0  0  0  0  0  0  0  0  0  # atno 8010 bound_to 7997
  140.7133  143.3382  151.2416 H   0  0  0  0  0  0  0  0  0  0  0  0  # atno 10167 bound_to 10162
  157.2334  130.7035  149.6324 H   0  0  0  0  0  0  0  0  0  0  0  0  # atno 10718 bound_to 10713
  154.7131  135.3010  154.9165 H   0  0  0  0  0  0  0  0  0  0  0  0  # atno 10763 bound_to 10752
  154.0061  135.6701  153.4766 H   0  0  0  0  0  0  0  0  0  0  0  0  # atno 10764 bound_to 10752
  153.0771  135.5029  154.8342 H   0  0  0  0  0  0  0  0  0  0  0  0  # atno 10765 bound_to 10752
  141.1665  133.7063  156.7971 H   0  0  0  0  0  0  0  0  0  0  0  0  # atno 11005 bound_to 11000
  146.2841  140.4480  142.8765 LP  0  0  0  0  0  0  0  0  0  0  0  0  # atno 17320 bound_to 7965
  144.8506  140.6995  143.6171 LP  0  0  0  0  0  0  0  0  0  0  0  0  # atno 17321 bound_to 7965
  139.6883  143.9736  152.2846 LP  0  0  0  0  0  0  0  0  0  0  0  0  # atno 17342 bound_to 10162
  139.9389  144.6694  150.8286 LP  0  0  0  0  0  0  0  0  0  0  0  0  # atno 17343 bound_to 10162
  155.9674  130.4481  150.5607 LP  0  0  0  0  0  0  0  0  0  0  0  0  # atno 17370 bound_to 10713
  157.3454  131.0724  151.1755 LP  0  0  0  0  0  0  0  0  0  0  0  0  # atno 17371 bound_to 10713
  140.2283  134.8705  157.3450 LP  0  0  0  0  0  0  0  0  0  0  0  0  # atno 17394 bound_to 11000
  140.1917  134.4364  155.7712 LP  0  0  0  0  0  0  0  0  0  0  0  0  # atno 17395 bound_to 11000

$$$$
