#       Name:                AV-unprocessed.smi:2110
#       Creating user name   scv26
#       Creation time:       Fri Mar 27 11:35:02 2020


#       File generated by GOLD software.
#

@<TRIPOS>MOLECULE
AV-unprocessed.smi:2110
    50    51     1
SMALL
NO_CHARGES


@<TRIPOS>ATOM
      1 ****        -2.0294   2.7676  -1.6162 C.3            1 S1                 0.0000
      2 ****        -2.3387   3.7463  -0.4719 C.3            1 S1                 0.0000
      3 ****        -1.4321   3.5903   0.6829 N.pl3          1 S1                 0.0000
      4 ****        -1.9552   2.8454   1.8447 C.3            1 S1                 0.0000
      5 ****        -2.1587   1.3506   1.5569 C.3            1 S1                 0.0000
      6 ****         0.2791   3.8380   0.4997 S.o2           1 S1                 0.0000
      7 ****         0.5150   4.7892  -0.5972 O.2            1 S1                 0.0000
      8 ****         0.8837   4.0481   1.8241 O.2            1 S1                 0.0000
      9 ****         0.7334   2.2719  -0.0458 N.pl3          1 S1                 0.0000
     10 ****         2.1354   1.9206  -0.2591 C.3            1 S1                 0.0000
     11 ****         2.4001   0.4264  -0.3738 C.ar           1 S1                 0.0000
     12 ****         3.7229  -0.0306  -0.5307 C.ar           1 S1                 0.0000
     13 ****         3.9484  -1.4151  -0.6419 C.ar           1 S1                 0.0000
     14 ****         2.9592  -2.3317  -0.6000 N.ar           1 S1                 0.0000
     15 ****         1.6813  -1.9076  -0.4417 C.ar           1 S1                 0.0000
     16 ****         0.6540  -2.8737  -0.3869 N.3            1 S1                 0.0000
     17 ****        -0.2120  -2.8006   0.7875 C.3            1 S1                 0.0000
     18 ****        -1.4557  -3.6841   0.5910 C.3            1 S1                 0.0000
     19 ****        -1.0574  -5.0148   0.2789 O.3            1 S1                 0.0000
     20 ****        -0.3075  -5.0742  -0.9299 C.3            1 S1                 0.0000
     21 ****         0.9779  -4.2425  -0.7831 C.3            1 S1                 0.0000
     22 ****         1.3625  -0.5334  -0.3343 C.ar           1 S1                 0.0000
     23 ****        -2.7719   2.8615  -2.4085 H              1 S1                 0.0000
     24 ****        -2.0351   1.7305  -1.2832 H              1 S1                 0.0000
     25 ****        -1.0564   2.9694  -2.0634 H              1 S1                 0.0000
     26 ****        -2.2605   4.7696  -0.8395 H              1 S1                 0.0000
     27 ****        -3.3721   3.6193  -0.1474 H              1 S1                 0.0000
     28 ****        -1.2768   2.9661   2.6889 H              1 S1                 0.0000
     29 ****        -2.9008   3.2913   2.1548 H              1 S1                 0.0000
     30 ****        -2.4970   0.8340   2.4551 H              1 S1                 0.0000
     31 ****        -1.2355   0.8706   1.2356 H              1 S1                 0.0000
     32 ****        -2.9146   1.1874   0.7892 H              1 S1                 0.0000
     33 ****         0.1180   1.5107   0.2385 H              1 S1                 0.0000
     34 ****         2.4905   2.4216  -1.1601 H              1 S1                 0.0000
     35 ****         2.7236   2.3077   0.5737 H              1 S1                 0.0000
     36 ****         4.5494   0.6638  -0.5691 H              1 S1                 0.0000
     37 ****         4.9506  -1.7972  -0.7665 H              1 S1                 0.0000
     38 ****         0.3499  -3.1380   1.6592 H              1 S1                 0.0000
     39 ****        -0.5307  -1.7797   0.9930 H              1 S1                 0.0000
     40 ****        -2.0532  -3.6979   1.5025 H              1 S1                 0.0000
     41 ****        -2.0927  -3.2876  -0.2014 H              1 S1                 0.0000
     42 ****        -0.0590  -6.1136  -1.1436 H              1 S1                 0.0000
     43 ****        -0.9122  -4.7131  -1.7635 H              1 S1                 0.0000
     44 ****         1.5201  -4.2431  -1.7296 H              1 S1                 0.0000
     45 ****         1.6292  -4.6923  -0.0323 H              1 S1                 0.0000
     46 ****         0.3324  -0.2274  -0.2378 H              1 S1                 0.0000
     47 ****         3.1650  -3.3067  -0.6842 LP             1 S1                 0.0000
     48 ****         0.0981  -2.5589  -1.1562 LP             1 S1                 0.0000
     49 ****        -1.8748  -5.5824   0.1807 LP             1 S1                 0.0000
     50 ****        -0.4945  -5.3676   1.0264 LP             1 S1                 0.0000
@<TRIPOS>BOND
    1    1    2 1     
    2    1   23 1     
    3    1   24 1     
    4    1   25 1     
    5    2    3 1     
    6    2   26 1     
    7    2   27 1     
    8    3    4 1     
    9    3    6 1     
   10    4    5 1     
   11    4   28 1     
   12    4   29 1     
   13    5   30 1     
   14    5   31 1     
   15    5   32 1     
   16    6    7 2     
   17    6    8 2     
   18    6    9 1     
   19    9   10 1     
   20    9   33 1     
   21   10   11 1     
   22   10   34 1     
   23   10   35 1     
   24   11   22 ar    
   25   11   12 ar    
   26   12   13 ar    
   27   12   36 1     
   28   13   14 ar    
   29   13   37 1     
   30   14   15 ar    
   31   15   16 1     
   32   15   22 ar    
   33   16   21 1     
   34   16   17 1     
   35   17   18 1     
   36   17   38 1     
   37   17   39 1     
   38   18   19 1     
   39   18   40 1     
   40   18   41 1     
   41   19   20 1     
   42   20   21 1     
   43   20   42 1     
   44   20   43 1     
   45   21   44 1     
   46   21   45 1     
   47   22   46 1     
   48   14   47 1     
   49   16   48 1     
   50   19   49 1     
   51   19   50 1     
@<TRIPOS>SUBSTRUCTURE
      1 S1             1
@<TRIPOS>SET
LONE_PAIRS      STATIC     ATOMS    <user>   **** ""
6 7 8 47 48 49 50
DONOR_HYDROGENS      STATIC     ATOMS    <user>   **** ""
1 33
ATOM$BLUE        STATIC     ATOMS    COLORGROUP SYSTEM
6 7 8 47 48 49 50
ATOM$RED        STATIC     ATOMS    COLORGROUP SYSTEM
1 33
