AV-unprocessed.smi:287|AV-procd|sdf|2192|dock9
  -GOLD-   2262021593D 1   1.00000     0.00000
 Structure written by MMmdl.
 55 58  0  0  0  0  0  0  0  0  1 V2000
  145.5064  137.9100  162.5521 C   0  0  0  0  0  0  0  0  0  0  0  0
  146.2646  136.9442  161.7077 C   0  0  0  0  0  0  0  0  0  0  0  0
  146.0692  135.6402  161.3574 C   0  0  0  0  0  0  0  0  0  0  0  0
  147.1498  135.2608  160.5060 C   0  0  0  0  0  0  0  0  0  0  0  0
  147.3496  133.8922  159.8686 C   0  0  2  0  0  0  0  0  0  0  0  0
  146.2779  132.9175  160.3836 C   0  0  0  0  0  0  0  0  0  0  0  0
  148.5892  133.3029  160.2101 O   0  0  0  0  0  0  0  0  0  0  0  0
  147.3191  133.9506  158.3241 C   0  0  0  0  0  0  0  0  0  0  0  0
  148.6528  133.9834  157.7328 N   0  0  0  0  0  0  0  0  0  0  0  0
  148.8353  133.6145  156.4482 C   0  0  0  0  0  0  0  0  0  0  0  0
  150.0727  133.6191  155.8875 N   0  0  0  0  0  0  0  0  0  0  0  0
  150.2282  133.2439  154.6145 C   0  0  0  0  0  0  0  0  0  0  0  0
  149.3006  132.8369  153.7458 N   0  0  0  0  0  0  0  0  0  0  0  0
  148.0551  132.8325  154.3046 C   0  0  0  0  0  0  0  0  0  0  0  0
  147.7429  133.2055  155.6411 C   0  0  0  0  0  0  0  0  0  0  0  0
  146.3780  133.0737  155.8612 N   0  0  0  0  0  0  0  0  0  0  0  0
  145.9142  132.6445  154.7183 C   0  0  0  0  0  0  0  0  0  0  0  0
  146.8545  132.4673  153.7278 N   0  0  0  0  0  0  0  0  0  0  0  0
  146.6240  131.9808  152.3316 C   0  0  1  0  0  0  0  0  0  0  0  0
  145.2900  131.6220  152.1811 O   0  0  0  0  0  0  0  0  0  0  0  0
  144.9173  131.7661  150.8147 C   0  0  1  0  0  0  0  0  0  0  0  0
  143.4860  132.3283  150.7355 C   0  0  0  0  0  0  0  0  0  0  0  0
  142.9084  132.1313  149.4613 O   0  0  0  0  0  0  0  0  0  0  0  0
  146.0125  132.6071  150.1234 C   0  0  2  0  0  0  0  0  0  0  0  0
  146.7298  131.7896  149.2175 O   0  0  0  0  0  0  0  0  0  0  0  0
  146.9271  133.0408  151.2634 C   0  0  1  0  0  0  0  0  0  0  0  0
  146.6326  134.3619  151.6786 O   0  0  0  0  0  0  0  0  0  0  0  0
  147.9381  136.3832  160.4196 C   0  0  0  0  0  0  0  0  0  0  0  0
  149.2194  136.6998  159.7212 C   0  0  0  0  0  0  0  0  0  0  0  0
  147.4060  137.4090  161.1409 O   0  0  0  0  0  0  0  0  0  0  0  0
  147.2496  131.0927  152.2302 H   0  0  0  0  0  0  0  0  0  0  0  0
  144.9009  130.7583  150.3960 H   0  0  0  0  0  0  0  0  0  0  0  0
  145.6147  133.4554  149.5648 H   0  0  0  0  0  0  0  0  0  0  0  0
  147.9852  133.0014  151.0005 H   0  0  0  0  0  0  0  0  0  0  0  0
  144.5629  137.4780  162.8859 H   0  0  0  0  0  0  0  0  0  0  0  0
  145.2826  138.8192  161.9940 H   0  0  0  0  0  0  0  0  0  0  0  0
  146.0830  138.1867  163.4349 H   0  0  0  0  0  0  0  0  0  0  0  0
  145.2382  135.0257  161.6710 H   0  0  0  0  0  0  0  0  0  0  0  0
  145.2748  133.2659  160.1350 H   0  0  0  0  0  0  0  0  0  0  0  0
  146.3281  132.8106  161.4681 H   0  0  0  0  0  0  0  0  0  0  0  0
  146.3967  131.9248  159.9478 H   0  0  0  0  0  0  0  0  0  0  0  0
  148.4576  132.7403  160.9579 H   0  0  0  0  0  0  0  0  0  0  0  0
  146.7406  133.1222  157.9122 H   0  0  0  0  0  0  0  0  0  0  0  0
  146.8098  134.8671  158.0220 H   0  0  0  0  0  0  0  0  0  0  0  0
  149.3885  134.3539  158.3177 H   0  0  0  0  0  0  0  0  0  0  0  0
  151.2400  133.2723  154.2379 H   0  0  0  0  0  0  0  0  0  0  0  0
  144.8646  132.4392  154.5665 H   0  0  0  0  0  0  0  0  0  0  0  0
  142.8540  131.8265  151.4684 H   0  0  0  0  0  0  0  0  0  0  0  0
  143.4765  133.3908  150.9798 H   0  0  0  0  0  0  0  0  0  0  0  0
  142.0310  132.4821  149.4703 H   0  0  0  0  0  0  0  0  0  0  0  0
  147.6047  131.6659  149.5517 H   0  0  0  0  0  0  0  0  0  0  0  0
  147.4288  134.8701  151.6468 H   0  0  0  0  0  0  0  0  0  0  0  0
  149.9867  135.9666  159.9704 H   0  0  0  0  0  0  0  0  0  0  0  0
  149.5923  137.6839  160.0064 H   0  0  0  0  0  0  0  0  0  0  0  0
  149.0813  136.6933  158.6400 H   0  0  0  0  0  0  0  0  0  0  0  0
  1  2  1  0  0  0  0
  1 35  1  0  0  0  0
  1 36  1  0  0  0  0
  1 37  1  0  0  0  0
  2 30  1  0  0  0  0
  2  3  2  0  0  0  0
  3  4  1  0  0  0  0
  3 38  1  0  0  0  0
  4  5  1  0  0  0  0
  4 28  2  0  0  0  0
  5  6  1  0  0  0  0
  5  7  1  0  0  0  0
  5  8  1  0  0  0  0
  6 39  1  0  0  0  0
  6 40  1  0  0  0  0
  6 41  1  0  0  0  0
  7 42  1  0  0  0  0
  8  9  1  0  0  0  0
  8 43  1  0  0  0  0
  8 44  1  0  0  0  0
  9 10  1  0  0  0  0
  9 45  1  0  0  0  0
 10 15  1  0  0  0  0
 10 11  2  0  0  0  0
 11 12  1  0  0  0  0
 12 13  2  0  0  0  0
 12 46  1  0  0  0  0
 13 14  1  0  0  0  0
 14 18  1  0  0  0  0
 14 15  2  0  0  0  0
 15 16  1  0  0  0  0
 16 17  2  0  0  0  0
 17 18  1  0  0  0  0
 17 47  1  0  0  0  0
 18 19  1  0  0  0  0
 19 31  1  0  0  0  0
 19 26  1  0  0  0  0
 19 20  1  0  0  0  0
 20 21  1  0  0  0  0
 21 32  1  0  0  0  0
 21 22  1  0  0  0  0
 21 24  1  0  0  0  0
 22 23  1  0  0  0  0
 22 48  1  0  0  0  0
 22 49  1  0  0  0  0
 23 50  1  0  0  0  0
 24 33  1  0  0  0  0
 24 25  1  0  0  0  0
 24 26  1  0  0  0  0
 25 51  1  0  0  0  0
 26 34  1  0  0  0  0
 26 27  1  0  0  0  0
 27 52  1  0  0  0  0
 28 29  1  0  0  0  0
 28 30  1  0  0  0  0
 29 53  1  0  0  0  0
 29 54  1  0  0  0  0
 29 55  1  0  0  0  0
M  END
> <s_m_source_file>
AV-unprocessed.smi

> <i_m_source_file_index>
287

> <i_lp_mmshare_version>
43012

> <i_f3d_flags>
0

> <s_epik_input>
W0NIM11jMVtjSF1jKGMobzEpW0NIM10pW0NAQF0oW0NIM10pKFtPSF0pW0NIMl1bTkhdYyhuW2NIXW4yKWMoYzIzKW5bY0hdbjNbQ0BASF00T1tDQEhdKFtDSDJdW09IXSlbQ0BASF0oW09IXSlbQ0BIXTRbT0hd

> <s_epik_cmdline>
J2VwaWtfcHl0aG9uJywgJy1waCcsICc3LjAnLCAnLXRuJywgJzgnLCAnLW1hJywgJzIwMCcsICctbWV0YWxfYmluZGluZycsICctaW1hZScsICc8aW5maWxlLm1hZT4nLCAnLW9tYWUnLCAnPG91dGZpbGUubWFlPic=

> <r_lp_tautomer_probability>
1

> <r_epik_Ionization_Penalty>
0.000992612

> <r_epik_Ionization_Penalty_Charging>
0

> <r_epik_Ionization_Penalty_Neutral>
0.000992612

> <r_epik_State_Penalty>
-0

> <r_epik_Charging_Adjusted_Penalty>
0

> <i_epik_Tot_Q>
0

> <i_epik_Tot_abs_Q>
0

> <r_epik_Metal_State_Penalty>
-0

> <b_epik_Metal_Only>
0

> <s_epik_Chemistry_Notes>
This compound contains an acetal/aminal-like group ( X-CH(R)-Y where X, Y are N, S, or O) that may be acid/base labile, releasing an aldehyde.

> <s_lp_Force_Field>
OPLS_2005

> <r_lp_Energy>
44.6889

> <b_lp_Chiralities_Consistent>
1

> <s_lp_Variant>
AV-unprocessed.smi:287-16

> <Gold.Version>
5.8.1

> <Gold.Id.Protein>
6NUR|6NUR_protein|mol2

> <Gold.PLP.Fitness>
52.6933

> <Gold.PLP.PLP>
-36.5226

> <Gold.PLP.part.hbond>
-7.7061

> <Gold.PLP.part.metal>
0.0000

> <Gold.PLP.part.buried>
-4.0373

> <Gold.PLP.part.nonpolar>
-25.4681

> <Gold.PLP.part.repulsive>
0.4578

> <Gold.PLP.ligand.clash>
0.0000

> <Gold.PLP.ligand.torsion>
1.1710

> <Gold.PLP.Chemscore.Hbond>
5.1357

> <Gold.PLP.Chemscore.CHOScore>
1.0000

> <Gold.PLP.Chemscore.Metal>
0.0000

> <Gold.Chemscore.Hbonds>
donor molecule, donor type, donor heavy atom, donor atom, acceptor molecule, acceptor atom, score
      L1  H    23    50       P1 10186  0.52
      L1  H    25    51       P1 10747  1.00
      L1  H    27    52       P1  7948  1.00
      P1  H  6896  6907       L1     7  0.10
      P1  H  6931  6943       L1    30  0.77
      P1  H  6934  6947       L1    30  0.99
      P1  H 10785 10796       L1    23  0.75
      L1  C    17    47       P1 10957  1.00

> <Gold.PLP.Chemscore.Internal.Correction>
0.1057

> <Gold.Rescore>
     Score         DG    S(hbond)    S(metal)    S(lipo)     H(rot)  DE(clash)    DE(int)     intcor
     10.61     -14.86       4.00        0.00      81.36       5.27       1.58       2.67       ----

> <Gold.Chemscore.Fitness>
10.6110

> <Gold.Chemscore.DG>
-14.8599

> <Gold.Chemscore.ZeroCoef>
-5.4800

> <Gold.Chemscore.Hbond>
3.9953

> <Gold.Chemscore.Metal>
0.0000

> <Gold.Chemscore.Lipo>
81.3626

> <Gold.Chemscore.Internal_Hbond>
0.0000

> <Gold.Chemscore.DEClash>
1.5835

> <Gold.Chemscore.DEInternal>
2.6654

> <Gold.Chemscore.Rot>
5.2672

> <Gold.Chemscore.Internal.Correction>
   9.000000E+99

> <Gold.Chemscore.Hbonds>
donor molecule, donor type, donor heavy atom, donor atom, acceptor molecule, acceptor atom, score
      L1  H    23    50       P1 10186  0.51
      L1  H    25    51       P1 10747  0.99
      L1  H    27    52       P1  7948  0.63
      P1  H  6896  6907       L1     7  0.10
      P1  H  6931  6943       L1    30  0.26
      P1  H  6934  6947       L1    30  0.52
      P1  H 10785 10796       L1    23  0.57

> <Gold.Chemscore.Hbond.Weighted>
-13.3444

> <Gold.Chemscore.Metal.Weighted>
-0.0000

> <Gold.Chemscore.Lipo.Weighted>
-9.5194

> <Gold.Chemscore.Internal_Hbond.Weighted>
0.0000

> <Gold.Chemscore.DEClash.Weighted>
1.5835

> <Gold.Chemscore.DEInternal.Weighted>
2.6654

> <Gold.Chemscore.Rot.Weighted>
13.4839

> <Gold.Chemscore.Internal.Correction.Weighted>
   9.000000E+99

> <Gold.Protein.RotatedTorsions>
[ 6907 6896 6895 6894 ] final -102.72 input  -60.11 | X-H torsion
[ 7974 7965 7964 7962 ] final  135.76 input  175.53 | X-H torsion
[ 8008 7997 7996 7995 ] final -132.69 input   59.86 | X-H torsion
[ 10167 10162 10161 10158 ] final   71.94 input  -65.29 | X-H torsion
[ 10718 10713 10712 10709 ] final  -64.82 input   66.30 | X-H torsion
[ 10763 10752 10751 10750 ] final  -33.06 input  -60.55 | X-H torsion
[ 11005 11000 10999 10996 ] final  114.99 input  -57.11 | X-H torsion

> <Gold.Protein.ActiveResidues>
 VAL166  LYS551  ARG553  GLY616  TRP617  ASP618  TYR619  PRO620  LYS621  CYS622 
 ASP623  PHE694  ASN695  SER759  ASP760  ASP761  ALA762  ILE779  LEU786  VAL792 
 PHE793  MET794  SER795  GLU796  ALA797  LYS798  CYS799  TRP800  GLU811  SER814 

> <Gold.Protein.RotatedAtoms>
  150.7208  134.0539  159.3807 H   0  0  0  0  0  0  0  0  0  0  0  0  # atno 6907 bound_to 6896
  151.8517  135.0553  160.0469 H   0  0  0  0  0  0  0  0  0  0  0  0  # atno 6908 bound_to 6896
  152.2785  133.5413  159.5520 H   0  0  0  0  0  0  0  0  0  0  0  0  # atno 6909 bound_to 6896
  144.9631  139.4688  143.5469 H   0  0  0  0  0  0  0  0  0  0  0  0  # atno 7974 bound_to 7965
  155.3331  140.0468  157.3043 H   0  0  0  0  0  0  0  0  0  0  0  0  # atno 8008 bound_to 7997
  154.5318  140.2259  155.8757 H   0  0  0  0  0  0  0  0  0  0  0  0  # atno 8009 bound_to 7997
  156.1795  140.3077  155.9129 H   0  0  0  0  0  0  0  0  0  0  0  0  # atno 8010 bound_to 7997
  140.0406  144.5392  150.7437 H   0  0  0  0  0  0  0  0  0  0  0  0  # atno 10167 bound_to 10162
  156.0706  130.4238  150.1475 H   0  0  0  0  0  0  0  0  0  0  0  0  # atno 10718 bound_to 10713
  153.8240  135.6872  153.4823 H   0  0  0  0  0  0  0  0  0  0  0  0  # atno 10763 bound_to 10752
  153.1551  135.4602  154.9691 H   0  0  0  0  0  0  0  0  0  0  0  0  # atno 10764 bound_to 10752
  154.7915  135.3303  154.7710 H   0  0  0  0  0  0  0  0  0  0  0  0  # atno 10765 bound_to 10752
  139.8996  134.9577  156.6976 H   0  0  0  0  0  0  0  0  0  0  0  0  # atno 11005 bound_to 11000
  146.3359  139.8795  142.8826 LP  0  0  0  0  0  0  0  0  0  0  0  0  # atno 17320 bound_to 7965
  145.2669  141.0096  143.3794 LP  0  0  0  0  0  0  0  0  0  0  0  0  # atno 17321 bound_to 7965
  140.7261  143.2638  151.4113 LP  0  0  0  0  0  0  0  0  0  0  0  0  # atno 17342 bound_to 10162
  139.6016  144.1284  152.2204 LP  0  0  0  0  0  0  0  0  0  0  0  0  # atno 17343 bound_to 10162
  156.9526  130.9779  151.3495 LP  0  0  0  0  0  0  0  0  0  0  0  0  # atno 17370 bound_to 10713
  157.5775  130.8353  149.8476 LP  0  0  0  0  0  0  0  0  0  0  0  0  # atno 17371 bound_to 10713
  140.7176  133.9169  155.8125 LP  0  0  0  0  0  0  0  0  0  0  0  0  # atno 17394 bound_to 11000
  141.0252  134.0833  157.4076 LP  0  0  0  0  0  0  0  0  0  0  0  0  # atno 17395 bound_to 11000

$$$$
