AV-unprocessed.smi:95|AV-procd|sdf|856|dock4
  -GOLD-   2262017303D 1   1.00000     0.00000
 Structure written by MMmdl.
 41 44  0  0  0  0  0  0  0  0  1 V2000
  152.5443  139.6584  155.5061 O   0  0  0  0  0  0  0  0  0  0  0  0
  151.3404  139.6150  155.2456 C   0  0  0  0  0  0  0  0  0  0  0  0
  150.6711  138.4255  154.7308 C   0  0  0  0  0  0  0  0  0  0  0  0
  151.3826  137.3079  154.5055 F   0  0  0  0  0  0  0  0  0  0  0  0
  149.3443  138.4252  154.4774 C   0  0  0  0  0  0  0  0  0  0  0  0
  148.5353  139.5318  154.6814 N   0  0  0  0  0  0  0  0  0  0  0  0
  147.0454  139.5015  154.4102 C   0  0  1  0  0  0  0  0  0  0  0  0
  146.7704  139.2916  152.9082 C   0  0  0  0  0  0  0  0  0  0  0  0
  145.8092  138.1195  152.9030 C   0  0  0  0  0  0  0  0  0  0  0  0
  146.2170  137.3716  154.1633 C   0  0  0  0  0  0  0  0  0  0  0  0
  146.4593  138.4251  155.0859 O   0  0  0  0  0  0  0  0  0  0  0  0
  149.0973  140.7242  155.1883 C   0  0  0  0  0  0  0  0  0  0  0  0
  148.3884  141.7096  155.4064 O   0  0  0  0  0  0  0  0  0  0  0  0
  150.4903  140.7305  155.4384 N   0  0  0  0  0  0  0  0  0  0  0  0
  151.0912  141.9375  155.9864 C   0  0  0  0  0  0  0  0  0  0  0  0
  151.5425  141.8482  157.4400 C   0  0  0  0  0  0  0  0  0  0  0  0
  151.7169  140.5869  158.0434 C   0  0  0  0  0  0  0  0  0  0  0  0
  152.1472  140.5362  159.3815 C   0  0  0  0  0  0  0  0  0  0  0  0
  152.3914  141.7453  160.0641 C   0  0  0  0  0  0  0  0  0  0  0  0
  152.8233  141.7278  161.4064 C   0  0  0  0  0  0  0  0  0  0  0  0
  153.0649  142.9375  162.0827 C   0  0  0  0  0  0  0  0  0  0  0  0
  152.8753  144.1620  161.4165 C   0  0  0  0  0  0  0  0  0  0  0  0
  152.4450  144.1764  160.0754 C   0  0  0  0  0  0  0  0  0  0  0  0
  152.1963  142.9753  159.3776 C   0  0  0  0  0  0  0  0  0  0  0  0
  151.7837  143.0101  158.0905 N   0  0  0  0  0  0  0  0  0  0  0  0
  148.9154  137.5087  154.1027 H   0  0  0  0  0  0  0  0  0  0  0  0
  146.6541  140.4385  154.8107 H   0  0  0  0  0  0  0  0  0  0  0  0
  146.3528  140.1922  152.4572 H   0  0  0  0  0  0  0  0  0  0  0  0
  147.6925  139.0290  152.3872 H   0  0  0  0  0  0  0  0  0  0  0  0
  144.7824  138.4754  152.9956 H   0  0  0  0  0  0  0  0  0  0  0  0
  145.8819  137.5104  152.0017 H   0  0  0  0  0  0  0  0  0  0  0  0
  145.4438  136.6924  154.5223 H   0  0  0  0  0  0  0  0  0  0  0  0
  147.1302  136.7986  153.9968 H   0  0  0  0  0  0  0  0  0  0  0  0
  151.9299  142.1940  155.3364 H   0  0  0  0  0  0  0  0  0  0  0  0
  150.3895  142.7632  155.8650 H   0  0  0  0  0  0  0  0  0  0  0  0
  151.5235  139.6768  157.4946 H   0  0  0  0  0  0  0  0  0  0  0  0
  152.2867  139.5841  159.8720 H   0  0  0  0  0  0  0  0  0  0  0  0
  152.9701  140.7893  161.9211 H   0  0  0  0  0  0  0  0  0  0  0  0
  153.3952  142.9262  163.1111 H   0  0  0  0  0  0  0  0  0  0  0  0
  153.0602  145.0919  161.9338 H   0  0  0  0  0  0  0  0  0  0  0  0
  152.3034  145.1236  159.5759 H   0  0  0  0  0  0  0  0  0  0  0  0
  1  2  2  0  0  0  0
  2 14  1  0  0  0  0
  2  3  1  0  0  0  0
  3  4  1  0  0  0  0
  3  5  2  0  0  0  0
  5  6  1  0  0  0  0
  5 26  1  0  0  0  0
  6  7  1  0  0  0  0
  6 12  1  0  0  0  0
  7 11  1  0  0  0  0
  7  8  1  0  0  0  0
  7 27  1  0  0  0  0
  8  9  1  0  0  0  0
  8 28  1  0  0  0  0
  8 29  1  0  0  0  0
  9 10  1  0  0  0  0
  9 30  1  0  0  0  0
  9 31  1  0  0  0  0
 10 11  1  0  0  0  0
 10 32  1  0  0  0  0
 10 33  1  0  0  0  0
 12 13  2  0  0  0  0
 12 14  1  0  0  0  0
 14 15  1  0  0  0  0
 15 16  1  0  0  0  0
 15 34  1  0  0  0  0
 15 35  1  0  0  0  0
 16 25  1  0  0  0  0
 16 17  2  0  0  0  0
 17 18  1  0  0  0  0
 17 36  1  0  0  0  0
 18 19  2  0  0  0  0
 18 37  1  0  0  0  0
 19 24  1  0  0  0  0
 19 20  1  0  0  0  0
 20 21  2  0  0  0  0
 20 38  1  0  0  0  0
 21 22  1  0  0  0  0
 21 39  1  0  0  0  0
 22 23  2  0  0  0  0
 22 40  1  0  0  0  0
 23 24  1  0  0  0  0
 23 41  1  0  0  0  0
 24 25  2  0  0  0  0
M  END
> <s_m_source_file>
AV-unprocessed.smi

> <i_m_source_file_index>
95

> <i_lp_mmshare_version>
43012

> <i_f3d_flags>
0

> <s_epik_input>
TzFbQ0gyXVtDSDJdW0NIMl1bQ0BIXTFuKFtjSF1jKEYpYzI9TyljKD1PKW4yW0NIMl1jKFtjSF1bY0hdMyluYyhjMzQpW2NIXVtjSF1bY0hdW2NIXTQ=

> <s_epik_cmdline>
J2VwaWtfcHl0aG9uJywgJy1waCcsICc3LjAnLCAnLXRuJywgJzgnLCAnLW1hJywgJzIwMCcsICctbWV0YWxfYmluZGluZycsICctaW1hZScsICc8aW5maWxlLm1hZT4nLCAnLW9tYWUnLCAnPG91dGZpbGUubWFlPic=

> <r_lp_tautomer_probability>
1

> <r_epik_Ionization_Penalty>
0.0274176

> <r_epik_Ionization_Penalty_Charging>
1.11818e-08

> <r_epik_Ionization_Penalty_Neutral>
0.0274176

> <r_epik_State_Penalty>
0.0224396

> <r_epik_Charging_Adjusted_Penalty>
0.0224396

> <i_epik_Tot_Q>
0

> <i_epik_Tot_abs_Q>
0

> <r_epik_Metal_State_Penalty>
2.28695e-05

> <b_epik_Metal_Only>
0

> <s_epik_Chemistry_Notes>
This compound contains an acetal/aminal-like group ( X-CH(R)-Y where X, Y are N, S, or O) that may be acid/base labile, releasing an aldehyde.

> <s_lp_Force_Field>
OPLS_2005

> <r_lp_Energy>
34.6925

> <b_lp_Chiralities_Consistent>
1

> <s_lp_Variant>
AV-unprocessed.smi:95-2

> <Gold.Version>
5.8.1

> <Gold.Id.Protein>
6NUR|6NUR_protein|mol2

> <Gold.PLP.Fitness>
52.2612

> <Gold.PLP.PLP>
-47.4903

> <Gold.PLP.part.hbond>
-1.7690

> <Gold.PLP.part.metal>
0.0000

> <Gold.PLP.part.buried>
-4.5345

> <Gold.PLP.part.nonpolar>
-42.0994

> <Gold.PLP.part.repulsive>
0.2388

> <Gold.PLP.ligand.clash>
0.4764

> <Gold.PLP.ligand.torsion>
0.3831

> <Gold.PLP.Chemscore.Hbond>
1.0000

> <Gold.PLP.Chemscore.CHOScore>
1.0000

> <Gold.PLP.Chemscore.Metal>
0.0000

> <Gold.Chemscore.Hbonds>
donor molecule, donor type, donor heavy atom, donor atom, acceptor molecule, acceptor atom, score
      P1  H  7997  8010       L1     1  1.00
      L1  C     5    26       P1  7948  0.91

> <Gold.PLP.Chemscore.Internal.Correction>
0.0137

> <Gold.Rescore>
     Score         DG    S(hbond)    S(metal)    S(lipo)     H(rot)  DE(clash)    DE(int)     intcor
     15.48     -19.33       0.99        0.00     122.79       1.50       0.29       3.56       ----

> <Gold.Chemscore.Fitness>
15.4752

> <Gold.Chemscore.DG>
-19.3293

> <Gold.Chemscore.ZeroCoef>
-5.4800

> <Gold.Chemscore.Hbond>
0.9937

> <Gold.Chemscore.Metal>
0.0000

> <Gold.Chemscore.Lipo>
122.7901

> <Gold.Chemscore.Internal_Hbond>
0.0000

> <Gold.Chemscore.DEClash>
0.2899

> <Gold.Chemscore.DEInternal>
3.5642

> <Gold.Chemscore.Rot>
1.4985

> <Gold.Chemscore.Internal.Correction>
   9.000000E+99

> <Gold.Chemscore.Hbonds>
donor molecule, donor type, donor heavy atom, donor atom, acceptor molecule, acceptor atom, score
      P1  H  7997  8010       L1     1  0.97

> <Gold.Chemscore.Hbond.Weighted>
-3.3191

> <Gold.Chemscore.Metal.Weighted>
-0.0000

> <Gold.Chemscore.Lipo.Weighted>
-14.3664

> <Gold.Chemscore.Internal_Hbond.Weighted>
0.0000

> <Gold.Chemscore.DEClash.Weighted>
0.2899

> <Gold.Chemscore.DEInternal.Weighted>
3.5642

> <Gold.Chemscore.Rot.Weighted>
3.8362

> <Gold.Chemscore.Internal.Correction.Weighted>
   9.000000E+99

> <Gold.Protein.RotatedTorsions>
[ 6907 6896 6895 6894 ] final -159.78 input  -60.11 | X-H torsion
[ 7974 7965 7964 7962 ] final   -2.73 input  175.53 | X-H torsion
[ 8008 7997 7996 7995 ] final   86.71 input   59.86 | X-H torsion
[ 10167 10162 10161 10158 ] final   57.43 input  -65.29 | X-H torsion
[ 10718 10713 10712 10709 ] final   98.32 input   66.30 | X-H torsion
[ 10763 10752 10751 10750 ] final  -45.46 input  -60.55 | X-H torsion
[ 11005 11000 10999 10996 ] final  -55.84 input  -57.11 | X-H torsion

> <Gold.Protein.ActiveResidues>
 VAL166  LYS551  ARG553  GLY616  TRP617  ASP618  TYR619  PRO620  LYS621  CYS622 
 ASP623  PHE694  ASN695  SER759  ASP760  ASP761  ALA762  ILE779  LEU786  VAL792 
 PHE793  MET794  SER795  GLU796  ALA797  LYS798  CYS799  TRP800  GLU811  SER814 

> <Gold.Protein.RotatedAtoms>
  151.3388  133.3970  159.2669 H   0  0  0  0  0  0  0  0  0  0  0  0  # atno 6907 bound_to 6896
  150.9895  134.9233  159.7901 H   0  0  0  0  0  0  0  0  0  0  0  0  # atno 6908 bound_to 6896
  152.5242  134.3353  159.9250 H   0  0  0  0  0  0  0  0  0  0  0  0  # atno 6909 bound_to 6896
  146.2400  140.1615  142.8333 H   0  0  0  0  0  0  0  0  0  0  0  0  # atno 7974 bound_to 7965
  155.9663  140.3389  155.6535 H   0  0  0  0  0  0  0  0  0  0  0  0  # atno 8008 bound_to 7997
  155.6733  140.0729  157.2530 H   0  0  0  0  0  0  0  0  0  0  0  0  # atno 8009 bound_to 7997
  154.4155  140.1687  156.1890 H   0  0  0  0  0  0  0  0  0  0  0  0  # atno 8010 bound_to 7997
  140.1980  144.4017  150.6541 H   0  0  0  0  0  0  0  0  0  0  0  0  # atno 10167 bound_to 10162
  157.6897  131.0636  150.4778 H   0  0  0  0  0  0  0  0  0  0  0  0  # atno 10718 bound_to 10713
  154.0290  135.6659  153.4779 H   0  0  0  0  0  0  0  0  0  0  0  0  # atno 10763 bound_to 10752
  153.0548  135.5062  154.7951 H   0  0  0  0  0  0  0  0  0  0  0  0  # atno 10764 bound_to 10752
  154.6890  135.3058  154.9471 H   0  0  0  0  0  0  0  0  0  0  0  0  # atno 10765 bound_to 10752
  141.1092  133.6611  156.4529 H   0  0  0  0  0  0  0  0  0  0  0  0  # atno 11005 bound_to 11000
  145.0085  140.8694  143.5238 LP  0  0  0  0  0  0  0  0  0  0  0  0  # atno 17320 bound_to 7965
  145.1645  139.2439  143.5374 LP  0  0  0  0  0  0  0  0  0  0  0  0  # atno 17321 bound_to 7965
  140.6410  143.2203  151.6291 LP  0  0  0  0  0  0  0  0  0  0  0  0  # atno 17342 bound_to 10162
  139.5228  144.3151  152.0959 LP  0  0  0  0  0  0  0  0  0  0  0  0  # atno 17343 bound_to 10162
  156.5112  130.4140  149.6300 LP  0  0  0  0  0  0  0  0  0  0  0  0  # atno 17370 bound_to 10713
  156.3239  130.7295  151.2212 LP  0  0  0  0  0  0  0  0  0  0  0  0  # atno 17371 bound_to 10713
  140.4820  134.6656  157.5175 LP  0  0  0  0  0  0  0  0  0  0  0  0  # atno 17394 bound_to 11000
  139.9978  134.6884  155.9581 LP  0  0  0  0  0  0  0  0  0  0  0  0  # atno 17395 bound_to 11000

$$$$
