AV-unprocessed.smi:1291|AV-procd|sdf|5394|dock4
  -GOLD-   22720 4553D 1   1.00000     0.00000
 Structure written by MMmdl.
 44 46  0  0  0  0  0  0  0  0  2 V2000
  147.2187  138.5471  151.5235 O   0  0  0  0  0  0  0  0  0  0  0  0
  146.2354  138.0464  152.4039 C   0  0  0  0  0  0  0  0  0  0  0  0
  145.7868  136.6640  152.0519 C   0  0  0  0  0  0  0  0  0  0  0  0
  146.5826  135.6532  151.6000 N   0  3  0  0  0  0  0  0  0  0  0  0
  145.8178  134.5068  151.3848 C   0  0  0  0  0  0  0  0  0  0  0  0
  146.1798  133.2425  150.9302 C   0  0  0  0  0  0  0  0  0  0  0  0
  145.1459  132.2895  150.8215 C   0  0  0  0  0  0  0  0  0  0  0  0
  143.8142  132.6097  151.1561 C   0  0  0  0  0  0  0  0  0  0  0  0
  143.4595  133.8953  151.6151 C   0  0  0  0  0  0  0  0  0  0  0  0
  144.4881  134.8315  151.7232 C   0  0  0  0  0  0  0  0  0  0  0  0
  144.5170  136.1710  152.1311 N   0  0  0  0  0  0  0  0  0  0  0  0
  143.2713  136.8247  152.5644 C   0  0  0  0  0  0  0  0  0  0  0  0
  142.6286  136.1383  153.7871 C   0  0  1  0  0  0  0  0  0  0  0  0
  143.5843  135.8264  154.7808 O   0  0  0  0  0  0  0  0  0  0  0  0
  141.4910  136.9545  154.4215 C   0  0  0  0  0  0  0  0  0  0  0  0
  140.3128  136.1672  154.4969 O   0  0  0  0  0  0  0  0  0  0  0  0
  139.3902  136.4504  153.4593 C   0  0  0  0  0  0  0  0  0  0  0  0
  138.7546  137.8138  153.6497 C   0  0  0  0  0  0  0  0  0  0  0  0
  138.9857  138.8352  152.7044 C   0  0  0  0  0  0  0  0  0  0  0  0
  138.4040  140.1064  152.8776 C   0  0  0  0  0  0  0  0  0  0  0  0
  137.5884  140.3610  153.9969 C   0  0  0  0  0  0  0  0  0  0  0  0
  137.3580  139.3453  154.9447 C   0  0  0  0  0  0  0  0  0  0  0  0
  137.9408  138.0742  154.7743 C   0  0  0  0  0  0  0  0  0  0  0  0
  137.7168  137.1077  155.6969 F   0  0  0  0  0  0  0  0  0  0  0  0
  147.7798  139.1373  152.0038 H   0  0  0  0  0  0  0  0  0  0  0  0
  146.6343  138.0432  153.4183 H   0  0  0  0  0  0  0  0  0  0  0  0
  145.3816  138.7241  152.3924 H   0  0  0  0  0  0  0  0  0  0  0  0
  147.1991  132.9960  150.6713 H   0  0  0  0  0  0  0  0  0  0  0  0
  145.3784  131.2935  150.4729 H   0  0  0  0  0  0  0  0  0  0  0  0
  143.0481  131.8544  151.0580 H   0  0  0  0  0  0  0  0  0  0  0  0
  142.4345  134.1296  151.8625 H   0  0  0  0  0  0  0  0  0  0  0  0
  143.4718  137.8789  152.7557 H   0  0  0  0  0  0  0  0  0  0  0  0
  142.5800  136.7998  151.7214 H   0  0  0  0  0  0  0  0  0  0  0  0
  142.2111  135.1832  153.4667 H   0  0  0  0  0  0  0  0  0  0  0  0
  143.5964  134.8894  154.9002 H   0  0  0  0  0  0  0  0  0  0  0  0
  141.7829  137.2537  155.4293 H   0  0  0  0  0  0  0  0  0  0  0  0
  141.3112  137.8692  153.8542 H   0  0  0  0  0  0  0  0  0  0  0  0
  139.8977  136.4212  152.4937 H   0  0  0  0  0  0  0  0  0  0  0  0
  138.6106  135.6876  153.4293 H   0  0  0  0  0  0  0  0  0  0  0  0
  139.6114  138.6472  151.8442 H   0  0  0  0  0  0  0  0  0  0  0  0
  138.5841  140.8866  152.1526 H   0  0  0  0  0  0  0  0  0  0  0  0
  137.1417  141.3351  154.1298 H   0  0  0  0  0  0  0  0  0  0  0  0
  136.7353  139.5414  155.8050 H   0  0  0  0  0  0  0  0  0  0  0  0
  147.5787  135.7490  151.4485 H   0  0  0  0  0  0  0  0  0  0  0  0
  1  2  1  0  0  0  0
  1 25  1  0  0  0  0
  2  3  1  0  0  0  0
  2 26  1  0  0  0  0
  2 27  1  0  0  0  0
  3 11  1  0  0  0  0
  3  4  2  0  0  0  0
  4  5  1  0  0  0  0
  4 44  1  0  0  0  0
  5 10  2  0  0  0  0
  5  6  1  0  0  0  0
  6  7  2  0  0  0  0
  6 28  1  0  0  0  0
  7  8  1  0  0  0  0
  7 29  1  0  0  0  0
  8  9  2  0  0  0  0
  8 30  1  0  0  0  0
  9 10  1  0  0  0  0
  9 31  1  0  0  0  0
 10 11  1  0  0  0  0
 11 12  1  0  0  0  0
 12 13  1  0  0  0  0
 12 32  1  0  0  0  0
 12 33  1  0  0  0  0
 13 14  1  0  0  0  0
 13 15  1  0  0  0  0
 13 34  1  0  0  0  0
 14 35  1  0  0  0  0
 15 16  1  0  0  0  0
 15 36  1  0  0  0  0
 15 37  1  0  0  0  0
 16 17  1  0  0  0  0
 17 18  1  0  0  0  0
 17 38  1  0  0  0  0
 17 39  1  0  0  0  0
 18 23  1  0  0  0  0
 18 19  2  0  0  0  0
 19 20  1  0  0  0  0
 19 40  1  0  0  0  0
 20 21  2  0  0  0  0
 20 41  1  0  0  0  0
 21 22  1  0  0  0  0
 21 42  1  0  0  0  0
 22 23  2  0  0  0  0
 22 43  1  0  0  0  0
 23 24  1  0  0  0  0
M  CHG  1   4   1
M  END
> <s_m_source_file>
AV-unprocessed.smi

> <i_m_source_file_index>
1291

> <i_lp_mmshare_version>
43012

> <i_f3d_flags>
0

> <s_epik_input>
W2NIXTFbY0hdW2NIXVtjSF1jKGMxMiluKGMobjIpW0NIMl1bT0hdKVtDSDJdW0NASF0oW09IXSlbQ0gyXU9bQ0gyXWMzW2NIXVtjSF1bY0hdW2NIXWMzRg==

> <s_epik_cmdline>
J2VwaWtfcHl0aG9uJywgJy1waCcsICc3LjAnLCAnLXRuJywgJzgnLCAnLW1hJywgJzIwMCcsICctbWV0YWxfYmluZGluZycsICctaW1hZScsICc8aW5maWxlLm1hZT4nLCAnLW9tYWUnLCAnPG91dGZpbGUubWFlPic=

> <r_epik_Ionization_Penalty>
1.34314

> <r_epik_Ionization_Penalty_Charging>
1.34228

> <r_epik_Ionization_Penalty_Neutral>
0.000856861

> <r_epik_State_Penalty>
1.41963

> <r_epik_Charging_Adjusted_Penalty>
2.76191

> <i_epik_Tot_Q>
1

> <i_epik_Tot_abs_Q>
1

> <r_epik_Metal_State_Penalty>
5.45585

> <b_epik_Metal_Only>
0

> <s_lp_Force_Field>
OPLS_2005

> <r_lp_Energy>
19.0817

> <b_lp_Chiralities_Consistent>
1

> <s_lp_Variant>
AV-unprocessed.smi:1291-4

> <Gold.Version>
5.8.1

> <Gold.Id.Protein>
6NUR|6NUR_protein|mol2

> <Gold.PLP.Fitness>
58.3169

> <Gold.PLP.PLP>
-48.0501

> <Gold.PLP.part.hbond>
-4.7805

> <Gold.PLP.part.metal>
0.0000

> <Gold.PLP.part.buried>
-5.4659

> <Gold.PLP.part.nonpolar>
-37.8379

> <Gold.PLP.part.repulsive>
0.1564

> <Gold.PLP.ligand.clash>
0.0000

> <Gold.PLP.ligand.torsion>
1.4344

> <Gold.PLP.Chemscore.Hbond>
4.2440

> <Gold.PLP.Chemscore.CHOScore>
0.0000

> <Gold.PLP.Chemscore.Metal>
0.0000

> <Gold.Chemscore.Hbonds>
donor molecule, donor type, donor heavy atom, donor atom, acceptor molecule, acceptor atom, score
      L1  H     1    25       P1  7957  0.28
      L1  H     4    44       P1  7948  1.69
      P1  H  7954  7966       L1     1  1.00
      P1  H 11000 11005       L1    16  0.86

> <Gold.PLP.Chemscore.Internal.Correction>
0.4037

> <Gold.Rescore>
     Score         DG    S(hbond)    S(metal)    S(lipo)     H(rot)  DE(clash)    DE(int)     intcor
     16.19     -18.02       2.61        0.00     107.85       3.44       0.27       1.56       ----

> <Gold.Chemscore.Fitness>
16.1915

> <Gold.Chemscore.DG>
-18.0242

> <Gold.Chemscore.ZeroCoef>
-5.4800

> <Gold.Chemscore.Hbond>
2.6107

> <Gold.Chemscore.Metal>
0.0000

> <Gold.Chemscore.Lipo>
107.8548

> <Gold.Chemscore.Internal_Hbond>
0.0000

> <Gold.Chemscore.DEClash>
0.2681

> <Gold.Chemscore.DEInternal>
1.5645

> <Gold.Chemscore.Rot>
3.4353

> <Gold.Chemscore.Internal.Correction>
   9.000000E+99

> <Gold.Chemscore.Hbonds>
donor molecule, donor type, donor heavy atom, donor atom, acceptor molecule, acceptor atom, score
      L1  H     1    25       P1  7957  0.27
      L1  H     4    44       P1  7948  0.78
      P1  H  7954  7966       L1     1  0.66
      P1  H 11000 11005       L1    16  0.80

> <Gold.Chemscore.Hbond.Weighted>
-8.7196

> <Gold.Chemscore.Metal.Weighted>
-0.0000

> <Gold.Chemscore.Lipo.Weighted>
-12.6190

> <Gold.Chemscore.Internal_Hbond.Weighted>
0.0000

> <Gold.Chemscore.DEClash.Weighted>
0.2681

> <Gold.Chemscore.DEInternal.Weighted>
1.5645

> <Gold.Chemscore.Rot.Weighted>
8.7944

> <Gold.Chemscore.Internal.Correction.Weighted>
   9.000000E+99

> <Gold.Protein.RotatedTorsions>
[ 6907 6896 6895 6894 ] final    2.50 input  -60.11 | X-H torsion
[ 7974 7965 7964 7962 ] final   82.39 input  175.53 | X-H torsion
[ 8008 7997 7996 7995 ] final  -47.16 input   59.86 | X-H torsion
[ 10167 10162 10161 10158 ] final   35.29 input  -65.29 | X-H torsion
[ 10718 10713 10712 10709 ] final   18.40 input   66.30 | X-H torsion
[ 10763 10752 10751 10750 ] final  174.85 input  -60.55 | X-H torsion
[ 11005 11000 10999 10996 ] final   62.12 input  -57.11 | X-H torsion

> <Gold.Protein.ActiveResidues>
 VAL166  LYS551  ARG553  GLY616  TRP617  ASP618  TYR619  PRO620  LYS621  CYS622 
 ASP623  PHE694  ASN695  SER759  ASP760  ASP761  ALA762  ILE779  LEU786  VAL792 
 PHE793  MET794  SER795  GLU796  ALA797  LYS798  CYS799  TRP800  GLU811  SER814 

> <Gold.Protein.RotatedAtoms>
  151.6098  135.1041  160.0078 H   0  0  0  0  0  0  0  0  0  0  0  0  # atno 6907 bound_to 6896
  152.4214  133.7118  159.6494 H   0  0  0  0  0  0  0  0  0  0  0  0  # atno 6908 bound_to 6896
  150.8102  133.8363  159.3208 H   0  0  0  0  0  0  0  0  0  0  0  0  # atno 6909 bound_to 6896
  145.6257  139.2394  143.2113 H   0  0  0  0  0  0  0  0  0  0  0  0  # atno 7974 bound_to 7965
  154.4014  140.1353  156.4130 H   0  0  0  0  0  0  0  0  0  0  0  0  # atno 8008 bound_to 7997
  155.7715  140.3484  155.5229 H   0  0  0  0  0  0  0  0  0  0  0  0  # atno 8009 bound_to 7997
  155.8762  140.0980  157.1507 H   0  0  0  0  0  0  0  0  0  0  0  0  # atno 8010 bound_to 7997
  140.4235  144.1426  150.6150 H   0  0  0  0  0  0  0  0  0  0  0  0  # atno 10167 bound_to 10162
  157.0957  130.6447  149.5860 H   0  0  0  0  0  0  0  0  0  0  0  0  # atno 10718 bound_to 10713
  154.4596  135.2767  155.1722 H   0  0  0  0  0  0  0  0  0  0  0  0  # atno 10763 bound_to 10752
  154.3516  135.6149  153.5649 H   0  0  0  0  0  0  0  0  0  0  0  0  # atno 10764 bound_to 10752
  152.9853  135.5812  154.4956 H   0  0  0  0  0  0  0  0  0  0  0  0  # atno 10765 bound_to 10752
  140.0114  134.6290  155.9775 H   0  0  0  0  0  0  0  0  0  0  0  0  # atno 11005 bound_to 11000
  146.1396  140.7076  142.9373 LP  0  0  0  0  0  0  0  0  0  0  0  0  # atno 17320 bound_to 7965
  144.7213  140.4382  143.7006 LP  0  0  0  0  0  0  0  0  0  0  0  0  # atno 17321 bound_to 7965
  140.4507  143.2488  151.9351 LP  0  0  0  0  0  0  0  0  0  0  0  0  # atno 17342 bound_to 10162
  139.4783  144.5565  151.8306 LP  0  0  0  0  0  0  0  0  0  0  0  0  # atno 17343 bound_to 10162
  155.9886  130.4930  150.7178 LP  0  0  0  0  0  0  0  0  0  0  0  0  # atno 17370 bound_to 10713
  157.4683  131.0890  151.0670 LP  0  0  0  0  0  0  0  0  0  0  0  0  # atno 17371 bound_to 10713
  141.1713  133.6537  156.4664 LP  0  0  0  0  0  0  0  0  0  0  0  0  # atno 17394 bound_to 11000
  140.4548  134.6896  157.5057 LP  0  0  0  0  0  0  0  0  0  0  0  0  # atno 17395 bound_to 11000

$$$$
