AV-unprocessed.smi:55|AV-procd|sdf|561|dock2
  -GOLD-   2262016463D 1   1.00000     0.00000
 Structure written by MMmdl.
 31 32  0  0  0  0  0  0  0  0  1 V2000
  150.8898  142.4735  158.1715 C   0  0  0  0  0  0  0  0  0  0  0  0
  150.8263  141.4704  157.0318 C   0  0  0  0  0  0  0  0  0  0  0  0
  149.8693  141.5209  156.0706 C   0  0  0  0  0  0  0  0  0  0  0  0
  149.7821  140.6202  155.0188 N   0  0  0  0  0  0  0  0  0  0  0  0
  148.6666  140.7363  154.0047 C   0  0  2  0  0  0  0  0  0  0  0  0
  147.7501  141.9246  154.3180 C   0  0  0  0  0  0  0  0  0  0  0  0
  146.4723  141.2434  154.7745 C   0  0  1  0  0  0  0  0  0  0  0  0
  145.3373  142.0118  154.4308 O   0  0  0  0  0  0  0  0  0  0  0  0
  146.5192  139.9060  154.0303 C   0  0  2  0  0  0  0  0  0  0  0  0
  145.6982  138.7983  154.7078 C   0  0  0  0  0  0  0  0  0  0  0  0
  144.3202  139.0876  154.6090 O   0  0  0  0  0  0  0  0  0  0  0  0
  147.9024  139.5708  154.0634 O   0  0  0  0  0  0  0  0  0  0  0  0
  150.7242  139.5732  154.9268 C   0  0  0  0  0  0  0  0  0  0  0  0
  150.7170  138.7341  154.0269 O   0  0  0  0  0  0  0  0  0  0  0  0
  151.7075  139.5208  155.9135 N   0  0  0  0  0  0  0  0  0  0  0  0
  151.8368  140.4103  156.9830 C   0  0  0  0  0  0  0  0  0  0  0  0
  152.7524  140.2605  157.7905 O   0  0  0  0  0  0  0  0  0  0  0  0
  149.1107  140.8062  153.0113 H   0  0  0  0  0  0  0  0  0  0  0  0
  146.4965  141.0857  155.8533 H   0  0  0  0  0  0  0  0  0  0  0  0
  146.2127  140.0516  152.9923 H   0  0  0  0  0  0  0  0  0  0  0  0
  152.3849  138.7749  155.8497 H   0  0  0  0  0  0  0  0  0  0  0  0
  150.0969  143.2183  158.0995 H   0  0  0  0  0  0  0  0  0  0  0  0
  151.8444  143.0006  158.1633 H   0  0  0  0  0  0  0  0  0  0  0  0
  150.7862  141.9660  159.1312 H   0  0  0  0  0  0  0  0  0  0  0  0
  149.1299  142.3054  156.1313 H   0  0  0  0  0  0  0  0  0  0  0  0
  148.1786  142.5941  155.0649 H   0  0  0  0  0  0  0  0  0  0  0  0
  147.5947  142.4850  153.3947 H   0  0  0  0  0  0  0  0  0  0  0  0
  144.7797  141.4933  153.8709 H   0  0  0  0  0  0  0  0  0  0  0  0
  145.9152  137.8217  154.2738 H   0  0  0  0  0  0  0  0  0  0  0  0
  145.9443  138.7436  155.7686 H   0  0  0  0  0  0  0  0  0  0  0  0
  144.1498  139.4504  153.7532 H   0  0  0  0  0  0  0  0  0  0  0  0
  1  2  1  0  0  0  0
  1 22  1  0  0  0  0
  1 23  1  0  0  0  0
  1 24  1  0  0  0  0
  2 16  1  0  0  0  0
  2  3  2  0  0  0  0
  3  4  1  0  0  0  0
  3 25  1  0  0  0  0
  4  5  1  0  0  0  0
  4 13  1  0  0  0  0
  5 18  1  0  0  0  0
  5 12  1  0  0  0  0
  5  6  1  0  0  0  0
  6  7  1  0  0  0  0
  6 26  1  0  0  0  0
  6 27  1  0  0  0  0
  7 19  1  0  0  0  0
  7  8  1  0  0  0  0
  7  9  1  0  0  0  0
  8 28  1  0  0  0  0
  9 20  1  0  0  0  0
  9 10  1  0  0  0  0
  9 12  1  0  0  0  0
 10 11  1  0  0  0  0
 10 29  1  0  0  0  0
 10 30  1  0  0  0  0
 11 31  1  0  0  0  0
 13 14  2  0  0  0  0
 13 15  1  0  0  0  0
 15 21  1  0  0  0  0
 15 16  1  0  0  0  0
 16 17  2  0  0  0  0
M  END
> <s_m_source_file>
AV-unprocessed.smi

> <i_m_source_file_index>
55

> <i_lp_mmshare_version>
43012

> <i_f3d_flags>
0

> <s_epik_input>
Tz1jMVtuSF1jKD1PKW4oW2NIXWMxW0NIM10pW0NAQEhdMltDSDJdW0NAQEhdKFtPSF0pW0NAQEhdKE8yKVtDSDJdW09IXQ==

> <s_epik_cmdline>
J2VwaWtfcHl0aG9uJywgJy1waCcsICc3LjAnLCAnLXRuJywgJzgnLCAnLW1hJywgJzIwMCcsICctbWV0YWxfYmluZGluZycsICctaW1hZScsICc8aW5maWxlLm1hZT4nLCAnLW9tYWUnLCAnPG91dGZpbGUubWFlPic=

> <r_lp_tautomer_probability>
0.999537

> <r_epik_Ionization_Penalty>
0.00121888

> <r_epik_Ionization_Penalty_Charging>
0.00121876

> <r_epik_Ionization_Penalty_Neutral>
1.19946e-07

> <r_epik_State_Penalty>
0.000805124

> <r_epik_Charging_Adjusted_Penalty>
0.00202389

> <i_epik_Tot_Q>
0

> <i_epik_Tot_abs_Q>
0

> <r_epik_Metal_State_Penalty>
0.662472

> <b_epik_Metal_Only>
0

> <s_epik_Chemistry_Notes>
This compound contains an acetal/aminal-like group ( X-CH(R)-Y where X, Y are N, S, or O) that may be acid/base labile, releasing an aldehyde.

> <s_lp_Force_Field>
OPLS_2005

> <r_lp_Energy>
24.9707

> <b_lp_Chiralities_Consistent>
1

> <s_lp_Variant>
AV-unprocessed.smi:55-1

> <Gold.Version>
5.8.1

> <Gold.Id.Protein>
6NUR|6NUR_protein|mol2

> <Gold.PLP.Fitness>
37.1900

> <Gold.PLP.PLP>
-25.4422

> <Gold.PLP.part.hbond>
-3.0000

> <Gold.PLP.part.metal>
0.0000

> <Gold.PLP.part.buried>
-1.3564

> <Gold.PLP.part.nonpolar>
-21.7503

> <Gold.PLP.part.repulsive>
0.4949

> <Gold.PLP.ligand.clash>
0.0000

> <Gold.PLP.ligand.torsion>
0.0244

> <Gold.PLP.Chemscore.Hbond>
2.9280

> <Gold.PLP.Chemscore.CHOScore>
1.0000

> <Gold.PLP.Chemscore.Metal>
0.0000

> <Gold.Chemscore.Hbonds>
donor molecule, donor type, donor heavy atom, donor atom, acceptor molecule, acceptor atom, score
      L1  H     8    28       P1 10175  0.95
      L1  H    11    31       P1 10175  1.00
      P1  H  7997  8010       L1    17  0.94
      L1  C     3    25       P1  8028  1.00

> <Gold.PLP.Chemscore.Internal.Correction>
0.0127

> <Gold.Rescore>
     Score         DG    S(hbond)    S(metal)    S(lipo)     H(rot)  DE(clash)    DE(int)     intcor
      9.74     -11.04       2.51        0.00      35.57       2.73       0.14       1.17       ----

> <Gold.Chemscore.Fitness>
9.7374

> <Gold.Chemscore.DG>
-11.0394

> <Gold.Chemscore.ZeroCoef>
-5.4800

> <Gold.Chemscore.Hbond>
2.5074

> <Gold.Chemscore.Metal>
0.0000

> <Gold.Chemscore.Lipo>
35.5681

> <Gold.Chemscore.Internal_Hbond>
0.0000

> <Gold.Chemscore.DEClash>
0.1353

> <Gold.Chemscore.DEInternal>
1.1668

> <Gold.Chemscore.Rot>
2.7253

> <Gold.Chemscore.Internal.Correction>
   9.000000E+99

> <Gold.Chemscore.Hbonds>
donor molecule, donor type, donor heavy atom, donor atom, acceptor molecule, acceptor atom, score
      L1  H     8    28       P1 10175  0.20
      L1  H    11    31       P1 10175  1.00
      P1  H  7997  8010       L1    17  0.76

> <Gold.Chemscore.Hbond.Weighted>
-8.3748

> <Gold.Chemscore.Metal.Weighted>
-0.0000

> <Gold.Chemscore.Lipo.Weighted>
-4.1615

> <Gold.Chemscore.Internal_Hbond.Weighted>
0.0000

> <Gold.Chemscore.DEClash.Weighted>
0.1353

> <Gold.Chemscore.DEInternal.Weighted>
1.1668

> <Gold.Chemscore.Rot.Weighted>
6.9769

> <Gold.Chemscore.Internal.Correction.Weighted>
   9.000000E+99

> <Gold.Protein.RotatedTorsions>
[ 6907 6896 6895 6894 ] final   95.86 input  -60.11 | X-H torsion
[ 7974 7965 7964 7962 ] final -119.25 input  175.53 | X-H torsion
[ 8008 7997 7996 7995 ] final   41.17 input   59.86 | X-H torsion
[ 10167 10162 10161 10158 ] final  -48.39 input  -65.29 | X-H torsion
[ 10718 10713 10712 10709 ] final   -9.80 input   66.30 | X-H torsion
[ 10763 10752 10751 10750 ] final  -16.57 input  -60.55 | X-H torsion
[ 11005 11000 10999 10996 ] final  -51.93 input  -57.11 | X-H torsion

> <Gold.Protein.ActiveResidues>
 VAL166  LYS551  ARG553  GLY616  TRP617  ASP618  TYR619  PRO620  LYS621  CYS622 
 ASP623  PHE694  ASN695  SER759  ASP760  ASP761  ALA762  ILE779  LEU786  VAL792 
 PHE793  MET794  SER795  GLU796  ALA797  LYS798  CYS799  TRP800  GLU811  SER814 

> <Gold.Protein.RotatedAtoms>
  152.5440  134.0974  159.8302 H   0  0  0  0  0  0  0  0  0  0  0  0  # atno 6907 bound_to 6896
  151.1056  133.5203  159.2615 H   0  0  0  0  0  0  0  0  0  0  0  0  # atno 6908 bound_to 6896
  151.1941  135.0424  159.8899 H   0  0  0  0  0  0  0  0  0  0  0  0  # atno 6909 bound_to 6896
  145.0647  140.8316  143.4131 H   0  0  0  0  0  0  0  0  0  0  0  0  # atno 7974 bound_to 7965
  155.2653  140.3362  155.4269 H   0  0  0  0  0  0  0  0  0  0  0  0  # atno 8008 bound_to 7997
  156.2157  140.1788  156.7637 H   0  0  0  0  0  0  0  0  0  0  0  0  # atno 8009 bound_to 7997
  154.5750  140.0663  156.9005 H   0  0  0  0  0  0  0  0  0  0  0  0  # atno 8010 bound_to 7997
  140.6733  143.2742  151.4064 H   0  0  0  0  0  0  0  0  0  0  0  0  # atno 10167 bound_to 10162
  156.6828  130.5042  149.5966 H   0  0  0  0  0  0  0  0  0  0  0  0  # atno 10718 bound_to 10713
  153.5606  135.7010  153.5549 H   0  0  0  0  0  0  0  0  0  0  0  0  # atno 10763 bound_to 10752
  153.3432  135.4015  155.1588 H   0  0  0  0  0  0  0  0  0  0  0  0  # atno 10764 bound_to 10752
  154.8648  135.3747  154.5123 H   0  0  0  0  0  0  0  0  0  0  0  0  # atno 10765 bound_to 10752
  141.0897  133.6635  156.3949 H   0  0  0  0  0  0  0  0  0  0  0  0  # atno 11005 bound_to 11000
  145.1366  139.2598  143.5512 LP  0  0  0  0  0  0  0  0  0  0  0  0  # atno 17320 bound_to 7965
  146.3526  140.1031  142.8607 LP  0  0  0  0  0  0  0  0  0  0  0  0  # atno 17321 bound_to 7965
  139.6012  144.1292  152.2200 LP  0  0  0  0  0  0  0  0  0  0  0  0  # atno 17342 bound_to 10162
  140.0677  144.5805  150.7215 LP  0  0  0  0  0  0  0  0  0  0  0  0  # atno 17343 bound_to 10162
  156.1855  130.6526  151.1001 LP  0  0  0  0  0  0  0  0  0  0  0  0  # atno 17370 bound_to 10713
  157.7037  131.0765  150.6736 LP  0  0  0  0  0  0  0  0  0  0  0  0  # atno 17371 bound_to 10713
  140.5280  134.6240  157.5340 LP  0  0  0  0  0  0  0  0  0  0  0  0  # atno 17394 bound_to 11000
  139.9721  134.7276  156.0021 LP  0  0  0  0  0  0  0  0  0  0  0  0  # atno 17395 bound_to 11000

$$$$
