AV-unprocessed.smi:3290|AV-procd|sdf|12612|dock1
  -GOLD-   2272018543D 1   1.00000     0.00000
 Structure written by MMmdl.
 43 44  0  0  0  0  0  0  0  0  2 V2000
  146.8941  132.9296  152.4040 C   0  0  0  0  0  0  0  0  0  0  0  0
  146.2443  133.5430  151.1471 C   0  0  1  0  0  0  0  0  0  0  0  0
  145.9799  132.4742  150.0652 C   0  0  0  0  0  0  0  0  0  0  0  0
  144.8017  131.5540  150.4242 C   0  0  0  0  0  0  0  0  0  0  0  0
  143.5304  132.3670  150.7060 C   0  0  0  0  0  0  0  0  0  0  0  0
  143.7718  133.4282  151.7909 C   0  0  0  0  0  0  0  0  0  0  0  0
  144.9496  134.3582  151.4287 C   0  0  1  0  0  0  0  0  0  0  0  0
  145.1215  135.4702  152.4840 C   0  0  0  0  0  0  0  0  0  0  0  0
  145.9504  136.5819  151.9779 N   0  3  0  0  0  0  0  0  0  0  0  0
  145.9411  137.7821  152.8378 C   0  0  0  0  0  0  0  0  0  0  0  0
  146.7603  138.9262  152.2158 C   0  0  2  0  0  0  0  0  0  0  0  0
  147.7064  138.3730  151.3213 O   0  0  0  0  0  0  0  0  0  0  0  0
  147.4274  139.7704  153.2900 C   0  0  0  0  0  0  0  0  0  0  0  0
  148.4246  139.2149  154.1188 C   0  0  0  0  0  0  0  0  0  0  0  0
  149.0217  140.0348  155.0975 C   0  0  0  0  0  0  0  0  0  0  0  0
  148.6900  141.3303  155.2821 N   0  0  0  0  0  0  0  0  0  0  0  0
  147.7370  141.8583  154.4846 C   0  0  0  0  0  0  0  0  0  0  0  0
  147.0782  141.1257  153.4770 C   0  0  0  0  0  0  0  0  0  0  0  0
  146.2112  132.2728  152.9419 H   0  0  0  0  0  0  0  0  0  0  0  0
  147.2305  133.6991  153.0983 H   0  0  0  0  0  0  0  0  0  0  0  0
  147.7723  132.3408  152.1385 H   0  0  0  0  0  0  0  0  0  0  0  0
  146.9832  134.2263  150.7272 H   0  0  0  0  0  0  0  0  0  0  0  0
  145.7637  132.9701  149.1177 H   0  0  0  0  0  0  0  0  0  0  0  0
  146.8775  131.8790  149.8931 H   0  0  0  0  0  0  0  0  0  0  0  0
  144.6184  130.8533  149.6089 H   0  0  0  0  0  0  0  0  0  0  0  0
  145.0530  130.9484  151.2953 H   0  0  0  0  0  0  0  0  0  0  0  0
  143.1988  132.8536  149.7880 H   0  0  0  0  0  0  0  0  0  0  0  0
  142.7229  131.7006  151.0102 H   0  0  0  0  0  0  0  0  0  0  0  0
  142.8621  134.0151  151.9239 H   0  0  0  0  0  0  0  0  0  0  0  0
  143.9578  132.9392  152.7476 H   0  0  0  0  0  0  0  0  0  0  0  0
  144.6767  134.8530  150.4949 H   0  0  0  0  0  0  0  0  0  0  0  0
  144.1438  135.8712  152.7549 H   0  0  0  0  0  0  0  0  0  0  0  0
  145.5559  135.0710  153.4008 H   0  0  0  0  0  0  0  0  0  0  0  0
  146.9049  136.2595  151.9016 H   0  0  0  0  0  0  0  0  0  0  0  0
  144.9067  138.1005  152.9750 H   0  0  0  0  0  0  0  0  0  0  0  0
  146.3320  137.5282  153.8245 H   0  0  0  0  0  0  0  0  0  0  0  0
  146.0987  139.5689  151.6333 H   0  0  0  0  0  0  0  0  0  0  0  0
  148.2239  137.7348  151.7893 H   0  0  0  0  0  0  0  0  0  0  0  0
  148.7296  138.1844  154.0119 H   0  0  0  0  0  0  0  0  0  0  0  0
  149.7874  139.6390  155.7481 H   0  0  0  0  0  0  0  0  0  0  0  0
  147.4928  142.8967  154.6531 H   0  0  0  0  0  0  0  0  0  0  0  0
  146.3243  141.5979  152.8642 H   0  0  0  0  0  0  0  0  0  0  0  0
  145.6225  136.8388  151.0579 H   0  0  0  0  0  0  0  0  0  0  0  0
  1  2  1  0  0  0  0
  1 19  1  0  0  0  0
  1 20  1  0  0  0  0
  1 21  1  0  0  0  0
  2  7  1  0  0  0  0
  2  3  1  0  0  0  0
  2 22  1  0  0  0  0
  3  4  1  0  0  0  0
  3 23  1  0  0  0  0
  3 24  1  0  0  0  0
  4  5  1  0  0  0  0
  4 25  1  0  0  0  0
  4 26  1  0  0  0  0
  5  6  1  0  0  0  0
  5 27  1  0  0  0  0
  5 28  1  0  0  0  0
  6  7  1  0  0  0  0
  6 29  1  0  0  0  0
  6 30  1  0  0  0  0
  7  8  1  0  0  0  0
  7 31  1  0  0  0  0
  8  9  1  0  0  0  0
  8 32  1  0  0  0  0
  8 33  1  0  0  0  0
  9 10  1  0  0  0  0
  9 34  1  0  0  0  0
  9 43  1  0  0  0  0
 10 11  1  0  0  0  0
 10 35  1  0  0  0  0
 10 36  1  0  0  0  0
 11 12  1  0  0  0  0
 11 13  1  0  0  0  0
 11 37  1  0  0  0  0
 12 38  1  0  0  0  0
 13 18  1  0  0  0  0
 13 14  2  0  0  0  0
 14 15  1  0  0  0  0
 14 39  1  0  0  0  0
 15 16  2  0  0  0  0
 15 40  1  0  0  0  0
 16 17  1  0  0  0  0
 17 18  2  0  0  0  0
 17 41  1  0  0  0  0
 18 42  1  0  0  0  0
M  CHG  1   9   1
M  END
> <s_m_source_file>
AV-unprocessed.smi

> <i_m_source_file_index>
3290

> <i_lp_mmshare_version>
43012

> <i_f3d_flags>
0

> <s_epik_input>
W0NIM11bQ0BASF0xW0NIMl1bQ0gyXVtDSDJdW0NIMl1bQ0BIXTFbQ0gyXVtOSF1bQ0gyXVtDQEhdKFtPSF0pYzJbY0hdW2NIXW5bY0hdW2NIXTI=

> <s_epik_cmdline>
J2VwaWtfcHl0aG9uJywgJy1waCcsICc3LjAnLCAnLXRuJywgJzgnLCAnLW1hJywgJzIwMCcsICctbWV0YWxfYmluZGluZycsICctaW1hZScsICc8aW5maWxlLm1hZT4nLCAnLW9tYWUnLCAnPG91dGZpbGUubWFlPic=

> <r_lp_tautomer_probability>
1

> <r_epik_Ionization_Penalty>
0.00420552

> <r_epik_Ionization_Penalty_Charging>
0.00207255

> <r_epik_Ionization_Penalty_Neutral>
0.00213297

> <r_epik_State_Penalty>
-0

> <r_epik_Charging_Adjusted_Penalty>
0.00207255

> <i_epik_Tot_Q>
1

> <i_epik_Tot_abs_Q>
1

> <r_epik_Metal_State_Penalty>
-0

> <b_epik_Metal_Only>
0

> <s_lp_Force_Field>
OPLS_2005

> <r_lp_Energy>
18.26

> <b_lp_Chiralities_Consistent>
1

> <s_lp_Variant>
AV-unprocessed.smi:3290-2

> <Gold.Version>
5.8.1

> <Gold.Id.Protein>
6NUR|6NUR_protein|mol2

> <Gold.PLP.Fitness>
49.8864

> <Gold.PLP.PLP>
-36.9582

> <Gold.PLP.part.hbond>
-3.6572

> <Gold.PLP.part.metal>
0.0000

> <Gold.PLP.part.buried>
-2.1706

> <Gold.PLP.part.nonpolar>
-31.8208

> <Gold.PLP.part.repulsive>
0.1503

> <Gold.PLP.ligand.clash>
0.0000

> <Gold.PLP.ligand.torsion>
0.6275

> <Gold.PLP.Chemscore.Hbond>
3.6925

> <Gold.PLP.Chemscore.CHOScore>
0.9972

> <Gold.PLP.Chemscore.Metal>
0.0000

> <Gold.Chemscore.Hbonds>
donor molecule, donor type, donor heavy atom, donor atom, acceptor molecule, acceptor atom, score
      L1  H     9    34       P1  7948  2.00
      L1  H    12    38       P1  7948  0.98
      P1  H  7954  7966       L1    12  0.70
      L1  C    17    41       P1  8028  1.00

> <Gold.PLP.Chemscore.Internal.Correction>
0.1144

> <Gold.Rescore>
     Score         DG    S(hbond)    S(metal)    S(lipo)     H(rot)  DE(clash)    DE(int)     intcor
     17.96     -18.94       1.97        0.00     103.65       2.05       0.37       0.61       ----

> <Gold.Chemscore.Fitness>
17.9641

> <Gold.Chemscore.DG>
-18.9432

> <Gold.Chemscore.ZeroCoef>
-5.4800

> <Gold.Chemscore.Hbond>
1.9711

> <Gold.Chemscore.Metal>
0.0000

> <Gold.Chemscore.Lipo>
103.6521

> <Gold.Chemscore.Internal_Hbond>
0.0000

> <Gold.Chemscore.DEClash>
0.3703

> <Gold.Chemscore.DEInternal>
0.6088

> <Gold.Chemscore.Rot>
2.0498

> <Gold.Chemscore.Internal.Correction>
   9.000000E+99

> <Gold.Chemscore.Hbonds>
donor molecule, donor type, donor heavy atom, donor atom, acceptor molecule, acceptor atom, score
      L1  H     9    34       P1  7948  0.93
      L1  H    12    38       P1  7948  0.93
      P1  H  7954  7966       L1    12  0.07

> <Gold.Chemscore.Hbond.Weighted>
-6.5834

> <Gold.Chemscore.Metal.Weighted>
-0.0000

> <Gold.Chemscore.Lipo.Weighted>
-12.1273

> <Gold.Chemscore.Internal_Hbond.Weighted>
0.0000

> <Gold.Chemscore.DEClash.Weighted>
0.3703

> <Gold.Chemscore.DEInternal.Weighted>
0.6088

> <Gold.Chemscore.Rot.Weighted>
5.2475

> <Gold.Chemscore.Internal.Correction.Weighted>
   9.000000E+99

> <Gold.Protein.RotatedTorsions>
[ 6907 6896 6895 6894 ] final  -49.15 input  -60.11 | X-H torsion
[ 7974 7965 7964 7962 ] final  174.63 input  175.53 | X-H torsion
[ 8008 7997 7996 7995 ] final  163.92 input   59.86 | X-H torsion
[ 10167 10162 10161 10158 ] final -178.54 input  -65.29 | X-H torsion
[ 10718 10713 10712 10709 ] final   52.05 input   66.30 | X-H torsion
[ 10763 10752 10751 10750 ] final   99.83 input  -60.55 | X-H torsion
[ 11005 11000 10999 10996 ] final   40.73 input  -57.11 | X-H torsion

> <Gold.Protein.ActiveResidues>
 VAL166  LYS551  ARG553  GLY616  TRP617  ASP618  TYR619  PRO620  LYS621  CYS622 
 ASP623  PHE694  ASN695  SER759  ASP760  ASP761  ALA762  ILE779  LEU786  VAL792 
 PHE793  MET794  SER795  GLU796  ALA797  LYS798  CYS799  TRP800  GLU811  SER814 

> <Gold.Protein.RotatedAtoms>
  150.8834  134.8228  159.7240 H   0  0  0  0  0  0  0  0  0  0  0  0  # atno 6907 bound_to 6896
  152.4792  134.4761  159.9661 H   0  0  0  0  0  0  0  0  0  0  0  0  # atno 6908 bound_to 6896
  151.4833  133.3503  159.2877 H   0  0  0  0  0  0  0  0  0  0  0  0  # atno 6909 bound_to 6896
  144.7217  139.9826  143.6439 H   0  0  0  0  0  0  0  0  0  0  0  0  # atno 7974 bound_to 7965
  156.1920  140.1710  156.8073 H   0  0  0  0  0  0  0  0  0  0  0  0  # atno 8008 bound_to 7997
  154.5483  140.0723  156.8657 H   0  0  0  0  0  0  0  0  0  0  0  0  # atno 8009 bound_to 7997
  155.3079  140.3365  155.4247 H   0  0  0  0  0  0  0  0  0  0  0  0  # atno 8010 bound_to 7997
  139.5428  144.2317  152.0928 H   0  0  0  0  0  0  0  0  0  0  0  0  # atno 10167 bound_to 10162
  157.5038  130.8455  149.8349 H   0  0  0  0  0  0  0  0  0  0  0  0  # atno 10718 bound_to 10713
  153.3063  135.4100  155.1296 H   0  0  0  0  0  0  0  0  0  0  0  0  # atno 10763 bound_to 10752
  154.8563  135.3553  154.5784 H   0  0  0  0  0  0  0  0  0  0  0  0  # atno 10764 bound_to 10752
  153.6211  135.7064  153.5368 H   0  0  0  0  0  0  0  0  0  0  0  0  # atno 10765 bound_to 10752
  140.1902  134.3996  155.8151 H   0  0  0  0  0  0  0  0  0  0  0  0  # atno 11005 bound_to 11000
  146.0476  139.3480  143.0659 LP  0  0  0  0  0  0  0  0  0  0  0  0  # atno 17320 bound_to 7965
  145.8256  140.9657  143.0876 LP  0  0  0  0  0  0  0  0  0  0  0  0  # atno 17321 bound_to 7965
  140.1799  144.4855  150.6534 LP  0  0  0  0  0  0  0  0  0  0  0  0  # atno 17342 bound_to 10162
  140.6664  143.2269  151.5732 LP  0  0  0  0  0  0  0  0  0  0  0  0  # atno 17343 bound_to 10162
  156.0245  130.3784  150.1862 LP  0  0  0  0  0  0  0  0  0  0  0  0  # atno 17370 bound_to 10713
  157.0052  130.9934  151.3380 LP  0  0  0  0  0  0  0  0  0  0  0  0  # atno 17371 bound_to 10713
  141.2226  133.7043  156.8082 LP  0  0  0  0  0  0  0  0  0  0  0  0  # atno 17394 bound_to 11000
  140.2168  134.8787  157.3334 LP  0  0  0  0  0  0  0  0  0  0  0  0  # atno 17395 bound_to 11000

$$$$
