#       Name:                AV-unprocessed.smi:733
#       Creating user name   scv26
#       Creation time:       Fri Mar 27 00:52:18 2020


#       File generated by GOLD software.
#

@<TRIPOS>MOLECULE
AV-unprocessed.smi:733
    48    49     1
SMALL
NO_CHARGES


@<TRIPOS>ATOM
      1 ****        -4.2698   4.1596  -1.1471 C.3            1 S1                 0.0000
      2 ****        -4.1200   2.6731  -1.0399 C.2            1 S1                 0.0000
      3 ****        -2.8417   2.1081  -1.0073 N.2            1 S1                 0.0000
      4 ****        -2.8795   0.7754  -0.9091 C.2            1 S1                 0.0000
      5 ****        -1.7314  -0.0575  -0.8535 N.am           1 S1                 0.0000
      6 ****        -0.4377   0.3072  -0.8799 C.2            1 S1                 0.0000
      7 ****        -0.0270   1.4643  -0.9731 O.2            1 S1                 0.0000
      8 ****         0.3664  -0.7618  -0.7862 N.am           1 S1                 0.0000
      9 ****         1.8285  -0.7360  -0.7620 C.3            1 S1                 0.0000
     10 ****         2.4191  -1.1227   0.6231 C.3            1 S1                 0.0000
     11 ****         1.8732  -2.4908   1.1316 C.3            1 S1                 0.0000
     12 ****         2.0095  -3.7021   0.1843 C.3            1 S1                 0.0000
     13 ****         3.3529  -4.1069   0.0312 O.3            1 S1                 0.0000
     14 ****         3.9655  -1.1243   0.5436 C.3            1 S1                 0.0000
     15 ****         4.4229   0.2421   1.0438 C.3            1 S1                 0.0000
     16 ****         3.4448   0.5395   2.1704 C.3            1 S1                 0.0000
     17 ****         2.1082  -0.0123   1.6682 C.3            1 S1                 0.0000
     18 ****        -4.5064   0.1197  -0.8501 S.3            1 S1                 0.0000
     19 ****        -5.1335   1.7453  -0.9664 C.2            1 S1                 0.0000
     20 ****        -6.6040   2.0008  -0.9765 C.3            1 S1                 0.0000
     21 ****        -4.7471   4.4384  -2.0866 H              1 S1                 0.0000
     22 ****        -3.3056   4.6674  -1.1044 H              1 S1                 0.0000
     23 ****        -4.8825   4.5518  -0.3353 H              1 S1                 0.0000
     24 ****        -1.9173  -1.0464  -0.7765 H              1 S1                 0.0000
     25 ****        -0.0667  -1.6707  -0.7147 H              1 S1                 0.0000
     26 ****         2.1786  -1.4279  -1.5280 H              1 S1                 0.0000
     27 ****         2.2075   0.2401  -1.0702 H              1 S1                 0.0000
     28 ****         2.3377  -2.7362   2.0879 H              1 S1                 0.0000
     29 ****         0.8126  -2.3762   1.3586 H              1 S1                 0.0000
     30 ****         1.4579  -4.5458   0.5999 H              1 S1                 0.0000
     31 ****         1.5723  -3.5038  -0.7935 H              1 S1                 0.0000
     32 ****         3.3770  -4.8665  -0.5306 H              1 S1                 0.0000
     33 ****         4.3795  -1.8812   1.2112 H              1 S1                 0.0000
     34 ****         4.3436  -1.3438  -0.4556 H              1 S1                 0.0000
     35 ****         5.4612   0.2434   1.3766 H              1 S1                 0.0000
     36 ****         4.3202   0.9856   0.2522 H              1 S1                 0.0000
     37 ****         3.7488   0.0047   3.0713 H              1 S1                 0.0000
     38 ****         3.3951   1.6012   2.4143 H              1 S1                 0.0000
     39 ****         1.5483   0.8062   1.2165 H              1 S1                 0.0000
     40 ****         1.5019  -0.3708   2.5009 H              1 S1                 0.0000
     41 ****        -6.9043   2.5636  -0.0923 H              1 S1                 0.0000
     42 ****        -7.1678   1.0678  -0.9887 H              1 S1                 0.0000
     43 ****        -6.8902   2.5766  -1.8568 H              1 S1                 0.0000
     44 ****        -1.9960   2.6399  -1.0523 LP             1 S1                 0.0000
     45 ****        -0.6767   2.2219  -1.0365 LP             1 S1                 0.0000
     46 ****         0.9562   1.6465  -0.9855 LP             1 S1                 0.0000
     47 ****         3.7395  -4.3362   0.9245 LP             1 S1                 0.0000
     48 ****         3.8830  -3.3660  -0.3812 LP             1 S1                 0.0000
@<TRIPOS>BOND
    1    1    2 1     
    2    1   21 1     
    3    1   22 1     
    4    1   23 1     
    5    2   19 2     
    6    2    3 1     
    7    3    4 2     
    8    4    5 1     
    9    4   18 1     
   10    5    6 am    
   11    5   24 1     
   12    6    7 2     
   13    6    8 am    
   14    8    9 1     
   15    8   25 1     
   16    9   10 1     
   17    9   26 1     
   18    9   27 1     
   19   10   17 1     
   20   10   11 1     
   21   10   14 1     
   22   11   12 1     
   23   11   28 1     
   24   11   29 1     
   25   12   13 1     
   26   12   30 1     
   27   12   31 1     
   28   13   32 1     
   29   14   15 1     
   30   14   33 1     
   31   14   34 1     
   32   15   16 1     
   33   15   35 1     
   34   15   36 1     
   35   16   17 1     
   36   16   37 1     
   37   16   38 1     
   38   17   39 1     
   39   17   40 1     
   40   18   19 1     
   41   19   20 1     
   42   20   41 1     
   43   20   42 1     
   44   20   43 1     
   45    3   44 1     
   46    7   45 1     
   47    7   46 1     
   48   13   47 1     
   49   13   48 1     
@<TRIPOS>SUBSTRUCTURE
      1 S1             1
@<TRIPOS>SET
LONE_PAIRS      STATIC     ATOMS    <user>   **** ""
5 44 45 46 47 48
DONOR_HYDROGENS      STATIC     ATOMS    <user>   **** ""
3 24 25 32
ATOM$BLUE        STATIC     ATOMS    COLORGROUP SYSTEM
5 44 45 46 47 48
ATOM$RED        STATIC     ATOMS    COLORGROUP SYSTEM
3 24 25 32
