#       Name:                AV-unprocessed.smi:2256
#       Creating user name   scv26
#       Creation time:       Fri Mar 27 12:33:16 2020


#       File generated by GOLD software.
#

@<TRIPOS>MOLECULE
AV-unprocessed.smi:2256
    49    51     1
SMALL
NO_CHARGES


@<TRIPOS>ATOM
      1 ****        -2.5236   6.0168  -0.8607 C.3            1 S1                 0.0000
      2 ****        -1.9555   4.6153  -0.7242 C.2            1 S1                 0.0000
      3 ****        -1.5659   4.2444   0.5661 N.2            1 S1                 0.0000
      4 ****        -1.0754   3.0670   0.7781 C.2            1 S1                 0.0000
      5 ****        -0.9213   2.1342  -0.2602 N.am           1 S1                 0.0000
      6 ****        -0.3512   0.8298   0.1153 C.3            1 S1                 0.0000
      7 ****         1.1707   0.7657  -0.1444 C.3            1 S1                 0.0000
      8 ****         1.8806   1.3065   0.9516 O.3            1 S1                 0.0000
      9 ****         1.6859  -0.6652  -0.3727 C.3            1 S1                 0.0000
     10 ****         1.1480  -1.5352   0.6160 O.3            1 S1                 0.0000
     11 ****         1.4747  -2.8738   0.5644 C.ar           1 S1                 0.0000
     12 ****         2.3227  -3.4422  -0.4219 C.ar           1 S1                 0.0000
     13 ****         2.6148  -4.8194  -0.4152 C.ar           1 S1                 0.0000
     14 ****         2.0651  -5.6494   0.5758 C.ar           1 S1                 0.0000
     15 ****         1.2259  -5.0882   1.5527 C.ar           1 S1                 0.0000
     16 ****         0.5550  -5.6378   2.6276 N.pl3          1 S1                 0.0000
     17 ****        -0.1566  -4.6658   3.3083 C.2            1 S1                 0.0000
     18 ****         0.0373  -3.4587   2.6888 C.2            1 S1                 0.0000
     19 ****         0.9113  -3.6971   1.5715 C.ar           1 S1                 0.0000
     20 ****        -1.2581   2.4208  -1.5510 C.2            1 S1                 0.0000
     21 ****        -1.0929   1.6045  -2.4596 O.2            1 S1                 0.0000
     22 ****        -1.8234   3.7610  -1.7755 C.2            1 S1                 0.0000
     23 ****        -2.2317   4.1086  -3.2017 C.3            1 S1                 0.0000
     24 ****         0.5645  -6.6097   2.9024 H              1 S1                 0.0000
     25 ****        -3.5505   5.9796  -1.2252 H              1 S1                 0.0000
     26 ****        -1.9264   6.6044  -1.5582 H              1 S1                 0.0000
     27 ****        -2.5274   6.5396   0.0964 H              1 S1                 0.0000
     28 ****        -0.7510   2.7299   1.7642 H              1 S1                 0.0000
     29 ****        -0.5757   0.5668   1.1513 H              1 S1                 0.0000
     30 ****        -0.8499   0.0542  -0.4692 H              1 S1                 0.0000
     31 ****         1.4297   1.3569  -1.0236 H              1 S1                 0.0000
     32 ****         1.7268   0.7585   1.7063 H              1 S1                 0.0000
     33 ****         1.3572  -1.0001  -1.3579 H              1 S1                 0.0000
     34 ****         2.7772  -0.6834  -0.3631 H              1 S1                 0.0000
     35 ****         2.7653  -2.8397  -1.2004 H              1 S1                 0.0000
     36 ****         3.2617  -5.2377  -1.1723 H              1 S1                 0.0000
     37 ****         2.2858  -6.7066   0.5863 H              1 S1                 0.0000
     38 ****        -0.7442  -4.9134   4.1801 H              1 S1                 0.0000
     39 ****        -0.3803  -2.5048   2.9749 H              1 S1                 0.0000
     40 ****        -1.3680   4.0504  -3.8644 H              1 S1                 0.0000
     41 ****        -2.6510   5.1087  -3.2970 H              1 S1                 0.0000
     42 ****        -2.9821   3.4037  -3.5607 H              1 S1                 0.0000
     43 ****        -1.6664   4.8888   1.3242 LP             1 S1                 0.0000
     44 ****         1.5591   2.2350   1.1373 LP             1 S1                 0.0000
     45 ****         2.8585   1.3278   0.7433 LP             1 S1                 0.0000
     46 ****         0.1520  -1.4720   0.5540 LP             1 S1                 0.0000
     47 ****         1.4490  -1.1923   1.5059 LP             1 S1                 0.0000
     48 ****        -0.7030   0.7057  -2.2594 LP             1 S1                 0.0000
     49 ****        -1.3487   1.8411  -3.3969 LP             1 S1                 0.0000
@<TRIPOS>BOND
    1    1    2 1     
    2    1   25 1     
    3    1   26 1     
    4    1   27 1     
    5    2   22 2     
    6    2    3 1     
    7    3    4 2     
    8    4    5 1     
    9    4   28 1     
   10    5    6 1     
   11    5   20 am    
   12    6    7 1     
   13    6   29 1     
   14    6   30 1     
   15    7    8 1     
   16    7    9 1     
   17    7   31 1     
   18    8   32 1     
   19    9   10 1     
   20    9   33 1     
   21    9   34 1     
   22   10   11 1     
   23   11   19 ar    
   24   11   12 ar    
   25   12   13 ar    
   26   12   35 1     
   27   13   14 ar    
   28   13   36 1     
   29   14   15 ar    
   30   14   37 1     
   31   15   19 ar    
   32   15   16 1     
   33   16   24 1     
   34   16   17 1     
   35   17   18 2     
   36   17   38 1     
   37   18   19 1     
   38   18   39 1     
   39   20   21 2     
   40   20   22 1     
   41   22   23 1     
   42   23   40 1     
   43   23   41 1     
   44   23   42 1     
   45    3   43 1     
   46    8   44 1     
   47    8   45 1     
   48   10   46 1     
   49   10   47 1     
   50   21   48 1     
   51   21   49 1     
@<TRIPOS>SUBSTRUCTURE
      1 S1             1
@<TRIPOS>SET
LONE_PAIRS      STATIC     ATOMS    <user>   **** ""
7 43 44 45 46 47 48 49
DONOR_HYDROGENS      STATIC     ATOMS    <user>   **** ""
2 32 24
ATOM$BLUE        STATIC     ATOMS    COLORGROUP SYSTEM
7 43 44 45 46 47 48 49
ATOM$RED        STATIC     ATOMS    COLORGROUP SYSTEM
2 32 24
