AV-unprocessed.smi:743|AV-procd|sdf|3563|dock9
  -GOLD-   22720 0563D 1   1.00000     0.00000
 Structure written by MMmdl.
 29 30  0  0  0  0  0  0  0  0  2 V2000
  143.5682  132.7500  148.2709 C   0  0  0  0  0  0  0  0  0  0  0  0
  144.3466  132.7696  149.4909 N   0  0  0  0  0  0  0  0  0  0  0  0
  144.0565  133.3886  150.6870 C   0  0  0  0  0  0  0  0  0  0  0  0
  145.0835  133.1224  151.5522 C   0  0  0  0  0  0  0  0  0  0  0  0
  145.2679  133.5482  152.9952 C   0  0  1  0  0  0  0  0  0  0  0  0
  145.4041  132.3800  153.8693 N   0  0  0  0  0  0  0  0  0  0  0  0
  146.5539  131.8501  154.3273 C   0  0  0  0  0  0  0  0  0  0  0  0
  146.5653  130.7973  154.9598 O   0  0  0  0  0  0  0  0  0  0  0  0
  147.8742  132.6052  154.0979 C   0  0  0  0  0  0  0  0  0  0  0  0
  147.7883  133.7365  153.0571 C   0  0  0  0  0  0  0  0  0  0  0  0
  146.4678  134.5078  153.1853 C   0  0  1  0  0  0  0  0  0  0  0  0
  146.4189  135.6651  152.2722 N   0  3  0  0  0  0  0  0  0  0  0  0
  145.9704  132.3320  150.7645 C   0  0  0  0  0  0  0  0  0  0  0  0
  145.5248  132.1168  149.5387 N   0  0  0  0  0  0  0  0  0  0  0  0
  146.4197  134.9179  154.1954 H   0  0  0  0  0  0  0  0  0  0  0  0
  142.6389  133.3027  148.4108 H   0  0  0  0  0  0  0  0  0  0  0  0
  143.3304  131.7207  148.0004 H   0  0  0  0  0  0  0  0  0  0  0  0
  144.1365  133.2115  147.4628 H   0  0  0  0  0  0  0  0  0  0  0  0
  143.1482  133.9571  150.8250 H   0  0  0  0  0  0  0  0  0  0  0  0
  144.3704  134.0701  153.3295 H   0  0  0  0  0  0  0  0  0  0  0  0
  144.5527  131.8790  154.0808 H   0  0  0  0  0  0  0  0  0  0  0  0
  148.1712  133.0262  155.0589 H   0  0  0  0  0  0  0  0  0  0  0  0
  148.6554  131.8980  153.8174 H   0  0  0  0  0  0  0  0  0  0  0  0
  148.6322  134.4137  153.1921 H   0  0  0  0  0  0  0  0  0  0  0  0
  147.8898  133.3219  152.0532 H   0  0  0  0  0  0  0  0  0  0  0  0
  147.3590  135.9222  152.0068 H   0  0  0  0  0  0  0  0  0  0  0  0
  145.9759  136.4443  152.7380 H   0  0  0  0  0  0  0  0  0  0  0  0
  146.9198  131.9038  151.0507 H   0  0  0  0  0  0  0  0  0  0  0  0
  145.8907  135.4225  151.4463 H   0  0  0  0  0  0  0  0  0  0  0  0
  1  2  1  0  0  0  0
  1 16  1  0  0  0  0
  1 17  1  0  0  0  0
  1 18  1  0  0  0  0
  2 14  1  0  0  0  0
  2  3  1  0  0  0  0
  3  4  2  0  0  0  0
  3 19  1  0  0  0  0
  4  5  1  0  0  0  0
  4 13  1  0  0  0  0
  5 11  1  0  0  0  0
  5  6  1  0  0  0  0
  5 20  1  0  0  0  0
  6  7  1  0  0  0  0
  6 21  1  0  0  0  0
  7  8  2  0  0  0  0
  7  9  1  0  0  0  0
  9 10  1  0  0  0  0
  9 22  1  0  0  0  0
  9 23  1  0  0  0  0
 10 11  1  0  0  0  0
 10 24  1  0  0  0  0
 10 25  1  0  0  0  0
 11 15  1  0  0  0  0
 11 12  1  0  0  0  0
 12 26  1  0  0  0  0
 12 27  1  0  0  0  0
 12 29  1  0  0  0  0
 13 14  2  0  0  0  0
 13 28  1  0  0  0  0
M  CHG  1  12   1
M  END
> <s_m_source_file>
AV-unprocessed.smi

> <i_m_source_file_index>
743

> <i_lp_mmshare_version>
43012

> <i_f3d_flags>
0

> <s_epik_input>
W0NIM11uMVtjSF1jKFtjSF1uMSlbQ0BASF0yW05IXUMoPU8pW0NIMl1bQ0gyXVtDQEBIXTJbTkgyXQ==

> <s_epik_cmdline>
J2VwaWtfcHl0aG9uJywgJy1waCcsICc3LjAnLCAnLXRuJywgJzgnLCAnLW1hJywgJzIwMCcsICctbWV0YWxfYmluZGluZycsICctaW1hZScsICc8aW5maWxlLm1hZT4nLCAnLW9tYWUnLCAnPG91dGZpbGUubWFlPic=

> <r_lp_tautomer_probability>
1

> <r_epik_Ionization_Penalty>
0.00878543

> <r_epik_Ionization_Penalty_Charging>
0.00874185

> <r_epik_Ionization_Penalty_Neutral>
4.35793e-05

> <r_epik_State_Penalty>
0.00660351

> <r_epik_Charging_Adjusted_Penalty>
0.0153454

> <i_epik_Tot_Q>
1

> <i_epik_Tot_abs_Q>
1

> <r_epik_Metal_State_Penalty>
0.00660727

> <b_epik_Metal_Only>
0

> <s_lp_Force_Field>
OPLS_2005

> <r_lp_Energy>
11.1602

> <b_lp_Chiralities_Consistent>
1

> <s_lp_Variant>
AV-unprocessed.smi:743-4

> <Gold.Version>
5.8.1

> <Gold.Id.Protein>
6NUR|6NUR_protein|mol2

> <Gold.PLP.Fitness>
36.3467

> <Gold.PLP.PLP>
-22.7453

> <Gold.PLP.part.hbond>
-1.9819

> <Gold.PLP.part.metal>
0.0000

> <Gold.PLP.part.buried>
-1.5154

> <Gold.PLP.part.nonpolar>
-19.7887

> <Gold.PLP.part.repulsive>
0.3242

> <Gold.PLP.ligand.clash>
0.0000

> <Gold.PLP.ligand.torsion>
0.0337

> <Gold.PLP.Chemscore.Hbond>
2.5500

> <Gold.PLP.Chemscore.CHOScore>
2.0000

> <Gold.PLP.Chemscore.Metal>
0.0000

> <Gold.Chemscore.Hbonds>
donor molecule, donor type, donor heavy atom, donor atom, acceptor molecule, acceptor atom, score
      L1  H     6    21       P1 10957  0.55
      L1  H    12    26       P1  7948  2.00
      L1  C     3    19       P1 10186  1.00
      L1  C    13    28       P1 10747  1.00

> <Gold.PLP.Chemscore.Internal.Correction>
0.0187

> <Gold.Rescore>
     Score         DG    S(hbond)    S(metal)    S(lipo)     H(rot)  DE(clash)    DE(int)     intcor
     14.62     -14.66       1.90        0.00      46.18       1.00       0.03       0.01       ----

> <Gold.Chemscore.Fitness>
14.6167

> <Gold.Chemscore.DG>
-14.6555

> <Gold.Chemscore.ZeroCoef>
-5.4800

> <Gold.Chemscore.Hbond>
1.8960

> <Gold.Chemscore.Metal>
0.0000

> <Gold.Chemscore.Lipo>
46.1778

> <Gold.Chemscore.Internal_Hbond>
0.0000

> <Gold.Chemscore.DEClash>
0.0292

> <Gold.Chemscore.DEInternal>
0.0095

> <Gold.Chemscore.Rot>
1.0000

> <Gold.Chemscore.Internal.Correction>
   9.000000E+99

> <Gold.Chemscore.Hbonds>
donor molecule, donor type, donor heavy atom, donor atom, acceptor molecule, acceptor atom, score
      L1  H     6    21       P1 10957  0.03
      L1  H    12    26       P1  7948  0.99

> <Gold.Chemscore.Hbond.Weighted>
-6.3327

> <Gold.Chemscore.Metal.Weighted>
-0.0000

> <Gold.Chemscore.Lipo.Weighted>
-5.4028

> <Gold.Chemscore.Internal_Hbond.Weighted>
0.0000

> <Gold.Chemscore.DEClash.Weighted>
0.0292

> <Gold.Chemscore.DEInternal.Weighted>
0.0095

> <Gold.Chemscore.Rot.Weighted>
2.5600

> <Gold.Chemscore.Internal.Correction.Weighted>
   9.000000E+99

> <Gold.Protein.RotatedTorsions>
[ 6907 6896 6895 6894 ] final  153.72 input  -60.11 | X-H torsion
[ 7974 7965 7964 7962 ] final  157.55 input  175.53 | X-H torsion
[ 8008 7997 7996 7995 ] final  119.78 input   59.86 | X-H torsion
[ 10167 10162 10161 10158 ] final   15.47 input  -65.29 | X-H torsion
[ 10718 10713 10712 10709 ] final   82.10 input   66.30 | X-H torsion
[ 10763 10752 10751 10750 ] final  144.25 input  -60.55 | X-H torsion
[ 11005 11000 10999 10996 ] final   98.76 input  -57.11 | X-H torsion

> <Gold.Protein.ActiveResidues>
 VAL166  LYS551  ARG553  GLY616  TRP617  ASP618  TYR619  PRO620  LYS621  CYS622 
 ASP623  PHE694  ASN695  SER759  ASP760  ASP761  ALA762  ILE779  LEU786  VAL792 
 PHE793  MET794  SER795  GLU796  ALA797  LYS798  CYS799  TRP800  GLU811  SER814 

> <Gold.Protein.RotatedAtoms>
  152.0686  133.4096  159.4448 H   0  0  0  0  0  0  0  0  0  0  0  0  # atno 6907 bound_to 6896
  150.6864  134.3118  159.4758 H   0  0  0  0  0  0  0  0  0  0  0  0  # atno 6908 bound_to 6896
  152.0947  134.9383  160.0621 H   0  0  0  0  0  0  0  0  0  0  0  0  # atno 6909 bound_to 6896
  144.7897  139.7355  143.6226 H   0  0  0  0  0  0  0  0  0  0  0  0  # atno 7974 bound_to 7965
  156.2612  140.2845  156.1046 H   0  0  0  0  0  0  0  0  0  0  0  0  # atno 8008 bound_to 7997
  155.1323  140.0394  157.2795 H   0  0  0  0  0  0  0  0  0  0  0  0  # atno 8009 bound_to 7997
  154.6590  140.2562  155.7136 H   0  0  0  0  0  0  0  0  0  0  0  0  # atno 8010 bound_to 7997
  140.5865  143.8880  150.6835 H   0  0  0  0  0  0  0  0  0  0  0  0  # atno 10167 bound_to 10162
  157.6849  131.0033  150.2324 H   0  0  0  0  0  0  0  0  0  0  0  0  # atno 10718 bound_to 10713
  153.9858  135.2937  155.3416 H   0  0  0  0  0  0  0  0  0  0  0  0  # atno 10763 bound_to 10752
  154.7243  135.5095  153.8864 H   0  0  0  0  0  0  0  0  0  0  0  0  # atno 10764 bound_to 10752
  153.0833  135.6685  154.0116 H   0  0  0  0  0  0  0  0  0  0  0  0  # atno 10765 bound_to 10752
  139.8771  134.9064  156.4504 H   0  0  0  0  0  0  0  0  0  0  0  0  # atno 11005 bound_to 11000
  146.2144  139.5523  142.9660 LP  0  0  0  0  0  0  0  0  0  0  0  0  # atno 17320 bound_to 7965
  145.5827  141.0380  143.2113 LP  0  0  0  0  0  0  0  0  0  0  0  0  # atno 17321 bound_to 7965
  140.2392  143.3677  152.1501 LP  0  0  0  0  0  0  0  0  0  0  0  0  # atno 17342 bound_to 10162
  139.5201  144.7028  151.5444 LP  0  0  0  0  0  0  0  0  0  0  0  0  # atno 17343 bound_to 10162
  156.2954  130.3751  149.7801 LP  0  0  0  0  0  0  0  0  0  0  0  0  # atno 17370 bound_to 10713
  156.5447  130.8315  151.3280 LP  0  0  0  0  0  0  0  0  0  0  0  0  # atno 17371 bound_to 10713
  140.8936  133.7830  155.9599 LP  0  0  0  0  0  0  0  0  0  0  0  0  # atno 17394 bound_to 11000
  140.8727  134.2707  157.5183 LP  0  0  0  0  0  0  0  0  0  0  0  0  # atno 17395 bound_to 11000

$$$$
