AV-unprocessed.smi:855|AV-procd|sdf|3958|dock9
  -GOLD-   22720 1433D 1   1.00000     0.00000
 Structure written by MMmdl.
 35 36  0  0  0  0  0  0  0  0  3 V2000
  153.6813  141.9602  160.8691 C   0  0  0  0  0  0  0  0  0  0  0  0
  152.7857  141.9949  159.6787 C   0  0  0  0  0  0  0  0  0  0  0  0
  152.5678  141.1198  158.6521 C   0  0  0  0  0  0  0  0  0  0  0  0
  151.5873  141.7832  157.8670 C   0  0  0  0  0  0  0  0  0  0  0  0
  151.0868  141.1873  156.6791 N   0  0  0  0  0  0  0  0  0  0  0  0
  151.5772  140.1404  155.9903 C   0  0  0  0  0  0  0  0  0  0  0  0
  152.6074  139.5707  156.3692 O   0  0  0  0  0  0  0  0  0  0  0  0
  150.8161  139.8386  154.9028 N   0  5  0  0  0  0  0  0  0  0  0  0
  150.6880  138.4983  154.3285 C   0  0  0  0  0  0  0  0  0  0  0  0
  149.4607  137.7865  154.9323 C   0  0  0  0  0  0  0  0  0  0  0  0
  149.3895  136.3458  154.5675 N   0  3  0  0  0  0  0  0  0  0  0  0
  150.5464  135.5378  155.0230 C   0  0  0  0  0  0  0  0  0  0  0  0
  149.9913  134.1954  155.5181 C   0  0  0  0  0  0  0  0  0  0  0  0
  148.5583  134.1538  154.9989 C   0  0  0  0  0  0  0  0  0  0  0  0
  148.1618  135.6257  154.9796 C   0  0  0  0  0  0  0  0  0  0  0  0
  151.2379  142.9573  158.3715 N   0  0  0  0  0  0  0  0  0  0  0  0
  152.0036  143.0987  159.5347 O   0  0  0  0  0  0  0  0  0  0  0  0
  154.3540  141.1035  160.8261 H   0  0  0  0  0  0  0  0  0  0  0  0
  153.0991  141.8881  161.7877 H   0  0  0  0  0  0  0  0  0  0  0  0
  154.2886  142.8639  160.9223 H   0  0  0  0  0  0  0  0  0  0  0  0
  153.0364  140.1605  158.4899 H   0  0  0  0  0  0  0  0  0  0  0  0
  150.2471  141.6032  156.3050 H   0  0  0  0  0  0  0  0  0  0  0  0
  150.5733  138.5348  153.2448 H   0  0  0  0  0  0  0  0  0  0  0  0
  151.5742  137.8902  154.5142 H   0  0  0  0  0  0  0  0  0  0  0  0
  149.5234  137.8755  156.0182 H   0  0  0  0  0  0  0  0  0  0  0  0
  148.5399  138.2924  154.6403 H   0  0  0  0  0  0  0  0  0  0  0  0
  151.2274  135.3985  154.1828 H   0  0  0  0  0  0  0  0  0  0  0  0
  151.1022  136.0317  155.8216 H   0  0  0  0  0  0  0  0  0  0  0  0
  150.5840  133.3447  155.1807 H   0  0  0  0  0  0  0  0  0  0  0  0
  149.9840  134.1827  156.6087 H   0  0  0  0  0  0  0  0  0  0  0  0
  148.5412  133.7510  153.9854 H   0  0  0  0  0  0  0  0  0  0  0  0
  147.8991  133.5438  155.6171 H   0  0  0  0  0  0  0  0  0  0  0  0
  147.8663  135.9372  155.9828 H   0  0  0  0  0  0  0  0  0  0  0  0
  147.3278  135.8205  154.3047 H   0  0  0  0  0  0  0  0  0  0  0  0
  149.4166  136.3151  153.5575 H   0  0  0  0  0  0  0  0  0  0  0  0
  1  2  1  0  0  0  0
  1 18  1  0  0  0  0
  1 19  1  0  0  0  0
  1 20  1  0  0  0  0
  2 17  1  0  0  0  0
  2  3  2  0  0  0  0
  3  4  1  0  0  0  0
  3 21  1  0  0  0  0
  4  5  1  0  0  0  0
  4 16  2  0  0  0  0
  5  6  1  0  0  0  0
  5 22  1  0  0  0  0
  6  7  2  0  0  0  0
  6  8  1  0  0  0  0
  8  9  1  0  0  0  0
  9 10  1  0  0  0  0
  9 23  1  0  0  0  0
  9 24  1  0  0  0  0
 10 11  1  0  0  0  0
 10 25  1  0  0  0  0
 10 26  1  0  0  0  0
 11 15  1  0  0  0  0
 11 12  1  0  0  0  0
 11 35  1  0  0  0  0
 12 13  1  0  0  0  0
 12 27  1  0  0  0  0
 12 28  1  0  0  0  0
 13 14  1  0  0  0  0
 13 29  1  0  0  0  0
 13 30  1  0  0  0  0
 14 15  1  0  0  0  0
 14 31  1  0  0  0  0
 14 32  1  0  0  0  0
 15 33  1  0  0  0  0
 15 34  1  0  0  0  0
 16 17  1  0  0  0  0
M  CHG  1   8  -1
M  CHG  1  11   1
M  END
> <s_m_source_file>
AV-unprocessed.smi

> <i_m_source_file_index>
855

> <i_lp_mmshare_version>
43012

> <i_f3d_flags>
0

> <s_epik_input>
W0NIM11jMVtjSF1jKG5vMSlbTkhdQyg9TylbTkhdW0NIMl1bQ0gyXU4yW0NIMl1bQ0gyXVtDSDJdW0NIMl0y

> <s_epik_cmdline>
J2VwaWtfcHl0aG9uJywgJy1waCcsICc3LjAnLCAnLXRuJywgJzgnLCAnLW1hJywgJzIwMCcsICctbWV0YWxfYmluZGluZycsICctaW1hZScsICc8aW5maWxlLm1hZT4nLCAnLW9tYWUnLCAnPG91dGZpbGUubWFlPic=

> <r_epik_Ionization_Penalty>
6.76467

> <r_epik_Ionization_Penalty_Charging>
6.76466

> <r_epik_Ionization_Penalty_Neutral>
5.76722e-06

> <r_epik_State_Penalty>
6.79042

> <r_epik_Charging_Adjusted_Penalty>
13.5551

> <i_epik_Tot_Q>
0

> <i_epik_Tot_abs_Q>
2

> <r_epik_Metal_State_Penalty>
2.72416

> <b_epik_Metal_Only>
1

> <s_lp_Force_Field>
OPLS_2005

> <r_lp_Energy>
21.5232

> <b_lp_Chiralities_Consistent>
1

> <s_lp_Variant>
AV-unprocessed.smi:855-3

> <Gold.Version>
5.8.1

> <Gold.Id.Protein>
6NUR|6NUR_protein|mol2

> <Gold.PLP.Fitness>
40.5448

> <Gold.PLP.PLP>
-29.3512

> <Gold.PLP.part.hbond>
-3.0000

> <Gold.PLP.part.metal>
0.0000

> <Gold.PLP.part.buried>
-5.3792

> <Gold.PLP.part.nonpolar>
-21.4944

> <Gold.PLP.part.repulsive>
0.2441

> <Gold.PLP.ligand.clash>
0.0000

> <Gold.PLP.ligand.torsion>
0.4365

> <Gold.PLP.Chemscore.Hbond>
4.0000

> <Gold.PLP.Chemscore.CHOScore>
0.0000

> <Gold.PLP.Chemscore.Metal>
0.0000

> <Gold.Chemscore.Hbonds>
donor molecule, donor type, donor heavy atom, donor atom, acceptor molecule, acceptor atom, score
      L1  H    11    35       P1  7948  2.00
      P1  H  7989  7998       L1     8  1.00
      P1  H  7997  8008       L1     7  1.00

> <Gold.PLP.Chemscore.Internal.Correction>
0.0667

> <Gold.Rescore>
     Score         DG    S(hbond)    S(metal)    S(lipo)     H(rot)  DE(clash)    DE(int)     intcor
     13.06     -14.93       1.97        0.00      58.91       1.57       0.05       1.82       ----

> <Gold.Chemscore.Fitness>
13.0619

> <Gold.Chemscore.DG>
-14.9296

> <Gold.Chemscore.ZeroCoef>
-5.4800

> <Gold.Chemscore.Hbond>
1.9714

> <Gold.Chemscore.Metal>
0.0000

> <Gold.Chemscore.Lipo>
58.9084

> <Gold.Chemscore.Internal_Hbond>
0.0000

> <Gold.Chemscore.DEClash>
0.0515

> <Gold.Chemscore.DEInternal>
1.8161

> <Gold.Chemscore.Rot>
1.5731

> <Gold.Chemscore.Internal.Correction>
   9.000000E+99

> <Gold.Chemscore.Hbonds>
donor molecule, donor type, donor heavy atom, donor atom, acceptor molecule, acceptor atom, score
      L1  H    11    35       P1  7948  0.74
      P1  H  7989  7998       L1     8  0.18
      P1  H  7997  8008       L1     7  1.00

> <Gold.Chemscore.Hbond.Weighted>
-6.5844

> <Gold.Chemscore.Metal.Weighted>
-0.0000

> <Gold.Chemscore.Lipo.Weighted>
-6.8923

> <Gold.Chemscore.Internal_Hbond.Weighted>
0.0000

> <Gold.Chemscore.DEClash.Weighted>
0.0515

> <Gold.Chemscore.DEInternal.Weighted>
1.8161

> <Gold.Chemscore.Rot.Weighted>
4.0271

> <Gold.Chemscore.Internal.Correction.Weighted>
   9.000000E+99

> <Gold.Protein.RotatedTorsions>
[ 6907 6896 6895 6894 ] final  -31.94 input  -60.11 | X-H torsion
[ 7974 7965 7964 7962 ] final -110.53 input  175.53 | X-H torsion
[ 8008 7997 7996 7995 ] final  -34.31 input   59.86 | X-H torsion
[ 10167 10162 10161 10158 ] final -130.60 input  -65.29 | X-H torsion
[ 10718 10713 10712 10709 ] final   63.14 input   66.30 | X-H torsion
[ 10763 10752 10751 10750 ] final -170.68 input  -60.55 | X-H torsion
[ 11005 11000 10999 10996 ] final  -68.51 input  -57.11 | X-H torsion

> <Gold.Protein.ActiveResidues>
 VAL166  LYS551  ARG553  GLY616  TRP617  ASP618  TYR619  PRO620  LYS621  CYS622 
 ASP623  PHE694  ASN695  SER759  ASP760  ASP761  ALA762  ILE779  LEU786  VAL792 
 PHE793  MET794  SER795  GLU796  ALA797  LYS798  CYS799  TRP800  GLU811  SER814 

> <Gold.Protein.RotatedAtoms>
  151.0853  134.9883  159.8376 H   0  0  0  0  0  0  0  0  0  0  0  0  # atno 6907 bound_to 6896
  152.5424  134.2131  159.8768 H   0  0  0  0  0  0  0  0  0  0  0  0  # atno 6908 bound_to 6896
  151.2164  133.4483  159.2633 H   0  0  0  0  0  0  0  0  0  0  0  0  # atno 6909 bound_to 6896
  145.1671  140.8907  143.3557 H   0  0  0  0  0  0  0  0  0  0  0  0  # atno 7974 bound_to 7965
  154.4124  140.1687  156.2028 H   0  0  0  0  0  0  0  0  0  0  0  0  # atno 8008 bound_to 7997
  155.9509  140.3401  155.6384 H   0  0  0  0  0  0  0  0  0  0  0  0  # atno 8009 bound_to 7997
  155.6870  140.0729  157.2453 H   0  0  0  0  0  0  0  0  0  0  0  0  # atno 8010 bound_to 7997
  139.9277  143.6309  152.2538 H   0  0  0  0  0  0  0  0  0  0  0  0  # atno 10167 bound_to 10162
  157.5950  130.9089  149.9677 H   0  0  0  0  0  0  0  0  0  0  0  0  # atno 10718 bound_to 10713
  154.6388  135.2896  155.0128 H   0  0  0  0  0  0  0  0  0  0  0  0  # atno 10763 bound_to 10752
  154.1262  135.6540  153.4917 H   0  0  0  0  0  0  0  0  0  0  0  0  # atno 10764 bound_to 10752
  153.0316  135.5299  154.7246 H   0  0  0  0  0  0  0  0  0  0  0  0  # atno 10765 bound_to 10752
  141.1533  133.6742  156.6457 H   0  0  0  0  0  0  0  0  0  0  0  0  # atno 11005 bound_to 11000
  145.0271  139.3373  143.6043 LP  0  0  0  0  0  0  0  0  0  0  0  0  # atno 17320 bound_to 7965
  146.3474  139.9594  142.8719 LP  0  0  0  0  0  0  0  0  0  0  0  0  # atno 17321 bound_to 7965
  139.6809  144.7655  151.1611 LP  0  0  0  0  0  0  0  0  0  0  0  0  # atno 17342 bound_to 10162
  140.7646  143.5727  150.8979 LP  0  0  0  0  0  0  0  0  0  0  0  0  # atno 17343 bound_to 10162
  156.1011  130.3655  150.0216 LP  0  0  0  0  0  0  0  0  0  0  0  0  # atno 17370 bound_to 10713
  156.8331  130.9399  151.3636 LP  0  0  0  0  0  0  0  0  0  0  0  0  # atno 17371 bound_to 10713
  140.3359  134.7890  157.4361 LP  0  0  0  0  0  0  0  0  0  0  0  0  # atno 17394 bound_to 11000
  140.0978  134.5514  155.8382 LP  0  0  0  0  0  0  0  0  0  0  0  0  # atno 17395 bound_to 11000

$$$$
