AV-unprocessed.smi:44|AV-procd|sdf|399|dock7
  -GOLD-   2262016253D 1   1.00000     0.00000
 Structure written by MMmdl.
 29 31  0  0  0  0  0  0  0  0  3 V2000
  149.0811  141.7326  154.1450 O   0  0  0  0  0  0  0  0  0  0  0  0
  149.8521  141.0835  154.8489 C   0  0  0  0  0  0  0  0  0  0  0  0
  150.4293  139.8703  154.5709 N   0  5  0  0  0  0  0  0  0  0  0  0
  151.2861  139.2443  155.4697 C   0  0  0  0  0  0  0  0  0  0  0  0
  151.6544  139.6712  156.6253 N   0  0  0  0  0  0  0  0  0  0  0  0
  151.1192  140.9131  156.9993 C   0  0  0  0  0  0  0  0  0  0  0  0
  150.2585  141.6185  156.1908 C   0  0  0  0  0  0  0  0  0  0  0  0
  149.8887  142.7785  156.8159 N   0  3  0  0  0  0  0  0  0  0  0  0
  150.5435  142.7244  157.9757 C   0  0  0  0  0  0  0  0  0  0  0  0
  151.3283  141.6189  158.1579 N   0  0  0  0  0  0  0  0  0  0  0  0
  152.1588  141.2678  159.3539 C   0  0  1  0  0  0  0  0  0  0  0  0
  153.6207  141.6338  159.0942 C   0  0  0  0  0  0  0  0  0  0  0  0
  153.6392  143.0849  159.5182 C   0  0  0  0  0  0  0  0  0  0  0  0
  152.7200  143.0534  160.7396 C   0  0  1  0  0  0  0  0  0  0  0  0
  152.0593  144.4076  161.0383 C   0  0  0  0  0  0  0  0  0  0  0  0
  150.9151  144.2191  161.8418 O   0  0  0  0  0  0  0  0  0  0  0  0
  151.7380  142.0615  160.4268 O   0  0  0  0  0  0  0  0  0  0  0  0
  149.2615  143.4991  156.4824 H   0  0  0  0  0  0  0  0  0  0  0  0
  151.9761  140.2048  159.5148 H   0  0  0  0  0  0  0  0  0  0  0  0
  153.2985  142.7085  161.5988 H   0  0  0  0  0  0  0  0  0  0  0  0
  151.6500  138.2876  155.0868 H   0  0  0  0  0  0  0  0  0  0  0  0
  150.4561  143.4961  158.7182 H   0  0  0  0  0  0  0  0  0  0  0  0
  154.2553  141.0319  159.7462 H   0  0  0  0  0  0  0  0  0  0  0  0
  153.9181  141.4680  158.0585 H   0  0  0  0  0  0  0  0  0  0  0  0
  154.6405  143.4490  159.7498 H   0  0  0  0  0  0  0  0  0  0  0  0
  153.2208  143.7134  158.7304 H   0  0  0  0  0  0  0  0  0  0  0  0
  152.7479  145.0430  161.5960 H   0  0  0  0  0  0  0  0  0  0  0  0
  151.7992  144.9397  160.1236 H   0  0  0  0  0  0  0  0  0  0  0  0
  150.4774  145.0505  161.9449 H   0  0  0  0  0  0  0  0  0  0  0  0
  1  2  2  0  0  0  0
  2  7  1  0  0  0  0
  2  3  1  0  0  0  0
  3  4  1  0  0  0  0
  4 21  1  0  0  0  0
  4  5  2  0  0  0  0
  5  6  1  0  0  0  0
  6 10  1  0  0  0  0
  6  7  2  0  0  0  0
  7  8  1  0  0  0  0
  8  9  2  0  0  0  0
  8 18  1  0  0  0  0
  9 10  1  0  0  0  0
  9 22  1  0  0  0  0
 10 11  1  0  0  0  0
 11 19  1  0  0  0  0
 11 17  1  0  0  0  0
 11 12  1  0  0  0  0
 12 13  1  0  0  0  0
 12 23  1  0  0  0  0
 12 24  1  0  0  0  0
 13 14  1  0  0  0  0
 13 25  1  0  0  0  0
 13 26  1  0  0  0  0
 14 20  1  0  0  0  0
 14 15  1  0  0  0  0
 14 17  1  0  0  0  0
 15 16  1  0  0  0  0
 15 27  1  0  0  0  0
 15 28  1  0  0  0  0
 16 29  1  0  0  0  0
M  CHG  1   3  -1
M  CHG  1   8   1
M  END
> <s_m_source_file>
AV-unprocessed.smi

> <i_m_source_file_index>
44

> <i_lp_mmshare_version>
43012

> <i_f3d_flags>
0

> <s_epik_input>
bjFbY0hdW25IXWMoPU8pYyhjMTIpbltjSF1uMltDQEhdM1tDSDJdW0NIMl1bQ0BIXShPMylbQ0gyXVtPSF0=

> <s_epik_cmdline>
J2VwaWtfcHl0aG9uJywgJy1waCcsICc3LjAnLCAnLXRuJywgJzgnLCAnLW1hJywgJzIwMCcsICctbWV0YWxfYmluZGluZycsICctaW1hZScsICc8aW5maWxlLm1hZT4nLCAnLW9tYWUnLCAnPG91dGZpbGUubWFlPic=

> <r_lp_tautomer_probability>
0.144281

> <r_epik_Ionization_Penalty>
5.63685

> <r_epik_Ionization_Penalty_Charging>
5.58669

> <r_epik_Ionization_Penalty_Neutral>
0.0501585

> <r_epik_State_Penalty>
1.20809

> <r_epik_Charging_Adjusted_Penalty>
6.79478

> <i_epik_Tot_Q>
0

> <i_epik_Tot_abs_Q>
2

> <r_epik_Metal_State_Penalty>
1.52487

> <b_epik_Metal_Only>
0

> <s_epik_Chemistry_Notes>
This compound contains an acetal/aminal-like group ( X-CH(R)-Y where X, Y are N, S, or O) that may be acid/base labile, releasing an aldehyde.

> <s_lp_Force_Field>
OPLS_2005

> <r_lp_Energy>
45.4458

> <b_lp_Chiralities_Consistent>
1

> <s_lp_Variant>
AV-unprocessed.smi:44-5

> <Gold.Version>
5.8.1

> <Gold.Id.Protein>
6NUR|6NUR_protein|mol2

> <Gold.PLP.Fitness>
43.9297

> <Gold.PLP.PLP>
-36.2991

> <Gold.PLP.part.hbond>
-7.4693

> <Gold.PLP.part.metal>
0.0000

> <Gold.PLP.part.buried>
-4.5154

> <Gold.PLP.part.nonpolar>
-24.5563

> <Gold.PLP.part.repulsive>
0.3478

> <Gold.PLP.ligand.clash>
0.0000

> <Gold.PLP.ligand.torsion>
0.7099

> <Gold.PLP.Chemscore.Hbond>
3.0078

> <Gold.PLP.Chemscore.CHOScore>
0.0000

> <Gold.PLP.Chemscore.Metal>
0.0000

> <Gold.Chemscore.Hbonds>
donor molecule, donor type, donor heavy atom, donor atom, acceptor molecule, acceptor atom, score
      L1  H     8    18       P1  8028  1.92
      P1  H  7989  7998       L1     3  0.25
      P1  H  8011  8017       L1     1  0.50

> <Gold.PLP.Chemscore.Internal.Correction>
0.0271

> <Gold.Rescore>
     Score         DG    S(hbond)    S(metal)    S(lipo)     H(rot)  DE(clash)    DE(int)     intcor
      8.74     -11.55       1.76        0.00      51.49       2.27       1.98       0.84       ----

> <Gold.Chemscore.Fitness>
8.7388

> <Gold.Chemscore.DG>
-11.5524

> <Gold.Chemscore.ZeroCoef>
-5.4800

> <Gold.Chemscore.Hbond>
1.7559

> <Gold.Chemscore.Metal>
0.0000

> <Gold.Chemscore.Lipo>
51.4892

> <Gold.Chemscore.Internal_Hbond>
0.0000

> <Gold.Chemscore.DEClash>
1.9756

> <Gold.Chemscore.DEInternal>
0.8380

> <Gold.Chemscore.Rot>
2.2720

> <Gold.Chemscore.Internal.Correction>
   9.000000E+99

> <Gold.Chemscore.Hbonds>
donor molecule, donor type, donor heavy atom, donor atom, acceptor molecule, acceptor atom, score
      L1  H     8    18       P1  8028  0.89
      P1  H  8011  8017       L1     1  0.46

> <Gold.Chemscore.Hbond.Weighted>
-5.8646

> <Gold.Chemscore.Metal.Weighted>
-0.0000

> <Gold.Chemscore.Lipo.Weighted>
-6.0242

> <Gold.Chemscore.Internal_Hbond.Weighted>
0.0000

> <Gold.Chemscore.DEClash.Weighted>
1.9756

> <Gold.Chemscore.DEInternal.Weighted>
0.8380

> <Gold.Chemscore.Rot.Weighted>
5.8164

> <Gold.Chemscore.Internal.Correction.Weighted>
   9.000000E+99

> <Gold.Protein.RotatedTorsions>
[ 6907 6896 6895 6894 ] final  -45.74 input  -60.11 | X-H torsion
[ 7974 7965 7964 7962 ] final  -73.04 input  175.53 | X-H torsion
[ 8008 7997 7996 7995 ] final   66.85 input   59.86 | X-H torsion
[ 10167 10162 10161 10158 ] final  120.34 input  -65.29 | X-H torsion
[ 10718 10713 10712 10709 ] final -126.37 input   66.30 | X-H torsion
[ 10763 10752 10751 10750 ] final   79.03 input  -60.55 | X-H torsion
[ 11005 11000 10999 10996 ] final  -74.49 input  -57.11 | X-H torsion

> <Gold.Protein.ActiveResidues>
 VAL166  LYS551  ARG553  GLY616  TRP617  ASP618  TYR619  PRO620  LYS621  CYS622 
 ASP623  PHE694  ASN695  SER759  ASP760  ASP761  ALA762  ILE779  LEU786  VAL792 
 PHE793  MET794  SER795  GLU796  ALA797  LYS798  CYS799  TRP800  GLU811  SER814 

> <Gold.Protein.RotatedAtoms>
  150.9187  134.8604  159.7473 H   0  0  0  0  0  0  0  0  0  0  0  0  # atno 6907 bound_to 6896
  152.4981  134.4251  159.9503 H   0  0  0  0  0  0  0  0  0  0  0  0  # atno 6908 bound_to 6896
  151.4287  133.3637  159.2801 H   0  0  0  0  0  0  0  0  0  0  0  0  # atno 6909 bound_to 6896
  145.6573  140.9264  143.0952 H   0  0  0  0  0  0  0  0  0  0  0  0  # atno 7974 bound_to 7965
  155.6837  140.3496  155.4866 H   0  0  0  0  0  0  0  0  0  0  0  0  # atno 8008 bound_to 7997
  155.9584  140.1132  157.0939 H   0  0  0  0  0  0  0  0  0  0  0  0  # atno 8009 bound_to 7997
  154.4137  140.1180  156.5132 H   0  0  0  0  0  0  0  0  0  0  0  0  # atno 8010 bound_to 7997
  139.5988  144.7050  151.3111 H   0  0  0  0  0  0  0  0  0  0  0  0  # atno 10167 bound_to 10162
  156.1759  130.6699  151.0241 H   0  0  0  0  0  0  0  0  0  0  0  0  # atno 10718 bound_to 10713
  153.0920  135.4855  154.8708 H   0  0  0  0  0  0  0  0  0  0  0  0  # atno 10763 bound_to 10752
  154.7281  135.3054  154.8940 H   0  0  0  0  0  0  0  0  0  0  0  0  # atno 10764 bound_to 10752
  153.9584  135.6815  153.4798 H   0  0  0  0  0  0  0  0  0  0  0  0  # atno 10765 bound_to 10752
  141.1635  133.6913  156.7372 H   0  0  0  0  0  0  0  0  0  0  0  0  # atno 11005 bound_to 11000
  144.7101  139.8404  143.7417 LP  0  0  0  0  0  0  0  0  0  0  0  0  # atno 17320 bound_to 7965
  146.1154  139.4164  143.0261 LP  0  0  0  0  0  0  0  0  0  0  0  0  # atno 17321 bound_to 7965
  140.7233  143.7074  150.7797 LP  0  0  0  0  0  0  0  0  0  0  0  0  # atno 17342 bound_to 10162
  140.0646  143.5121  152.2611 LP  0  0  0  0  0  0  0  0  0  0  0  0  # atno 17343 bound_to 10162
  157.6835  131.0831  150.7306 LP  0  0  0  0  0  0  0  0  0  0  0  0  # atno 17370 bound_to 10713
  156.7364  130.4725  149.5487 LP  0  0  0  0  0  0  0  0  0  0  0  0  # atno 17371 bound_to 10713
  140.2701  134.8399  157.3839 LP  0  0  0  0  0  0  0  0  0  0  0  0  # atno 17394 bound_to 11000
  140.1529  134.4826  155.7948 LP  0  0  0  0  0  0  0  0  0  0  0  0  # atno 17395 bound_to 11000

$$$$
