#       Name:                AV-unprocessed.smi:6
#       Creating user name   scv26
#       Creation time:       Thu Mar 26 15:15:51 2020


#       File generated by GOLD software.
#

@<TRIPOS>MOLECULE
AV-unprocessed.smi:6
    43    44     1
SMALL
NO_CHARGES


@<TRIPOS>ATOM
      1 ****        -3.2522   2.5780  -0.9393 C.3            1 S1                 0.0000
      2 ****        -3.7378   1.4643   0.0009 C.3            1 S1                 0.0000
      3 ****        -3.5842   1.8235   1.4867 C.3            1 S1                 0.0000
      4 ****        -3.1014   0.1215  -0.3288 C.ar           1 S1                 0.0000
      5 ****        -3.8874  -0.8868  -0.7405 N.pl3          1 S1                 1.0000
      6 ****        -3.3374  -2.0901  -1.0352 C.ar           1 S1                 0.0000
      7 ****        -1.9499  -2.2882  -0.9117 C.ar           1 S1                 0.0000
      8 ****        -1.1851  -1.1909  -0.4800 C.ar           1 S1                 0.0000
      9 ****         0.2008  -1.3304  -0.3350 N.pl3          1 S1                 0.0000
     10 ****         1.0393  -0.1381  -0.3709 C.3            1 S1                 0.0000
     11 ****         2.5247  -0.4527  -0.2752 C.2            1 S1                 0.0000
     12 ****         3.2822  -0.0419   0.7633 C.2            1 S1                 0.0000
     13 ****         4.6581  -0.3119   0.8438 N.am           1 S1                 0.0000
     14 ****         5.3932   0.1700   2.0157 C.3            1 S1                 0.0000
     15 ****         5.2800  -1.0088  -0.1491 C.2            1 S1                 0.0000
     16 ****         6.4861  -1.2371  -0.0486 O.2            1 S1                 0.0000
     17 ****         4.5388  -1.4273  -1.2200 N.pl3          1 S1                -1.0000
     18 ****         3.2014  -1.1872  -1.3509 C.2            1 S1                 0.0000
     19 ****         2.5585  -1.5655  -2.3300 O.2            1 S1                 0.0000
     20 ****        -1.7736  -0.0083  -0.1933 N.ar           1 S1                 0.0000
     21 ****        -3.4369   2.3195  -1.9823 H              1 S1                 0.0000
     22 ****        -2.1828   2.7583  -0.8247 H              1 S1                 0.0000
     23 ****        -3.7690   3.5162  -0.7354 H              1 S1                 0.0000
     24 ****        -4.8091   1.3590  -0.1790 H              1 S1                 0.0000
     25 ****        -4.0052   1.0456   2.1242 H              1 S1                 0.0000
     26 ****        -4.0993   2.7556   1.7202 H              1 S1                 0.0000
     27 ****        -2.5358   1.9479   1.7607 H              1 S1                 0.0000
     28 ****        -4.0263  -2.8559  -1.3602 H              1 S1                 0.0000
     29 ****        -1.4953  -3.2408  -1.1425 H              1 S1                 0.0000
     30 ****         0.6156  -2.1793  -0.6933 H              1 S1                 0.0000
     31 ****         0.8524   0.4119  -1.2943 H              1 S1                 0.0000
     32 ****         0.7646   0.5199   0.4546 H              1 S1                 0.0000
     33 ****         2.8787   0.5173   1.5947 H              1 S1                 0.0000
     34 ****         6.2308   0.7999   1.7125 H              1 S1                 0.0000
     35 ****         5.7891  -0.6707   2.5871 H              1 S1                 0.0000
     36 ****         4.7699   0.7601   2.6882 H              1 S1                 0.0000
     37 ****        -4.8952  -0.7569  -0.8334 H              1 S1                 0.0000
     38 ****         6.9914  -0.9128   0.7511 LP             1 S1                 0.0000
     39 ****         6.9600  -1.7468  -0.7666 LP             1 S1                 0.0000
     40 ****         5.0015  -1.9364  -1.9458 LP             1 S1                 0.0000
     41 ****         1.5792  -1.3721  -2.3903 LP             1 S1                 0.0000
     42 ****         3.0155  -2.0662  -3.0651 LP             1 S1                 0.0000
     43 ****        -1.2219   0.7655   0.1181 LP             1 S1                 0.0000
@<TRIPOS>BOND
    1    1    2 1     
    2    1   21 1     
    3    1   22 1     
    4    1   23 1     
    5    2    3 1     
    6    2    4 1     
    7    2   24 1     
    8    3   25 1     
    9    3   26 1     
   10    3   27 1     
   11    4   20 ar    
   12    4    5 ar    
   13    5    6 ar    
   14    5   37 1     
   15    6    7 ar    
   16    6   28 1     
   17    7    8 ar    
   18    7   29 1     
   19    8    9 1     
   20    8   20 ar    
   21    9   10 1     
   22    9   30 1     
   23   10   11 1     
   24   10   31 1     
   25   10   32 1     
   26   11   18 1     
   27   11   12 2     
   28   12   13 1     
   29   12   33 1     
   30   13   14 1     
   31   13   15 am    
   32   14   34 1     
   33   14   35 1     
   34   14   36 1     
   35   15   16 2     
   36   15   17 1     
   37   17   18 1     
   38   18   19 2     
   39   16   38 1     
   40   16   39 1     
   41   17   40 1     
   42   19   41 1     
   43   19   42 1     
   44   20   43 1     
@<TRIPOS>SUBSTRUCTURE
      1 S1             1
@<TRIPOS>SET
LONE_PAIRS      STATIC     ATOMS    <user>   **** ""
6 38 39 40 41 42 43
DONOR_HYDROGENS      STATIC     ATOMS    <user>   **** ""
2 37 30
ATOM$BLUE        STATIC     ATOMS    COLORGROUP SYSTEM
6 38 39 40 41 42 43
ATOM$RED        STATIC     ATOMS    COLORGROUP SYSTEM
2 37 30
