AV-unprocessed.smi:1352|AV-procd|sdf|5530|dock7
  -GOLD-   22720 5123D 1   1.00000     0.00000
 Structure written by MMmdl.
 47 48  0  0  0  0  0  0  0  0  2 V2000
  154.2227  140.4100  160.5525 C   0  0  0  0  0  0  0  0  0  0  0  0
  153.3341  141.0896  159.5011 C   0  0  2  0  0  0  0  0  0  0  0  0
  153.0426  142.5528  159.8732 C   0  0  0  0  0  0  0  0  0  0  0  0
  152.1358  143.2095  158.8192 C   0  0  2  0  0  0  0  0  0  0  0  0
  151.8157  144.6661  159.1841 C   0  0  0  0  0  0  0  0  0  0  0  0
  150.8511  142.3799  158.6302 C   0  0  0  0  0  0  0  0  0  0  0  0
  151.1613  140.9728  158.2670 N   0  3  2  0  0  0  0  0  0  0  0  0
  149.9385  140.1955  157.9423 C   0  0  0  0  0  0  0  0  0  0  0  0
  150.2628  138.8022  157.3692 C   0  0  0  0  0  0  0  0  0  0  0  0
  149.1938  137.8483  157.6406 N   0  0  0  0  0  0  0  0  0  0  0  0
  149.3686  136.6270  158.1677 C   0  0  0  0  0  0  0  0  0  0  0  0
  150.4765  136.1738  158.4584 O   0  0  0  0  0  0  0  0  0  0  0  0
  148.0955  135.7934  158.3726 C   0  0  0  0  0  0  0  0  0  0  0  0
  148.1006  135.0164  159.6234 N   0  0  0  0  0  0  0  0  0  0  0  0
  148.2547  133.6202  159.5113 C   0  0  0  0  0  0  0  0  0  0  0  0
  148.2737  132.8191  160.5884 C   0  0  0  0  0  0  0  0  0  0  0  0
  148.1295  133.4238  161.8914 C   0  0  0  0  0  0  0  0  0  0  0  0
  147.9849  134.7587  162.0102 C   0  0  0  0  0  0  0  0  0  0  0  0
  147.9672  135.6386  160.8357 C   0  0  0  0  0  0  0  0  0  0  0  0
  147.8409  136.8595  160.9344 O   0  0  0  0  0  0  0  0  0  0  0  0
  152.0152  140.3199  159.2948 C   0  0  0  0  0  0  0  0  0  0  0  0
  153.7332  140.3803  161.5266 H   0  0  0  0  0  0  0  0  0  0  0  0
  155.1676  140.9415  160.6708 H   0  0  0  0  0  0  0  0  0  0  0  0
  154.4568  139.3843  160.2661 H   0  0  0  0  0  0  0  0  0  0  0  0
  153.8808  141.0829  158.5566 H   0  0  0  0  0  0  0  0  0  0  0  0
  152.5646  142.5976  160.8531 H   0  0  0  0  0  0  0  0  0  0  0  0
  153.9774  143.1086  159.9576 H   0  0  0  0  0  0  0  0  0  0  0  0
  152.6734  143.2201  157.8697 H   0  0  0  0  0  0  0  0  0  0  0  0
  151.2717  144.7290  160.1271 H   0  0  0  0  0  0  0  0  0  0  0  0
  151.2042  145.1392  158.4150 H   0  0  0  0  0  0  0  0  0  0  0  0
  152.7279  145.2549  159.2864 H   0  0  0  0  0  0  0  0  0  0  0  0
  150.2495  142.3957  159.5407 H   0  0  0  0  0  0  0  0  0  0  0  0
  150.2468  142.8338  157.8435 H   0  0  0  0  0  0  0  0  0  0  0  0
  149.3036  140.1150  158.8260 H   0  0  0  0  0  0  0  0  0  0  0  0
  149.3584  140.7437  157.1986 H   0  0  0  0  0  0  0  0  0  0  0  0
  150.4423  138.8635  156.2943 H   0  0  0  0  0  0  0  0  0  0  0  0
  151.1729  138.3998  157.8124 H   0  0  0  0  0  0  0  0  0  0  0  0
  148.2512  138.1423  157.4272 H   0  0  0  0  0  0  0  0  0  0  0  0
  147.2238  136.4506  158.3456 H   0  0  0  0  0  0  0  0  0  0  0  0
  147.9800  135.1326  157.5120 H   0  0  0  0  0  0  0  0  0  0  0  0
  148.3625  133.2475  158.5030 H   0  0  0  0  0  0  0  0  0  0  0  0
  148.3967  131.7510  160.4833 H   0  0  0  0  0  0  0  0  0  0  0  0
  148.1388  132.8027  162.7751 H   0  0  0  0  0  0  0  0  0  0  0  0
  147.8793  135.1936  162.9932 H   0  0  0  0  0  0  0  0  0  0  0  0
  152.2470  139.2985  158.9950 H   0  0  0  0  0  0  0  0  0  0  0  0
  151.4650  140.2539  160.2352 H   0  0  0  0  0  0  0  0  0  0  0  0
  151.7039  141.0179  157.4161 H   0  0  0  0  0  0  0  0  0  0  0  0
  1  2  1  0  0  0  0
  1 22  1  0  0  0  0
  1 23  1  0  0  0  0
  1 24  1  0  0  0  0
  2 21  1  0  0  0  0
  2  3  1  0  0  0  0
  2 25  1  0  0  0  0
  3  4  1  0  0  0  0
  3 26  1  0  0  0  0
  3 27  1  0  0  0  0
  4  5  1  0  0  0  0
  4  6  1  0  0  0  0
  4 28  1  0  0  0  0
  5 29  1  0  0  0  0
  5 30  1  0  0  0  0
  5 31  1  0  0  0  0
  6  7  1  0  0  0  0
  6 32  1  0  0  0  0
  6 33  1  0  0  0  0
  7  8  1  0  0  0  0
  7 21  1  0  0  0  0
  7 47  1  0  0  0  0
  8  9  1  0  0  0  0
  8 34  1  0  0  0  0
  8 35  1  0  0  0  0
  9 10  1  0  0  0  0
  9 36  1  0  0  0  0
  9 37  1  0  0  0  0
 10 11  1  0  0  0  0
 10 38  1  0  0  0  0
 11 12  2  0  0  0  0
 11 13  1  0  0  0  0
 13 14  1  0  0  0  0
 13 39  1  0  0  0  0
 13 40  1  0  0  0  0
 14 19  1  0  0  0  0
 14 15  1  0  0  0  0
 15 16  2  0  0  0  0
 15 41  1  0  0  0  0
 16 17  1  0  0  0  0
 16 42  1  0  0  0  0
 17 18  2  0  0  0  0
 17 43  1  0  0  0  0
 18 19  1  0  0  0  0
 18 44  1  0  0  0  0
 19 20  2  0  0  0  0
 21 45  1  0  0  0  0
 21 46  1  0  0  0  0
M  CHG  1   7   1
M  END
> <s_m_source_file>
AV-unprocessed.smi

> <i_m_source_file_index>
1352

> <i_lp_mmshare_version>
43012

> <i_f3d_flags>
0

> <s_epik_input>
W0NIM11bQ0BASF0xW0NIMl1bQ0BASF0oW0NIM10pW0NIMl1OKFtDSDJdMSlbQ0gyXVtDSDJdW05IXUMoPU8pW0NIMl1uMltjSF1bY0hdW2NIXVtjSF1jMj1P

> <s_epik_cmdline>
J2VwaWtfcHl0aG9uJywgJy1waCcsICc3LjAnLCAnLXRuJywgJzgnLCAnLW1hJywgJzIwMCcsICctbWV0YWxfYmluZGluZycsICctaW1hZScsICc8aW5maWxlLm1hZT4nLCAnLW9tYWUnLCAnPG91dGZpbGUubWFlPic=

> <r_lp_tautomer_probability>
1

> <r_epik_Ionization_Penalty>
0.00156146

> <r_epik_Ionization_Penalty_Charging>
0.00156138

> <r_epik_Ionization_Penalty_Neutral>
8.12891e-08

> <r_epik_State_Penalty>
0.00104868

> <r_epik_Charging_Adjusted_Penalty>
0.00261006

> <i_epik_Tot_Q>
1

> <i_epik_Tot_abs_Q>
1

> <r_epik_Metal_State_Penalty>
-0

> <b_epik_Metal_Only>
0

> <s_lp_Force_Field>
OPLS_2005

> <r_lp_Energy>
25.1883

> <b_lp_Chiralities_Consistent>
1

> <s_lp_Variant>
AV-unprocessed.smi:1352-3

> <Gold.Version>
5.8.1

> <Gold.Id.Protein>
6NUR|6NUR_protein|mol2

> <Gold.PLP.Fitness>
52.6043

> <Gold.PLP.PLP>
-45.8073

> <Gold.PLP.part.hbond>
-2.7971

> <Gold.PLP.part.metal>
0.0000

> <Gold.PLP.part.buried>
-4.6460

> <Gold.PLP.part.nonpolar>
-39.1609

> <Gold.PLP.part.repulsive>
0.2120

> <Gold.PLP.ligand.clash>
0.0000

> <Gold.PLP.ligand.torsion>
0.6353

> <Gold.PLP.Chemscore.Hbond>
2.6800

> <Gold.PLP.Chemscore.CHOScore>
0.0000

> <Gold.PLP.Chemscore.Metal>
0.0000

> <Gold.Chemscore.Hbonds>
donor molecule, donor type, donor heavy atom, donor atom, acceptor molecule, acceptor atom, score
      P1  H  6896  6907       L1    12  0.90
      P1  H  6931  6943       L1    20  0.89
      P1  H  6934  6947       L1    20  0.39

> <Gold.PLP.Chemscore.Internal.Correction>
0.0276

> <Gold.Rescore>
     Score         DG    S(hbond)    S(metal)    S(lipo)     H(rot)  DE(clash)    DE(int)     intcor
     21.40     -22.12       2.71        0.00     104.93       1.83       0.01       0.72       ----

> <Gold.Chemscore.Fitness>
21.3974

> <Gold.Chemscore.DG>
-22.1206

> <Gold.Chemscore.ZeroCoef>
-5.4800

> <Gold.Chemscore.Hbond>
2.7115

> <Gold.Chemscore.Metal>
0.0000

> <Gold.Chemscore.Lipo>
104.9257

> <Gold.Chemscore.Internal_Hbond>
0.0000

> <Gold.Chemscore.DEClash>
0.0060

> <Gold.Chemscore.DEInternal>
0.7172

> <Gold.Chemscore.Rot>
1.8329

> <Gold.Chemscore.Internal.Correction>
   9.000000E+99

> <Gold.Chemscore.Hbonds>
donor molecule, donor type, donor heavy atom, donor atom, acceptor molecule, acceptor atom, score
      P1  H  6896  6907       L1    12  0.88
      P1  H  6931  6943       L1    20  0.84
      P1  H  6934  6947       L1    20  0.38

> <Gold.Chemscore.Hbond.Weighted>
-9.0564

> <Gold.Chemscore.Metal.Weighted>
-0.0000

> <Gold.Chemscore.Lipo.Weighted>
-12.2763

> <Gold.Chemscore.Internal_Hbond.Weighted>
0.0000

> <Gold.Chemscore.DEClash.Weighted>
0.0060

> <Gold.Chemscore.DEInternal.Weighted>
0.7172

> <Gold.Chemscore.Rot.Weighted>
4.6922

> <Gold.Chemscore.Internal.Correction.Weighted>
   9.000000E+99

> <Gold.Protein.RotatedTorsions>
[ 6907 6896 6895 6894 ] final  -45.24 input  -60.11 | X-H torsion
[ 7974 7965 7964 7962 ] final -159.50 input  175.53 | X-H torsion
[ 8008 7997 7996 7995 ] final   -7.19 input   59.86 | X-H torsion
[ 10167 10162 10161 10158 ] final  -46.63 input  -65.29 | X-H torsion
[ 10718 10713 10712 10709 ] final -172.76 input   66.30 | X-H torsion
[ 10763 10752 10751 10750 ] final   17.76 input  -60.55 | X-H torsion
[ 11005 11000 10999 10996 ] final -161.70 input  -57.11 | X-H torsion

> <Gold.Protein.ActiveResidues>
 VAL166  LYS551  ARG553  GLY616  TRP617  ASP618  TYR619  PRO620  LYS621  CYS622 
 ASP623  PHE694  ASN695  SER759  ASP760  ASP761  ALA762  ILE779  LEU786  VAL792 
 PHE793  MET794  SER795  GLU796  ALA797  LYS798  CYS799  TRP800  GLU811  SER814 

> <Gold.Protein.RotatedAtoms>
  150.9241  134.8658  159.7507 H   0  0  0  0  0  0  0  0  0  0  0  0  # atno 6907 bound_to 6896
  152.5007  134.4175  159.9479 H   0  0  0  0  0  0  0  0  0  0  0  0  # atno 6908 bound_to 6896
  151.4207  133.3659  159.2791 H   0  0  0  0  0  0  0  0  0  0  0  0  # atno 6909 bound_to 6896
  144.7463  140.3676  143.6083 H   0  0  0  0  0  0  0  0  0  0  0  0  # atno 7974 bound_to 7965
  154.5863  140.2413  155.7983 H   0  0  0  0  0  0  0  0  0  0  0  0  # atno 8008 bound_to 7997
  156.2215  140.2996  155.9920 H   0  0  0  0  0  0  0  0  0  0  0  0  # atno 8009 bound_to 7997
  155.2452  140.0408  157.2970 H   0  0  0  0  0  0  0  0  0  0  0  0  # atno 8010 bound_to 7997
  140.6809  143.2822  151.3811 H   0  0  0  0  0  0  0  0  0  0  0  0  # atno 10167 bound_to 10162
  156.7603  130.9411  151.3117 H   0  0  0  0  0  0  0  0  0  0  0  0  # atno 10718 bound_to 10713
  153.1310  135.6740  153.9178 H   0  0  0  0  0  0  0  0  0  0  0  0  # atno 10763 bound_to 10752
  153.8665  135.3075  155.3441 H   0  0  0  0  0  0  0  0  0  0  0  0  # atno 10764 bound_to 10752
  154.7707  135.4941  153.9725 H   0  0  0  0  0  0  0  0  0  0  0  0  # atno 10765 bound_to 10752
  140.6175  134.4785  157.5221 H   0  0  0  0  0  0  0  0  0  0  0  0  # atno 11005 bound_to 11000
  145.7111  139.1685  143.2538 LP  0  0  0  0  0  0  0  0  0  0  0  0  # atno 17320 bound_to 7965
  146.1346  140.7140  142.9396 LP  0  0  0  0  0  0  0  0  0  0  0  0  # atno 17321 bound_to 7965
  139.6131  144.1057  152.2319 LP  0  0  0  0  0  0  0  0  0  0  0  0  # atno 17342 bound_to 10162
  140.0478  144.5957  150.7360 LP  0  0  0  0  0  0  0  0  0  0  0  0  # atno 17343 bound_to 10162
  157.6737  130.9075  150.0101 LP  0  0  0  0  0  0  0  0  0  0  0  0  # atno 17370 bound_to 10713
  156.1343  130.3643  149.9681 LP  0  0  0  0  0  0  0  0  0  0  0  0  # atno 17371 bound_to 10713
  139.9167  134.8232  156.1344 LP  0  0  0  0  0  0  0  0  0  0  0  0  # atno 17394 bound_to 11000
  141.0765  133.6773  156.2247 LP  0  0  0  0  0  0  0  0  0  0  0  0  # atno 17395 bound_to 11000

$$$$
