AV-unprocessed.smi:1671|AV-procd|sdf|6698|dock9
  -GOLD-   22720 7433D 1   1.00000     0.00000
 Structure written by MMmdl.
 44 45  0  0  0  0  0  0  0  0  1 V2000
  147.9412  132.7126  154.0499 C   0  0  0  0  0  0  0  0  0  0  0  0
  149.5909  133.4270  154.2878 S   0  0  0  0  0  0  0  0  0  0  0  0
  149.1658  135.0584  154.9676 C   0  0  1  0  0  0  0  0  0  0  0  0
  148.6653  134.9179  156.4138 C   0  0  0  0  0  0  0  0  0  0  0  0
  150.3428  136.0379  154.8831 C   0  0  0  0  0  0  0  0  0  0  0  0
  151.3779  135.8235  155.5149 O   0  0  0  0  0  0  0  0  0  0  0  0
  150.1734  137.1108  154.0944 N   0  0  0  0  0  0  0  0  0  0  0  0
  151.1680  138.1576  153.8827 C   0  0  0  0  0  0  0  0  0  0  0  0
  151.3222  139.1258  155.0477 C   0  0  0  0  0  0  0  0  0  0  0  0
  150.5061  140.2678  155.1898 C   0  0  0  0  0  0  0  0  0  0  0  0
  150.7082  141.1200  156.2919 C   0  0  0  0  0  0  0  0  0  0  0  0
  151.7252  140.8120  157.2267 C   0  0  0  0  0  0  0  0  0  0  0  0
  151.9409  141.6495  158.3430 N   0  0  0  0  0  0  0  0  0  0  0  0
  153.0055  141.2307  159.2510 C   0  0  0  0  0  0  0  0  0  0  0  0
  152.9363  142.0324  160.5614 C   0  0  0  0  0  0  0  0  0  0  0  0
  152.9674  143.4269  160.2757 O   0  0  0  0  0  0  0  0  0  0  0  0
  151.8577  143.8371  159.4820 C   0  0  1  0  0  0  0  0  0  0  0  0
  151.9280  145.3575  159.3049 C   0  0  0  0  0  0  0  0  0  0  0  0
  151.8994  143.0955  158.1324 C   0  0  0  0  0  0  0  0  0  0  0  0
  152.5177  139.7218  157.0774 N   0  0  0  0  0  0  0  0  0  0  0  0
  152.3182  138.9069  156.0204 C   0  0  0  0  0  0  0  0  0  0  0  0
  148.0269  131.6913  153.6794 H   0  0  0  0  0  0  0  0  0  0  0  0
  147.3692  133.2919  153.3254 H   0  0  0  0  0  0  0  0  0  0  0  0
  147.3939  132.6928  154.9924 H   0  0  0  0  0  0  0  0  0  0  0  0
  148.3399  135.4511  154.3725 H   0  0  0  0  0  0  0  0  0  0  0  0
  148.4173  135.8888  156.8445 H   0  0  0  0  0  0  0  0  0  0  0  0
  149.4134  134.4490  157.0544 H   0  0  0  0  0  0  0  0  0  0  0  0
  147.7657  134.3034  156.4549 H   0  0  0  0  0  0  0  0  0  0  0  0
  149.2945  137.2092  153.6070 H   0  0  0  0  0  0  0  0  0  0  0  0
  152.1329  137.7031  153.6510 H   0  0  0  0  0  0  0  0  0  0  0  0
  150.8780  138.7285  153.0007 H   0  0  0  0  0  0  0  0  0  0  0  0
  149.7359  140.4969  154.4681 H   0  0  0  0  0  0  0  0  0  0  0  0
  150.0936  142.0015  156.3985 H   0  0  0  0  0  0  0  0  0  0  0  0
  152.9470  140.1682  159.4831 H   0  0  0  0  0  0  0  0  0  0  0  0
  153.9673  141.3962  158.7637 H   0  0  0  0  0  0  0  0  0  0  0  0
  152.0336  141.7842  161.1221 H   0  0  0  0  0  0  0  0  0  0  0  0
  153.7847  141.7825  161.1986 H   0  0  0  0  0  0  0  0  0  0  0  0
  150.9325  143.5919  160.0067 H   0  0  0  0  0  0  0  0  0  0  0  0
  151.0917  145.7222  158.7079 H   0  0  0  0  0  0  0  0  0  0  0  0
  152.8504  145.6546  158.8054 H   0  0  0  0  0  0  0  0  0  0  0  0
  151.8934  145.8642  160.2697 H   0  0  0  0  0  0  0  0  0  0  0  0
  152.7777  143.4008  157.5616 H   0  0  0  0  0  0  0  0  0  0  0  0
  151.0196  143.3640  157.5461 H   0  0  0  0  0  0  0  0  0  0  0  0
  152.9756  138.0527  155.9508 H   0  0  0  0  0  0  0  0  0  0  0  0
  1  2  1  0  0  0  0
  1 22  1  0  0  0  0
  1 23  1  0  0  0  0
  1 24  1  0  0  0  0
  2  3  1  0  0  0  0
  3  4  1  0  0  0  0
  3  5  1  0  0  0  0
  3 25  1  0  0  0  0
  4 26  1  0  0  0  0
  4 27  1  0  0  0  0
  4 28  1  0  0  0  0
  5  6  2  0  0  0  0
  5  7  1  0  0  0  0
  7  8  1  0  0  0  0
  7 29  1  0  0  0  0
  8  9  1  0  0  0  0
  8 30  1  0  0  0  0
  8 31  1  0  0  0  0
  9 21  1  0  0  0  0
  9 10  2  0  0  0  0
 10 11  1  0  0  0  0
 10 32  1  0  0  0  0
 11 12  2  0  0  0  0
 11 33  1  0  0  0  0
 12 13  1  0  0  0  0
 12 20  1  0  0  0  0
 13 19  1  0  0  0  0
 13 14  1  0  0  0  0
 14 15  1  0  0  0  0
 14 34  1  0  0  0  0
 14 35  1  0  0  0  0
 15 16  1  0  0  0  0
 15 36  1  0  0  0  0
 15 37  1  0  0  0  0
 16 17  1  0  0  0  0
 17 18  1  0  0  0  0
 17 19  1  0  0  0  0
 17 38  1  0  0  0  0
 18 39  1  0  0  0  0
 18 40  1  0  0  0  0
 18 41  1  0  0  0  0
 19 42  1  0  0  0  0
 19 43  1  0  0  0  0
 20 21  2  0  0  0  0
 21 44  1  0  0  0  0
M  END
> <s_m_source_file>
AV-unprocessed.smi

> <i_m_source_file_index>
1671

> <i_lp_mmshare_version>
43012

> <i_f3d_flags>
0

> <s_epik_input>
W0NIM11TW0NASF0oW0NIM10pQyg9TylbTkhdW0NIMl1jMVtjSF1bY0hdYyhuW2NIXTEpTjJbQ0gyXVtDSDJdT1tDQEBIXShbQ0gzXSlbQ0gyXTI=

> <s_epik_cmdline>
J2VwaWtfcHl0aG9uJywgJy1waCcsICc3LjAnLCAnLXRuJywgJzgnLCAnLW1hJywgJzIwMCcsICctbWV0YWxfYmluZGluZycsICctaW1hZScsICc8aW5maWxlLm1hZT4nLCAnLW9tYWUnLCAnPG91dGZpbGUubWFlPic=

> <r_lp_tautomer_probability>
1

> <r_epik_Ionization_Penalty>
0.00480033

> <r_epik_Ionization_Penalty_Charging>
0

> <r_epik_Ionization_Penalty_Neutral>
0.00480033

> <r_epik_State_Penalty>
0.00347981

> <r_epik_Charging_Adjusted_Penalty>
0.00347981

> <i_epik_Tot_Q>
0

> <i_epik_Tot_abs_Q>
0

> <r_epik_Metal_State_Penalty>
-0

> <b_epik_Metal_Only>
0

> <s_lp_Force_Field>
OPLS_2005

> <r_lp_Energy>
15.4739

> <b_lp_Chiralities_Consistent>
1

> <s_lp_Variant>
AV-unprocessed.smi:1671-2

> <Gold.Version>
5.8.1

> <Gold.Id.Protein>
6NUR|6NUR_protein|mol2

> <Gold.PLP.Fitness>
49.7144

> <Gold.PLP.PLP>
-43.6922

> <Gold.PLP.part.hbond>
-4.0000

> <Gold.PLP.part.metal>
0.0000

> <Gold.PLP.part.buried>
-3.9626

> <Gold.PLP.part.nonpolar>
-36.3410

> <Gold.PLP.part.repulsive>
0.1224

> <Gold.PLP.ligand.clash>
0.0000

> <Gold.PLP.ligand.torsion>
0.8177

> <Gold.PLP.Chemscore.Hbond>
2.4304

> <Gold.PLP.Chemscore.CHOScore>
0.0000

> <Gold.PLP.Chemscore.Metal>
0.0000

> <Gold.Chemscore.Hbonds>
donor molecule, donor type, donor heavy atom, donor atom, acceptor molecule, acceptor atom, score
      L1  H     7    29       P1  7948  0.40
      P1  H  7997  8010       L1    20  1.00
      P1  H 10752 10763       L1     6  1.00

> <Gold.PLP.Chemscore.Internal.Correction>
0.3664

> <Gold.Rescore>
     Score         DG    S(hbond)    S(metal)    S(lipo)     H(rot)  DE(clash)    DE(int)     intcor
     19.15     -20.11       1.76        0.00     110.32       1.63       0.18       0.78       ----

> <Gold.Chemscore.Fitness>
19.1450

> <Gold.Chemscore.DG>
-20.1098

> <Gold.Chemscore.ZeroCoef>
-5.4800

> <Gold.Chemscore.Hbond>
1.7628

> <Gold.Chemscore.Metal>
0.0000

> <Gold.Chemscore.Lipo>
110.3224

> <Gold.Chemscore.Internal_Hbond>
0.0000

> <Gold.Chemscore.DEClash>
0.1813

> <Gold.Chemscore.DEInternal>
0.7835

> <Gold.Chemscore.Rot>
1.6272

> <Gold.Chemscore.Internal.Correction>
   9.000000E+99

> <Gold.Chemscore.Hbonds>
donor molecule, donor type, donor heavy atom, donor atom, acceptor molecule, acceptor atom, score
      L1  H     7    29       P1  7948  0.38
      P1  H  7997  8010       L1    20  0.22
      P1  H 10752 10763       L1     6  1.00

> <Gold.Chemscore.Hbond.Weighted>
-5.8878

> <Gold.Chemscore.Metal.Weighted>
-0.0000

> <Gold.Chemscore.Lipo.Weighted>
-12.9077

> <Gold.Chemscore.Internal_Hbond.Weighted>
0.0000

> <Gold.Chemscore.DEClash.Weighted>
0.1813

> <Gold.Chemscore.DEInternal.Weighted>
0.7835

> <Gold.Chemscore.Rot.Weighted>
4.1657

> <Gold.Chemscore.Internal.Correction.Weighted>
   9.000000E+99

> <Gold.Protein.RotatedTorsions>
[ 6907 6896 6895 6894 ] final  -61.45 input  -60.11 | X-H torsion
[ 7974 7965 7964 7962 ] final  164.15 input  175.53 | X-H torsion
[ 8008 7997 7996 7995 ] final   42.45 input   59.86 | X-H torsion
[ 10167 10162 10161 10158 ] final  -55.95 input  -65.29 | X-H torsion
[ 10718 10713 10712 10709 ] final   13.06 input   66.30 | X-H torsion
[ 10763 10752 10751 10750 ] final   68.55 input  -60.55 | X-H torsion
[ 11005 11000 10999 10996 ] final -172.62 input  -57.11 | X-H torsion

> <Gold.Protein.ActiveResidues>
 VAL166  LYS551  ARG553  GLY616  TRP617  ASP618  TYR619  PRO620  LYS621  CYS622 
 ASP623  PHE694  ASN695  SER759  ASP760  ASP761  ALA762  ILE779  LEU786  VAL792 
 PHE793  MET794  SER795  GLU796  ALA797  LYS798  CYS799  TRP800  GLU811  SER814 

> <Gold.Protein.RotatedAtoms>
  150.7784  134.6703  159.6387 H   0  0  0  0  0  0  0  0  0  0  0  0  # atno 6907 bound_to 6896
  152.3861  134.6512  160.0134 H   0  0  0  0  0  0  0  0  0  0  0  0  # atno 6908 bound_to 6896
  151.6827  133.3275  159.3260 H   0  0  0  0  0  0  0  0  0  0  0  0  # atno 6909 bound_to 6896
  144.7557  139.8285  143.6350 H   0  0  0  0  0  0  0  0  0  0  0  0  # atno 7974 bound_to 7965
  155.2864  140.3376  155.4255 H   0  0  0  0  0  0  0  0  0  0  0  0  # atno 8008 bound_to 7997
  156.2066  140.1753  156.7826 H   0  0  0  0  0  0  0  0  0  0  0  0  # atno 8009 bound_to 7997
  154.5629  140.0684  156.8831 H   0  0  0  0  0  0  0  0  0  0  0  0  # atno 8010 bound_to 7997
  140.6345  143.2475  151.5154 H   0  0  0  0  0  0  0  0  0  0  0  0  # atno 10167 bound_to 10162
  157.0192  130.6148  149.5718 H   0  0  0  0  0  0  0  0  0  0  0  0  # atno 10718 bound_to 10713
  153.0241  135.5243  154.7152 H   0  0  0  0  0  0  0  0  0  0  0  0  # atno 10763 bound_to 10752
  154.6223  135.2890  155.0314 H   0  0  0  0  0  0  0  0  0  0  0  0  # atno 10764 bound_to 10752
  154.1296  135.6595  153.4972 H   0  0  0  0  0  0  0  0  0  0  0  0  # atno 10765 bound_to 10752
  140.4949  134.5949  157.4967 H   0  0  0  0  0  0  0  0  0  0  0  0  # atno 11005 bound_to 11000
  146.1565  139.4665  143.0015 LP  0  0  0  0  0  0  0  0  0  0  0  0  # atno 17320 bound_to 7965
  145.6786  141.0197  143.1618 LP  0  0  0  0  0  0  0  0  0  0  0  0  # atno 17321 bound_to 7965
  139.5556  144.2283  152.1607 LP  0  0  0  0  0  0  0  0  0  0  0  0  # atno 17342 bound_to 10162
  140.1536  144.5091  150.6673 LP  0  0  0  0  0  0  0  0  0  0  0  0  # atno 17343 bound_to 10162
  156.0108  130.5199  150.7982 LP  0  0  0  0  0  0  0  0  0  0  0  0  # atno 17370 bound_to 10713
  157.5262  131.0934  151.0014 LP  0  0  0  0  0  0  0  0  0  0  0  0  # atno 17371 bound_to 10713
  139.9747  134.7235  155.9972 LP  0  0  0  0  0  0  0  0  0  0  0  0  # atno 17394 bound_to 11000
  141.1465  133.6555  156.3884 LP  0  0  0  0  0  0  0  0  0  0  0  0  # atno 17395 bound_to 11000

$$$$
