#       Name:                AV-unprocessed.smi:2226
#       Creating user name   scv26
#       Creation time:       Fri Mar 27 12:21:26 2020


#       File generated by GOLD software.
#

@<TRIPOS>MOLECULE
AV-unprocessed.smi:2226
    45    47     1
SMALL
NO_CHARGES


@<TRIPOS>ATOM
      1 ****        -1.8292  -3.3077   0.0008 C.3            1 S1                 0.0000
      2 ****        -2.4850  -1.9785   0.0003 N.4            1 S1                 1.0000
      3 ****        -2.2457  -1.1639  -1.2159 C.3            1 S1                 0.0000
      4 ****        -3.3122  -0.0453  -1.2839 C.3            1 S1                 0.0000
      5 ****        -3.4108   0.8056  -0.0006 C.3            1 S1                 0.0000
      6 ****        -3.3122  -0.0444   1.2833 C.3            1 S1                 0.0000
      7 ****        -2.2458  -1.1631   1.2161 C.3            1 S1                 0.0000
      8 ****        -0.7780  -0.6691   1.2844 C.3            1 S1                 0.0000
      9 ****        -0.2748   0.0287  -0.0002 C.3            1 S1                 0.0000
     10 ****         1.1887   0.0559  -0.0002 N.am           1 S1                 0.0000
     11 ****         1.9533   1.1601  -0.0001 C.2            1 S1                 0.0000
     12 ****         1.5031   2.3060   0.0001 O.2            1 S1                 0.0000
     13 ****         3.2613   0.8584   0.0000 N.am           1 S1                 0.0000
     14 ****         4.3223   1.7938   0.0000 C.2            1 S1                 0.0000
     15 ****         5.6117   1.4588   0.0000 N.pl3          1 S1                 1.0000
     16 ****         6.3651   2.6065   0.0000 C.2            1 S1                 0.0000
     17 ****         5.4645   3.6445   0.0000 C.2            1 S1                 0.0000
     18 ****         4.1758   3.1494   0.0000 O.3            1 S1                 0.0000
     19 ****        -0.7780  -0.6699  -1.2844 C.3            1 S1                 0.0000
     20 ****        -0.7422  -3.2332   0.0007 H              1 S1                 0.0000
     21 ****        -2.1288  -3.8785  -0.8784 H              1 S1                 0.0000
     22 ****        -2.1287  -3.8779   0.8805 H              1 S1                 0.0000
     23 ****        -2.4141  -1.8032  -2.0840 H              1 S1                 0.0000
     24 ****        -3.1363   0.5980  -2.1468 H              1 S1                 0.0000
     25 ****        -4.2831  -0.5123  -1.4554 H              1 S1                 0.0000
     26 ****        -2.6514   1.5824  -0.0009 H              1 S1                 0.0000
     27 ****        -4.3545   1.3524  -0.0008 H              1 S1                 0.0000
     28 ****        -3.1364   0.5995   2.1457 H              1 S1                 0.0000
     29 ****        -4.2831  -0.5113   1.4551 H              1 S1                 0.0000
     30 ****        -2.4142  -1.8018   2.0846 H              1 S1                 0.0000
     31 ****        -0.6486  -0.0047   2.1396 H              1 S1                 0.0000
     32 ****        -0.1417  -1.5304   1.4922 H              1 S1                 0.0000
     33 ****        -0.6437   1.0504  -0.0006 H              1 S1                 0.0000
     34 ****         1.6541  -0.8403  -0.0003 H              1 S1                 0.0000
     35 ****         6.0120   0.5289   0.0000 H              1 S1                 0.0000
     36 ****         7.4452   2.5716   0.0000 H              1 S1                 0.0000
     37 ****         5.5656   4.7202   0.0000 H              1 S1                 0.0000
     38 ****        -0.1416  -1.5313  -1.4917 H              1 S1                 0.0000
     39 ****        -0.6485  -0.0060  -2.1400 H              1 S1                 0.0000
     40 ****        -3.4745  -2.1829   0.0004 H              1 S1                 0.0000
     41 ****         3.5203  -0.1170  -0.0001 H              1 S1                 0.0000
     42 ****         0.5142   2.4547   0.0002 LP             1 S1                 0.0000
     43 ****         2.1263   3.0881   0.0002 LP             1 S1                 0.0000
     44 ****         3.6830   3.4503   0.8165 LP             1 S1                 0.0000
     45 ****         3.6830   3.4503  -0.8165 LP             1 S1                 0.0000
@<TRIPOS>BOND
    1    1    2 1     
    2    1   20 1     
    3    1   21 1     
    4    1   22 1     
    5    2    7 1     
    6    2    3 1     
    7    2   40 1     
    8    3   19 1     
    9    3    4 1     
   10    3   23 1     
   11    4    5 1     
   12    4   24 1     
   13    4   25 1     
   14    5    6 1     
   15    5   26 1     
   16    5   27 1     
   17    6    7 1     
   18    6   28 1     
   19    6   29 1     
   20    7    8 1     
   21    7   30 1     
   22    8    9 1     
   23    8   31 1     
   24    8   32 1     
   25    9   10 1     
   26    9   19 1     
   27    9   33 1     
   28   10   34 1     
   29   10   11 am    
   30   11   13 am    
   31   11   12 2     
   32   13   14 1     
   33   13   41 1     
   34   14   18 1     
   35   14   15 2     
   36   15   35 1     
   37   15   16 1     
   38   16   36 1     
   39   16   17 2     
   40   17   37 1     
   41   17   18 1     
   42   19   38 1     
   43   19   39 1     
   44   12   42 1     
   45   12   43 1     
   46   18   44 1     
   47   18   45 1     
@<TRIPOS>SUBSTRUCTURE
      1 S1             1
@<TRIPOS>SET
LONE_PAIRS      STATIC     ATOMS    <user>   **** ""
4 42 43 44 45
DONOR_HYDROGENS      STATIC     ATOMS    <user>   **** ""
4 40 34 41 35
ATOM$BLUE        STATIC     ATOMS    COLORGROUP SYSTEM
4 42 43 44 45
ATOM$RED        STATIC     ATOMS    COLORGROUP SYSTEM
4 40 34 41 35
