AV-unprocessed.smi:1543|AV-procd|sdf|6208|dock6
  -GOLD-   22720 6383D 1   1.00000     0.00000
 Structure written by MMmdl.
 49 50  0  0  0  0  0  0  0  0  2 V2000
  151.9202  138.2545  154.0857 C   0  0  0  0  0  0  0  0  0  0  0  0
  150.7436  138.9525  154.7770 C   0  0  2  0  0  0  0  0  0  0  0  0
  149.3956  138.5833  154.1320 C   0  0  0  0  0  0  0  0  0  0  0  0
  148.2847  139.3367  154.7765 N   0  3  2  0  0  0  0  0  0  0  0  0
  146.8899  138.9011  154.4050 C   0  0  0  0  0  0  0  0  0  0  0  0
  145.8491  139.7688  155.1564 C   0  0  0  0  0  0  0  0  0  0  0  0
  146.6550  139.1642  152.8960 C   0  0  0  0  0  0  0  0  0  0  0  0
  146.6599  137.3970  154.7418 C   0  0  0  0  0  0  0  0  0  0  0  0
  146.9328  136.4982  153.6205 N   0  0  0  0  0  0  0  0  0  0  0  0
  146.0509  135.6543  153.0655 C   0  0  0  0  0  0  0  0  0  0  0  0
  144.8891  135.5357  153.4536 O   0  0  0  0  0  0  0  0  0  0  0  0
  146.6019  134.9819  152.0406 N   0  0  0  0  0  0  0  0  0  0  0  0
  146.0125  133.9866  151.2151 C   0  0  0  0  0  0  0  0  0  0  0  0
  144.6196  133.8515  150.9979 C   0  0  0  0  0  0  0  0  0  0  0  0
  144.1590  132.8086  150.1714 C   0  0  0  0  0  0  0  0  0  0  0  0
  145.1043  131.9357  149.5990 C   0  0  0  0  0  0  0  0  0  0  0  0
  146.4332  132.0446  149.8080 N   0  0  0  0  0  0  0  0  0  0  0  0
  146.8676  133.0464  150.6016 C   0  0  0  0  0  0  0  0  0  0  0  0
  148.5577  140.7983  154.6717 C   0  0  0  0  0  0  0  0  0  0  0  0
  149.9300  141.1538  155.2753 C   0  0  1  0  0  0  0  0  0  0  0  0
  149.9607  141.0909  156.8130 C   0  0  0  0  0  0  0  0  0  0  0  0
  150.9516  140.3576  154.6786 O   0  0  0  0  0  0  0  0  0  0  0  0
  151.8214  137.1701  154.1405 H   0  0  0  0  0  0  0  0  0  0  0  0
  152.8651  138.5251  154.5574 H   0  0  0  0  0  0  0  0  0  0  0  0
  151.9821  138.5324  153.0331 H   0  0  0  0  0  0  0  0  0  0  0  0
  150.7430  138.6516  155.8248 H   0  0  0  0  0  0  0  0  0  0  0  0
  149.4264  138.8022  153.0641 H   0  0  0  0  0  0  0  0  0  0  0  0
  149.2642  137.5081  154.2355 H   0  0  0  0  0  0  0  0  0  0  0  0
  144.8434  139.6284  154.7585 H   0  0  0  0  0  0  0  0  0  0  0  0
  146.0803  140.8310  155.0701 H   0  0  0  0  0  0  0  0  0  0  0  0
  145.7885  139.5213  156.2160 H   0  0  0  0  0  0  0  0  0  0  0  0
  145.6022  139.0724  152.6275 H   0  0  0  0  0  0  0  0  0  0  0  0
  147.1894  138.4568  152.2624 H   0  0  0  0  0  0  0  0  0  0  0  0
  146.9671  140.1707  152.6145 H   0  0  0  0  0  0  0  0  0  0  0  0
  147.2521  137.0932  155.6052 H   0  0  0  0  0  0  0  0  0  0  0  0
  145.6209  137.2266  155.0218 H   0  0  0  0  0  0  0  0  0  0  0  0
  147.8642  136.5301  153.2318 H   0  0  0  0  0  0  0  0  0  0  0  0
  147.5423  135.2487  151.7883 H   0  0  0  0  0  0  0  0  0  0  0  0
  143.8989  134.5114  151.4550 H   0  0  0  0  0  0  0  0  0  0  0  0
  143.1035  132.6781  149.9840 H   0  0  0  0  0  0  0  0  0  0  0  0
  144.7842  131.1254  148.9610 H   0  0  0  0  0  0  0  0  0  0  0  0
  147.9365  133.1007  150.7487 H   0  0  0  0  0  0  0  0  0  0  0  0
  148.5476  141.0989  153.6239 H   0  0  0  0  0  0  0  0  0  0  0  0
  147.8010  141.3949  155.1770 H   0  0  0  0  0  0  0  0  0  0  0  0
  150.1549  142.1845  154.9995 H   0  0  0  0  0  0  0  0  0  0  0  0
  149.2631  141.8103  157.2427 H   0  0  0  0  0  0  0  0  0  0  0  0
  150.9545  141.3305  157.1923 H   0  0  0  0  0  0  0  0  0  0  0  0
  149.6853  140.1078  157.1937 H   0  0  0  0  0  0  0  0  0  0  0  0
  148.3607  139.1251  155.7612 H   0  0  0  0  0  0  0  0  0  0  0  0
  1  2  1  0  0  0  0
  1 23  1  0  0  0  0
  1 24  1  0  0  0  0
  1 25  1  0  0  0  0
  2 22  1  0  0  0  0
  2  3  1  0  0  0  0
  2 26  1  0  0  0  0
  3  4  1  0  0  0  0
  3 27  1  0  0  0  0
  3 28  1  0  0  0  0
  4  5  1  0  0  0  0
  4 19  1  0  0  0  0
  4 49  1  0  0  0  0
  5  6  1  0  0  0  0
  5  7  1  0  0  0  0
  5  8  1  0  0  0  0
  6 29  1  0  0  0  0
  6 30  1  0  0  0  0
  6 31  1  0  0  0  0
  7 32  1  0  0  0  0
  7 33  1  0  0  0  0
  7 34  1  0  0  0  0
  8  9  1  0  0  0  0
  8 35  1  0  0  0  0
  8 36  1  0  0  0  0
  9 10  1  0  0  0  0
  9 37  1  0  0  0  0
 10 11  2  0  0  0  0
 10 12  1  0  0  0  0
 12 13  1  0  0  0  0
 12 38  1  0  0  0  0
 13 18  1  0  0  0  0
 13 14  2  0  0  0  0
 14 15  1  0  0  0  0
 14 39  1  0  0  0  0
 15 16  2  0  0  0  0
 15 40  1  0  0  0  0
 16 17  1  0  0  0  0
 16 41  1  0  0  0  0
 17 18  2  0  0  0  0
 18 42  1  0  0  0  0
 19 20  1  0  0  0  0
 19 43  1  0  0  0  0
 19 44  1  0  0  0  0
 20 21  1  0  0  0  0
 20 22  1  0  0  0  0
 20 45  1  0  0  0  0
 21 46  1  0  0  0  0
 21 47  1  0  0  0  0
 21 48  1  0  0  0  0
M  CHG  1   4   1
M  END
> <s_m_source_file>
AV-unprocessed.smi

> <i_m_source_file_index>
1543

> <i_lp_mmshare_version>
43012

> <i_f3d_flags>
0

> <s_epik_input>
W0NIM11bQ0BASF0xW0NIMl1OKFtDSDJdW0NASF0oTzEpW0NIM10pQyhbQ0gzXSkoW0NIM10pW0NIMl1bTkhdQyg9TylbTkhdYzJbY0hdW2NIXVtjSF1uW2NIXTI=

> <s_epik_cmdline>
J2VwaWtfcHl0aG9uJywgJy1waCcsICc3LjAnLCAnLXRuJywgJzgnLCAnLW1hJywgJzIwMCcsICctbWV0YWxfYmluZGluZycsICctaW1hZScsICc8aW5maWxlLm1hZT4nLCAnLW9tYWUnLCAnPG91dGZpbGUubWFlPic=

> <r_epik_Ionization_Penalty>
0.60676

> <r_epik_Ionization_Penalty_Charging>
0.602531

> <r_epik_Ionization_Penalty_Neutral>
0.00422967

> <r_epik_State_Penalty>
0.607492

> <r_epik_Charging_Adjusted_Penalty>
1.21002

> <i_epik_Tot_Q>
1

> <i_epik_Tot_abs_Q>
1

> <r_epik_Metal_State_Penalty>
0.604589

> <b_epik_Metal_Only>
0

> <s_lp_Force_Field>
OPLS_2005

> <r_lp_Energy>
30.3839

> <b_lp_Chiralities_Consistent>
1

> <s_lp_Variant>
AV-unprocessed.smi:1543-4

> <Gold.Version>
5.8.1

> <Gold.Id.Protein>
6NUR|6NUR_protein|mol2

> <Gold.PLP.Fitness>
45.3477

> <Gold.PLP.PLP>
-36.0798

> <Gold.PLP.part.hbond>
-2.9744

> <Gold.PLP.part.metal>
0.0000

> <Gold.PLP.part.buried>
-4.1425

> <Gold.PLP.part.nonpolar>
-30.4692

> <Gold.PLP.part.repulsive>
0.7967

> <Gold.PLP.ligand.clash>
0.0000

> <Gold.PLP.ligand.torsion>
0.8485

> <Gold.PLP.Chemscore.Hbond>
2.9920

> <Gold.PLP.Chemscore.CHOScore>
0.6253

> <Gold.PLP.Chemscore.Metal>
0.0000

> <Gold.Chemscore.Hbonds>
donor molecule, donor type, donor heavy atom, donor atom, acceptor molecule, acceptor atom, score
      L1  H     9    37       P1  7948  0.98
      L1  H    12    38       P1  7948  1.00
      P1  H  7989  7998       L1    22  0.81
      L1  C    18    42       P1 10747  0.61

> <Gold.PLP.Chemscore.Internal.Correction>
0.1130

> <Gold.Rescore>
     Score         DG    S(hbond)    S(metal)    S(lipo)     H(rot)  DE(clash)    DE(int)     intcor
     18.09     -20.41       2.49        0.00      88.61       1.46       0.20       2.11       ----

> <Gold.Chemscore.Fitness>
18.0899

> <Gold.Chemscore.DG>
-20.4054

> <Gold.Chemscore.ZeroCoef>
-5.4800

> <Gold.Chemscore.Hbond>
2.4861

> <Gold.Chemscore.Metal>
0.0000

> <Gold.Chemscore.Lipo>
88.6122

> <Gold.Chemscore.Internal_Hbond>
0.0000

> <Gold.Chemscore.DEClash>
0.2026

> <Gold.Chemscore.DEInternal>
2.1129

> <Gold.Chemscore.Rot>
1.4632

> <Gold.Chemscore.Internal.Correction>
   9.000000E+99

> <Gold.Chemscore.Hbonds>
donor molecule, donor type, donor heavy atom, donor atom, acceptor molecule, acceptor atom, score
      L1  H     9    37       P1  7948  0.93
      L1  H    12    38       P1  7948  0.92
      P1  H  7989  7998       L1    22  0.74

> <Gold.Chemscore.Hbond.Weighted>
-8.3037

> <Gold.Chemscore.Metal.Weighted>
-0.0000

> <Gold.Chemscore.Lipo.Weighted>
-10.3676

> <Gold.Chemscore.Internal_Hbond.Weighted>
0.0000

> <Gold.Chemscore.DEClash.Weighted>
0.2026

> <Gold.Chemscore.DEInternal.Weighted>
2.1129

> <Gold.Chemscore.Rot.Weighted>
3.7459

> <Gold.Chemscore.Internal.Correction.Weighted>
   9.000000E+99

> <Gold.Protein.RotatedTorsions>
[ 6907 6896 6895 6894 ] final   66.10 input  -60.11 | X-H torsion
[ 7974 7965 7964 7962 ] final  -95.90 input  175.53 | X-H torsion
[ 8008 7997 7996 7995 ] final  -91.83 input   59.86 | X-H torsion
[ 10167 10162 10161 10158 ] final  100.69 input  -65.29 | X-H torsion
[ 10718 10713 10712 10709 ] final   82.75 input   66.30 | X-H torsion
[ 10763 10752 10751 10750 ] final   67.31 input  -60.55 | X-H torsion
[ 11005 11000 10999 10996 ] final   38.93 input  -57.11 | X-H torsion

> <Gold.Protein.ActiveResidues>
 VAL166  LYS551  ARG553  GLY616  TRP617  ASP618  TYR619  PRO620  LYS621  CYS622 
 ASP623  PHE694  ASN695  SER759  ASP760  ASP761  ALA762  ILE779  LEU786  VAL792 
 PHE793  MET794  SER795  GLU796  ALA797  LYS798  CYS799  TRP800  GLU811  SER814 

> <Gold.Protein.RotatedAtoms>
  152.4457  134.5500  159.9863 H   0  0  0  0  0  0  0  0  0  0  0  0  # atno 6907 bound_to 6896
  151.5586  133.3401  159.2974 H   0  0  0  0  0  0  0  0  0  0  0  0  # atno 6908 bound_to 6896
  150.8372  134.7683  159.6966 H   0  0  0  0  0  0  0  0  0  0  0  0  # atno 6909 bound_to 6896
  145.3540  140.9481  143.2538 H   0  0  0  0  0  0  0  0  0  0  0  0  # atno 7974 bound_to 7965
  154.7156  140.0515  157.0591 H   0  0  0  0  0  0  0  0  0  0  0  0  # atno 8008 bound_to 7997
  155.0496  140.3177  155.4677 H   0  0  0  0  0  0  0  0  0  0  0  0  # atno 8009 bound_to 7997
  156.2802  140.2118  156.5621 H   0  0  0  0  0  0  0  0  0  0  0  0  # atno 8010 bound_to 7997
  139.7504  144.6985  151.0440 H   0  0  0  0  0  0  0  0  0  0  0  0  # atno 10167 bound_to 10162
  157.6864  131.0061  150.2421 H   0  0  0  0  0  0  0  0  0  0  0  0  # atno 10718 bound_to 10713
  153.0180  135.5289  154.6959 H   0  0  0  0  0  0  0  0  0  0  0  0  # atno 10763 bound_to 10752
  154.6081  135.2875  155.0464 H   0  0  0  0  0  0  0  0  0  0  0  0  # atno 10764 bound_to 10752
  154.1496  135.6565  153.5013 H   0  0  0  0  0  0  0  0  0  0  0  0  # atno 10765 bound_to 10752
  140.2078  134.3792  155.8064 H   0  0  0  0  0  0  0  0  0  0  0  0  # atno 11005 bound_to 11000
  144.8696  139.5057  143.6774 LP  0  0  0  0  0  0  0  0  0  0  0  0  # atno 17320 bound_to 7965
  146.2956  139.7267  142.9129 LP  0  0  0  0  0  0  0  0  0  0  0  0  # atno 17321 bound_to 7965
  140.7797  143.4815  151.0011 LP  0  0  0  0  0  0  0  0  0  0  0  0  # atno 17342 bound_to 10162
  139.8503  143.7447  152.3178 LP  0  0  0  0  0  0  0  0  0  0  0  0  # atno 17343 bound_to 10162
  156.3033  130.3761  149.7730 LP  0  0  0  0  0  0  0  0  0  0  0  0  # atno 17370 bound_to 10713
  156.5353  130.8276  151.3251 LP  0  0  0  0  0  0  0  0  0  0  0  0  # atno 17371 bound_to 10713
  141.2227  133.7127  156.8366 LP  0  0  0  0  0  0  0  0  0  0  0  0  # atno 17394 bound_to 11000
  140.1984  134.8915  157.3141 LP  0  0  0  0  0  0  0  0  0  0  0  0  # atno 17395 bound_to 11000

$$$$
