AV-unprocessed.smi:1475|AV-procd|sdf|5979|dock10
  -GOLD-   22720 6 73D 1   1.00000     0.00000
 Structure written by MMmdl.
 50 51  0  0  0  0  0  0  0  0  2 V2000
  154.0740  141.2440  160.8724 C   0  0  0  0  0  0  0  0  0  0  0  0
  153.2140  142.1557  160.0475 C   0  0  0  0  0  0  0  0  0  0  0  0
  152.8478  143.5043  160.3160 C   0  0  0  0  0  0  0  0  0  0  0  0
  152.0616  143.8586  159.2562 C   0  0  0  0  0  0  0  0  0  0  0  0
  151.3716  145.1500  158.9608 C   0  0  0  0  0  0  0  0  0  0  0  0
  151.9866  142.7542  158.4248 N   0  0  0  0  0  0  0  0  0  0  0  0
  151.2701  142.5944  157.1659 C   0  0  0  0  0  0  0  0  0  0  0  0
  150.0988  141.6111  157.2774 C   0  0  0  0  0  0  0  0  0  0  0  0
  150.2890  140.4824  157.7288 O   0  0  0  0  0  0  0  0  0  0  0  0
  148.8984  142.0349  156.8528 N   0  0  0  0  0  0  0  0  0  0  0  0
  147.6779  141.2436  156.9015 C   0  0  0  0  0  0  0  0  0  0  0  0
  146.5180  142.0136  156.2505 C   0  0  0  0  0  0  0  0  0  0  0  0
  146.0225  141.3549  155.0121 N   0  3  1  0  0  0  0  0  0  0  0  0
  145.1014  142.2080  154.2161 C   0  0  0  0  0  0  0  0  0  0  0  0
  145.8526  143.3141  153.4457 C   0  0  2  0  0  0  0  0  0  0  0  0
  144.8851  144.1859  152.6326 C   0  0  0  0  0  0  0  0  0  0  0  0
  146.9338  142.6888  152.5469 C   0  0  0  0  0  0  0  0  0  0  0  0
  147.8833  141.7959  153.3650 C   0  0  2  0  0  0  0  0  0  0  0  0
  148.9365  141.1316  152.4672 C   0  0  0  0  0  0  0  0  0  0  0  0
  147.0792  140.7433  154.1599 C   0  0  0  0  0  0  0  0  0  0  0  0
  152.6939  141.7126  158.9150 N   0  0  0  0  0  0  0  0  0  0  0  0
  154.6139  141.7996  161.6392 H   0  0  0  0  0  0  0  0  0  0  0  0
  154.8118  140.7302  160.2552 H   0  0  0  0  0  0  0  0  0  0  0  0
  153.4718  140.4857  161.3729 H   0  0  0  0  0  0  0  0  0  0  0  0
  153.1225  144.1195  161.1602 H   0  0  0  0  0  0  0  0  0  0  0  0
  151.5319  145.8692  159.7644 H   0  0  0  0  0  0  0  0  0  0  0  0
  150.2969  145.0026  158.8528 H   0  0  0  0  0  0  0  0  0  0  0  0
  151.7496  145.5904  158.0381 H   0  0  0  0  0  0  0  0  0  0  0  0
  150.8976  143.5632  156.8333 H   0  0  0  0  0  0  0  0  0  0  0  0
  151.9715  142.2488  156.4048 H   0  0  0  0  0  0  0  0  0  0  0  0
  148.8271  142.9756  156.4930 H   0  0  0  0  0  0  0  0  0  0  0  0
  147.8640  140.2994  156.3901 H   0  0  0  0  0  0  0  0  0  0  0  0
  147.4321  141.0091  157.9387 H   0  0  0  0  0  0  0  0  0  0  0  0
  145.7031  142.0621  156.9744 H   0  0  0  0  0  0  0  0  0  0  0  0
  146.8071  143.0455  156.0520 H   0  0  0  0  0  0  0  0  0  0  0  0
  144.5685  141.5686  153.5108 H   0  0  0  0  0  0  0  0  0  0  0  0
  144.3382  142.6398  154.8650 H   0  0  0  0  0  0  0  0  0  0  0  0
  146.3450  143.9667  154.1680 H   0  0  0  0  0  0  0  0  0  0  0  0
  144.3601  143.5994  151.8778 H   0  0  0  0  0  0  0  0  0  0  0  0
  145.4163  144.9883  152.1198 H   0  0  0  0  0  0  0  0  0  0  0  0
  144.1358  144.6473  153.2765 H   0  0  0  0  0  0  0  0  0  0  0  0
  146.4616  142.0989  151.7595 H   0  0  0  0  0  0  0  0  0  0  0  0
  147.5017  143.4742  152.0464 H   0  0  0  0  0  0  0  0  0  0  0  0
  148.4219  142.4303  154.0689 H   0  0  0  0  0  0  0  0  0  0  0  0
  148.4740  140.4727  151.7315 H   0  0  0  0  0  0  0  0  0  0  0  0
  149.6343  140.5357  153.0563 H   0  0  0  0  0  0  0  0  0  0  0  0
  149.5178  141.8783  151.9254 H   0  0  0  0  0  0  0  0  0  0  0  0
  147.7474  140.1250  154.7578 H   0  0  0  0  0  0  0  0  0  0  0  0
  146.5913  140.0611  153.4624 H   0  0  0  0  0  0  0  0  0  0  0  0
  145.4535  140.5878  155.3412 H   0  0  0  0  0  0  0  0  0  0  0  0
  1  2  1  0  0  0  0
  1 22  1  0  0  0  0
  1 23  1  0  0  0  0
  1 24  1  0  0  0  0
  2 21  2  0  0  0  0
  2  3  1  0  0  0  0
  3  4  2  0  0  0  0
  3 25  1  0  0  0  0
  4  5  1  0  0  0  0
  4  6  1  0  0  0  0
  5 26  1  0  0  0  0
  5 27  1  0  0  0  0
  5 28  1  0  0  0  0
  6  7  1  0  0  0  0
  6 21  1  0  0  0  0
  7  8  1  0  0  0  0
  7 29  1  0  0  0  0
  7 30  1  0  0  0  0
  8  9  2  0  0  0  0
  8 10  1  0  0  0  0
 10 11  1  0  0  0  0
 10 31  1  0  0  0  0
 11 12  1  0  0  0  0
 11 32  1  0  0  0  0
 11 33  1  0  0  0  0
 12 13  1  0  0  0  0
 12 34  1  0  0  0  0
 12 35  1  0  0  0  0
 13 20  1  0  0  0  0
 13 14  1  0  0  0  0
 13 50  1  0  0  0  0
 14 15  1  0  0  0  0
 14 36  1  0  0  0  0
 14 37  1  0  0  0  0
 15 16  1  0  0  0  0
 15 17  1  0  0  0  0
 15 38  1  0  0  0  0
 16 39  1  0  0  0  0
 16 40  1  0  0  0  0
 16 41  1  0  0  0  0
 17 18  1  0  0  0  0
 17 42  1  0  0  0  0
 17 43  1  0  0  0  0
 18 19  1  0  0  0  0
 18 20  1  0  0  0  0
 18 44  1  0  0  0  0
 19 45  1  0  0  0  0
 19 46  1  0  0  0  0
 19 47  1  0  0  0  0
 20 48  1  0  0  0  0
 20 49  1  0  0  0  0
M  CHG  1  13   1
M  END
> <s_m_source_file>
AV-unprocessed.smi

> <i_m_source_file_index>
1475

> <i_lp_mmshare_version>
43012

> <i_f3d_flags>
0

> <s_epik_input>
W0NIM11jMVtjSF1jKFtDSDNdKW4objEpW0NIMl1DKD1PKVtOSF1bQ0gyXVtDSDJdTjJbQ0gyXVtDQEBIXShbQ0gzXSlbQ0gyXVtDQEBIXShbQ0gzXSlbQ0gyXTI=

> <s_epik_cmdline>
J2VwaWtfcHl0aG9uJywgJy1waCcsICc3LjAnLCAnLXRuJywgJzgnLCAnLW1hJywgJzIwMCcsICctbWV0YWxfYmluZGluZycsICctaW1hZScsICc8aW5maWxlLm1hZT4nLCAnLW9tYWUnLCAnPG91dGZpbGUubWFlPic=

> <r_lp_tautomer_probability>
1

> <r_epik_Ionization_Penalty>
0.00206431

> <r_epik_Ionization_Penalty_Charging>
0.00187095

> <r_epik_Ionization_Penalty_Neutral>
0.000193364

> <r_epik_State_Penalty>
-0

> <r_epik_Charging_Adjusted_Penalty>
0.00187095

> <i_epik_Tot_Q>
1

> <i_epik_Tot_abs_Q>
1

> <r_epik_Metal_State_Penalty>
-0

> <b_epik_Metal_Only>
0

> <s_lp_Force_Field>
OPLS_2005

> <r_lp_Energy>
18.0361

> <b_lp_Chiralities_Consistent>
1

> <s_lp_Variant>
AV-unprocessed.smi:1475-4

> <Gold.Version>
5.8.1

> <Gold.Id.Protein>
6NUR|6NUR_protein|mol2

> <Gold.PLP.Fitness>
47.1522

> <Gold.PLP.PLP>
-45.3713

> <Gold.PLP.part.hbond>
-1.1222

> <Gold.PLP.part.metal>
0.0000

> <Gold.PLP.part.buried>
-7.2233

> <Gold.PLP.part.nonpolar>
-36.8550

> <Gold.PLP.part.repulsive>
0.0640

> <Gold.PLP.ligand.clash>
0.0000

> <Gold.PLP.ligand.torsion>
0.6335

> <Gold.PLP.Chemscore.Hbond>
1.0000

> <Gold.PLP.Chemscore.CHOScore>
0.0000

> <Gold.PLP.Chemscore.Metal>
0.0000

> <Gold.Chemscore.Hbonds>
donor molecule, donor type, donor heavy atom, donor atom, acceptor molecule, acceptor atom, score
      L1  H    10    31       P1  8028  1.00

> <Gold.PLP.Chemscore.Internal.Correction>
0.0478

> <Gold.Rescore>
     Score         DG    S(hbond)    S(metal)    S(lipo)     H(rot)  DE(clash)    DE(int)     intcor
     15.81     -16.84       0.65        0.00     114.38       1.64       0.06       0.97       ----

> <Gold.Chemscore.Fitness>
15.8122

> <Gold.Chemscore.DG>
-16.8450

> <Gold.Chemscore.ZeroCoef>
-5.4800

> <Gold.Chemscore.Hbond>
0.6530

> <Gold.Chemscore.Metal>
0.0000

> <Gold.Chemscore.Lipo>
114.3779

> <Gold.Chemscore.Internal_Hbond>
0.0000

> <Gold.Chemscore.DEClash>
0.0603

> <Gold.Chemscore.DEInternal>
0.9725

> <Gold.Chemscore.Rot>
1.6399

> <Gold.Chemscore.Internal.Correction>
   9.000000E+99

> <Gold.Chemscore.Hbonds>
donor molecule, donor type, donor heavy atom, donor atom, acceptor molecule, acceptor atom, score
      L1  H    10    31       P1  8028  0.96

> <Gold.Chemscore.Hbond.Weighted>
-2.1809

> <Gold.Chemscore.Metal.Weighted>
-0.0000

> <Gold.Chemscore.Lipo.Weighted>
-13.3822

> <Gold.Chemscore.Internal_Hbond.Weighted>
0.0000

> <Gold.Chemscore.DEClash.Weighted>
0.0603

> <Gold.Chemscore.DEInternal.Weighted>
0.9725

> <Gold.Chemscore.Rot.Weighted>
4.1982

> <Gold.Chemscore.Internal.Correction.Weighted>
   9.000000E+99

> <Gold.Protein.RotatedTorsions>
[ 6907 6896 6895 6894 ] final  -53.59 input  -60.11 | X-H torsion
[ 7974 7965 7964 7962 ] final   12.37 input  175.53 | X-H torsion
[ 8008 7997 7996 7995 ] final  167.19 input   59.86 | X-H torsion
[ 10167 10162 10161 10158 ] final  116.57 input  -65.29 | X-H torsion
[ 10718 10713 10712 10709 ] final   31.44 input   66.30 | X-H torsion
[ 10763 10752 10751 10750 ] final  -52.95 input  -60.55 | X-H torsion
[ 11005 11000 10999 10996 ] final -179.03 input  -57.11 | X-H torsion

> <Gold.Protein.ActiveResidues>
 VAL166  LYS551  ARG553  GLY616  TRP617  ASP618  TYR619  PRO620  LYS621  CYS622 
 ASP623  PHE694  ASN695  SER759  ASP760  ASP761  ALA762  ILE779  LEU786  VAL792 
 PHE793  MET794  SER795  GLU796  ALA797  LYS798  CYS799  TRP800  GLU811  SER814 

> <Gold.Protein.RotatedAtoms>
  150.8413  134.7706  159.6934 H   0  0  0  0  0  0  0  0  0  0  0  0  # atno 6907 bound_to 6896
  152.4500  134.5411  159.9849 H   0  0  0  0  0  0  0  0  0  0  0  0  # atno 6908 bound_to 6896
  151.5550  133.3374  159.2996 H   0  0  0  0  0  0  0  0  0  0  0  0  # atno 6909 bound_to 6896
  146.2352  139.9346  142.8491 H   0  0  0  0  0  0  0  0  0  0  0  0  # atno 7974 bound_to 7965
  156.1654  140.1623  156.8540 H   0  0  0  0  0  0  0  0  0  0  0  0  # atno 8008 bound_to 7997
  154.5203  140.0780  156.8193 H   0  0  0  0  0  0  0  0  0  0  0  0  # atno 8009 bound_to 7997
  155.3621  140.3396  155.4243 H   0  0  0  0  0  0  0  0  0  0  0  0  # atno 8010 bound_to 7997
  139.6238  144.7105  151.2577 H   0  0  0  0  0  0  0  0  0  0  0  0  # atno 10167 bound_to 10162
  157.2725  130.7215  149.6512 H   0  0  0  0  0  0  0  0  0  0  0  0  # atno 10718 bound_to 10713
  154.1510  135.6490  153.4963 H   0  0  0  0  0  0  0  0  0  0  0  0  # atno 10763 bound_to 10752
  153.0138  135.5338  154.6808 H   0  0  0  0  0  0  0  0  0  0  0  0  # atno 10764 bound_to 10752
  154.6096  135.2952  155.0418 H   0  0  0  0  0  0  0  0  0  0  0  0  # atno 10765 bound_to 10752
  140.4232  134.6586  157.4675 H   0  0  0  0  0  0  0  0  0  0  0  0  # atno 11005 bound_to 11000
  145.2011  140.9854  143.4155 LP  0  0  0  0  0  0  0  0  0  0  0  0  # atno 17320 bound_to 7965
  144.9773  139.3819  143.6279 LP  0  0  0  0  0  0  0  0  0  0  0  0  # atno 17321 bound_to 7965
  140.7398  143.6606  150.8168 LP  0  0  0  0  0  0  0  0  0  0  0  0  # atno 17342 bound_to 10162
  140.0220  143.5532  152.2796 LP  0  0  0  0  0  0  0  0  0  0  0  0  # atno 17343 bound_to 10162
  155.9663  130.4363  150.5129 LP  0  0  0  0  0  0  0  0  0  0  0  0  # atno 17370 bound_to 10713
  157.3056  131.0654  151.2037 LP  0  0  0  0  0  0  0  0  0  0  0  0  # atno 17371 bound_to 10713
  140.0185  134.6582  155.9274 LP  0  0  0  0  0  0  0  0  0  0  0  0  # atno 17394 bound_to 11000
  141.1775  133.6542  156.4888 LP  0  0  0  0  0  0  0  0  0  0  0  0  # atno 17395 bound_to 11000

$$$$
