AV-unprocessed.smi:3336|AV-procd|sdf|12857|dock7
  -GOLD-   2272019253D 1   1.00000     0.00000
 Structure written by MMmdl.
 41 42  0  0  0  0  0  0  0  0  1 V2000
  153.9823  140.5195  160.9684 C   0  0  0  0  0  0  0  0  0  0  0  0
  153.6806  140.9039  159.5108 C   0  0  2  0  0  0  0  0  0  0  0  0
  152.2827  141.5535  159.3439 C   0  0  0  0  0  0  0  0  0  0  0  0
  152.1465  142.8476  159.9939 N   0  0  0  0  0  0  0  0  0  0  0  0
  151.8838  144.0735  159.4184 C   0  0  0  0  0  0  0  0  0  0  0  0
  151.8400  144.9952  160.4248 C   0  0  0  0  0  0  0  0  0  0  0  0
  152.0857  144.2271  161.5971 C   0  0  0  0  0  0  0  0  0  0  0  0
  152.2632  142.9423  161.3368 N   0  0  0  0  0  0  0  0  0  0  0  0
  153.8532  139.6930  158.7026 N   0  0  0  0  0  0  0  0  0  0  0  0
  152.6737  138.8146  158.5507 C   0  0  2  0  0  0  0  0  0  0  0  0
  152.7362  137.6999  159.6069 C   0  0  0  0  0  0  0  0  0  0  0  0
  152.5276  138.1980  157.1395 C   0  0  0  0  0  0  0  0  0  0  0  0
  152.6521  136.9766  157.0271 O   0  0  0  0  0  0  0  0  0  0  0  0
  152.2637  138.9884  156.0681 N   0  0  0  0  0  0  0  0  0  0  0  0
  152.1611  138.4615  154.7024 C   0  0  0  0  0  0  0  0  0  0  0  0
  150.7206  138.6626  154.2019 C   0  0  0  0  0  0  0  0  0  0  0  0
  150.3917  140.0477  154.2477 O   0  0  0  0  0  0  0  0  0  0  0  0
  150.5015  140.6003  155.5561 C   0  0  0  0  0  0  0  0  0  0  0  0
  151.9368  140.4200  156.0836 C   0  0  0  0  0  0  0  0  0  0  0  0
  153.8632  141.3773  161.6309 H   0  0  0  0  0  0  0  0  0  0  0  0
  155.0079  140.1650  161.0762 H   0  0  0  0  0  0  0  0  0  0  0  0
  153.3222  139.7288  161.3260 H   0  0  0  0  0  0  0  0  0  0  0  0
  154.4279  141.6424  159.2227 H   0  0  0  0  0  0  0  0  0  0  0  0
  152.0828  141.6968  158.2814 H   0  0  0  0  0  0  0  0  0  0  0  0
  151.4895  140.8934  159.6956 H   0  0  0  0  0  0  0  0  0  0  0  0
  151.7541  144.1860  158.3520 H   0  0  0  0  0  0  0  0  0  0  0  0
  151.6592  146.0563  160.3373 H   0  0  0  0  0  0  0  0  0  0  0  0
  152.1377  144.5621  162.6227 H   0  0  0  0  0  0  0  0  0  0  0  0
  154.2328  139.9463  157.8015 H   0  0  0  0  0  0  0  0  0  0  0  0
  151.8058  139.4283  158.7730 H   0  0  0  0  0  0  0  0  0  0  0  0
  151.8586  137.0544  159.5633 H   0  0  0  0  0  0  0  0  0  0  0  0
  152.7788  138.1193  160.6127 H   0  0  0  0  0  0  0  0  0  0  0  0
  153.6173  137.0709  159.4730 H   0  0  0  0  0  0  0  0  0  0  0  0
  152.8600  138.9960  154.0573 H   0  0  0  0  0  0  0  0  0  0  0  0
  152.4313  137.4076  154.6267 H   0  0  0  0  0  0  0  0  0  0  0  0
  150.6248  138.3111  153.1747 H   0  0  0  0  0  0  0  0  0  0  0  0
  150.0147  138.0888  154.8045 H   0  0  0  0  0  0  0  0  0  0  0  0
  150.2456  141.6590  155.5140 H   0  0  0  0  0  0  0  0  0  0  0  0
  149.7807  140.1239  156.2227 H   0  0  0  0  0  0  0  0  0  0  0  0
  152.0005  140.8891  157.0616 H   0  0  0  0  0  0  0  0  0  0  0  0
  152.6420  140.9563  155.4471 H   0  0  0  0  0  0  0  0  0  0  0  0
  1  2  1  0  0  0  0
  1 20  1  0  0  0  0
  1 21  1  0  0  0  0
  1 22  1  0  0  0  0
  2  3  1  0  0  0  0
  2  9  1  0  0  0  0
  2 23  1  0  0  0  0
  3  4  1  0  0  0  0
  3 24  1  0  0  0  0
  3 25  1  0  0  0  0
  4  8  1  0  0  0  0
  4  5  1  0  0  0  0
  5  6  2  0  0  0  0
  5 26  1  0  0  0  0
  6  7  1  0  0  0  0
  6 27  1  0  0  0  0
  7  8  2  0  0  0  0
  7 28  1  0  0  0  0
  9 10  1  0  0  0  0
  9 29  1  0  0  0  0
 10 11  1  0  0  0  0
 10 12  1  0  0  0  0
 10 30  1  0  0  0  0
 11 31  1  0  0  0  0
 11 32  1  0  0  0  0
 11 33  1  0  0  0  0
 12 13  2  0  0  0  0
 12 14  1  0  0  0  0
 14 19  1  0  0  0  0
 14 15  1  0  0  0  0
 15 16  1  0  0  0  0
 15 34  1  0  0  0  0
 15 35  1  0  0  0  0
 16 17  1  0  0  0  0
 16 36  1  0  0  0  0
 16 37  1  0  0  0  0
 17 18  1  0  0  0  0
 18 19  1  0  0  0  0
 18 38  1  0  0  0  0
 18 39  1  0  0  0  0
 19 40  1  0  0  0  0
 19 41  1  0  0  0  0
M  END
> <s_m_source_file>
AV-unprocessed.smi

> <i_m_source_file_index>
3336

> <i_lp_mmshare_version>
43012

> <i_f3d_flags>
0

> <s_epik_input>
bjFbY0hdW2NIXVtjSF1uMVtDSDJdW0NAQEhdKFtDSDNdKVtOSF1bQ0BIXShbQ0gzXSlDKD1PKU4yW0NIMl1bQ0gyXU9bQ0gyXVtDSDJdMg==

> <s_epik_cmdline>
J2VwaWtfcHl0aG9uJywgJy1waCcsICc3LjAnLCAnLXRuJywgJzgnLCAnLW1hJywgJzIwMCcsICctbWV0YWxfYmluZGluZycsICctaW1hZScsICc8aW5maWxlLm1hZT4nLCAnLW9tYWUnLCAnPG91dGZpbGUubWFlPic=

> <r_lp_tautomer_probability>
1

> <r_epik_Ionization_Penalty>
0.739958

> <r_epik_Ionization_Penalty_Charging>
0

> <r_epik_Ionization_Penalty_Neutral>
0.739958

> <r_epik_State_Penalty>
0.765967

> <r_epik_Charging_Adjusted_Penalty>
0.765967

> <i_epik_Tot_Q>
0

> <i_epik_Tot_abs_Q>
0

> <r_epik_Metal_State_Penalty>
0.765947

> <b_epik_Metal_Only>
0

> <s_lp_Force_Field>
OPLS_2005

> <r_lp_Energy>
28.3859

> <b_lp_Chiralities_Consistent>
1

> <s_lp_Variant>
AV-unprocessed.smi:3336-5

> <Gold.Version>
5.8.1

> <Gold.Id.Protein>
6NUR|6NUR_protein|mol2

> <Gold.PLP.Fitness>
44.7250

> <Gold.PLP.PLP>
-43.5412

> <Gold.PLP.part.hbond>
-2.0000

> <Gold.PLP.part.metal>
0.0000

> <Gold.PLP.part.buried>
-5.9772

> <Gold.PLP.part.nonpolar>
-35.3100

> <Gold.PLP.part.repulsive>
0.2170

> <Gold.PLP.ligand.clash>
0.0000

> <Gold.PLP.ligand.torsion>
0.9656

> <Gold.PLP.Chemscore.Hbond>
1.0000

> <Gold.PLP.Chemscore.CHOScore>
0.0000

> <Gold.PLP.Chemscore.Metal>
0.0000

> <Gold.Chemscore.Hbonds>
donor molecule, donor type, donor heavy atom, donor atom, acceptor molecule, acceptor atom, score
      P1  H  7989  7998       L1    17  1.00

> <Gold.PLP.Chemscore.Internal.Correction>
0.1149

> <Gold.Rescore>
     Score         DG    S(hbond)    S(metal)    S(lipo)     H(rot)  DE(clash)    DE(int)     intcor
     12.57     -14.81       0.56        0.00     103.11       1.79       0.16       2.07       ----

> <Gold.Chemscore.Fitness>
12.5726

> <Gold.Chemscore.DG>
-14.8097

> <Gold.Chemscore.ZeroCoef>
-5.4800

> <Gold.Chemscore.Hbond>
0.5562

> <Gold.Chemscore.Metal>
0.0000

> <Gold.Chemscore.Lipo>
103.1054

> <Gold.Chemscore.Internal_Hbond>
0.0000

> <Gold.Chemscore.DEClash>
0.1633

> <Gold.Chemscore.DEInternal>
2.0739

> <Gold.Chemscore.Rot>
1.7935

> <Gold.Chemscore.Internal.Correction>
   9.000000E+99

> <Gold.Chemscore.Hbonds>
donor molecule, donor type, donor heavy atom, donor atom, acceptor molecule, acceptor atom, score
      P1  H  7989  7998       L1    17  0.15

> <Gold.Chemscore.Hbond.Weighted>
-1.8576

> <Gold.Chemscore.Metal.Weighted>
-0.0000

> <Gold.Chemscore.Lipo.Weighted>
-12.0633

> <Gold.Chemscore.Internal_Hbond.Weighted>
0.0000

> <Gold.Chemscore.DEClash.Weighted>
0.1633

> <Gold.Chemscore.DEInternal.Weighted>
2.0739

> <Gold.Chemscore.Rot.Weighted>
4.5912

> <Gold.Chemscore.Internal.Correction.Weighted>
   9.000000E+99

> <Gold.Protein.RotatedTorsions>
[ 6907 6896 6895 6894 ] final  171.72 input  -60.11 | X-H torsion
[ 7974 7965 7964 7962 ] final   32.23 input  175.53 | X-H torsion
[ 8008 7997 7996 7995 ] final   38.40 input   59.86 | X-H torsion
[ 10167 10162 10161 10158 ] final   18.34 input  -65.29 | X-H torsion
[ 10718 10713 10712 10709 ] final   14.33 input   66.30 | X-H torsion
[ 10763 10752 10751 10750 ] final -176.59 input  -60.55 | X-H torsion
[ 11005 11000 10999 10996 ] final   46.82 input  -57.11 | X-H torsion

> <Gold.Protein.ActiveResidues>
 VAL166  LYS551  ARG553  GLY616  TRP617  ASP618  TYR619  PRO620  LYS621  CYS622 
 ASP623  PHE694  ASN695  SER759  ASP760  ASP761  ALA762  ILE779  LEU786  VAL792 
 PHE793  MET794  SER795  GLU796  ALA797  LYS798  CYS799  TRP800  GLU811  SER814 

> <Gold.Protein.RotatedAtoms>
  151.7957  133.3364  159.3511 H   0  0  0  0  0  0  0  0  0  0  0  0  # atno 6907 bound_to 6896
  150.7376  134.5801  159.5943 H   0  0  0  0  0  0  0  0  0  0  0  0  # atno 6908 bound_to 6896
  152.3179  134.7418  160.0372 H   0  0  0  0  0  0  0  0  0  0  0  0  # atno 6909 bound_to 6896
  146.1499  139.6553  142.9105 H   0  0  0  0  0  0  0  0  0  0  0  0  # atno 7974 bound_to 7965
  155.2195  140.3330  155.4317 H   0  0  0  0  0  0  0  0  0  0  0  0  # atno 8008 bound_to 7997
  156.2339  140.1863  156.7219 H   0  0  0  0  0  0  0  0  0  0  0  0  # atno 8009 bound_to 7997
  154.6025  140.0621  156.9372 H   0  0  0  0  0  0  0  0  0  0  0  0  # atno 8010 bound_to 7997
  140.5660  143.9249  150.6677 H   0  0  0  0  0  0  0  0  0  0  0  0  # atno 10167 bound_to 10162
  157.0375  130.6218  149.5745 H   0  0  0  0  0  0  0  0  0  0  0  0  # atno 10718 bound_to 10713
  154.5705  135.2827  155.0832 H   0  0  0  0  0  0  0  0  0  0  0  0  # atno 10763 bound_to 10752
  154.2206  135.6392  153.5147 H   0  0  0  0  0  0  0  0  0  0  0  0  # atno 10764 bound_to 10752
  153.0056  135.5513  154.6327 H   0  0  0  0  0  0  0  0  0  0  0  0  # atno 10765 bound_to 10752
  140.1335  134.4675  155.8503 H   0  0  0  0  0  0  0  0  0  0  0  0  # atno 11005 bound_to 11000
  145.4847  141.0438  143.2626 LP  0  0  0  0  0  0  0  0  0  0  0  0  # atno 17320 bound_to 7965
  144.7892  139.6364  143.7121 LP  0  0  0  0  0  0  0  0  0  0  0  0  # atno 17321 bound_to 7965
  140.2712  143.3455  152.1236 LP  0  0  0  0  0  0  0  0  0  0  0  0  # atno 17342 bound_to 10162
  139.5093  144.6865  151.5872 LP  0  0  0  0  0  0  0  0  0  0  0  0  # atno 17343 bound_to 10162
  156.0049  130.5134  150.7794 LP  0  0  0  0  0  0  0  0  0  0  0  0  # atno 17370 bound_to 10713
  157.5130  131.0926  151.0174 LP  0  0  0  0  0  0  0  0  0  0  0  0  # atno 17371 bound_to 10713
  141.2174  133.6805  156.7113 LP  0  0  0  0  0  0  0  0  0  0  0  0  # atno 17394 bound_to 11000
  140.2812  134.8315  157.3935 LP  0  0  0  0  0  0  0  0  0  0  0  0  # atno 17395 bound_to 11000

$$$$
