#       Name:                AV-unprocessed.smi:823
#       Creating user name   scv26
#       Creation time:       Fri Mar 27 01:29:18 2020


#       File generated by GOLD software.
#

@<TRIPOS>MOLECULE
AV-unprocessed.smi:823
    54    55     1
SMALL
NO_CHARGES


@<TRIPOS>ATOM
      1 ****        -1.4266   5.5105  -0.4343 C.3            1 S1                 0.0000
      2 ****        -2.3473   4.3533  -0.0326 C.3            1 S1                 0.0000
      3 ****        -1.6890   2.9803  -0.2721 C.3            1 S1                 0.0000
      4 ****        -2.6344   1.9029   0.0098 N.3            1 S1                 0.0000
      5 ****        -2.0762   0.6086   0.0921 C.ar           1 S1                 0.0000
      6 ****        -0.9785   0.3594   0.9497 C.ar           1 S1                 0.0000
      7 ****        -0.4350  -0.9378   1.0120 C.ar           1 S1                 0.0000
      8 ****        -0.9977  -1.9565   0.2134 C.ar           1 S1                 0.0000
      9 ****        -0.4711  -3.3858   0.2242 C.3            1 S1                 0.0000
     10 ****         0.9358  -3.5089   0.5908 N.am           1 S1                 0.0000
     11 ****         1.9677  -3.2240  -0.2176 C.2            1 S1                 0.0000
     12 ****         1.8298  -2.8638  -1.3878 O.2            1 S1                 0.0000
     13 ****         3.3690  -3.3645   0.3967 C.3            1 S1                 0.0000
     14 ****         4.0665  -4.5766  -0.2434 C.3            1 S1                 0.0000
     15 ****         4.1690  -2.1745   0.1112 N.am           1 S1                 0.0000
     16 ****         4.0634  -1.0026   0.7559 C.2            1 S1                 0.0000
     17 ****         4.8982  -0.0816   0.2738 N.am           1 S1                 0.0000
     18 ****         3.2882  -0.7847   1.6852 O.2            1 S1                 0.0000
     19 ****        -2.0967  -1.6177  -0.6005 C.ar           1 S1                 0.0000
     20 ****        -2.6234  -0.3768  -0.6619 N.ar           1 S1                 0.0000
     21 ****        -3.9086   2.0547  -0.6898 C.3            1 S1                 0.0000
     22 ****        -4.4949   3.4530  -0.4374 C.3            1 S1                 0.0000
     23 ****        -3.5416   4.4447  -0.8044 O.3            1 S1                 0.0000
     24 ****        -0.5004   5.4928   0.1406 H              1 S1                 0.0000
     25 ****        -1.9092   6.4719  -0.2570 H              1 S1                 0.0000
     26 ****        -1.1659   5.4585  -1.4918 H              1 S1                 0.0000
     27 ****        -2.5964   4.4602   1.0247 H              1 S1                 0.0000
     28 ****        -1.3631   2.8955  -1.3097 H              1 S1                 0.0000
     29 ****        -0.7960   2.9030   0.3466 H              1 S1                 0.0000
     30 ****        -0.5582   1.1385   1.5677 H              1 S1                 0.0000
     31 ****         0.3993  -1.1372   1.6682 H              1 S1                 0.0000
     32 ****        -1.0594  -3.9594   0.9403 H              1 S1                 0.0000
     33 ****        -0.6375  -3.8461  -0.7513 H              1 S1                 0.0000
     34 ****         1.1388  -3.8002   1.5361 H              1 S1                 0.0000
     35 ****         3.2983  -3.5123   1.4763 H              1 S1                 0.0000
     36 ****         3.5038  -5.4948  -0.0698 H              1 S1                 0.0000
     37 ****         5.0604  -4.7215   0.1810 H              1 S1                 0.0000
     38 ****         4.1836  -4.4571  -1.3218 H              1 S1                 0.0000
     39 ****         4.8342  -2.2460  -0.6446 H              1 S1                 0.0000
     40 ****         4.9221   0.8436   0.6768 H              1 S1                 0.0000
     41 ****         5.5108  -0.3181  -0.4933 H              1 S1                 0.0000
     42 ****        -2.5687  -2.3633  -1.2234 H              1 S1                 0.0000
     43 ****        -3.7542   1.9027  -1.7590 H              1 S1                 0.0000
     44 ****        -4.6186   1.2991  -0.3508 H              1 S1                 0.0000
     45 ****        -5.3989   3.5932  -1.0299 H              1 S1                 0.0000
     46 ****        -4.7786   3.5734   0.6093 H              1 S1                 0.0000
     47 ****        -2.9006   2.0203   0.9666 LP             1 S1                 0.0000
     48 ****         0.9137  -2.7716  -1.7779 LP             1 S1                 0.0000
     49 ****         2.6340  -2.6637  -1.9474 LP             1 S1                 0.0000
     50 ****         2.6794  -1.5090   2.0088 LP             1 S1                 0.0000
     51 ****         3.2666   0.1168   2.1174 LP             1 S1                 0.0000
     52 ****        -3.4059  -0.1867  -1.2548 LP             1 S1                 0.0000
     53 ****        -3.3108   4.3280  -1.7703 LP             1 S1                 0.0000
     54 ****        -3.9468   5.3483  -0.6653 LP             1 S1                 0.0000
@<TRIPOS>BOND
    1    1    2 1     
    2    1   24 1     
    3    1   25 1     
    4    1   26 1     
    5    2   23 1     
    6    2    3 1     
    7    2   27 1     
    8    3    4 1     
    9    3   28 1     
   10    3   29 1     
   11    4    5 1     
   12    4   21 1     
   13    5   20 ar    
   14    5    6 ar    
   15    6    7 ar    
   16    6   30 1     
   17    7    8 ar    
   18    7   31 1     
   19    8    9 1     
   20    8   19 ar    
   21    9   10 1     
   22    9   32 1     
   23    9   33 1     
   24   10   11 am    
   25   10   34 1     
   26   11   12 2     
   27   11   13 1     
   28   13   14 1     
   29   13   15 1     
   30   13   35 1     
   31   14   36 1     
   32   14   37 1     
   33   14   38 1     
   34   15   16 am    
   35   15   39 1     
   36   16   17 am    
   37   16   18 2     
   38   17   40 1     
   39   17   41 1     
   40   19   20 ar    
   41   19   42 1     
   42   21   22 1     
   43   21   43 1     
   44   21   44 1     
   45   22   23 1     
   46   22   45 1     
   47   22   46 1     
   48    4   47 1     
   49   12   48 1     
   50   12   49 1     
   51   18   50 1     
   52   18   51 1     
   53   20   52 1     
   54   23   53 1     
   55   23   54 1     
@<TRIPOS>SUBSTRUCTURE
      1 S1             1
@<TRIPOS>SET
LONE_PAIRS      STATIC     ATOMS    <user>   **** ""
8 47 48 49 50 51 52 53 54
DONOR_HYDROGENS      STATIC     ATOMS    <user>   **** ""
4 34 39 40 41
ATOM$BLUE        STATIC     ATOMS    COLORGROUP SYSTEM
8 47 48 49 50 51 52 53 54
ATOM$RED        STATIC     ATOMS    COLORGROUP SYSTEM
4 34 39 40 41
