AV-unprocessed.smi:1576|AV-procd|sdf|6343|dock2
  -GOLD-   22720 6563D 1   1.00000     0.00000
 Structure written by MMmdl.
 45 47  0  0  0  0  0  0  0  0  1 V2000
  147.3059  136.6195  155.6615 O   0  0  0  0  0  0  0  0  0  0  0  0
  147.8265  136.5712  154.5476 C   0  0  0  0  0  0  0  0  0  0  0  0
  148.8484  137.3382  154.1311 N   0  0  0  0  0  0  0  0  0  0  0  0
  149.4927  138.4037  154.8158 C   0  0  0  0  0  0  0  0  0  0  0  0
  149.3525  138.4713  156.2154 C   0  0  0  0  0  0  0  0  0  0  0  0
  149.9993  139.5012  156.9239 C   0  0  0  0  0  0  0  0  0  0  0  0
  150.7828  140.4402  156.2134 C   0  0  0  0  0  0  0  0  0  0  0  0
  151.4418  141.4798  156.9045 N   0  0  0  0  0  0  0  0  0  0  0  0
  151.2079  142.8533  156.4504 C   0  0  0  0  0  0  0  0  0  0  0  0
  152.2602  143.8162  157.0260 C   0  0  0  0  0  0  0  0  0  0  0  0
  152.3311  143.7048  158.5560 C   0  0  0  0  0  0  0  0  0  0  0  0
  152.5842  142.2461  158.9653 C   0  0  0  0  0  0  0  0  0  0  0  0
  151.5277  141.3083  158.3562 C   0  0  0  0  0  0  0  0  0  0  0  0
  150.9316  140.3656  154.8682 N   0  0  0  0  0  0  0  0  0  0  0  0
  150.3070  139.3785  154.1917 C   0  0  0  0  0  0  0  0  0  0  0  0
  147.4476  135.7101  153.5926 N   0  0  0  0  0  0  0  0  0  0  0  0
  146.3694  134.7314  153.7187 C   0  0  2  0  0  0  0  0  0  0  0  0
  146.8647  133.3205  153.3352 C   0  0  0  0  0  0  0  0  0  0  0  0
  146.9091  133.2003  151.8064 C   0  0  0  0  0  0  0  0  0  0  0  0
  145.5672  134.2778  151.1763 S   0  0  0  0  0  0  0  0  0  0  0  0
  146.1419  135.2563  150.2406 O   0  0  0  0  0  0  0  0  0  0  0  0
  144.4104  133.4537  150.7944 O   0  0  0  0  0  0  0  0  0  0  0  0
  145.2128  135.0999  152.7768 C   0  0  0  0  0  0  0  0  0  0  0  0
  149.2303  137.1142  153.2238 H   0  0  0  0  0  0  0  0  0  0  0  0
  148.7567  137.7420  156.7449 H   0  0  0  0  0  0  0  0  0  0  0  0
  149.9023  139.5503  157.9983 H   0  0  0  0  0  0  0  0  0  0  0  0
  151.2415  142.9002  155.3610 H   0  0  0  0  0  0  0  0  0  0  0  0
  150.2088  143.1662  156.7567 H   0  0  0  0  0  0  0  0  0  0  0  0
  153.2370  143.5866  156.5979 H   0  0  0  0  0  0  0  0  0  0  0  0
  152.0271  144.8404  156.7339 H   0  0  0  0  0  0  0  0  0  0  0  0
  153.1201  144.3490  158.9454 H   0  0  0  0  0  0  0  0  0  0  0  0
  151.3954  144.0539  158.9944 H   0  0  0  0  0  0  0  0  0  0  0  0
  153.5772  141.9403  158.6329 H   0  0  0  0  0  0  0  0  0  0  0  0
  152.5797  142.1561  160.0518 H   0  0  0  0  0  0  0  0  0  0  0  0
  150.5495  141.5221  158.7887 H   0  0  0  0  0  0  0  0  0  0  0  0
  151.7693  140.2813  158.6268 H   0  0  0  0  0  0  0  0  0  0  0  0
  150.4955  139.3737  153.1298 H   0  0  0  0  0  0  0  0  0  0  0  0
  147.9388  135.7331  152.7108 H   0  0  0  0  0  0  0  0  0  0  0  0
  146.0102  134.7382  154.7495 H   0  0  0  0  0  0  0  0  0  0  0  0
  147.8267  133.0765  153.7873 H   0  0  0  0  0  0  0  0  0  0  0  0
  146.1500  132.5908  153.7176 H   0  0  0  0  0  0  0  0  0  0  0  0
  147.8548  133.5776  151.4170 H   0  0  0  0  0  0  0  0  0  0  0  0
  146.7703  132.1780  151.4547 H   0  0  0  0  0  0  0  0  0  0  0  0
  144.2738  134.6940  153.1543 H   0  0  0  0  0  0  0  0  0  0  0  0
  145.0853  136.1733  152.6336 H   0  0  0  0  0  0  0  0  0  0  0  0
  1  2  2  0  0  0  0
  2  3  1  0  0  0  0
  2 16  1  0  0  0  0
  3  4  1  0  0  0  0
  3 24  1  0  0  0  0
  4 15  1  0  0  0  0
  4  5  2  0  0  0  0
  5  6  1  0  0  0  0
  5 25  1  0  0  0  0
  6  7  2  0  0  0  0
  6 26  1  0  0  0  0
  7  8  1  0  0  0  0
  7 14  1  0  0  0  0
  8 13  1  0  0  0  0
  8  9  1  0  0  0  0
  9 10  1  0  0  0  0
  9 27  1  0  0  0  0
  9 28  1  0  0  0  0
 10 11  1  0  0  0  0
 10 29  1  0  0  0  0
 10 30  1  0  0  0  0
 11 12  1  0  0  0  0
 11 31  1  0  0  0  0
 11 32  1  0  0  0  0
 12 13  1  0  0  0  0
 12 33  1  0  0  0  0
 12 34  1  0  0  0  0
 13 35  1  0  0  0  0
 13 36  1  0  0  0  0
 14 15  2  0  0  0  0
 15 37  1  0  0  0  0
 16 17  1  0  0  0  0
 16 38  1  0  0  0  0
 17 23  1  0  0  0  0
 17 18  1  0  0  0  0
 17 39  1  0  0  0  0
 18 19  1  0  0  0  0
 18 40  1  0  0  0  0
 18 41  1  0  0  0  0
 19 20  1  0  0  0  0
 19 42  1  0  0  0  0
 19 43  1  0  0  0  0
 20 21  2  0  0  0  0
 20 22  2  0  0  0  0
 20 23  1  0  0  0  0
 23 44  1  0  0  0  0
 23 45  1  0  0  0  0
M  END
> <s_m_source_file>
AV-unprocessed.smi

> <i_m_source_file_index>
1576

> <i_lp_mmshare_version>
43012

> <i_f3d_flags>
0

> <s_epik_input>
Tz1TMSg9TylbQ0gyXVtDSDJdW0NASF0oW0NIMl0xKVtOSF1DKD1PKVtOSF1jMltjSF1bY0hdYyhuW2NIXTIpTjNbQ0gyXVtDSDJdW0NIMl1bQ0gyXVtDSDJdMw==

> <s_epik_cmdline>
J2VwaWtfcHl0aG9uJywgJy1waCcsICc3LjAnLCAnLXRuJywgJzgnLCAnLW1hJywgJzIwMCcsICctbWV0YWxfYmluZGluZycsICctaW1hZScsICc8aW5maWxlLm1hZT4nLCAnLW9tYWUnLCAnPG91dGZpbGUubWFlPic=

> <r_lp_tautomer_probability>
1

> <r_epik_Ionization_Penalty>
0.0900267

> <r_epik_Ionization_Penalty_Charging>
0

> <r_epik_Ionization_Penalty_Neutral>
0.0900267

> <r_epik_State_Penalty>
0.0748882

> <r_epik_Charging_Adjusted_Penalty>
0.0748882

> <i_epik_Tot_Q>
0

> <i_epik_Tot_abs_Q>
0

> <r_epik_Metal_State_Penalty>
0.0662821

> <b_epik_Metal_Only>
0

> <s_lp_Force_Field>
OPLS_2005

> <r_lp_Energy>
21.2293

> <b_lp_Chiralities_Consistent>
1

> <s_lp_Variant>
AV-unprocessed.smi:1576-1

> <Gold.Version>
5.8.1

> <Gold.Id.Protein>
6NUR|6NUR_protein|mol2

> <Gold.PLP.Fitness>
42.0819

> <Gold.PLP.PLP>
-33.5724

> <Gold.PLP.part.hbond>
-2.9872

> <Gold.PLP.part.metal>
0.0000

> <Gold.PLP.part.buried>
-4.7849

> <Gold.PLP.part.nonpolar>
-27.1048

> <Gold.PLP.part.repulsive>
0.4292

> <Gold.PLP.ligand.clash>
0.0000

> <Gold.PLP.ligand.torsion>
0.3576

> <Gold.PLP.Chemscore.Hbond>
1.9351

> <Gold.PLP.Chemscore.CHOScore>
1.0000

> <Gold.PLP.Chemscore.Metal>
0.0000

> <Gold.Chemscore.Hbonds>
donor molecule, donor type, donor heavy atom, donor atom, acceptor molecule, acceptor atom, score
      L1  H     3    24       P1  7948  0.90
      L1  H    16    38       P1  7948  0.68
      P1  H  7989  7998       L1    14  0.55
      L1  C    15    37       P1  7957  1.00

> <Gold.PLP.Chemscore.Internal.Correction>
0.4193

> <Gold.Rescore>
     Score         DG    S(hbond)    S(metal)    S(lipo)     H(rot)  DE(clash)    DE(int)     intcor
     16.85     -18.53       1.92        0.00      83.85       1.24       0.00       1.68       ----

> <Gold.Chemscore.Fitness>
16.8493

> <Gold.Chemscore.DG>
-18.5330

> <Gold.Chemscore.ZeroCoef>
-5.4800

> <Gold.Chemscore.Hbond>
1.9185

> <Gold.Chemscore.Metal>
0.0000

> <Gold.Chemscore.Lipo>
83.8540

> <Gold.Chemscore.Internal_Hbond>
0.0000

> <Gold.Chemscore.DEClash>
0.0009

> <Gold.Chemscore.DEInternal>
1.6828

> <Gold.Chemscore.Rot>
1.2366

> <Gold.Chemscore.Internal.Correction>
   9.000000E+99

> <Gold.Chemscore.Hbonds>
donor molecule, donor type, donor heavy atom, donor atom, acceptor molecule, acceptor atom, score
      L1  H     3    24       P1  7948  0.86
      L1  H    16    38       P1  7948  0.65
      P1  H  7989  7998       L1    14  0.03

> <Gold.Chemscore.Hbond.Weighted>
-6.4078

> <Gold.Chemscore.Metal.Weighted>
-0.0000

> <Gold.Chemscore.Lipo.Weighted>
-9.8109

> <Gold.Chemscore.Internal_Hbond.Weighted>
0.0000

> <Gold.Chemscore.DEClash.Weighted>
0.0009

> <Gold.Chemscore.DEInternal.Weighted>
1.6828

> <Gold.Chemscore.Rot.Weighted>
3.1657

> <Gold.Chemscore.Internal.Correction.Weighted>
   9.000000E+99

> <Gold.Protein.RotatedTorsions>
[ 6907 6896 6895 6894 ] final -151.12 input  -60.11 | X-H torsion
[ 7974 7965 7964 7962 ] final -118.84 input  175.53 | X-H torsion
[ 8008 7997 7996 7995 ] final   35.13 input   59.86 | X-H torsion
[ 10167 10162 10161 10158 ] final  162.91 input  -65.29 | X-H torsion
[ 10718 10713 10712 10709 ] final   36.33 input   66.30 | X-H torsion
[ 10763 10752 10751 10750 ] final   -8.33 input  -60.55 | X-H torsion
[ 11005 11000 10999 10996 ] final  177.81 input  -57.11 | X-H torsion

> <Gold.Protein.ActiveResidues>
 VAL166  LYS551  ARG553  GLY616  TRP617  ASP618  TYR619  PRO620  LYS621  CYS622 
 ASP623  PHE694  ASN695  SER759  ASP760  ASP761  ALA762  ILE779  LEU786  VAL792 
 PHE793  MET794  SER795  GLU796  ALA797  LYS798  CYS799  TRP800  GLU811  SER814 

> <Gold.Protein.RotatedAtoms>
  151.2085  133.4569  159.2597 H   0  0  0  0  0  0  0  0  0  0  0  0  # atno 6907 bound_to 6896
  151.0999  134.9966  159.8454 H   0  0  0  0  0  0  0  0  0  0  0  0  # atno 6908 bound_to 6896
  152.5442  134.2012  159.8766 H   0  0  0  0  0  0  0  0  0  0  0  0  # atno 6909 bound_to 6896
  145.0693  140.8347  143.4105 H   0  0  0  0  0  0  0  0  0  0  0  0  # atno 7974 bound_to 7965
  155.1660  140.3287  155.4402 H   0  0  0  0  0  0  0  0  0  0  0  0  # atno 8008 bound_to 7997
  156.2526  140.1952  156.6716 H   0  0  0  0  0  0  0  0  0  0  0  0  # atno 8009 bound_to 7997
  154.6371  140.0575  156.9788 H   0  0  0  0  0  0  0  0  0  0  0  0  # atno 8010 bound_to 7997
  139.4866  144.4390  151.8975 H   0  0  0  0  0  0  0  0  0  0  0  0  # atno 10167 bound_to 10162
  157.3336  130.7510  149.6864 H   0  0  0  0  0  0  0  0  0  0  0  0  # atno 10718 bound_to 10713
  153.4390  135.7013  153.6181 H   0  0  0  0  0  0  0  0  0  0  0  0  # atno 10763 bound_to 10752
  153.4564  135.3746  155.2313 H   0  0  0  0  0  0  0  0  0  0  0  0  # atno 10764 bound_to 10752
  154.8727  135.4009  154.3785 H   0  0  0  0  0  0  0  0  0  0  0  0  # atno 10765 bound_to 10752
  140.3882  134.6886  157.4491 H   0  0  0  0  0  0  0  0  0  0  0  0  # atno 11005 bound_to 11000
  145.1312  139.2631  143.5538 LP  0  0  0  0  0  0  0  0  0  0  0  0  # atno 17320 bound_to 7965
  146.3528  140.0963  142.8610 LP  0  0  0  0  0  0  0  0  0  0  0  0  # atno 17321 bound_to 7965
  140.3841  144.2699  150.5905 LP  0  0  0  0  0  0  0  0  0  0  0  0  # atno 17342 bound_to 10162
  140.5206  143.2267  151.8394 LP  0  0  0  0  0  0  0  0  0  0  0  0  # atno 17343 bound_to 10162
  155.9698  130.4188  150.4345 LP  0  0  0  0  0  0  0  0  0  0  0  0  # atno 17370 bound_to 10713
  157.2381  131.0519  151.2453 LP  0  0  0  0  0  0  0  0  0  0  0  0  # atno 17371 bound_to 10713
  140.0427  134.6244  155.8960 LP  0  0  0  0  0  0  0  0  0  0  0  0  # atno 17394 bound_to 11000
  141.1900  133.6567  156.5393 LP  0  0  0  0  0  0  0  0  0  0  0  0  # atno 17395 bound_to 11000

$$$$
