AV-unprocessed.smi:2884|AV-procd|sdf|11085|dock7
  -GOLD-   2272015553D 1   1.00000     0.00000
 Structure written by MMmdl.
 41 42  0  0  0  0  0  0  0  0  2 V2000
  152.1137  145.2344  159.2782 C   0  0  0  0  0  0  0  0  0  0  0  0
  151.8645  143.7345  159.0735 C   0  0  0  0  0  0  0  0  0  0  0  0
  150.8398  143.4439  157.9700 C   0  0  0  0  0  0  0  0  0  0  0  0
  150.5301  142.0560  158.0137 O   0  0  0  0  0  0  0  0  0  0  0  0
  149.5506  141.5079  157.1241 C   0  0  0  0  0  0  0  0  0  0  0  0
  149.5672  140.0021  157.4947 C   0  0  0  0  0  0  0  0  0  0  0  0
  150.7411  139.3071  156.9819 N   0  0  0  0  0  0  0  0  0  0  0  0
  151.5064  138.3147  157.5848 C   0  0  0  0  0  0  0  0  0  0  0  0
  151.2014  137.7731  158.9332 C   0  0  0  0  0  0  0  0  0  0  0  0
  151.9022  136.8578  159.4764 N   0  0  0  0  0  0  0  0  0  0  0  0
  153.0445  136.2901  158.7958 N   0  5  0  0  0  0  0  0  0  0  0  0
  153.3884  136.7311  157.5479 C   0  0  0  0  0  0  0  0  0  0  0  0
  154.3493  136.2713  156.9332 O   0  0  0  0  0  0  0  0  0  0  0  0
  152.5750  137.7877  156.9346 C   0  0  0  0  0  0  0  0  0  0  0  0
  153.0051  138.3421  155.3489 Cl  0  0  0  0  0  0  0  0  0  0  0  0
  148.1472  142.1431  157.3318 C   0  0  0  0  0  0  0  0  0  0  0  0
  147.1041  141.5923  156.3429 C   0  0  0  0  0  0  0  0  0  0  0  0
  147.5645  141.7819  154.8884 C   0  0  0  0  0  0  0  0  0  0  0  0
  148.9500  141.1610  154.6466 C   0  0  0  0  0  0  0  0  0  0  0  0
  149.9895  141.6983  155.6486 C   0  0  0  0  0  0  0  0  0  0  0  0
  152.8589  145.4014  160.0561 H   0  0  0  0  0  0  0  0  0  0  0  0
  151.2027  145.7515  159.5794 H   0  0  0  0  0  0  0  0  0  0  0  0
  152.4760  145.7029  158.3628 H   0  0  0  0  0  0  0  0  0  0  0  0
  152.8083  143.2506  158.8211 H   0  0  0  0  0  0  0  0  0  0  0  0
  151.5304  143.2879  160.0107 H   0  0  0  0  0  0  0  0  0  0  0  0
  149.9616  144.0679  158.1270 H   0  0  0  0  0  0  0  0  0  0  0  0
  151.2714  143.7107  157.0061 H   0  0  0  0  0  0  0  0  0  0  0  0
  149.5724  139.8708  158.5754 H   0  0  0  0  0  0  0  0  0  0  0  0
  148.6553  139.5157  157.1512 H   0  0  0  0  0  0  0  0  0  0  0  0
  150.9683  139.5205  156.0216 H   0  0  0  0  0  0  0  0  0  0  0  0
  150.3349  138.1956  159.4457 H   0  0  0  0  0  0  0  0  0  0  0  0
  147.8037  142.0027  158.3570 H   0  0  0  0  0  0  0  0  0  0  0  0
  148.1913  143.2201  157.1780 H   0  0  0  0  0  0  0  0  0  0  0  0
  146.9177  140.5364  156.5396 H   0  0  0  0  0  0  0  0  0  0  0  0
  146.1511  142.0995  156.4949 H   0  0  0  0  0  0  0  0  0  0  0  0
  146.8356  141.3420  154.2071 H   0  0  0  0  0  0  0  0  0  0  0  0
  147.5998  142.8472  154.6558 H   0  0  0  0  0  0  0  0  0  0  0  0
  148.8848  140.0751  154.7148 H   0  0  0  0  0  0  0  0  0  0  0  0
  149.2759  141.3785  153.6291 H   0  0  0  0  0  0  0  0  0  0  0  0
  150.1309  142.7560  155.4298 H   0  0  0  0  0  0  0  0  0  0  0  0
  150.9544  141.2201  155.4769 H   0  0  0  0  0  0  0  0  0  0  0  0
  1  2  1  0  0  0  0
  1 21  1  0  0  0  0
  1 22  1  0  0  0  0
  1 23  1  0  0  0  0
  2  3  1  0  0  0  0
  2 24  1  0  0  0  0
  2 25  1  0  0  0  0
  3  4  1  0  0  0  0
  3 26  1  0  0  0  0
  3 27  1  0  0  0  0
  4  5  1  0  0  0  0
  5 20  1  0  0  0  0
  5  6  1  0  0  0  0
  5 16  1  0  0  0  0
  6  7  1  0  0  0  0
  6 28  1  0  0  0  0
  6 29  1  0  0  0  0
  7  8  1  0  0  0  0
  7 30  1  0  0  0  0
  8 14  2  0  0  0  0
  8  9  1  0  0  0  0
  9 10  2  0  0  0  0
  9 31  1  0  0  0  0
 10 11  1  0  0  0  0
 11 12  1  0  0  0  0
 12 13  2  0  0  0  0
 12 14  1  0  0  0  0
 14 15  1  0  0  0  0
 16 17  1  0  0  0  0
 16 32  1  0  0  0  0
 16 33  1  0  0  0  0
 17 18  1  0  0  0  0
 17 34  1  0  0  0  0
 17 35  1  0  0  0  0
 18 19  1  0  0  0  0
 18 36  1  0  0  0  0
 18 37  1  0  0  0  0
 19 20  1  0  0  0  0
 19 38  1  0  0  0  0
 19 39  1  0  0  0  0
 20 40  1  0  0  0  0
 20 41  1  0  0  0  0
M  CHG  1  11  -1
M  END
> <s_m_source_file>
AV-unprocessed.smi

> <i_m_source_file_index>
2884

> <i_lp_mmshare_version>
43012

> <i_f3d_flags>
0

> <s_epik_input>
W0NIMl0xW0NIMl1bQ0gyXVtDSDJdW0NIMl1DMShPW0NIMl1bQ0gyXVtDSDNdKVtDSDJdW05IXWMyW2NIXW5bbkhdYyg9TyljMkNs

> <s_epik_cmdline>
J2VwaWtfcHl0aG9uJywgJy1waCcsICc3LjAnLCAnLXRuJywgJzgnLCAnLW1hJywgJzIwMCcsICctbWV0YWxfYmluZGluZycsICctaW1hZScsICc8aW5maWxlLm1hZT4nLCAnLW9tYWUnLCAnPG91dGZpbGUubWFlPic=

> <r_lp_tautomer_probability>
0.986175

> <r_epik_Ionization_Penalty>
3.75229

> <r_epik_Ionization_Penalty_Charging>
0.0129106

> <r_epik_Ionization_Penalty_Neutral>
3.73938

> <r_epik_State_Penalty>
3.73863

> <r_epik_Charging_Adjusted_Penalty>
3.75154

> <i_epik_Tot_Q>
-1

> <i_epik_Tot_abs_Q>
1

> <r_epik_Metal_State_Penalty>
0.55642

> <b_epik_Metal_Only>
1

> <s_lp_Force_Field>
OPLS_2005

> <r_lp_Energy>
41.2708

> <b_lp_Chiralities_Consistent>
1

> <s_lp_Variant>
AV-unprocessed.smi:2884-3

> <Gold.Version>
5.8.1

> <Gold.Id.Protein>
6NUR|6NUR_protein|mol2

> <Gold.PLP.Fitness>
37.5385

> <Gold.PLP.PLP>
-32.8324

> <Gold.PLP.part.hbond>
-2.7974

> <Gold.PLP.part.metal>
0.0000

> <Gold.PLP.part.buried>
-3.7605

> <Gold.PLP.part.nonpolar>
-25.9837

> <Gold.PLP.part.repulsive>
0.0920

> <Gold.PLP.ligand.clash>
0.0000

> <Gold.PLP.ligand.torsion>
0.3606

> <Gold.PLP.Chemscore.Hbond>
1.8024

> <Gold.PLP.Chemscore.CHOScore>
0.0000

> <Gold.PLP.Chemscore.Metal>
0.0000

> <Gold.Chemscore.Hbonds>
donor molecule, donor type, donor heavy atom, donor atom, acceptor molecule, acceptor atom, score
      P1  H  6896  6908       L1    10  0.35
      P1  H 10752 10763       L1    13  1.00

> <Gold.PLP.Chemscore.Internal.Correction>
0.0202

> <Gold.Rescore>
     Score         DG    S(hbond)    S(metal)    S(lipo)     H(rot)  DE(clash)    DE(int)     intcor
     15.32     -15.78       1.26        0.00      89.54       1.71       0.07       0.39       ----

> <Gold.Chemscore.Fitness>
15.3246

> <Gold.Chemscore.DG>
-15.7825

> <Gold.Chemscore.ZeroCoef>
-5.4800

> <Gold.Chemscore.Hbond>
1.2561

> <Gold.Chemscore.Metal>
0.0000

> <Gold.Chemscore.Lipo>
89.5423

> <Gold.Chemscore.Internal_Hbond>
0.0000

> <Gold.Chemscore.DEClash>
0.0650

> <Gold.Chemscore.DEInternal>
0.3929

> <Gold.Chemscore.Rot>
1.7068

> <Gold.Chemscore.Internal.Correction>
   9.000000E+99

> <Gold.Chemscore.Hbonds>
donor molecule, donor type, donor heavy atom, donor atom, acceptor molecule, acceptor atom, score
      P1  H  6896  6908       L1    10  0.01
      P1  H 10752 10763       L1    13  0.94

> <Gold.Chemscore.Hbond.Weighted>
-4.1955

> <Gold.Chemscore.Metal.Weighted>
-0.0000

> <Gold.Chemscore.Lipo.Weighted>
-10.4764

> <Gold.Chemscore.Internal_Hbond.Weighted>
0.0000

> <Gold.Chemscore.DEClash.Weighted>
0.0650

> <Gold.Chemscore.DEInternal.Weighted>
0.3929

> <Gold.Chemscore.Rot.Weighted>
4.3694

> <Gold.Chemscore.Internal.Correction.Weighted>
   9.000000E+99

> <Gold.Protein.RotatedTorsions>
[ 6907 6896 6895 6894 ] final -127.84 input  -60.11 | X-H torsion
[ 7974 7965 7964 7962 ] final   22.32 input  175.53 | X-H torsion
[ 8008 7997 7996 7995 ] final  -20.91 input   59.86 | X-H torsion
[ 10167 10162 10161 10158 ] final -130.27 input  -65.29 | X-H torsion
[ 10718 10713 10712 10709 ] final   26.91 input   66.30 | X-H torsion
[ 10763 10752 10751 10750 ] final  161.06 input  -60.55 | X-H torsion
[ 11005 11000 10999 10996 ] final  102.08 input  -57.11 | X-H torsion

> <Gold.Protein.ActiveResidues>
 VAL166  LYS551  ARG553  GLY616  TRP617  ASP618  TYR619  PRO620  LYS621  CYS622 
 ASP623  PHE694  ASN695  SER759  ASP760  ASP761  ALA762  ILE779  LEU786  VAL792 
 PHE793  MET794  SER795  GLU796  ALA797  LYS798  CYS799  TRP800  GLU811  SER814 

> <Gold.Protein.RotatedAtoms>
  150.9115  133.6992  159.2853 H   0  0  0  0  0  0  0  0  0  0  0  0  # atno 6907 bound_to 6896
  151.4477  135.1025  159.9698 H   0  0  0  0  0  0  0  0  0  0  0  0  # atno 6908 bound_to 6896
  152.4932  133.8508  159.7256 H   0  0  0  0  0  0  0  0  0  0  0  0  # atno 6909 bound_to 6896
  146.2034  139.7902  142.8744 H   0  0  0  0  0  0  0  0  0  0  0  0  # atno 7974 bound_to 7965
  154.4739  140.2049  155.9925 H   0  0  0  0  0  0  0  0  0  0  0  0  # atno 8008 bound_to 7997
  156.1057  140.3237  155.7973 H   0  0  0  0  0  0  0  0  0  0  0  0  # atno 8009 bound_to 7997
  155.4721  140.0532  157.2969 H   0  0  0  0  0  0  0  0  0  0  0  0  # atno 8010 bound_to 7997
  139.9311  143.6271  152.2529 H   0  0  0  0  0  0  0  0  0  0  0  0  # atno 10167 bound_to 10162
  157.2131  130.6943  149.6237 H   0  0  0  0  0  0  0  0  0  0  0  0  # atno 10718 bound_to 10713
  154.2570  135.2769  155.2793 H   0  0  0  0  0  0  0  0  0  0  0  0  # atno 10763 bound_to 10752
  154.5416  135.5701  153.6848 H   0  0  0  0  0  0  0  0  0  0  0  0  # atno 10764 bound_to 10752
  152.9969  135.6252  154.2719 H   0  0  0  0  0  0  0  0  0  0  0  0  # atno 10765 bound_to 10752
  139.8776  134.9210  156.5005 H   0  0  0  0  0  0  0  0  0  0  0  0  # atno 11005 bound_to 11000
  145.3405  141.0286  143.3395 LP  0  0  0  0  0  0  0  0  0  0  0  0  # atno 17320 bound_to 7965
  144.8735  139.5004  143.6756 LP  0  0  0  0  0  0  0  0  0  0  0  0  # atno 17321 bound_to 7965
  139.6782  144.7657  151.1657 LP  0  0  0  0  0  0  0  0  0  0  0  0  # atno 17342 bound_to 10162
  140.7637  143.5764  150.8941 LP  0  0  0  0  0  0  0  0  0  0  0  0  # atno 17343 bound_to 10162
  155.9689  130.4544  150.5850 LP  0  0  0  0  0  0  0  0  0  0  0  0  # atno 17370 bound_to 10713
  157.3652  131.0756  151.1604 LP  0  0  0  0  0  0  0  0  0  0  0  0  # atno 17371 bound_to 10713
  140.8593  133.8072  155.9249 LP  0  0  0  0  0  0  0  0  0  0  0  0  # atno 17394 bound_to 11000
  140.9065  134.2313  157.5011 LP  0  0  0  0  0  0  0  0  0  0  0  0  # atno 17395 bound_to 11000

$$$$
