AV-unprocessed.smi:1452|AV-procd|sdf|5909|dock2
  -GOLD-   22720 5593D 1   1.00000     0.00000
 Structure written by MMmdl.
 40 42  0  0  0  0  0  0  0  0  2 V2000
  144.7755  136.7985  152.5934 O   0  0  0  0  0  0  0  0  0  0  0  0
  145.9687  136.6261  152.3515 C   0  0  0  0  0  0  0  0  0  0  0  0
  146.4020  135.5098  151.7286 N   0  0  0  0  0  0  0  0  0  0  0  0
  145.6920  134.3724  151.2425 C   0  0  0  0  0  0  0  0  0  0  0  0
  146.5045  133.3871  150.6373 C   0  0  0  0  0  0  0  0  0  0  0  0
  145.9111  132.2259  150.1057 C   0  0  0  0  0  0  0  0  0  0  0  0
  144.5152  132.0796  150.1885 C   0  0  0  0  0  0  0  0  0  0  0  0
  143.7767  133.1078  150.8013 C   0  0  0  0  0  0  0  0  0  0  0  0
  144.3439  134.2216  151.3116 N   0  0  0  0  0  0  0  0  0  0  0  0
  146.9147  137.5203  152.6836 N   0  0  0  0  0  0  0  0  0  0  0  0
  146.6956  138.7710  153.4060 C   0  0  2  0  0  0  0  0  0  0  0  0
  146.5448  139.9832  152.4660 C   0  0  0  0  0  0  0  0  0  0  0  0
  147.3622  141.0958  153.1300 C   0  0  0  0  0  0  0  0  0  0  0  0
  148.4511  140.3593  153.7820 N   0  3  1  0  0  0  0  0  0  0  0  0
  149.3166  141.0799  154.7373 C   0  0  0  0  0  0  0  0  0  0  0  0
  150.4798  140.1486  155.1408 C   0  0  0  0  0  0  0  0  0  0  0  0
  149.9819  138.7743  155.6436 C   0  0  0  0  0  0  0  0  0  0  0  0
  148.9814  138.1325  154.6586 C   0  0  0  0  0  0  0  0  0  0  0  0
  147.8570  139.1406  154.3578 C   0  0  2  0  0  0  0  0  0  0  0  0
  147.3856  135.5136  151.5001 H   0  0  0  0  0  0  0  0  0  0  0  0
  147.5757  133.5154  150.5786 H   0  0  0  0  0  0  0  0  0  0  0  0
  146.5173  131.4622  149.6413 H   0  0  0  0  0  0  0  0  0  0  0  0
  144.0235  131.2038  149.7913 H   0  0  0  0  0  0  0  0  0  0  0  0
  142.7023  133.0360  150.8834 H   0  0  0  0  0  0  0  0  0  0  0  0
  147.8693  137.2954  152.4402 H   0  0  0  0  0  0  0  0  0  0  0  0
  145.7808  138.6897  153.9964 H   0  0  0  0  0  0  0  0  0  0  0  0
  146.9726  139.7596  151.4873 H   0  0  0  0  0  0  0  0  0  0  0  0
  145.5036  140.2682  152.3114 H   0  0  0  0  0  0  0  0  0  0  0  0
  147.7351  141.8290  152.4145 H   0  0  0  0  0  0  0  0  0  0  0  0
  146.7658  141.6145  153.8822 H   0  0  0  0  0  0  0  0  0  0  0  0
  149.7043  141.9867  154.2718 H   0  0  0  0  0  0  0  0  0  0  0  0
  148.7397  141.3850  155.6119 H   0  0  0  0  0  0  0  0  0  0  0  0
  151.1294  139.9958  154.2779 H   0  0  0  0  0  0  0  0  0  0  0  0
  151.0941  140.6265  155.9045 H   0  0  0  0  0  0  0  0  0  0  0  0
  150.8279  138.1058  155.8068 H   0  0  0  0  0  0  0  0  0  0  0  0
  149.4998  138.9005  156.6139 H   0  0  0  0  0  0  0  0  0  0  0  0
  149.4946  137.8472  153.7391 H   0  0  0  0  0  0  0  0  0  0  0  0
  148.5718  137.2193  155.0914 H   0  0  0  0  0  0  0  0  0  0  0  0
  147.3958  139.4195  155.3079 H   0  0  0  0  0  0  0  0  0  0  0  0
  149.0504  140.0471  153.0313 H   0  0  0  0  0  0  0  0  0  0  0  0
  1  2  2  0  0  0  0
  2  3  1  0  0  0  0
  2 10  1  0  0  0  0
  3  4  1  0  0  0  0
  3 20  1  0  0  0  0
  4  9  1  0  0  0  0
  4  5  2  0  0  0  0
  5  6  1  0  0  0  0
  5 21  1  0  0  0  0
  6  7  2  0  0  0  0
  6 22  1  0  0  0  0
  7  8  1  0  0  0  0
  7 23  1  0  0  0  0
  8  9  2  0  0  0  0
  8 24  1  0  0  0  0
 10 11  1  0  0  0  0
 10 25  1  0  0  0  0
 11 19  1  0  0  0  0
 11 12  1  0  0  0  0
 11 26  1  0  0  0  0
 12 13  1  0  0  0  0
 12 27  1  0  0  0  0
 12 28  1  0  0  0  0
 13 14  1  0  0  0  0
 13 29  1  0  0  0  0
 13 30  1  0  0  0  0
 14 19  1  0  0  0  0
 14 15  1  0  0  0  0
 14 40  1  0  0  0  0
 15 16  1  0  0  0  0
 15 31  1  0  0  0  0
 15 32  1  0  0  0  0
 16 17  1  0  0  0  0
 16 33  1  0  0  0  0
 16 34  1  0  0  0  0
 17 18  1  0  0  0  0
 17 35  1  0  0  0  0
 17 36  1  0  0  0  0
 18 19  1  0  0  0  0
 18 37  1  0  0  0  0
 18 38  1  0  0  0  0
 19 39  1  0  0  0  0
M  CHG  1  14   1
M  END
> <s_m_source_file>
AV-unprocessed.smi

> <i_m_source_file_index>
1452

> <i_lp_mmshare_version>
43012

> <i_f3d_flags>
0

> <s_epik_input>
W0NIMl0xW0NIMl1bQ0gyXVtDSDJdW0NASF0oTjEyKVtDQEBIXShbQ0gyXVtDSDJdMilbTkhdQyg9TylbTkhdYzNbY0hdW2NIXVtjSF1bY0hdbjM=

> <s_epik_cmdline>
J2VwaWtfcHl0aG9uJywgJy1waCcsICc3LjAnLCAnLXRuJywgJzgnLCAnLW1hJywgJzIwMCcsICctbWV0YWxfYmluZGluZycsICctaW1hZScsICc8aW5maWxlLm1hZT4nLCAnLW9tYWUnLCAnPG91dGZpbGUubWFlPic=

> <r_epik_Ionization_Penalty>
0.00100813

> <r_epik_Ionization_Penalty_Charging>
0.000974069

> <r_epik_Ionization_Penalty_Neutral>
3.40643e-05

> <r_epik_State_Penalty>
0.000633842

> <r_epik_Charging_Adjusted_Penalty>
0.00160791

> <i_epik_Tot_Q>
1

> <i_epik_Tot_abs_Q>
1

> <r_epik_Metal_State_Penalty>
-0

> <b_epik_Metal_Only>
0

> <s_lp_Force_Field>
OPLS_2005

> <r_lp_Energy>
45.6992

> <b_lp_Chiralities_Consistent>
1

> <s_lp_Variant>
AV-unprocessed.smi:1452-7

> <Gold.Version>
5.8.1

> <Gold.Id.Protein>
6NUR|6NUR_protein|mol2

> <Gold.PLP.Fitness>
41.6598

> <Gold.PLP.PLP>
-30.5827

> <Gold.PLP.part.hbond>
-3.0000

> <Gold.PLP.part.metal>
0.0000

> <Gold.PLP.part.buried>
-1.2220

> <Gold.PLP.part.nonpolar>
-27.3359

> <Gold.PLP.part.repulsive>
0.5720

> <Gold.PLP.ligand.clash>
0.0000

> <Gold.PLP.ligand.torsion>
0.3446

> <Gold.PLP.Chemscore.Hbond>
2.9600

> <Gold.PLP.Chemscore.CHOScore>
0.9619

> <Gold.PLP.Chemscore.Metal>
0.0000

> <Gold.Chemscore.Hbonds>
donor molecule, donor type, donor heavy atom, donor atom, acceptor molecule, acceptor atom, score
      L1  H     3    20       P1  7948  0.94
      L1  H    10    25       P1  7948  0.99
      L1  H    14    40       P1  7957  1.00
      L1  C     8    24       P1 10186  0.86

> <Gold.PLP.Chemscore.Internal.Correction>
0.0006

> <Gold.Rescore>
     Score         DG    S(hbond)    S(metal)    S(lipo)     H(rot)  DE(clash)    DE(int)     intcor
     19.39     -21.97       2.81        0.00      82.69       1.00       1.01       1.57       ----

> <Gold.Chemscore.Fitness>
19.3881

> <Gold.Chemscore.DG>
-21.9664

> <Gold.Chemscore.ZeroCoef>
-5.4800

> <Gold.Chemscore.Hbond>
2.8059

> <Gold.Chemscore.Metal>
0.0000

> <Gold.Chemscore.Lipo>
82.6887

> <Gold.Chemscore.Internal_Hbond>
0.0000

> <Gold.Chemscore.DEClash>
1.0117

> <Gold.Chemscore.DEInternal>
1.5667

> <Gold.Chemscore.Rot>
1.0000

> <Gold.Chemscore.Internal.Correction>
   9.000000E+99

> <Gold.Chemscore.Hbonds>
donor molecule, donor type, donor heavy atom, donor atom, acceptor molecule, acceptor atom, score
      L1  H     3    20       P1  7948  0.87
      L1  H    10    25       P1  7948  0.93
      L1  H    14    40       P1  7957  0.95

> <Gold.Chemscore.Hbond.Weighted>
-9.3718

> <Gold.Chemscore.Metal.Weighted>
-0.0000

> <Gold.Chemscore.Lipo.Weighted>
-9.6746

> <Gold.Chemscore.Internal_Hbond.Weighted>
0.0000

> <Gold.Chemscore.DEClash.Weighted>
1.0117

> <Gold.Chemscore.DEInternal.Weighted>
1.5667

> <Gold.Chemscore.Rot.Weighted>
2.5600

> <Gold.Chemscore.Internal.Correction.Weighted>
   9.000000E+99

> <Gold.Protein.RotatedTorsions>
[ 6907 6896 6895 6894 ] final  105.71 input  -60.11 | X-H torsion
[ 7974 7965 7964 7962 ] final  113.94 input  175.53 | X-H torsion
[ 8008 7997 7996 7995 ] final  -96.88 input   59.86 | X-H torsion
[ 10167 10162 10161 10158 ] final   -6.83 input  -65.29 | X-H torsion
[ 10718 10713 10712 10709 ] final  -79.07 input   66.30 | X-H torsion
[ 10763 10752 10751 10750 ] final    9.19 input  -60.55 | X-H torsion
[ 11005 11000 10999 10996 ] final  -66.55 input  -57.11 | X-H torsion

> <Gold.Protein.ActiveResidues>
 VAL166  LYS551  ARG553  GLY616  TRP617  ASP618  TYR619  PRO620  LYS621  CYS622 
 ASP623  PHE694  ASN695  SER759  ASP760  ASP761  ALA762  ILE779  LEU786  VAL792 
 PHE793  MET794  SER795  GLU796  ALA797  LYS798  CYS799  TRP800  GLU811  SER814 

> <Gold.Protein.RotatedAtoms>
  152.5221  133.9489  159.7661 H   0  0  0  0  0  0  0  0  0  0  0  0  # atno 6907 bound_to 6896
  150.9803  133.6244  159.2730 H   0  0  0  0  0  0  0  0  0  0  0  0  # atno 6908 bound_to 6896
  151.3424  135.0872  159.9428 H   0  0  0  0  0  0  0  0  0  0  0  0  # atno 6909 bound_to 6896
  145.2107  139.2908  143.4270 H   0  0  0  0  0  0  0  0  0  0  0  0  # atno 7974 bound_to 7965
  154.7803  140.0467  157.1122 H   0  0  0  0  0  0  0  0  0  0  0  0  # atno 8008 bound_to 7997
  154.9712  140.3090  155.4967 H   0  0  0  0  0  0  0  0  0  0  0  0  # atno 8009 bound_to 7997
  156.2935  140.2253  156.4805 H   0  0  0  0  0  0  0  0  0  0  0  0  # atno 8010 bound_to 7997
  140.7009  143.6150  150.8667 H   0  0  0  0  0  0  0  0  0  0  0  0  # atno 10167 bound_to 10162
  156.0101  130.4535  150.3593 H   0  0  0  0  0  0  0  0  0  0  0  0  # atno 10718 bound_to 10713
  153.2167  135.6876  153.8048 H   0  0  0  0  0  0  0  0  0  0  0  0  # atno 10763 bound_to 10752
  153.7261  135.3260  155.3277 H   0  0  0  0  0  0  0  0  0  0  0  0  # atno 10764 bound_to 10752
  154.8249  135.4624  154.0998 H   0  0  0  0  0  0  0  0  0  0  0  0  # atno 10765 bound_to 10752
  141.1485  133.6701  156.6157 H   0  0  0  0  0  0  0  0  0  0  0  0  # atno 11005 bound_to 11000
  146.3398  140.2381  142.8595 LP  0  0  0  0  0  0  0  0  0  0  0  0  # atno 17320 bound_to 7965
  144.9859  140.8502  143.5369 LP  0  0  0  0  0  0  0  0  0  0  0  0  # atno 17321 bound_to 7965
  139.9872  143.5886  152.2923 LP  0  0  0  0  0  0  0  0  0  0  0  0  # atno 17342 bound_to 10162
  139.6529  144.7661  151.2113 LP  0  0  0  0  0  0  0  0  0  0  0  0  # atno 17343 bound_to 10162
  157.1682  131.0362  151.2808 LP  0  0  0  0  0  0  0  0  0  0  0  0  # atno 17370 bound_to 10713
  157.4252  130.7459  149.6945 LP  0  0  0  0  0  0  0  0  0  0  0  0  # atno 17371 bound_to 10713
  140.3580  134.7712  157.4514 LP  0  0  0  0  0  0  0  0  0  0  0  0  # atno 17394 bound_to 11000
  140.0808  134.5734  155.8543 LP  0  0  0  0  0  0  0  0  0  0  0  0  # atno 17395 bound_to 11000

$$$$
