#       Name:                AV-unprocessed.smi:1199
#       Creating user name   scv26
#       Creation time:       Fri Mar 27 04:03:44 2020


#       File generated by GOLD software.
#

@<TRIPOS>MOLECULE
AV-unprocessed.smi:1199
    51    52     1
SMALL
NO_CHARGES


@<TRIPOS>ATOM
      1 ****        -2.9954  -2.8579   0.8048 C.3            1 S1                 0.0000
      2 ****        -2.1687  -1.6151   0.4497 C.3            1 S1                 0.0000
      3 ****        -1.9826  -1.4773  -1.0782 C.3            1 S1                 0.0000
      4 ****        -1.1264  -0.3702  -1.5089 N.3            1 S1                 0.0000
      5 ****        -1.7227   0.9406  -1.2665 C.3            1 S1                 0.0000
      6 ****        -0.7833   2.0770  -1.7046 C.3            1 S1                 0.0000
      7 ****        -0.4546   1.9192  -3.0813 O.3            1 S1                 0.0000
      8 ****         0.1584   0.6644  -3.3607 C.3            1 S1                 0.0000
      9 ****        -0.7744  -0.4774  -2.9193 C.3            1 S1                 0.0000
     10 ****        -0.8617  -1.7013   1.0991 N.am           1 S1                 0.0000
     11 ****        -0.2687  -0.7191   1.7957 C.2            1 S1                 0.0000
     12 ****        -0.8235   0.3399   2.0909 O.2            1 S1                 0.0000
     13 ****         1.1851  -0.9666   2.2147 C.3            1 S1                 0.0000
     14 ****         2.0533   0.1651   1.8602 N.am           1 S1                 0.0000
     15 ****         2.3839   0.9850   2.9283 N.2            1 S1                 0.0000
     16 ****         3.1114   2.0326   2.7349 C.2            1 S1                 0.0000
     17 ****         3.4109   2.8197   3.8194 O.3            1 S1                 0.0000
     18 ****         3.5987   2.3733   1.4163 C.2            1 S1                 0.0000
     19 ****         3.2793   1.5635   0.3831 C.2            1 S1                 0.0000
     20 ****         2.4604   0.3644   0.5678 C.2            1 S1                 0.0000
     21 ****         2.1614  -0.3954  -0.3535 O.2            1 S1                 0.0000
     22 ****         2.9796   2.4092   4.5531 H              1 S1                 0.0000
     23 ****        -3.9813  -2.8169   0.3412 H              1 S1                 0.0000
     24 ****        -3.1415  -2.9371   1.8826 H              1 S1                 0.0000
     25 ****        -2.5070  -3.7725   0.4664 H              1 S1                 0.0000
     26 ****        -2.7212  -0.7514   0.8214 H              1 S1                 0.0000
     27 ****        -1.5515  -2.4111  -1.4420 H              1 S1                 0.0000
     28 ****        -2.9578  -1.3944  -1.5599 H              1 S1                 0.0000
     29 ****        -2.6683   1.0229  -1.8043 H              1 S1                 0.0000
     30 ****        -1.9540   1.0665  -0.2102 H              1 S1                 0.0000
     31 ****        -1.2642   3.0443  -1.5602 H              1 S1                 0.0000
     32 ****         0.1271   2.0777  -1.1026 H              1 S1                 0.0000
     33 ****         0.3624   0.5967  -4.4294 H              1 S1                 0.0000
     34 ****         1.1184   0.5997  -2.8462 H              1 S1                 0.0000
     35 ****        -0.2843  -1.4333  -3.1076 H              1 S1                 0.0000
     36 ****        -1.6793  -0.4639  -3.5288 H              1 S1                 0.0000
     37 ****        -0.3244  -2.5369   0.9192 H              1 S1                 0.0000
     38 ****         1.2031  -1.1426   3.2916 H              1 S1                 0.0000
     39 ****         1.5634  -1.8837   1.7586 H              1 S1                 0.0000
     40 ****         4.2033   3.2566   1.2714 H              1 S1                 0.0000
     41 ****         3.6356   1.8066  -0.6073 H              1 S1                 0.0000
     42 ****        -0.2999  -0.4450  -0.9508 LP             1 S1                 0.0000
     43 ****         0.1762   2.6490  -3.3451 LP             1 S1                 0.0000
     44 ****        -1.2934   1.9924  -3.6207 LP             1 S1                 0.0000
     45 ****        -1.7687   0.5047   1.8090 LP             1 S1                 0.0000
     46 ****        -0.3288   1.0350   2.6126 LP             1 S1                 0.0000
     47 ****         2.0587   0.7644   3.8479 LP             1 S1                 0.0000
     48 ****         3.0647   3.7481   3.6845 LP             1 S1                 0.0000
     49 ****         4.3995   2.8508   3.9671 LP             1 S1                 0.0000
     50 ****         1.5967  -1.2009  -0.1740 LP             1 S1                 0.0000
     51 ****         2.4833  -0.2071  -1.2813 LP             1 S1                 0.0000
@<TRIPOS>BOND
    1    1    2 1     
    2    1   23 1     
    3    1   24 1     
    4    1   25 1     
    5    2    3 1     
    6    2   10 1     
    7    2   26 1     
    8    3    4 1     
    9    3   27 1     
   10    3   28 1     
   11    4    9 1     
   12    4    5 1     
   13    5    6 1     
   14    5   29 1     
   15    5   30 1     
   16    6    7 1     
   17    6   31 1     
   18    6   32 1     
   19    7    8 1     
   20    8    9 1     
   21    8   33 1     
   22    8   34 1     
   23    9   35 1     
   24    9   36 1     
   25   10   11 am    
   26   10   37 1     
   27   11   12 2     
   28   11   13 1     
   29   13   38 1     
   30   13   39 1     
   31   13   14 1     
   32   14   15 1     
   33   14   20 am    
   34   15   16 2     
   35   16   17 1     
   36   16   18 1     
   37   17   22 1     
   38   18   40 1     
   39   18   19 2     
   40   19   41 1     
   41   19   20 1     
   42   20   21 2     
   43    4   42 1     
   44    7   43 1     
   45    7   44 1     
   46   12   45 1     
   47   12   46 1     
   48   15   47 1     
   49   17   48 1     
   50   17   49 1     
   51   21   50 1     
   52   21   51 1     
@<TRIPOS>SUBSTRUCTURE
      1 S1             1
@<TRIPOS>SET
LONE_PAIRS      STATIC     ATOMS    <user>   **** ""
10 42 43 44 45 46 47 48 49 50 51
DONOR_HYDROGENS      STATIC     ATOMS    <user>   **** ""
2 37 22
ATOM$BLUE        STATIC     ATOMS    COLORGROUP SYSTEM
10 42 43 44 45 46 47 48 49 50 51
ATOM$RED        STATIC     ATOMS    COLORGROUP SYSTEM
2 37 22
