#       Name:                AV-unprocessed.smi:2862
#       Creating user name   scv26
#       Creation time:       Fri Mar 27 15:46:44 2020


#       File generated by GOLD software.
#

@<TRIPOS>MOLECULE
AV-unprocessed.smi:2862
    58    60     1
SMALL
NO_CHARGES


@<TRIPOS>ATOM
      1 ****        -2.8299   1.2721   3.2601 C.3            1 S1                 0.0000
      2 ****        -2.4374   1.3410   1.7744 C.3            1 S1                 0.0000
      3 ****        -2.1983  -0.0082   1.2692 N.am           1 S1                 0.0000
      4 ****        -3.1498  -0.8761   0.8792 C.2            1 S1                 0.0000
      5 ****        -4.3460  -0.5878   0.8629 O.2            1 S1                 0.0000
      6 ****        -2.7241  -2.2924   0.4555 C.3            1 S1                 0.0000
      7 ****        -1.2680  -2.5107   0.3859 N.am           1 S1                 0.0000
      8 ****        -0.6333  -2.9268   1.5745 C.2            1 S1                 0.0000
      9 ****         0.6871  -3.1604   1.6370 C.2            1 S1                 0.0000
     10 ****         1.4721  -2.9739   0.4414 C.2            1 S1                 0.0000
     11 ****         0.8770  -2.5510  -0.6929 C.2            1 S1                 0.0000
     12 ****         1.6451  -2.3917  -1.9264 C.2            1 S1                 0.0000
     13 ****         2.1403  -3.3631  -2.5011 O.2            1 S1                 0.0000
     14 ****         1.8143  -1.1213  -2.3952 N.am           1 S1                 0.0000
     15 ****         2.5250  -0.9494  -3.6707 C.3            1 S1                 0.0000
     16 ****         1.4878   0.1376  -1.6843 C.3            1 S1                 0.0000
     17 ****         0.4831   0.9868  -2.4858 C.3            1 S1                 0.0000
     18 ****         2.7071   0.9378  -1.2521 C.3            1 S1                 0.0000
     19 ****         3.4970   0.5471  -0.0263 C.3            1 S1                 0.0000
     20 ****         2.6707   1.8135  -0.0219 C.3            1 S1                 0.0000
     21 ****        -0.5817  -2.3155  -0.7829 C.2            1 S1                 0.0000
     22 ****        -1.1615  -1.9724  -1.8164 O.2            1 S1                 0.0000
     23 ****        -1.2482   2.2635   1.5804 C.3            1 S1                 0.0000
     24 ****        -1.4169   3.7621   1.6769 C.3            1 S1                 0.0000
     25 ****        -1.1082   3.1215   0.3450 C.3            1 S1                 0.0000
     26 ****        -3.0502   2.2644   3.6543 H              1 S1                 0.0000
     27 ****        -2.0267   0.8466   3.8630 H              1 S1                 0.0000
     28 ****        -3.7192   0.6596   3.4110 H              1 S1                 0.0000
     29 ****        -3.2749   1.7735   1.2236 H              1 S1                 0.0000
     30 ****        -1.2384  -0.3213   1.2510 H              1 S1                 0.0000
     31 ****        -3.1623  -2.9960   1.1650 H              1 S1                 0.0000
     32 ****        -3.2041  -2.5290  -0.4957 H              1 S1                 0.0000
     33 ****        -1.2876  -3.0383   2.4272 H              1 S1                 0.0000
     34 ****         1.1509  -3.4761   2.5600 H              1 S1                 0.0000
     35 ****         2.5349  -3.1693   0.4654 H              1 S1                 0.0000
     36 ****         3.5202  -1.3944  -3.6225 H              1 S1                 0.0000
     37 ****         2.6622   0.0936  -3.9524 H              1 S1                 0.0000
     38 ****         1.9751  -1.4315  -4.4801 H              1 S1                 0.0000
     39 ****         0.9679  -0.0775  -0.7535 H              1 S1                 0.0000
     40 ****         0.1471   1.8424  -1.9028 H              1 S1                 0.0000
     41 ****        -0.4022   0.4108  -2.7531 H              1 S1                 0.0000
     42 ****         0.9121   1.3794  -3.4068 H              1 S1                 0.0000
     43 ****         3.2921   1.3315  -2.0808 H              1 S1                 0.0000
     44 ****         3.1336  -0.2913   0.5646 H              1 S1                 0.0000
     45 ****         4.5792   0.6506  -0.0731 H              1 S1                 0.0000
     46 ****         3.2019   2.7621  -0.0645 H              1 S1                 0.0000
     47 ****         1.7659   1.8128   0.5817 H              1 S1                 0.0000
     48 ****        -0.3221   1.8726   1.9981 H              1 S1                 0.0000
     49 ****        -2.4218   4.1536   1.8227 H              1 S1                 0.0000
     50 ****        -0.6218   4.3261   2.1603 H              1 S1                 0.0000
     51 ****        -0.1092   3.2778  -0.0554 H              1 S1                 0.0000
     52 ****        -1.9066   3.0839  -0.3935 H              1 S1                 0.0000
     53 ****        -4.6446   0.3233   1.1472 LP             1 S1                 0.0000
     54 ****        -5.0194  -1.2645   0.5654 LP             1 S1                 0.0000
     55 ****         2.0200  -4.2816  -2.1245 LP             1 S1                 0.0000
     56 ****         2.6624  -3.2327  -3.3440 LP             1 S1                 0.0000
     57 ****        -2.1515  -1.8315  -1.8111 LP             1 S1                 0.0000
     58 ****        -0.6414  -1.8352  -2.6595 LP             1 S1                 0.0000
@<TRIPOS>BOND
    1    1    2 1     
    2    1   26 1     
    3    1   27 1     
    4    1   28 1     
    5    2    3 1     
    6    2   23 1     
    7    2   29 1     
    8    3    4 am    
    9    3   30 1     
   10    4    5 2     
   11    4    6 1     
   12    6    7 1     
   13    6   31 1     
   14    6   32 1     
   15    7   21 am    
   16    7    8 1     
   17    8    9 2     
   18    8   33 1     
   19    9   10 1     
   20    9   34 1     
   21   10   11 2     
   22   10   35 1     
   23   11   12 1     
   24   11   21 1     
   25   12   13 2     
   26   12   14 am    
   27   14   15 1     
   28   14   16 1     
   29   15   36 1     
   30   15   37 1     
   31   15   38 1     
   32   16   17 1     
   33   16   18 1     
   34   16   39 1     
   35   17   40 1     
   36   17   41 1     
   37   17   42 1     
   38   18   20 1     
   39   18   19 1     
   40   18   43 1     
   41   19   20 1     
   42   19   44 1     
   43   19   45 1     
   44   20   46 1     
   45   20   47 1     
   46   21   22 2     
   47   23   25 1     
   48   23   24 1     
   49   23   48 1     
   50   24   25 1     
   51   24   49 1     
   52   24   50 1     
   53   25   51 1     
   54   25   52 1     
   55    5   53 1     
   56    5   54 1     
   57   13   55 1     
   58   13   56 1     
   59   22   57 1     
   60   22   58 1     
@<TRIPOS>SUBSTRUCTURE
      1 S1             1
@<TRIPOS>SET
LONE_PAIRS      STATIC     ATOMS    <user>   **** ""
6 53 54 55 56 57 58
DONOR_HYDROGENS      STATIC     ATOMS    <user>   **** ""
1 30
ATOM$BLUE        STATIC     ATOMS    COLORGROUP SYSTEM
6 53 54 55 56 57 58
ATOM$RED        STATIC     ATOMS    COLORGROUP SYSTEM
1 30
