AV-unprocessed.smi:157|AV-procd|sdf|1307|dock8
  -GOLD-   2262018593D 1   1.00000     0.00000
 Structure written by MMmdl.
 36 38  0  0  0  0  0  0  0  0  2 V2000
  146.4708  131.2080  150.3528 O   0  0  0  0  0  0  0  0  0  0  0  0
  145.4506  131.0864  151.3209 C   0  0  0  0  0  0  0  0  0  0  0  0
  144.3750  132.1590  151.0898 C   0  0  1  0  0  0  0  0  0  0  0  0
  144.8114  133.3878  151.6616 O   0  0  0  0  0  0  0  0  0  0  0  0
  144.2195  134.4154  150.9475 C   0  0  1  0  0  0  0  0  0  0  0  0
  144.9875  135.6728  151.1956 N   0  0  0  0  0  0  0  0  0  0  0  0
  145.6168  136.4018  150.2515 C   0  0  0  0  0  0  0  0  0  0  0  0
  146.2206  137.4851  150.7102 N   0  3  0  0  0  0  0  0  0  0  0  0
  145.9899  137.5157  152.0692 C   0  0  0  0  0  0  0  0  0  0  0  0
  145.2284  136.3792  152.3547 C   0  0  0  0  0  0  0  0  0  0  0  0
  144.7219  135.9265  153.5836 N   0  0  0  0  0  0  0  0  0  0  0  0
  145.1510  136.3576  154.7248 C   0  0  0  0  0  0  0  0  0  0  0  0
  146.0677  137.3614  154.9890 N   0  0  0  0  0  0  0  0  0  0  0  0
  146.0225  138.6608  154.3425 C   0  0  0  0  0  0  0  0  0  0  0  0
  146.5247  138.6461  152.8925 C   0  0  1  0  0  0  0  0  0  0  0  0
  147.9368  138.6884  152.9031 O   0  0  0  0  0  0  0  0  0  0  0  0
  144.2931  133.9901  149.4874 C   0  0  0  0  0  0  0  0  0  0  0  0
  144.1390  132.4788  149.5960 C   0  0  2  0  0  0  0  0  0  0  0  0
  142.8361  132.0926  149.2051 O   0  0  0  0  0  0  0  0  0  0  0  0
  143.4340  131.8702  151.5632 H   0  0  0  0  0  0  0  0  0  0  0  0
  143.2028  134.6000  151.2994 H   0  0  0  0  0  0  0  0  0  0  0  0
  146.2022  139.5765  152.4239 H   0  0  0  0  0  0  0  0  0  0  0  0
  144.8631  131.9813  148.9492 H   0  0  0  0  0  0  0  0  0  0  0  0
  147.2809  130.8983  150.7280 H   0  0  0  0  0  0  0  0  0  0  0  0
  145.0225  130.0835  151.3009 H   0  0  0  0  0  0  0  0  0  0  0  0
  145.9135  131.2232  152.2988 H   0  0  0  0  0  0  0  0  0  0  0  0
  145.6229  136.1223  149.2131 H   0  0  0  0  0  0  0  0  0  0  0  0
  144.7631  135.9061  155.6390 H   0  0  0  0  0  0  0  0  0  0  0  0
  146.4618  137.4242  155.9171 H   0  0  0  0  0  0  0  0  0  0  0  0
  144.9831  138.9928  154.3521 H   0  0  0  0  0  0  0  0  0  0  0  0
  146.5762  139.3875  154.9381 H   0  0  0  0  0  0  0  0  0  0  0  0
  148.2332  139.1466  152.1319 H   0  0  0  0  0  0  0  0  0  0  0  0
  143.5265  134.4887  148.8926 H   0  0  0  0  0  0  0  0  0  0  0  0
  145.2727  134.2361  149.0766 H   0  0  0  0  0  0  0  0  0  0  0  0
  142.2559  132.8304  149.3149 H   0  0  0  0  0  0  0  0  0  0  0  0
  146.7394  138.1609  150.1639 H   0  0  0  0  0  0  0  0  0  0  0  0
  1  2  1  0  0  0  0
  1 24  1  0  0  0  0
  2  3  1  0  0  0  0
  2 25  1  0  0  0  0
  2 26  1  0  0  0  0
  3 20  1  0  0  0  0
  3 18  1  0  0  0  0
  3  4  1  0  0  0  0
  4  5  1  0  0  0  0
  5 21  1  0  0  0  0
  5  6  1  0  0  0  0
  5 17  1  0  0  0  0
  6 10  1  0  0  0  0
  6  7  1  0  0  0  0
  7  8  2  0  0  0  0
  7 27  1  0  0  0  0
  8  9  1  0  0  0  0
  8 36  1  0  0  0  0
  9 15  1  0  0  0  0
  9 10  2  0  0  0  0
 10 11  1  0  0  0  0
 11 12  2  0  0  0  0
 12 13  1  0  0  0  0
 12 28  1  0  0  0  0
 13 14  1  0  0  0  0
 13 29  1  0  0  0  0
 14 15  1  0  0  0  0
 14 30  1  0  0  0  0
 14 31  1  0  0  0  0
 15 22  1  0  0  0  0
 15 16  1  0  0  0  0
 16 32  1  0  0  0  0
 17 18  1  0  0  0  0
 17 33  1  0  0  0  0
 17 34  1  0  0  0  0
 18 23  1  0  0  0  0
 18 19  1  0  0  0  0
 19 35  1  0  0  0  0
M  CHG  1   8   1
M  END
> <s_m_source_file>
AV-unprocessed.smi

> <i_m_source_file_index>
157

> <i_lp_mmshare_version>
43012

> <i_f3d_flags>
0

> <s_epik_input>
W09IXVtDSDJdW0NASF0xT1tDQEhdKFtDSDJdW0NAQEhdMVtPSF0pbihbY0hdbjIpYyhjMjMpTj1bQ0hdW05IXVtDSDJdW0NASF0zW09IXQ==

> <s_epik_cmdline>
J2VwaWtfcHl0aG9uJywgJy1waCcsICc3LjAnLCAnLXRuJywgJzgnLCAnLW1hJywgJzIwMCcsICctbWV0YWxfYmluZGluZycsICctaW1hZScsICc8aW5maWxlLm1hZT4nLCAnLW9tYWUnLCAnPG91dGZpbGUubWFlPic=

> <r_epik_Ionization_Penalty>
1.68594

> <r_epik_Ionization_Penalty_Charging>
0

> <r_epik_Ionization_Penalty_Neutral>
1.68594

> <r_epik_State_Penalty>
1.79006

> <r_epik_Charging_Adjusted_Penalty>
1.79006

> <i_epik_Tot_Q>
1

> <i_epik_Tot_abs_Q>
1

> <r_epik_Metal_State_Penalty>
5.85324

> <b_epik_Metal_Only>
0

> <s_epik_Chemistry_Notes>
This compound has an imine and may undergo hydrolysis. This compound contains an acetal/aminal-like group ( X-CH(R)-Y where X, Y are N, S, or O) that may be acid/base labile, releasing an aldehyde.

> <s_lp_Force_Field>
OPLS_2005

> <r_lp_Energy>
53.8219

> <b_lp_Chiralities_Consistent>
1

> <s_lp_Variant>
AV-unprocessed.smi:157-17

> <Gold.Version>
5.8.1

> <Gold.Id.Protein>
6NUR|6NUR_protein|mol2

> <Gold.PLP.Fitness>
45.7915

> <Gold.PLP.PLP>
-32.0217

> <Gold.PLP.part.hbond>
-7.4203

> <Gold.PLP.part.metal>
0.0000

> <Gold.PLP.part.buried>
-0.5626

> <Gold.PLP.part.nonpolar>
-24.9457

> <Gold.PLP.part.repulsive>
0.7465

> <Gold.PLP.ligand.clash>
0.0000

> <Gold.PLP.ligand.torsion>
0.2537

> <Gold.PLP.Chemscore.Hbond>
3.7520

> <Gold.PLP.Chemscore.CHOScore>
1.0000

> <Gold.PLP.Chemscore.Metal>
0.0000

> <Gold.Chemscore.Hbonds>
donor molecule, donor type, donor heavy atom, donor atom, acceptor molecule, acceptor atom, score
      L1  H     1    24       P1 10747  0.74
      L1  H    16    32       P1  7957  1.00
      L1  H    19    35       P1 10186  1.00
      P1  H 10785 10796       L1    19  0.99
      L1  C     7    27       P1  7921  1.00

> <Gold.PLP.Chemscore.Internal.Correction>
0.0212

> <Gold.Rescore>
     Score         DG    S(hbond)    S(metal)    S(lipo)     H(rot)  DE(clash)    DE(int)     intcor
      9.56     -11.50       2.91        0.00      48.66       3.67       1.49       0.46       ----

> <Gold.Chemscore.Fitness>
9.5569

> <Gold.Chemscore.DG>
-11.5039

> <Gold.Chemscore.ZeroCoef>
-5.4800

> <Gold.Chemscore.Hbond>
2.9088

> <Gold.Chemscore.Metal>
0.0000

> <Gold.Chemscore.Lipo>
48.6608

> <Gold.Chemscore.Internal_Hbond>
0.0000

> <Gold.Chemscore.DEClash>
1.4852

> <Gold.Chemscore.DEInternal>
0.4618

> <Gold.Chemscore.Rot>
3.6659

> <Gold.Chemscore.Internal.Correction>
   9.000000E+99

> <Gold.Chemscore.Hbonds>
donor molecule, donor type, donor heavy atom, donor atom, acceptor molecule, acceptor atom, score
      L1  H     1    24       P1 10747  0.74
      L1  H    16    32       P1  7957  0.96
      L1  H    19    35       P1 10186  0.93
      P1  H 10785 10796       L1    19  0.24

> <Gold.Chemscore.Hbond.Weighted>
-9.7154

> <Gold.Chemscore.Metal.Weighted>
-0.0000

> <Gold.Chemscore.Lipo.Weighted>
-5.6933

> <Gold.Chemscore.Internal_Hbond.Weighted>
0.0000

> <Gold.Chemscore.DEClash.Weighted>
1.4852

> <Gold.Chemscore.DEInternal.Weighted>
0.4618

> <Gold.Chemscore.Rot.Weighted>
9.3848

> <Gold.Chemscore.Internal.Correction.Weighted>
   9.000000E+99

> <Gold.Protein.RotatedTorsions>
[ 6907 6896 6895 6894 ] final -148.24 input  -60.11 | X-H torsion
[ 7974 7965 7964 7962 ] final   55.65 input  175.53 | X-H torsion
[ 8008 7997 7996 7995 ] final   48.23 input   59.86 | X-H torsion
[ 10167 10162 10161 10158 ] final   30.79 input  -65.29 | X-H torsion
[ 10718 10713 10712 10709 ] final  -51.75 input   66.30 | X-H torsion
[ 10763 10752 10751 10750 ] final   51.61 input  -60.55 | X-H torsion
[ 11005 11000 10999 10996 ] final -170.47 input  -57.11 | X-H torsion

> <Gold.Protein.ActiveResidues>
 VAL166  LYS551  ARG553  GLY616  TRP617  ASP618  TYR619  PRO620  LYS621  CYS622 
 ASP623  PHE694  ASN695  SER759  ASP760  ASP761  ALA762  ILE779  LEU786  VAL792 
 PHE793  MET794  SER795  GLU796  ALA797  LYS798  CYS799  TRP800  GLU811  SER814 

> <Gold.Protein.RotatedAtoms>
  151.1671  133.4808  159.2593 H   0  0  0  0  0  0  0  0  0  0  0  0  # atno 6907 bound_to 6896
  151.1394  135.0171  159.8629 H   0  0  0  0  0  0  0  0  0  0  0  0  # atno 6908 bound_to 6896
  152.5462  134.1566  159.8593 H   0  0  0  0  0  0  0  0  0  0  0  0  # atno 6909 bound_to 6896
  145.9482  139.3948  143.0322 H   0  0  0  0  0  0  0  0  0  0  0  0  # atno 7974 bound_to 7965
  155.3823  140.3429  155.4247 H   0  0  0  0  0  0  0  0  0  0  0  0  # atno 8008 bound_to 7997
  156.1604  140.1599  156.8655 H   0  0  0  0  0  0  0  0  0  0  0  0  # atno 8009 bound_to 7997
  154.5134  140.0784  156.8016 H   0  0  0  0  0  0  0  0  0  0  0  0  # atno 8010 bound_to 7997
  140.4647  144.0854  150.6221 H   0  0  0  0  0  0  0  0  0  0  0  0  # atno 10167 bound_to 10162
  156.1682  130.4149  149.9687 H   0  0  0  0  0  0  0  0  0  0  0  0  # atno 10718 bound_to 10713
  152.9786  135.5840  154.4444 H   0  0  0  0  0  0  0  0  0  0  0  0  # atno 10763 bound_to 10752
  154.4041  135.2769  155.2080 H   0  0  0  0  0  0  0  0  0  0  0  0  # atno 10764 bound_to 10752
  154.3898  135.6128  153.5891 H   0  0  0  0  0  0  0  0  0  0  0  0  # atno 10765 bound_to 10752
  140.5191  134.5726  157.5042 H   0  0  0  0  0  0  0  0  0  0  0  0  # atno 11005 bound_to 11000
  145.8207  140.9680  143.0900 LP  0  0  0  0  0  0  0  0  0  0  0  0  # atno 17320 bound_to 7965
  144.6791  140.0038  143.7484 LP  0  0  0  0  0  0  0  0  0  0  0  0  # atno 17321 bound_to 7965
  140.4051  143.2684  151.9901 LP  0  0  0  0  0  0  0  0  0  0  0  0  # atno 17342 bound_to 10162
  139.4810  144.5964  151.7683 LP  0  0  0  0  0  0  0  0  0  0  0  0  # atno 17343 bound_to 10162
  156.7495  130.9110  151.3636 LP  0  0  0  0  0  0  0  0  0  0  0  0  # atno 17370 bound_to 10713
  157.6784  130.9116  150.0206 LP  0  0  0  0  0  0  0  0  0  0  0  0  # atno 17371 bound_to 10713
  139.9615  134.7444  156.0226 LP  0  0  0  0  0  0  0  0  0  0  0  0  # atno 17394 bound_to 11000
  141.1344  133.6578  156.3552 LP  0  0  0  0  0  0  0  0  0  0  0  0  # atno 17395 bound_to 11000

$$$$
