AV-unprocessed.smi:2703|AV-procd|sdf|10441|dock1
  -GOLD-   2272014483D 1   1.00000     0.00000
 Structure written by MMmdl.
 43 45  0  0  0  0  0  0  0  0  4 V2000
  152.2452  144.1943  160.8209 C   0  0  0  0  0  0  0  0  0  0  0  0
  152.0529  143.2214  159.6702 C   0  0  0  0  0  0  0  0  0  0  0  0
  151.1676  143.5765  158.6275 C   0  0  0  0  0  0  0  0  0  0  0  0
  151.0131  142.6660  157.5887 C   0  0  0  0  0  0  0  0  0  0  0  0
  150.2315  142.7218  156.4326 N   0  3  0  0  0  0  0  0  0  0  0  0
  150.4096  141.5826  155.7083 C   0  0  0  0  0  0  0  0  0  0  0  0
  151.2923  140.7991  156.3852 N   0  0  0  0  0  0  0  0  0  0  0  0
  151.8177  139.4692  156.0450 C   0  0  0  0  0  0  0  0  0  0  0  0
  150.7946  138.5896  155.3002 C   0  0  1  0  0  0  0  0  0  0  0  0
  150.5824  139.0926  153.9951 O   0  0  0  0  0  0  0  0  0  0  0  0
  151.2630  137.1291  155.2030 C   0  0  0  0  0  0  0  0  0  0  0  0
  150.3908  136.0523  156.3776 S   0  0  0  0  0  0  0  0  0  0  0  0
  150.1455  134.4739  155.5995 C   0  0  0  0  0  0  0  0  0  0  0  0
  149.3830  134.3291  154.4190 C   0  0  0  0  0  0  0  0  0  0  0  0
  149.2198  133.0579  153.8471 C   0  0  0  0  0  0  0  0  0  0  0  0
  149.8230  131.9538  154.4671 C   0  0  0  0  0  0  0  0  0  0  0  0
  150.5729  132.1442  155.6435 C   0  0  0  0  0  0  0  0  0  0  0  0
  150.7311  133.3841  156.2012 N   0  3  0  0  0  0  0  0  0  0  0  0
  151.4266  133.5060  157.2778 O   0  5  0  0  0  0  0  0  0  0  0  0
  151.6995  141.4362  157.5636 C   0  0  0  0  0  0  0  0  0  0  0  0
  152.5775  141.0726  158.5823 C   0  0  0  0  0  0  0  0  0  0  0  0
  152.7508  141.9863  159.6464 C   0  0  0  0  0  0  0  0  0  0  0  0
  153.7057  141.6176  160.7692 C   0  0  0  0  0  0  0  0  0  0  0  0
  151.6306  145.0866  160.6968 H   0  0  0  0  0  0  0  0  0  0  0  0
  153.2861  144.5127  160.8825 H   0  0  0  0  0  0  0  0  0  0  0  0
  151.9681  143.7285  161.7670 H   0  0  0  0  0  0  0  0  0  0  0  0
  150.6349  144.5161  158.6376 H   0  0  0  0  0  0  0  0  0  0  0  0
  149.9342  141.3425  154.7680 H   0  0  0  0  0  0  0  0  0  0  0  0
  152.7378  139.5813  155.4709 H   0  0  0  0  0  0  0  0  0  0  0  0
  152.1018  138.9906  156.9831 H   0  0  0  0  0  0  0  0  0  0  0  0
  149.8435  138.6255  155.8333 H   0  0  0  0  0  0  0  0  0  0  0  0
  149.6970  138.8852  153.7362 H   0  0  0  0  0  0  0  0  0  0  0  0
  151.1163  136.7535  154.1896 H   0  0  0  0  0  0  0  0  0  0  0  0
  152.3300  137.0687  155.4196 H   0  0  0  0  0  0  0  0  0  0  0  0
  148.9178  135.1786  153.9444 H   0  0  0  0  0  0  0  0  0  0  0  0
  148.6391  132.9316  152.9451 H   0  0  0  0  0  0  0  0  0  0  0  0
  149.7128  130.9650  154.0468 H   0  0  0  0  0  0  0  0  0  0  0  0
  151.0648  131.3429  156.1760 H   0  0  0  0  0  0  0  0  0  0  0  0
  153.1135  140.1354  158.5624 H   0  0  0  0  0  0  0  0  0  0  0  0
  154.1745  140.6490  160.5928 H   0  0  0  0  0  0  0  0  0  0  0  0
  153.1761  141.5628  161.7206 H   0  0  0  0  0  0  0  0  0  0  0  0
  154.4996  142.3594  160.8563 H   0  0  0  0  0  0  0  0  0  0  0  0
  149.6211  143.4802  156.1559 H   0  0  0  0  0  0  0  0  0  0  0  0
  1  2  1  0  0  0  0
  1 24  1  0  0  0  0
  1 25  1  0  0  0  0
  1 26  1  0  0  0  0
  2 22  1  0  0  0  0
  2  3  2  0  0  0  0
  3  4  1  0  0  0  0
  3 27  1  0  0  0  0
  4 20  2  0  0  0  0
  4  5  1  0  0  0  0
  5  6  2  0  0  0  0
  5 43  1  0  0  0  0
  6  7  1  0  0  0  0
  6 28  1  0  0  0  0
  7  8  1  0  0  0  0
  7 20  1  0  0  0  0
  8  9  1  0  0  0  0
  8 29  1  0  0  0  0
  8 30  1  0  0  0  0
  9 10  1  0  0  0  0
  9 11  1  0  0  0  0
  9 31  1  0  0  0  0
 10 32  1  0  0  0  0
 11 12  1  0  0  0  0
 11 33  1  0  0  0  0
 11 34  1  0  0  0  0
 12 13  1  0  0  0  0
 13 18  1  0  0  0  0
 13 14  2  0  0  0  0
 14 15  1  0  0  0  0
 14 35  1  0  0  0  0
 15 16  2  0  0  0  0
 15 36  1  0  0  0  0
 16 17  1  0  0  0  0
 16 37  1  0  0  0  0
 17 18  2  0  0  0  0
 17 38  1  0  0  0  0
 18 19  1  0  0  0  0
 20 21  1  0  0  0  0
 21 22  2  0  0  0  0
 21 39  1  0  0  0  0
 22 23  1  0  0  0  0
 23 40  1  0  0  0  0
 23 41  1  0  0  0  0
 23 42  1  0  0  0  0
M  CHG  1   5   1
M  CHG  1  18   1
M  CHG  1  19  -1
M  END
> <s_m_source_file>
AV-unprocessed.smi

> <i_m_source_file_index>
2703

> <i_lp_mmshare_version>
43012

> <i_f3d_flags>
0

> <s_epik_input>
W0NIM11jKFtjSF0xKWMoW0NIM10pW2NIXWMoYzEyKW4oW2NIXW4yKVtDSDJdW0NASF0oW09IXSlbQ0gyXVNjM1tjSF1bY0hdW2NIXVtjSF1bbitdM1tPLV0=

> <s_epik_cmdline>
J2VwaWtfcHl0aG9uJywgJy1waCcsICc3LjAnLCAnLXRuJywgJzgnLCAnLW1hJywgJzIwMCcsICctbWV0YWxfYmluZGluZycsICctaW1hZScsICc8aW5maWxlLm1hZT4nLCAnLW9tYWUnLCAnPG91dGZpbGUubWFlPic=

> <r_epik_Ionization_Penalty>
1.07182

> <r_epik_Ionization_Penalty_Charging>
1.07181

> <r_epik_Ionization_Penalty_Neutral>
2.88913e-06

> <r_epik_State_Penalty>
1.12646

> <r_epik_Charging_Adjusted_Penalty>
2.19828

> <i_epik_Tot_Q>
1

> <i_epik_Tot_abs_Q>
3

> <r_epik_Metal_State_Penalty>
5.12345

> <b_epik_Metal_Only>
0

> <s_lp_Force_Field>
OPLS_2005

> <r_lp_Energy>
21.0295

> <b_lp_Chiralities_Consistent>
1

> <s_lp_Variant>
AV-unprocessed.smi:2703-4

> <Gold.Version>
5.8.1

> <Gold.Id.Protein>
6NUR|6NUR_protein|mol2

> <Gold.PLP.Fitness>
59.1818

> <Gold.PLP.PLP>
-51.3383

> <Gold.PLP.part.hbond>
-3.6373

> <Gold.PLP.part.metal>
0.0000

> <Gold.PLP.part.buried>
-4.9936

> <Gold.PLP.part.nonpolar>
-42.9389

> <Gold.PLP.part.repulsive>
0.0821

> <Gold.PLP.ligand.clash>
0.0000

> <Gold.PLP.ligand.torsion>
1.3010

> <Gold.PLP.Chemscore.Hbond>
3.4195

> <Gold.PLP.Chemscore.CHOScore>
0.0000

> <Gold.PLP.Chemscore.Metal>
0.0000

> <Gold.Chemscore.Hbonds>
donor molecule, donor type, donor heavy atom, donor atom, acceptor molecule, acceptor atom, score
      L1  H     5    43       P1  8028  1.95
      P1  H  6896  6908       L1    19  0.56
      P1  H  7989  7998       L1    10  0.80

> <Gold.PLP.Chemscore.Internal.Correction>
0.1870

> <Gold.Rescore>
     Score         DG    S(hbond)    S(metal)    S(lipo)     H(rot)  DE(clash)    DE(int)     intcor
     21.65     -23.94       2.78        0.00     129.37       2.33       0.74       1.55       ----

> <Gold.Chemscore.Fitness>
21.6542

> <Gold.Chemscore.DG>
-23.9429

> <Gold.Chemscore.ZeroCoef>
-5.4800

> <Gold.Chemscore.Hbond>
2.7800

> <Gold.Chemscore.Metal>
0.0000

> <Gold.Chemscore.Lipo>
129.3683

> <Gold.Chemscore.Internal_Hbond>
0.0000

> <Gold.Chemscore.DEClash>
0.7418

> <Gold.Chemscore.DEInternal>
1.5469

> <Gold.Chemscore.Rot>
2.3274

> <Gold.Chemscore.Internal.Correction>
   9.000000E+99

> <Gold.Chemscore.Hbonds>
donor molecule, donor type, donor heavy atom, donor atom, acceptor molecule, acceptor atom, score
      L1  H     5    43       P1  8028  0.92
      P1  H  6896  6908       L1    19  0.56
      P1  H  7989  7998       L1    10  0.73

> <Gold.Chemscore.Hbond.Weighted>
-9.2850

> <Gold.Chemscore.Metal.Weighted>
-0.0000

> <Gold.Chemscore.Lipo.Weighted>
-15.1361

> <Gold.Chemscore.Internal_Hbond.Weighted>
0.0000

> <Gold.Chemscore.DEClash.Weighted>
0.7418

> <Gold.Chemscore.DEInternal.Weighted>
1.5469

> <Gold.Chemscore.Rot.Weighted>
5.9583

> <Gold.Chemscore.Internal.Correction.Weighted>
   9.000000E+99

> <Gold.Protein.RotatedTorsions>
[ 6907 6896 6895 6894 ] final   97.05 input  -60.11 | X-H torsion
[ 7974 7965 7964 7962 ] final  137.40 input  175.53 | X-H torsion
[ 8008 7997 7996 7995 ] final -171.05 input   59.86 | X-H torsion
[ 10167 10162 10161 10158 ] final  -34.07 input  -65.29 | X-H torsion
[ 10718 10713 10712 10709 ] final   11.57 input   66.30 | X-H torsion
[ 10763 10752 10751 10750 ] final  166.81 input  -60.55 | X-H torsion
[ 11005 11000 10999 10996 ] final -123.48 input  -57.11 | X-H torsion

> <Gold.Protein.ActiveResidues>
 VAL166  LYS551  ARG553  GLY616  TRP617  ASP618  TYR619  PRO620  LYS621  CYS622 
 ASP623  PHE694  ASN695  SER759  ASP760  ASP761  ALA762  ILE779  LEU786  VAL792 
 PHE793  MET794  SER795  GLU796  ALA797  LYS798  CYS799  TRP800  GLU811  SER814 

> <Gold.Protein.RotatedAtoms>
  152.5428  134.0792  159.8227 H   0  0  0  0  0  0  0  0  0  0  0  0  # atno 6907 bound_to 6896
  151.0896  133.5319  159.2623 H   0  0  0  0  0  0  0  0  0  0  0  0  # atno 6908 bound_to 6896
  151.2115  135.0492  159.8967 H   0  0  0  0  0  0  0  0  0  0  0  0  # atno 6909 bound_to 6896
  144.9472  139.4861  143.5543 H   0  0  0  0  0  0  0  0  0  0  0  0  # atno 7974 bound_to 7965
  155.9264  140.1083  157.1166 H   0  0  0  0  0  0  0  0  0  0  0  0  # atno 8008 bound_to 7997
  154.4063  140.1246  156.4812 H   0  0  0  0  0  0  0  0  0  0  0  0  # atno 8009 bound_to 7997
  155.7133  140.3470  155.4986 H   0  0  0  0  0  0  0  0  0  0  0  0  # atno 8010 bound_to 7997
  140.7193  143.3574  151.2031 H   0  0  0  0  0  0  0  0  0  0  0  0  # atno 10167 bound_to 10162
  156.9975  130.6066  149.5692 H   0  0  0  0  0  0  0  0  0  0  0  0  # atno 10718 bound_to 10713
  154.3445  135.2753  155.2405 H   0  0  0  0  0  0  0  0  0  0  0  0  # atno 10763 bound_to 10752
  154.4661  135.5895  153.6292 H   0  0  0  0  0  0  0  0  0  0  0  0  # atno 10764 bound_to 10752
  152.9855  135.6077  154.3649 H   0  0  0  0  0  0  0  0  0  0  0  0  # atno 10765 bound_to 10752
  140.9915  134.0532  157.3648 H   0  0  0  0  0  0  0  0  0  0  0  0  # atno 11005 bound_to 11000
  146.3308  139.8532  142.8869 LP  0  0  0  0  0  0  0  0  0  0  0  0  # atno 17320 bound_to 7965
  145.2900  141.0164  143.3668 LP  0  0  0  0  0  0  0  0  0  0  0  0  # atno 17321 bound_to 7965
  139.7119  143.9363  152.2951 LP  0  0  0  0  0  0  0  0  0  0  0  0  # atno 17342 bound_to 10162
  139.9091  144.6867  150.8582 LP  0  0  0  0  0  0  0  0  0  0  0  0  # atno 17343 bound_to 10162
  156.0183  130.5278  150.8202 LP  0  0  0  0  0  0  0  0  0  0  0  0  # atno 17370 bound_to 10713
  157.5414  131.0941  150.9822 LP  0  0  0  0  0  0  0  0  0  0  0  0  # atno 17371 bound_to 10713
  139.8994  135.0158  156.7196 LP  0  0  0  0  0  0  0  0  0  0  0  0  # atno 17394 bound_to 11000
  140.7032  133.9288  155.8037 LP  0  0  0  0  0  0  0  0  0  0  0  0  # atno 17395 bound_to 11000

$$$$
