AV-unprocessed.smi:484|AV-procd|sdf|2688|dock4
  -GOLD-   2262023113D 1   1.00000     0.00000
 Structure written by MMmdl.
 46 48  0  0  0  0  0  0  0  0  1 V2000
  142.8738  146.6012  155.0558 C   0  0  0  0  0  0  0  0  0  0  0  0
  142.5602  145.1022  155.1171 C   0  0  0  0  0  0  0  0  0  0  0  0
  143.8027  144.2493  154.9450 C   0  0  0  0  0  0  0  0  0  0  0  0
  144.5250  144.2818  153.7356 C   0  0  0  0  0  0  0  0  0  0  0  0
  145.6826  143.4951  153.5828 C   0  0  0  0  0  0  0  0  0  0  0  0
  146.1379  142.6673  154.6294 C   0  0  0  0  0  0  0  0  0  0  0  0
  147.2820  141.9350  154.3946 O   0  0  0  0  0  0  0  0  0  0  0  0
  147.7034  141.0111  155.3890 C   0  0  0  0  0  0  0  0  0  0  0  0
  148.6631  139.9923  154.7472 C   0  0  1  0  0  0  0  0  0  0  0  0
  148.0910  139.5481  153.5346 O   0  0  0  0  0  0  0  0  0  0  0  0
  150.0527  140.5696  154.4048 C   0  0  0  0  0  0  0  0  0  0  0  0
  151.0093  140.4546  155.4986 N   0  0  0  0  0  0  0  0  0  0  0  0
  152.0460  139.5864  155.6181 C   0  0  0  0  0  0  0  0  0  0  0  0
  152.3471  138.5662  154.5568 C   0  0  0  0  0  0  0  0  0  0  0  0
  152.1135  137.2340  154.9659 O   0  0  0  0  0  0  0  0  0  0  0  0
  152.7610  139.6936  156.7407 N   0  0  0  0  0  0  0  0  0  0  0  0
  152.1381  140.7321  157.4039 C   0  0  0  0  0  0  0  0  0  0  0  0
  152.4239  141.3262  158.6540 C   0  0  0  0  0  0  0  0  0  0  0  0
  151.6322  142.3886  159.1370 C   0  0  0  0  0  0  0  0  0  0  0  0
  150.5458  142.8711  158.3788 C   0  0  0  0  0  0  0  0  0  0  0  0
  150.2452  142.2944  157.1299 C   0  0  0  0  0  0  0  0  0  0  0  0
  151.0386  141.2337  156.6521 C   0  0  0  0  0  0  0  0  0  0  0  0
  145.4055  142.6373  155.8432 C   0  0  0  0  0  0  0  0  0  0  0  0
  144.2470  143.4234  155.9968 C   0  0  0  0  0  0  0  0  0  0  0  0
  141.9672  147.1932  155.1820 H   0  0  0  0  0  0  0  0  0  0  0  0
  143.3172  146.8712  154.0970 H   0  0  0  0  0  0  0  0  0  0  0  0
  143.5725  146.8899  155.8416 H   0  0  0  0  0  0  0  0  0  0  0  0
  142.0897  144.8606  156.0708 H   0  0  0  0  0  0  0  0  0  0  0  0
  141.8358  144.8447  154.3436 H   0  0  0  0  0  0  0  0  0  0  0  0
  144.1959  144.9124  152.9225 H   0  0  0  0  0  0  0  0  0  0  0  0
  146.2292  143.5296  152.6519 H   0  0  0  0  0  0  0  0  0  0  0  0
  148.1821  141.5139  156.2314 H   0  0  0  0  0  0  0  0  0  0  0  0
  146.8147  140.5040  155.7638 H   0  0  0  0  0  0  0  0  0  0  0  0
  148.7818  139.1348  155.4093 H   0  0  0  0  0  0  0  0  0  0  0  0
  148.5528  139.9577  152.8188 H   0  0  0  0  0  0  0  0  0  0  0  0
  150.4646  140.0752  153.5250 H   0  0  0  0  0  0  0  0  0  0  0  0
  149.9627  141.6226  154.1356 H   0  0  0  0  0  0  0  0  0  0  0  0
  151.7354  138.7729  153.6790 H   0  0  0  0  0  0  0  0  0  0  0  0
  153.3920  138.6445  154.2576 H   0  0  0  0  0  0  0  0  0  0  0  0
  151.5199  137.2490  155.7015 H   0  0  0  0  0  0  0  0  0  0  0  0
  153.2528  140.9629  159.2433 H   0  0  0  0  0  0  0  0  0  0  0  0
  151.8590  142.8343  160.0944 H   0  0  0  0  0  0  0  0  0  0  0  0
  149.9423  143.6836  158.7566 H   0  0  0  0  0  0  0  0  0  0  0  0
  149.4112  142.6601  156.5497 H   0  0  0  0  0  0  0  0  0  0  0  0
  145.7109  142.0199  156.6741 H   0  0  0  0  0  0  0  0  0  0  0  0
  143.7010  143.3923  156.9284 H   0  0  0  0  0  0  0  0  0  0  0  0
  1  2  1  0  0  0  0
  1 25  1  0  0  0  0
  1 26  1  0  0  0  0
  1 27  1  0  0  0  0
  2  3  1  0  0  0  0
  2 28  1  0  0  0  0
  2 29  1  0  0  0  0
  3 24  1  0  0  0  0
  3  4  2  0  0  0  0
  4  5  1  0  0  0  0
  4 30  1  0  0  0  0
  5  6  2  0  0  0  0
  5 31  1  0  0  0  0
  6  7  1  0  0  0  0
  6 23  1  0  0  0  0
  7  8  1  0  0  0  0
  8  9  1  0  0  0  0
  8 32  1  0  0  0  0
  8 33  1  0  0  0  0
  9 10  1  0  0  0  0
  9 11  1  0  0  0  0
  9 34  1  0  0  0  0
 10 35  1  0  0  0  0
 11 12  1  0  0  0  0
 11 36  1  0  0  0  0
 11 37  1  0  0  0  0
 12 22  1  0  0  0  0
 12 13  1  0  0  0  0
 13 14  1  0  0  0  0
 13 16  2  0  0  0  0
 14 15  1  0  0  0  0
 14 38  1  0  0  0  0
 14 39  1  0  0  0  0
 15 40  1  0  0  0  0
 16 17  1  0  0  0  0
 17 22  2  0  0  0  0
 17 18  1  0  0  0  0
 18 19  2  0  0  0  0
 18 41  1  0  0  0  0
 19 20  1  0  0  0  0
 19 42  1  0  0  0  0
 20 21  2  0  0  0  0
 20 43  1  0  0  0  0
 21 22  1  0  0  0  0
 21 44  1  0  0  0  0
 23 24  2  0  0  0  0
 23 45  1  0  0  0  0
 24 46  1  0  0  0  0
M  END
> <s_m_source_file>
AV-unprocessed.smi

> <i_m_source_file_index>
484

> <i_lp_mmshare_version>
43012

> <i_f3d_flags>
0

> <s_epik_input>
W0NIM11bQ0gyXWMxW2NIXVtjSF1jKFtjSF1bY0hdMSlPW0NIMl1bQ0BIXShbT0hdKVtDSDJdbihjKG4yKVtDSDJdW09IXSljKGMyMylbY0hdW2NIXVtjSF1bY0hdMw==

> <s_epik_cmdline>
J2VwaWtfcHl0aG9uJywgJy1waCcsICc3LjAnLCAnLXRuJywgJzgnLCAnLW1hJywgJzIwMCcsICctbWV0YWxfYmluZGluZycsICctaW1hZScsICc8aW5maWxlLm1hZT4nLCAnLW9tYWUnLCAnPG91dGZpbGUubWFlPic=

> <r_lp_tautomer_probability>
1

> <r_epik_Ionization_Penalty>
0.0555463

> <r_epik_Ionization_Penalty_Charging>
0

> <r_epik_Ionization_Penalty_Neutral>
0.0555463

> <r_epik_State_Penalty>
0.0477854

> <r_epik_Charging_Adjusted_Penalty>
0.0477854

> <i_epik_Tot_Q>
0

> <i_epik_Tot_abs_Q>
0

> <r_epik_Metal_State_Penalty>
4.97632e-05

> <b_epik_Metal_Only>
0

> <s_lp_Force_Field>
OPLS_2005

> <r_lp_Energy>
17.3214

> <b_lp_Chiralities_Consistent>
1

> <s_lp_Variant>
AV-unprocessed.smi:484-2

> <Gold.Version>
5.8.1

> <Gold.Id.Protein>
6NUR|6NUR_protein|mol2

> <Gold.PLP.Fitness>
53.6361

> <Gold.PLP.PLP>
-46.1417

> <Gold.PLP.part.hbond>
-3.0000

> <Gold.PLP.part.metal>
0.0000

> <Gold.PLP.part.buried>
-2.2438

> <Gold.PLP.part.nonpolar>
-41.2493

> <Gold.PLP.part.repulsive>
0.1524

> <Gold.PLP.ligand.clash>
0.0000

> <Gold.PLP.ligand.torsion>
0.8158

> <Gold.PLP.Chemscore.Hbond>
2.9920

> <Gold.PLP.Chemscore.CHOScore>
0.0000

> <Gold.PLP.Chemscore.Metal>
0.0000

> <Gold.Chemscore.Hbonds>
donor molecule, donor type, donor heavy atom, donor atom, acceptor molecule, acceptor atom, score
      L1  H    10    35       P1  7957  1.00
      P1  H  7997  8009       L1    16  1.00
      P1  H 10752 10764       L1    15  0.85

> <Gold.PLP.Chemscore.Internal.Correction>
0.1500

> <Gold.Rescore>
     Score         DG    S(hbond)    S(metal)    S(lipo)     H(rot)  DE(clash)    DE(int)     intcor
     17.15     -19.52       2.48        0.00     116.65       3.08       1.58       0.79       ----

> <Gold.Chemscore.Fitness>
17.1521

> <Gold.Chemscore.DG>
-19.5240

> <Gold.Chemscore.ZeroCoef>
-5.4800

> <Gold.Chemscore.Hbond>
2.4780

> <Gold.Chemscore.Metal>
0.0000

> <Gold.Chemscore.Lipo>
116.6507

> <Gold.Chemscore.Internal_Hbond>
0.0000

> <Gold.Chemscore.DEClash>
1.5816

> <Gold.Chemscore.DEInternal>
0.7903

> <Gold.Chemscore.Rot>
3.0783

> <Gold.Chemscore.Internal.Correction>
   9.000000E+99

> <Gold.Chemscore.Hbonds>
donor molecule, donor type, donor heavy atom, donor atom, acceptor molecule, acceptor atom, score
      L1  H    10    35       P1  7957  0.97
      P1  H  7997  8009       L1    16  0.54
      P1  H 10752 10764       L1    15  0.80

> <Gold.Chemscore.Hbond.Weighted>
-8.2764

> <Gold.Chemscore.Metal.Weighted>
-0.0000

> <Gold.Chemscore.Lipo.Weighted>
-13.6481

> <Gold.Chemscore.Internal_Hbond.Weighted>
0.0000

> <Gold.Chemscore.DEClash.Weighted>
1.5816

> <Gold.Chemscore.DEInternal.Weighted>
0.7903

> <Gold.Chemscore.Rot.Weighted>
7.8805

> <Gold.Chemscore.Internal.Correction.Weighted>
   9.000000E+99

> <Gold.Protein.RotatedTorsions>
[ 6907 6896 6895 6894 ] final  -10.36 input  -60.11 | X-H torsion
[ 7974 7965 7964 7962 ] final  -63.29 input  175.53 | X-H torsion
[ 8008 7997 7996 7995 ] final  176.01 input   59.86 | X-H torsion
[ 10167 10162 10161 10158 ] final   33.03 input  -65.29 | X-H torsion
[ 10718 10713 10712 10709 ] final  -22.69 input   66.30 | X-H torsion
[ 10763 10752 10751 10750 ] final  -62.24 input  -60.55 | X-H torsion
[ 11005 11000 10999 10996 ] final -145.89 input  -57.11 | X-H torsion

> <Gold.Protein.ActiveResidues>
 VAL166  LYS551  ARG553  GLY616  TRP617  ASP618  TYR619  PRO620  LYS621  CYS622 
 ASP623  PHE694  ASN695  SER759  ASP760  ASP761  ALA762  ILE779  LEU786  VAL792 
 PHE793  MET794  SER795  GLU796  ALA797  LYS798  CYS799  TRP800  GLU811  SER814 

> <Gold.Protein.RotatedAtoms>
  151.4031  135.0974  159.9561 H   0  0  0  0  0  0  0  0  0  0  0  0  # atno 6907 bound_to 6896
  152.5044  133.8869  159.7385 H   0  0  0  0  0  0  0  0  0  0  0  0  # atno 6908 bound_to 6896
  150.9347  133.6669  159.2831 H   0  0  0  0  0  0  0  0  0  0  0  0  # atno 6909 bound_to 6896
  145.7809  140.8762  143.0331 H   0  0  0  0  0  0  0  0  0  0  0  0  # atno 7974 bound_to 7965
  156.0810  140.1394  156.9712 H   0  0  0  0  0  0  0  0  0  0  0  0  # atno 8008 bound_to 7997
  154.4585  140.0952  156.6876 H   0  0  0  0  0  0  0  0  0  0  0  0  # atno 8009 bound_to 7997
  155.5075  140.3452  155.4384 H   0  0  0  0  0  0  0  0  0  0  0  0  # atno 8010 bound_to 7997
  140.4444  144.1140  150.6180 H   0  0  0  0  0  0  0  0  0  0  0  0  # atno 10167 bound_to 10162
  156.5012  130.4588  149.6700 H   0  0  0  0  0  0  0  0  0  0  0  0  # atno 10718 bound_to 10713
  154.2968  135.6242  153.5408 H   0  0  0  0  0  0  0  0  0  0  0  0  # atno 10763 bound_to 10752
  152.9845  135.5669  154.5328 H   0  0  0  0  0  0  0  0  0  0  0  0  # atno 10764 bound_to 10752
  154.4950  135.2869  155.1442 H   0  0  0  0  0  0  0  0  0  0  0  0  # atno 10765 bound_to 10752
  140.7876  134.3006  157.5024 H   0  0  0  0  0  0  0  0  0  0  0  0  # atno 11005 bound_to 11000
  144.6796  139.9987  143.7484 LP  0  0  0  0  0  0  0  0  0  0  0  0  # atno 17320 bound_to 7965
  146.0075  139.3142  143.0890 LP  0  0  0  0  0  0  0  0  0  0  0  0  # atno 17321 bound_to 7965
  140.4280  143.2581  151.9631 LP  0  0  0  0  0  0  0  0  0  0  0  0  # atno 17342 bound_to 10162
  139.4792  144.5770  151.7996 LP  0  0  0  0  0  0  0  0  0  0  0  0  # atno 17343 bound_to 10162
  156.3331  130.7342  151.2275 LP  0  0  0  0  0  0  0  0  0  0  0  0  # atno 17370 bound_to 10713
  157.7462  131.0424  150.4694 LP  0  0  0  0  0  0  0  0  0  0  0  0  # atno 17371 bound_to 10713
  139.8735  134.9355  156.3636 LP  0  0  0  0  0  0  0  0  0  0  0  0  # atno 17394 bound_to 11000
  140.9421  133.7507  156.0160 LP  0  0  0  0  0  0  0  0  0  0  0  0  # atno 17395 bound_to 11000

$$$$
