AV-unprocessed.smi:193|AV-procd|sdf|1507|dock8
  -GOLD-   2262019343D 1   1.00000     0.00000
 Structure written by MMmdl.
 62 66  0  0  0  0  0  0  0  0  2 V2000
  146.8445  139.8816  152.6550 C   0  0  0  0  0  0  0  0  0  0  0  0
  147.3414  138.5744  153.2932 C   0  0  1  0  0  0  0  0  0  0  0  0
  147.9333  138.8759  154.6860 C   0  0  0  0  0  0  0  0  0  0  0  0
  148.8817  137.8705  155.1702 N   0  0  0  0  0  0  0  0  0  0  0  0
  149.7219  138.2199  156.1795 C   0  0  0  0  0  0  0  0  0  0  0  0
  150.0730  137.2823  157.0995 N   0  0  0  0  0  0  0  0  0  0  0  0
  150.9100  137.5899  158.0946 C   0  0  0  0  0  0  0  0  0  0  0  0
  151.5025  138.7562  158.3550 N   0  0  0  0  0  0  0  0  0  0  0  0
  151.1455  139.7063  157.4446 C   0  0  0  0  0  0  0  0  0  0  0  0
  150.2671  139.5272  156.3383 C   0  0  0  0  0  0  0  0  0  0  0  0
  150.1319  140.7261  155.6468 N   0  0  0  0  0  0  0  0  0  0  0  0
  150.8970  141.5596  156.2971 C   0  0  0  0  0  0  0  0  0  0  0  0
  151.5513  141.0280  157.3848 N   0  0  0  0  0  0  0  0  0  0  0  0
  152.4661  141.7244  158.2769 C   0  0  0  0  0  0  0  0  0  0  0  0
  151.7943  142.8409  159.1139 C   0  0  0  0  0  0  0  0  0  0  0  0
  150.5215  142.3663  159.5196 O   0  0  0  0  0  0  0  0  0  0  0  0
  152.6260  143.1427  160.3768 C   0  0  0  0  0  0  0  0  0  0  0  0
  152.0865  144.3587  161.1506 C   0  0  0  0  0  0  0  0  0  0  0  0
  152.0218  145.4912  160.2928 O   0  0  0  0  0  0  0  0  0  0  0  0
  151.1221  145.3076  159.2065 C   0  0  0  0  0  0  0  0  0  0  0  0
  151.5977  144.1475  158.3139 C   0  0  0  0  0  0  0  0  0  0  0  0
  148.7338  136.4463  154.8717 C   0  0  0  0  0  0  0  0  0  0  0  0
  147.2778  135.9630  154.9051 C   0  0  0  0  0  0  0  0  0  0  0  0
  146.6152  136.1635  153.5942 N   0  3  1  0  0  0  0  0  0  0  0  0
  145.5003  135.2099  153.3847 C   0  0  2  0  0  0  0  0  0  0  0  0
  145.8808  133.9910  152.5740 C   0  0  0  0  0  0  0  0  0  0  0  0
  145.0277  135.0717  151.9477 C   0  0  2  0  0  0  0  0  0  0  0  0
  145.5732  135.9017  150.7998 C   0  0  0  0  0  0  0  0  0  0  0  0
  146.1768  137.5626  153.3682 C   0  0  0  0  0  0  0  0  0  0  0  0
  146.0565  140.3406  153.2531 H   0  0  0  0  0  0  0  0  0  0  0  0
  146.4458  139.7084  151.6551 H   0  0  0  0  0  0  0  0  0  0  0  0
  147.6540  140.6060  152.5587 H   0  0  0  0  0  0  0  0  0  0  0  0
  148.1233  138.1835  152.6400 H   0  0  0  0  0  0  0  0  0  0  0  0
  148.4676  139.8260  154.6363 H   0  0  0  0  0  0  0  0  0  0  0  0
  147.1349  139.0131  155.4165 H   0  0  0  0  0  0  0  0  0  0  0  0
  151.1392  136.7860  158.7788 H   0  0  0  0  0  0  0  0  0  0  0  0
  151.0113  142.5911  155.9968 H   0  0  0  0  0  0  0  0  0  0  0  0
  152.9323  140.9868  158.9316 H   0  0  0  0  0  0  0  0  0  0  0  0
  153.2722  142.1445  157.6740 H   0  0  0  0  0  0  0  0  0  0  0  0
  150.5219  142.2723  160.4598 H   0  0  0  0  0  0  0  0  0  0  0  0
  152.6635  142.2696  161.0296 H   0  0  0  0  0  0  0  0  0  0  0  0
  153.6568  143.3511  160.0874 H   0  0  0  0  0  0  0  0  0  0  0  0
  151.1028  144.1521  161.5748 H   0  0  0  0  0  0  0  0  0  0  0  0
  152.7471  144.5904  161.9862 H   0  0  0  0  0  0  0  0  0  0  0  0
  150.1135  145.1272  159.5811 H   0  0  0  0  0  0  0  0  0  0  0  0
  151.0818  146.2296  158.6264 H   0  0  0  0  0  0  0  0  0  0  0  0
  152.5447  144.4312  157.8534 H   0  0  0  0  0  0  0  0  0  0  0  0
  150.8911  144.0023  157.4957 H   0  0  0  0  0  0  0  0  0  0  0  0
  149.2003  136.2199  153.9123 H   0  0  0  0  0  0  0  0  0  0  0  0
  149.2750  135.8615  155.6160 H   0  0  0  0  0  0  0  0  0  0  0  0
  147.3019  134.8935  155.1177 H   0  0  0  0  0  0  0  0  0  0  0  0
  146.7098  136.4173  155.7186 H   0  0  0  0  0  0  0  0  0  0  0  0
  144.7981  135.1115  154.2111 H   0  0  0  0  0  0  0  0  0  0  0  0
  146.9111  133.8995  152.2344 H   0  0  0  0  0  0  0  0  0  0  0  0
  145.3899  133.0513  152.8189 H   0  0  0  0  0  0  0  0  0  0  0  0
  143.9726  134.8316  151.8317 H   0  0  0  0  0  0  0  0  0  0  0  0
  146.6483  136.0565  150.8948 H   0  0  0  0  0  0  0  0  0  0  0  0
  145.0799  136.8733  150.7697 H   0  0  0  0  0  0  0  0  0  0  0  0
  145.3856  135.3927  149.8542 H   0  0  0  0  0  0  0  0  0  0  0  0
  145.4586  137.8567  154.1354 H   0  0  0  0  0  0  0  0  0  0  0  0
  145.6328  137.5890  152.4236 H   0  0  0  0  0  0  0  0  0  0  0  0
  147.3014  135.9478  152.8852 H   0  0  0  0  0  0  0  0  0  0  0  0
  1  2  1  0  0  0  0
  1 30  1  0  0  0  0
  1 31  1  0  0  0  0
  1 32  1  0  0  0  0
  2 29  1  0  0  0  0
  2  3  1  0  0  0  0
  2 33  1  0  0  0  0
  3  4  1  0  0  0  0
  3 34  1  0  0  0  0
  3 35  1  0  0  0  0
  4  5  1  0  0  0  0
  4 22  1  0  0  0  0
  5 10  1  0  0  0  0
  5  6  2  0  0  0  0
  6  7  1  0  0  0  0
  7  8  2  0  0  0  0
  7 36  1  0  0  0  0
  8  9  1  0  0  0  0
  9 13  1  0  0  0  0
  9 10  2  0  0  0  0
 10 11  1  0  0  0  0
 11 12  2  0  0  0  0
 12 13  1  0  0  0  0
 12 37  1  0  0  0  0
 13 14  1  0  0  0  0
 14 15  1  0  0  0  0
 14 38  1  0  0  0  0
 14 39  1  0  0  0  0
 15 21  1  0  0  0  0
 15 16  1  0  0  0  0
 15 17  1  0  0  0  0
 16 40  1  0  0  0  0
 17 18  1  0  0  0  0
 17 41  1  0  0  0  0
 17 42  1  0  0  0  0
 18 19  1  0  0  0  0
 18 43  1  0  0  0  0
 18 44  1  0  0  0  0
 19 20  1  0  0  0  0
 20 21  1  0  0  0  0
 20 45  1  0  0  0  0
 20 46  1  0  0  0  0
 21 47  1  0  0  0  0
 21 48  1  0  0  0  0
 22 23  1  0  0  0  0
 22 49  1  0  0  0  0
 22 50  1  0  0  0  0
 23 24  1  0  0  0  0
 23 51  1  0  0  0  0
 23 52  1  0  0  0  0
 24 25  1  0  0  0  0
 24 29  1  0  0  0  0
 24 62  1  0  0  0  0
 25 27  1  0  0  0  0
 25 26  1  0  0  0  0
 25 53  1  0  0  0  0
 26 27  1  0  0  0  0
 26 54  1  0  0  0  0
 26 55  1  0  0  0  0
 27 28  1  0  0  0  0
 27 56  1  0  0  0  0
 28 57  1  0  0  0  0
 28 58  1  0  0  0  0
 28 59  1  0  0  0  0
 29 60  1  0  0  0  0
 29 61  1  0  0  0  0
M  CHG  1  24   1
M  END
> <s_m_source_file>
AV-unprocessed.smi

> <i_m_source_file_index>
193

> <i_lp_mmshare_version>
43012

> <i_f3d_flags>
0

> <s_epik_input>
W0NIM11bQ0BASF0xW0NIMl1bQ0BIXTFOKFtDSDJdMilbQ0gyXVtDSDJdTihbQ0gyXVtDQEhdMltDSDNdKWMobltjSF1uMyljKGMzNCluW2NIXW40W0NIMl1DNShbT0hdKVtDSDJdW0NIMl1PW0NIMl1bQ0gyXTU=

> <s_epik_cmdline>
J2VwaWtfcHl0aG9uJywgJy1waCcsICc3LjAnLCAnLXRuJywgJzgnLCAnLW1hJywgJzIwMCcsICctbWV0YWxfYmluZGluZycsICctaW1hZScsICc8aW5maWxlLm1hZT4nLCAnLW9tYWUnLCAnPG91dGZpbGUubWFlPic=

> <r_lp_tautomer_probability>
1

> <r_epik_Ionization_Penalty>
0.0540825

> <r_epik_Ionization_Penalty_Charging>
0.0538476

> <r_epik_Ionization_Penalty_Neutral>
0.000234891

> <r_epik_State_Penalty>
0.0200719

> <r_epik_Charging_Adjusted_Penalty>
0.0739194

> <i_epik_Tot_Q>
1

> <i_epik_Tot_abs_Q>
1

> <r_epik_Metal_State_Penalty>
0.0199414

> <b_epik_Metal_Only>
0

> <s_lp_Force_Field>
OPLS_2005

> <r_lp_Energy>
56.3109

> <b_lp_Chiralities_Consistent>
1

> <s_lp_Variant>
AV-unprocessed.smi:193-12

> <Gold.Version>
5.8.1

> <Gold.Id.Protein>
6NUR|6NUR_protein|mol2

> <Gold.PLP.Fitness>
44.6819

> <Gold.PLP.PLP>
-39.9524

> <Gold.PLP.part.hbond>
-2.0000

> <Gold.PLP.part.metal>
0.0000

> <Gold.PLP.part.buried>
-0.5901

> <Gold.PLP.part.nonpolar>
-37.2064

> <Gold.PLP.part.repulsive>
0.2251

> <Gold.PLP.ligand.clash>
0.0000

> <Gold.PLP.ligand.torsion>
1.3161

> <Gold.PLP.Chemscore.Hbond>
2.0000

> <Gold.PLP.Chemscore.CHOScore>
0.0000

> <Gold.PLP.Chemscore.Metal>
0.0000

> <Gold.Chemscore.Hbonds>
donor molecule, donor type, donor heavy atom, donor atom, acceptor molecule, acceptor atom, score
      L1  H    24    62       P1  7948  2.00

> <Gold.PLP.Chemscore.Internal.Correction>
1.3617

> <Gold.Rescore>
     Score         DG    S(hbond)    S(metal)    S(lipo)     H(rot)  DE(clash)    DE(int)     intcor
     15.49     -17.67       1.00        0.00     117.86       1.93       0.91       1.27       ----

> <Gold.Chemscore.Fitness>
15.4899

> <Gold.Chemscore.DG>
-17.6661

> <Gold.Chemscore.ZeroCoef>
-5.4800

> <Gold.Chemscore.Hbond>
0.9986

> <Gold.Chemscore.Metal>
0.0000

> <Gold.Chemscore.Lipo>
117.8562

> <Gold.Chemscore.Internal_Hbond>
0.0000

> <Gold.Chemscore.DEClash>
0.9074

> <Gold.Chemscore.DEInternal>
1.2688

> <Gold.Chemscore.Rot>
1.9290

> <Gold.Chemscore.Internal.Correction>
   9.000000E+99

> <Gold.Chemscore.Hbonds>
donor molecule, donor type, donor heavy atom, donor atom, acceptor molecule, acceptor atom, score
      L1  H    24    62       P1  7948  0.97

> <Gold.Chemscore.Hbond.Weighted>
-3.3352

> <Gold.Chemscore.Metal.Weighted>
-0.0000

> <Gold.Chemscore.Lipo.Weighted>
-13.7892

> <Gold.Chemscore.Internal_Hbond.Weighted>
0.0000

> <Gold.Chemscore.DEClash.Weighted>
0.9074

> <Gold.Chemscore.DEInternal.Weighted>
1.2688

> <Gold.Chemscore.Rot.Weighted>
4.9383

> <Gold.Chemscore.Internal.Correction.Weighted>
   9.000000E+99

> <Gold.Protein.RotatedTorsions>
[ 6907 6896 6895 6894 ] final -110.79 input  -60.11 | X-H torsion
[ 7974 7965 7964 7962 ] final   77.90 input  175.53 | X-H torsion
[ 8008 7997 7996 7995 ] final  -93.91 input   59.86 | X-H torsion
[ 10167 10162 10161 10158 ] final   58.54 input  -65.29 | X-H torsion
[ 10718 10713 10712 10709 ] final  121.21 input   66.30 | X-H torsion
[ 10763 10752 10751 10750 ] final   77.85 input  -60.55 | X-H torsion
[ 11005 11000 10999 10996 ] final -173.46 input  -57.11 | X-H torsion

> <Gold.Protein.ActiveResidues>
 VAL166  LYS551  ARG553  GLY616  TRP617  ASP618  TYR619  PRO620  LYS621  CYS622 
 ASP623  PHE694  ASN695  SER759  ASP760  ASP761  ALA762  ILE779  LEU786  VAL792 
 PHE793  MET794  SER795  GLU796  ALA797  LYS798  CYS799  TRP800  GLU811  SER814 

> <Gold.Protein.RotatedAtoms>
  150.7647  133.9331  159.3432 H   0  0  0  0  0  0  0  0  0  0  0  0  # atno 6907 bound_to 6896
  151.7231  135.0888  160.0297 H   0  0  0  0  0  0  0  0  0  0  0  0  # atno 6908 bound_to 6896
  152.3637  133.6292  159.6070 H   0  0  0  0  0  0  0  0  0  0  0  0  # atno 6909 bound_to 6896
  145.6841  139.2532  143.1797 H   0  0  0  0  0  0  0  0  0  0  0  0  # atno 7974 bound_to 7965
  154.7417  140.0494  157.0816 H   0  0  0  0  0  0  0  0  0  0  0  0  # atno 8008 bound_to 7997
  155.0170  140.3142  155.4788 H   0  0  0  0  0  0  0  0  0  0  0  0  # atno 8009 bound_to 7997
  156.2865  140.2174  156.5287 H   0  0  0  0  0  0  0  0  0  0  0  0  # atno 8010 bound_to 7997
  140.1861  144.4133  150.6592 H   0  0  0  0  0  0  0  0  0  0  0  0  # atno 10167 bound_to 10162
  157.5834  131.1072  150.8142 H   0  0  0  0  0  0  0  0  0  0  0  0  # atno 10718 bound_to 10713
  153.0830  135.4899  154.8540 H   0  0  0  0  0  0  0  0  0  0  0  0  # atno 10763 bound_to 10752
  154.7175  135.3032  154.9103 H   0  0  0  0  0  0  0  0  0  0  0  0  # atno 10764 bound_to 10752
  153.9778  135.6793  153.4802 H   0  0  0  0  0  0  0  0  0  0  0  0  # atno 10765 bound_to 10752
  140.4855  134.6035  157.4935 H   0  0  0  0  0  0  0  0  0  0  0  0  # atno 11005 bound_to 11000
  146.0939  140.7623  142.9582 LP  0  0  0  0  0  0  0  0  0  0  0  0  # atno 17320 bound_to 7965
  144.7017  140.3681  143.7151 LP  0  0  0  0  0  0  0  0  0  0  0  0  # atno 17321 bound_to 7965
  140.6487  143.2219  151.6126 LP  0  0  0  0  0  0  0  0  0  0  0  0  # atno 17342 bound_to 10162
  139.5275  144.3014  152.1070 LP  0  0  0  0  0  0  0  0  0  0  0  0  # atno 17343 bound_to 10162
  156.8582  130.5104  149.5306 LP  0  0  0  0  0  0  0  0  0  0  0  0  # atno 17370 bound_to 10713
  156.0882  130.5875  150.9685 LP  0  0  0  0  0  0  0  0  0  0  0  0  # atno 17371 bound_to 10713
  139.9800  134.7152  155.9876 LP  0  0  0  0  0  0  0  0  0  0  0  0  # atno 17394 bound_to 11000
  141.1510  133.6548  156.4013 LP  0  0  0  0  0  0  0  0  0  0  0  0  # atno 17395 bound_to 11000

$$$$
