#       Name:                AV-unprocessed.smi:720
#       Creating user name   scv26
#       Creation time:       Fri Mar 27 00:49:18 2020


#       File generated by GOLD software.
#

@<TRIPOS>MOLECULE
AV-unprocessed.smi:720
    50    52     1
SMALL
NO_CHARGES


@<TRIPOS>ATOM
      1 ****        -2.5604   5.6122  -2.7440 C.3            1 S1                 0.0000
      2 ****        -2.5543   4.9012  -1.4449 N.4            1 S1                 1.0000
      3 ****        -3.9113   4.8280  -0.8595 C.3            1 S1                 0.0000
      4 ****        -1.9020   3.5694  -1.5056 C.3            1 S1                 0.0000
      5 ****        -0.3730   3.6640  -1.6641 C.3            1 S1                 0.0000
      6 ****         0.2548   2.3592  -1.5891 N.pl3          1 S1                 0.0000
      7 ****         0.8465   1.6289  -2.6006 C.2            1 S1                 0.0000
      8 ****         1.3037   0.4641  -2.0522 C.2            1 S1                 0.0000
      9 ****         0.9390   0.5816  -0.6828 C.2            1 S1                 0.0000
     10 ****         1.2423  -0.4520   0.2387 N.am           1 S1                 0.0000
     11 ****         0.9378  -0.5042   1.5506 C.2            1 S1                 0.0000
     12 ****         0.3381   0.3775   2.1635 O.2            1 S1                 0.0000
     13 ****         1.3462  -1.6280   2.1665 N.am           1 S1                 0.0000
     14 ****         1.1752  -1.9950   3.5752 C.3            1 S1                 0.0000
     15 ****         1.5603  -3.4705   3.8206 C.3            1 S1                 0.0000
     16 ****         2.6602  -3.3711   4.8939 C.3            1 S1                 0.0000
     17 ****         3.9448  -2.7988   4.2653 C.3            1 S1                 0.0000
     18 ****         3.5911  -1.3139   4.0599 C.3            1 S1                 0.0000
     19 ****         2.1266  -1.2457   4.5443 C.3            1 S1                 0.0000
     20 ****         2.1698  -2.1991   5.7335 C.3            1 S1                 0.0000
     21 ****         0.3153   1.7172  -0.4029 N.2            1 S1                 0.0000
     22 ****        -3.1048   5.0440  -3.4992 H              1 S1                 0.0000
     23 ****        -1.5487   5.7862  -3.1087 H              1 S1                 0.0000
     24 ****        -3.0380   6.5875  -2.6445 H              1 S1                 0.0000
     25 ****        -4.5719   4.2201  -1.4791 H              1 S1                 0.0000
     26 ****        -4.3478   5.8232  -0.7684 H              1 S1                 0.0000
     27 ****        -3.8799   4.3911   0.1392 H              1 S1                 0.0000
     28 ****        -2.1200   3.0358  -0.5791 H              1 S1                 0.0000
     29 ****        -2.3373   2.9770  -2.3119 H              1 S1                 0.0000
     30 ****        -0.1036   4.1148  -2.6191 H              1 S1                 0.0000
     31 ****         0.0537   4.2946  -0.8829 H              1 S1                 0.0000
     32 ****         0.8921   1.9937  -3.6162 H              1 S1                 0.0000
     33 ****         1.8172  -0.3434  -2.5531 H              1 S1                 0.0000
     34 ****         1.7353  -1.2473  -0.1401 H              1 S1                 0.0000
     35 ****         1.8349  -2.3020   1.5948 H              1 S1                 0.0000
     36 ****         0.1359  -1.8467   3.8747 H              1 S1                 0.0000
     37 ****         0.7026  -4.0282   4.1992 H              1 S1                 0.0000
     38 ****         1.9127  -3.9818   2.9233 H              1 S1                 0.0000
     39 ****         2.8182  -4.2991   5.4440 H              1 S1                 0.0000
     40 ****         4.7915  -2.9004   4.9455 H              1 S1                 0.0000
     41 ****         4.2036  -3.2981   3.3310 H              1 S1                 0.0000
     42 ****         4.2269  -0.6852   4.6847 H              1 S1                 0.0000
     43 ****         3.7272  -0.9866   3.0293 H              1 S1                 0.0000
     44 ****         1.7978  -0.2345   4.7863 H              1 S1                 0.0000
     45 ****         1.1921  -2.3700   6.1874 H              1 S1                 0.0000
     46 ****         2.8761  -1.8952   6.5084 H              1 S1                 0.0000
     47 ****        -2.0061   5.4604  -0.8067 H              1 S1                 0.0000
     48 ****         0.0409   1.2045   1.6863 LP             1 S1                 0.0000
     49 ****         0.1477   0.2674   3.1390 LP             1 S1                 0.0000
     50 ****        -0.0307   2.0270   0.4827 LP             1 S1                 0.0000
@<TRIPOS>BOND
    1    1    2 1     
    2    1   22 1     
    3    1   23 1     
    4    1   24 1     
    5    2    3 1     
    6    2    4 1     
    7    2   47 1     
    8    3   25 1     
    9    3   26 1     
   10    3   27 1     
   11    4    5 1     
   12    4   28 1     
   13    4   29 1     
   14    5    6 1     
   15    5   30 1     
   16    5   31 1     
   17    6   21 1     
   18    6    7 1     
   19    7    8 2     
   20    7   32 1     
   21    8    9 1     
   22    8   33 1     
   23    9   10 1     
   24    9   21 2     
   25   10   11 am    
   26   10   34 1     
   27   11   12 2     
   28   11   13 am    
   29   13   14 1     
   30   13   35 1     
   31   14   19 1     
   32   14   15 1     
   33   14   36 1     
   34   15   16 1     
   35   15   37 1     
   36   15   38 1     
   37   16   20 1     
   38   16   17 1     
   39   16   39 1     
   40   17   18 1     
   41   17   40 1     
   42   17   41 1     
   43   18   19 1     
   44   18   42 1     
   45   18   43 1     
   46   19   20 1     
   47   19   44 1     
   48   20   45 1     
   49   20   46 1     
   50   12   48 1     
   51   12   49 1     
   52   21   50 1     
@<TRIPOS>SUBSTRUCTURE
      1 S1             1
@<TRIPOS>SET
LONE_PAIRS      STATIC     ATOMS    <user>   **** ""
3 48 49 50
DONOR_HYDROGENS      STATIC     ATOMS    <user>   **** ""
3 47 34 35
ATOM$BLUE        STATIC     ATOMS    COLORGROUP SYSTEM
3 48 49 50
ATOM$RED        STATIC     ATOMS    COLORGROUP SYSTEM
3 47 34 35
