AV-unprocessed.smi:3249|AV-procd|sdf|12423|dock7
  -GOLD-   2272018313D 1   1.00000     0.00000
 Structure written by MMmdl.
 44 45  0  0  0  0  0  0  0  0  2 V2000
  146.7046  142.2130  153.8536 C   0  0  0  0  0  0  0  0  0  0  0  0
  147.8349  141.6325  154.6535 C   0  0  0  0  0  0  0  0  0  0  0  0
  147.9718  141.5873  156.0696 C   0  0  0  0  0  0  0  0  0  0  0  0
  149.0879  140.9931  156.4586 N   0  0  0  0  0  0  0  0  0  0  0  0
  149.7125  140.6537  155.3103 N   0  0  0  0  0  0  0  0  0  0  0  0
  150.9821  139.9368  155.3646 C   0  0  2  0  0  0  0  0  0  0  0  0
  150.8624  138.6069  154.5966 C   0  0  0  0  0  0  0  0  0  0  0  0
  151.4506  139.7652  156.8332 C   0  0  1  0  0  0  0  0  0  0  0  0
  152.6173  138.7691  156.9719 C   0  0  0  0  0  0  0  0  0  0  0  0
  151.8445  141.0812  157.3897 N   0  3  0  0  0  0  0  0  0  0  0  0
  151.6851  141.2270  158.8514 C   0  0  0  0  0  0  0  0  0  0  0  0
  152.1387  142.6187  159.3125 C   0  0  1  0  0  0  0  0  0  0  0  0
  151.6421  143.7288  158.3660 C   0  0  0  0  0  0  0  0  0  0  0  0
  152.0362  145.1099  158.9020 C   0  0  0  0  0  0  0  0  0  0  0  0
  151.5564  145.2586  160.3494 C   0  0  0  0  0  0  0  0  0  0  0  0
  152.0417  144.0728  161.1981 C   0  0  0  0  0  0  0  0  0  0  0  0
  151.6059  142.8479  160.6155 O   0  0  0  0  0  0  0  0  0  0  0  0
  148.9707  141.0206  154.2049 C   0  0  0  0  0  0  0  0  0  0  0  0
  146.0144  142.7797  154.4788 H   0  0  0  0  0  0  0  0  0  0  0  0
  146.1235  141.4358  153.3568 H   0  0  0  0  0  0  0  0  0  0  0  0
  147.0656  142.8904  153.0796 H   0  0  0  0  0  0  0  0  0  0  0  0
  147.2932  141.9606  156.8226 H   0  0  0  0  0  0  0  0  0  0  0  0
  151.7239  140.5427  154.8401 H   0  0  0  0  0  0  0  0  0  0  0  0
  151.8329  138.1299  154.4632 H   0  0  0  0  0  0  0  0  0  0  0  0
  150.4507  138.7687  153.5997 H   0  0  0  0  0  0  0  0  0  0  0  0
  150.2118  137.9014  155.1139 H   0  0  0  0  0  0  0  0  0  0  0  0
  150.6044  139.3900  157.4115 H   0  0  0  0  0  0  0  0  0  0  0  0
  152.3308  137.7669  156.6552 H   0  0  0  0  0  0  0  0  0  0  0  0
  152.9517  138.6827  158.0055 H   0  0  0  0  0  0  0  0  0  0  0  0
  153.4742  139.0765  156.3717 H   0  0  0  0  0  0  0  0  0  0  0  0
  152.8026  141.2753  157.1349 H   0  0  0  0  0  0  0  0  0  0  0  0
  150.6328  141.0865  159.1026 H   0  0  0  0  0  0  0  0  0  0  0  0
  152.2474  140.4536  159.3750 H   0  0  0  0  0  0  0  0  0  0  0  0
  153.2294  142.6414  159.3557 H   0  0  0  0  0  0  0  0  0  0  0  0
  152.0532  143.5874  157.3659 H   0  0  0  0  0  0  0  0  0  0  0  0
  150.5570  143.6716  158.2686 H   0  0  0  0  0  0  0  0  0  0  0  0
  153.1200  145.2253  158.8600 H   0  0  0  0  0  0  0  0  0  0  0  0
  151.6123  145.8967  158.2774 H   0  0  0  0  0  0  0  0  0  0  0  0
  151.9142  146.1981  160.7718 H   0  0  0  0  0  0  0  0  0  0  0  0
  150.4667  145.2999  160.3721 H   0  0  0  0  0  0  0  0  0  0  0  0
  153.1289  144.0782  161.2896 H   0  0  0  0  0  0  0  0  0  0  0  0
  151.6374  144.1455  162.2078 H   0  0  0  0  0  0  0  0  0  0  0  0
  149.3064  140.8151  153.1990 H   0  0  0  0  0  0  0  0  0  0  0  0
  151.2553  141.7783  156.9557 H   0  0  0  0  0  0  0  0  0  0  0  0
  1  2  1  0  0  0  0
  1 19  1  0  0  0  0
  1 20  1  0  0  0  0
  1 21  1  0  0  0  0
  2 18  2  0  0  0  0
  2  3  1  0  0  0  0
  3  4  2  0  0  0  0
  3 22  1  0  0  0  0
  4  5  1  0  0  0  0
  5  6  1  0  0  0  0
  5 18  1  0  0  0  0
  6  7  1  0  0  0  0
  6  8  1  0  0  0  0
  6 23  1  0  0  0  0
  7 24  1  0  0  0  0
  7 25  1  0  0  0  0
  7 26  1  0  0  0  0
  8  9  1  0  0  0  0
  8 10  1  0  0  0  0
  8 27  1  0  0  0  0
  9 28  1  0  0  0  0
  9 29  1  0  0  0  0
  9 30  1  0  0  0  0
 10 11  1  0  0  0  0
 10 31  1  0  0  0  0
 10 44  1  0  0  0  0
 11 12  1  0  0  0  0
 11 32  1  0  0  0  0
 11 33  1  0  0  0  0
 12 17  1  0  0  0  0
 12 13  1  0  0  0  0
 12 34  1  0  0  0  0
 13 14  1  0  0  0  0
 13 35  1  0  0  0  0
 13 36  1  0  0  0  0
 14 15  1  0  0  0  0
 14 37  1  0  0  0  0
 14 38  1  0  0  0  0
 15 16  1  0  0  0  0
 15 39  1  0  0  0  0
 15 40  1  0  0  0  0
 16 17  1  0  0  0  0
 16 41  1  0  0  0  0
 16 42  1  0  0  0  0
 18 43  1  0  0  0  0
M  CHG  1  10   1
M  END
> <s_m_source_file>
AV-unprocessed.smi

> <i_m_source_file_index>
3249

> <i_lp_mmshare_version>
43012

> <i_f3d_flags>
0

> <s_epik_input>
W0NIM11jMVtjSF1ubihbY0hdMSlbQ0BIXShbQ0gzXSlbQ0BIXShbQ0gzXSlbTkhdW0NIMl1bQ0BASF0yW0NIMl1bQ0gyXVtDSDJdW0NIMl1PMg==

> <s_epik_cmdline>
J2VwaWtfcHl0aG9uJywgJy1waCcsICc3LjAnLCAnLXRuJywgJzgnLCAnLW1hJywgJzIwMCcsICctbWV0YWxfYmluZGluZycsICctaW1hZScsICc8aW5maWxlLm1hZT4nLCAnLW9tYWUnLCAnPG91dGZpbGUubWFlPic=

> <r_lp_tautomer_probability>
1

> <r_epik_Ionization_Penalty>
0.00659207

> <r_epik_Ionization_Penalty_Charging>
0.00656881

> <r_epik_Ionization_Penalty_Neutral>
2.32662e-05

> <r_epik_State_Penalty>
0.0048654

> <r_epik_Charging_Adjusted_Penalty>
0.0114342

> <i_epik_Tot_Q>
1

> <i_epik_Tot_abs_Q>
1

> <r_epik_Metal_State_Penalty>
-0

> <b_epik_Metal_Only>
0

> <s_lp_Force_Field>
OPLS_2005

> <r_lp_Energy>
17.4327

> <b_lp_Chiralities_Consistent>
1

> <s_lp_Variant>
AV-unprocessed.smi:3249-7

> <Gold.Version>
5.8.1

> <Gold.Id.Protein>
6NUR|6NUR_protein|mol2

> <Gold.PLP.Fitness>
45.6059

> <Gold.PLP.PLP>
-43.7526

> <Gold.PLP.part.hbond>
-0.9103

> <Gold.PLP.part.metal>
0.0000

> <Gold.PLP.part.buried>
-3.4233

> <Gold.PLP.part.nonpolar>
-39.2521

> <Gold.PLP.part.repulsive>
0.2190

> <Gold.PLP.ligand.clash>
0.0000

> <Gold.PLP.ligand.torsion>
0.6279

> <Gold.PLP.Chemscore.Hbond>
0.0000

> <Gold.PLP.Chemscore.CHOScore>
1.0000

> <Gold.PLP.Chemscore.Metal>
0.0000

> <Gold.Chemscore.Hbonds>
donor molecule, donor type, donor heavy atom, donor atom, acceptor molecule, acceptor atom, score
      L1  C    18    43       P1  7957  1.00

> <Gold.PLP.Chemscore.Internal.Correction>
0.1091

> <Gold.Rescore>
     Score         DG    S(hbond)    S(metal)    S(lipo)     H(rot)  DE(clash)    DE(int)     intcor
     14.92     -15.68       0.00        0.00     120.64       1.53       0.14       0.62       ----

> <Gold.Chemscore.Fitness>
14.9156

> <Gold.Chemscore.DG>
-15.6809

> <Gold.Chemscore.ZeroCoef>
-5.4800

> <Gold.Chemscore.Hbond>
0.0033

> <Gold.Chemscore.Metal>
0.0000

> <Gold.Chemscore.Lipo>
120.6420

> <Gold.Chemscore.Internal_Hbond>
0.0000

> <Gold.Chemscore.DEClash>
0.1433

> <Gold.Chemscore.DEInternal>
0.6220

> <Gold.Chemscore.Rot>
1.5333

> <Gold.Chemscore.Internal.Correction>
   9.000000E+99

> <Gold.Chemscore.Hbond.Weighted>
-0.0110

> <Gold.Chemscore.Metal.Weighted>
-0.0000

> <Gold.Chemscore.Lipo.Weighted>
-14.1151

> <Gold.Chemscore.Internal_Hbond.Weighted>
0.0000

> <Gold.Chemscore.DEClash.Weighted>
0.1433

> <Gold.Chemscore.DEInternal.Weighted>
0.6220

> <Gold.Chemscore.Rot.Weighted>
3.9252

> <Gold.Chemscore.Internal.Correction.Weighted>
   9.000000E+99

> <Gold.Protein.RotatedTorsions>
[ 6907 6896 6895 6894 ] final -122.37 input  -60.11 | X-H torsion
[ 7974 7965 7964 7962 ] final  170.99 input  175.53 | X-H torsion
[ 8008 7997 7996 7995 ] final   -4.58 input   59.86 | X-H torsion
[ 10167 10162 10161 10158 ] final  151.15 input  -65.29 | X-H torsion
[ 10718 10713 10712 10709 ] final   89.85 input   66.30 | X-H torsion
[ 10763 10752 10751 10750 ] final  135.16 input  -60.55 | X-H torsion
[ 11005 11000 10999 10996 ] final -128.71 input  -57.11 | X-H torsion

> <Gold.Protein.ActiveResidues>
 VAL166  LYS551  ARG553  GLY616  TRP617  ASP618  TYR619  PRO620  LYS621  CYS622 
 ASP623  PHE694  ASN695  SER759  ASP760  ASP761  ALA762  ILE779  LEU786  VAL792 
 PHE793  MET794  SER795  GLU796  ALA797  LYS798  CYS799  TRP800  GLU811  SER814 

> <Gold.Protein.RotatedAtoms>
  150.8570  133.7701  159.3005 H   0  0  0  0  0  0  0  0  0  0  0  0  # atno 6907 bound_to 6896
  151.5355  135.1067  159.9923 H   0  0  0  0  0  0  0  0  0  0  0  0  # atno 6908 bound_to 6896
  152.4597  133.7753  159.6877 H   0  0  0  0  0  0  0  0  0  0  0  0  # atno 6909 bound_to 6896
  144.7307  139.9284  143.6423 H   0  0  0  0  0  0  0  0  0  0  0  0  # atno 7974 bound_to 7965
  154.6128  140.2480  155.7647 H   0  0  0  0  0  0  0  0  0  0  0  0  # atno 8008 bound_to 7997
  156.2381  140.2943  156.0318 H   0  0  0  0  0  0  0  0  0  0  0  0  # atno 8009 bound_to 7997
  155.2024  140.0394  157.2910 H   0  0  0  0  0  0  0  0  0  0  0  0  # atno 8010 bound_to 7997
  139.4843  144.5464  151.7477 H   0  0  0  0  0  0  0  0  0  0  0  0  # atno 10167 bound_to 10162
  157.6957  131.0348  150.3488 H   0  0  0  0  0  0  0  0  0  0  0  0  # atno 10718 bound_to 10713
  153.8354  135.3098  155.3422 H   0  0  0  0  0  0  0  0  0  0  0  0  # atno 10763 bound_to 10752
  154.7955  135.4758  154.0154 H   0  0  0  0  0  0  0  0  0  0  0  0  # atno 10764 bound_to 10752
  153.1608  135.6860  153.8837 H   0  0  0  0  0  0  0  0  0  0  0  0  # atno 10765 bound_to 10752
  140.9493  134.1087  157.4077 H   0  0  0  0  0  0  0  0  0  0  0  0  # atno 11005 bound_to 11000
  146.0876  139.3865  143.0425 LP  0  0  0  0  0  0  0  0  0  0  0  0  # atno 17320 bound_to 7965
  145.7755  140.9878  143.1127 LP  0  0  0  0  0  0  0  0  0  0  0  0  # atno 17321 bound_to 7965
  140.5011  144.1167  150.5971 LP  0  0  0  0  0  0  0  0  0  0  0  0  # atno 17342 bound_to 10162
  140.4061  143.2680  151.9889 LP  0  0  0  0  0  0  0  0  0  0  0  0  # atno 17343 bound_to 10162
  156.3939  130.3903  149.7009 LP  0  0  0  0  0  0  0  0  0  0  0  0  # atno 17370 bound_to 10713
  156.4350  130.7833  151.2854 LP  0  0  0  0  0  0  0  0  0  0  0  0  # atno 17371 bound_to 10713
  139.8843  135.0061  156.6357 LP  0  0  0  0  0  0  0  0  0  0  0  0  # atno 17394 bound_to 11000
  140.7625  133.8805  155.8429 LP  0  0  0  0  0  0  0  0  0  0  0  0  # atno 17395 bound_to 11000

$$$$
