AV-unprocessed.smi:487|AV-procd|sdf|2699|dock8
  -GOLD-   2262023133D 1   1.00000     0.00000
 Structure written by MMmdl.
 41 42  0  0  0  0  0  0  0  0  1 V2000
  150.6757  140.2432  154.9421 O   0  0  0  0  0  0  0  0  0  0  0  0
  149.8285  141.1318  155.0240 C   0  0  0  0  0  0  0  0  0  0  0  0
  148.5926  141.0731  154.1096 C   0  0  0  0  0  0  0  0  0  0  0  0
  147.4291  141.8308  154.5997 N   0  0  0  0  0  0  0  0  0  0  0  0
  146.7721  142.7198  153.7607 C   0  0  0  0  0  0  0  0  0  0  0  0
  145.7068  143.4611  154.1469 C   0  0  0  0  0  0  0  0  0  0  0  0
  145.1864  143.3543  155.5056 C   0  0  0  0  0  0  0  0  0  0  0  0
  144.2285  143.9832  155.9497 O   0  0  0  0  0  0  0  0  0  0  0  0
  145.8746  142.4505  156.3195 N   0  0  0  0  0  0  0  0  0  0  0  0
  146.9737  141.6847  155.9285 C   0  0  0  0  0  0  0  0  0  0  0  0
  147.5140  140.9240  156.7306 O   0  0  0  0  0  0  0  0  0  0  0  0
  149.9355  142.1643  155.8787 N   0  0  0  0  0  0  0  0  0  0  0  0
  151.0234  142.3845  156.8296 C   0  0  0  0  0  0  0  0  0  0  0  0
  151.0439  141.1625  157.7837 C   0  0  0  0  0  0  0  0  0  0  0  0
  152.3903  140.8625  158.4657 C   0  0  0  0  0  0  0  0  0  0  0  0
  152.5984  141.4573  159.8732 C   0  0  0  0  0  0  0  0  0  0  0  0
  152.4173  142.9779  160.0240 C   0  0  0  0  0  0  0  0  0  0  0  0
  153.0482  143.8104  158.8933 C   0  0  0  0  0  0  0  0  0  0  0  0
  152.0366  144.5264  157.9817 C   0  0  0  0  0  0  0  0  0  0  0  0
  150.7852  143.7401  157.5372 C   0  0  0  0  0  0  0  0  0  0  0  0
  145.5509  142.3441  157.2699 H   0  0  0  0  0  0  0  0  0  0  0  0
  148.8856  141.4444  153.1263 H   0  0  0  0  0  0  0  0  0  0  0  0
  148.3272  140.0268  153.9475 H   0  0  0  0  0  0  0  0  0  0  0  0
  147.1270  142.8347  152.7463 H   0  0  0  0  0  0  0  0  0  0  0  0
  145.2382  144.1380  153.4470 H   0  0  0  0  0  0  0  0  0  0  0  0
  149.1927  142.8483  155.8777 H   0  0  0  0  0  0  0  0  0  0  0  0
  151.9605  142.4192  156.2712 H   0  0  0  0  0  0  0  0  0  0  0  0
  150.2429  141.2252  158.5215 H   0  0  0  0  0  0  0  0  0  0  0  0
  150.8095  140.2770  157.1899 H   0  0  0  0  0  0  0  0  0  0  0  0
  152.4688  139.7801  158.5752 H   0  0  0  0  0  0  0  0  0  0  0  0
  153.2132  141.1236  157.8007 H   0  0  0  0  0  0  0  0  0  0  0  0
  151.9315  140.9580  160.5769 H   0  0  0  0  0  0  0  0  0  0  0  0
  153.6076  141.1979  160.1949 H   0  0  0  0  0  0  0  0  0  0  0  0
  151.3619  143.2169  160.1450 H   0  0  0  0  0  0  0  0  0  0  0  0
  152.8705  143.2742  160.9707 H   0  0  0  0  0  0  0  0  0  0  0  0
  153.6891  144.5726  159.3382 H   0  0  0  0  0  0  0  0  0  0  0  0
  153.7282  143.2081  158.2930 H   0  0  0  0  0  0  0  0  0  0  0  0
  151.6924  145.4245  158.4959 H   0  0  0  0  0  0  0  0  0  0  0  0
  152.5639  144.8843  157.0968 H   0  0  0  0  0  0  0  0  0  0  0  0
  150.2508  144.4071  156.8589 H   0  0  0  0  0  0  0  0  0  0  0  0
  150.0966  143.6049  158.3709 H   0  0  0  0  0  0  0  0  0  0  0  0
  1  2  2  0  0  0  0
  2  3  1  0  0  0  0
  2 12  1  0  0  0  0
  3  4  1  0  0  0  0
  3 22  1  0  0  0  0
  3 23  1  0  0  0  0
  4 10  1  0  0  0  0
  4  5  1  0  0  0  0
  5  6  2  0  0  0  0
  5 24  1  0  0  0  0
  6  7  1  0  0  0  0
  6 25  1  0  0  0  0
  7  8  2  0  0  0  0
  7  9  1  0  0  0  0
  9 21  1  0  0  0  0
  9 10  1  0  0  0  0
 10 11  2  0  0  0  0
 12 13  1  0  0  0  0
 12 26  1  0  0  0  0
 13 20  1  0  0  0  0
 13 14  1  0  0  0  0
 13 27  1  0  0  0  0
 14 15  1  0  0  0  0
 14 28  1  0  0  0  0
 14 29  1  0  0  0  0
 15 16  1  0  0  0  0
 15 30  1  0  0  0  0
 15 31  1  0  0  0  0
 16 17  1  0  0  0  0
 16 32  1  0  0  0  0
 16 33  1  0  0  0  0
 17 18  1  0  0  0  0
 17 34  1  0  0  0  0
 17 35  1  0  0  0  0
 18 19  1  0  0  0  0
 18 36  1  0  0  0  0
 18 37  1  0  0  0  0
 19 20  1  0  0  0  0
 19 38  1  0  0  0  0
 19 39  1  0  0  0  0
 20 40  1  0  0  0  0
 20 41  1  0  0  0  0
M  END
> <s_m_source_file>
AV-unprocessed.smi

> <i_m_source_file_index>
487

> <i_lp_mmshare_version>
43012

> <i_f3d_flags>
0

> <s_epik_input>
Tz1jMVtuSF1jKD1PKVtjSF1bY0hdbjFbQ0gyXUMoPU8pW05IXVtDSF0yW0NIMl1bQ0gyXVtDSDJdW0NIMl1bQ0gyXVtDSDJdW0NIMl0y

> <s_epik_cmdline>
J2VwaWtfcHl0aG9uJywgJy1waCcsICc3LjAnLCAnLXRuJywgJzgnLCAnLW1hJywgJzIwMCcsICctbWV0YWxfYmluZGluZycsICctaW1hZScsICc8aW5maWxlLm1hZT4nLCAnLW9tYWUnLCAnPG91dGZpbGUubWFlPic=

> <r_lp_tautomer_probability>
0.999537

> <r_epik_Ionization_Penalty>
0.00321433

> <r_epik_Ionization_Penalty_Charging>
0.00321431

> <r_epik_Ionization_Penalty_Neutral>
2.02148e-08

> <r_epik_State_Penalty>
0.00226744

> <r_epik_Charging_Adjusted_Penalty>
0.00548175

> <i_epik_Tot_Q>
0

> <i_epik_Tot_abs_Q>
0

> <r_epik_Metal_State_Penalty>
0.364272

> <b_epik_Metal_Only>
0

> <s_lp_Force_Field>
OPLS_2005

> <r_lp_Energy>
21.4809

> <b_lp_Chiralities_Consistent>
1

> <s_lp_Variant>
AV-unprocessed.smi:487-1

> <Gold.Version>
5.8.1

> <Gold.Id.Protein>
6NUR|6NUR_protein|mol2

> <Gold.PLP.Fitness>
48.8179

> <Gold.PLP.PLP>
-44.2671

> <Gold.PLP.part.hbond>
-2.0000

> <Gold.PLP.part.metal>
0.0000

> <Gold.PLP.part.buried>
-3.5511

> <Gold.PLP.part.nonpolar>
-38.5568

> <Gold.PLP.part.repulsive>
0.3008

> <Gold.PLP.ligand.clash>
0.0000

> <Gold.PLP.ligand.torsion>
0.4288

> <Gold.PLP.Chemscore.Hbond>
1.8000

> <Gold.PLP.Chemscore.CHOScore>
0.0000

> <Gold.PLP.Chemscore.Metal>
0.0000

> <Gold.Chemscore.Hbonds>
donor molecule, donor type, donor heavy atom, donor atom, acceptor molecule, acceptor atom, score
      L1  H    12    26       P1  8028  0.83
      P1  H  7989  7998       L1     1  0.95

> <Gold.PLP.Chemscore.Internal.Correction>
0.0084

> <Gold.Rescore>
     Score         DG    S(hbond)    S(metal)    S(lipo)     H(rot)  DE(clash)    DE(int)     intcor
     15.70     -18.22       1.46        0.00     103.76       1.68       1.43       1.09       ----

> <Gold.Chemscore.Fitness>
15.6980

> <Gold.Chemscore.DG>
-18.2207

> <Gold.Chemscore.ZeroCoef>
-5.4800

> <Gold.Chemscore.Hbond>
1.4647

> <Gold.Chemscore.Metal>
0.0000

> <Gold.Chemscore.Lipo>
103.7601

> <Gold.Chemscore.Internal_Hbond>
0.0000

> <Gold.Chemscore.DEClash>
1.4324

> <Gold.Chemscore.DEInternal>
1.0902

> <Gold.Chemscore.Rot>
1.6763

> <Gold.Chemscore.Internal.Correction>
   9.000000E+99

> <Gold.Chemscore.Hbonds>
donor molecule, donor type, donor heavy atom, donor atom, acceptor molecule, acceptor atom, score
      L1  H    12    26       P1  8028  0.83
      P1  H  7989  7998       L1     1  0.21

> <Gold.Chemscore.Hbond.Weighted>
-4.8922

> <Gold.Chemscore.Metal.Weighted>
-0.0000

> <Gold.Chemscore.Lipo.Weighted>
-12.1399

> <Gold.Chemscore.Internal_Hbond.Weighted>
0.0000

> <Gold.Chemscore.DEClash.Weighted>
1.4324

> <Gold.Chemscore.DEInternal.Weighted>
1.0902

> <Gold.Chemscore.Rot.Weighted>
4.2914

> <Gold.Chemscore.Internal.Correction.Weighted>
   9.000000E+99

> <Gold.Protein.RotatedTorsions>
[ 6907 6896 6895 6894 ] final   90.55 input  -60.11 | X-H torsion
[ 7974 7965 7964 7962 ] final  -31.47 input  175.53 | X-H torsion
[ 8008 7997 7996 7995 ] final  -48.23 input   59.86 | X-H torsion
[ 10167 10162 10161 10158 ] final   75.24 input  -65.29 | X-H torsion
[ 10718 10713 10712 10709 ] final  -42.82 input   66.30 | X-H torsion
[ 10763 10752 10751 10750 ] final   66.12 input  -60.55 | X-H torsion
[ 11005 11000 10999 10996 ] final  -46.32 input  -57.11 | X-H torsion

> <Gold.Protein.ActiveResidues>
 VAL166  LYS551  ARG553  GLY616  TRP617  ASP618  TYR619  PRO620  LYS621  CYS622 
 ASP623  PHE694  ASN695  SER759  ASP760  ASP761  ALA762  ILE779  LEU786  VAL792 
 PHE793  MET794  SER795  GLU796  ALA797  LYS798  CYS799  TRP800  GLU811  SER814 

> <Gold.Protein.RotatedAtoms>
  152.5445  134.1794  159.8629 H   0  0  0  0  0  0  0  0  0  0  0  0  # atno 6907 bound_to 6896
  151.1798  133.4725  159.2601 H   0  0  0  0  0  0  0  0  0  0  0  0  # atno 6908 bound_to 6896
  151.1190  135.0080  159.8585 H   0  0  0  0  0  0  0  0  0  0  0  0  # atno 6909 bound_to 6896
  146.1065  140.5671  142.8797 H   0  0  0  0  0  0  0  0  0  0  0  0  # atno 7974 bound_to 7965
  154.4026  140.1326  156.4306 H   0  0  0  0  0  0  0  0  0  0  0  0  # atno 8008 bound_to 7997
  155.7555  140.3487  155.5151 H   0  0  0  0  0  0  0  0  0  0  0  0  # atno 8009 bound_to 7997
  155.8909  140.1003  157.1409 H   0  0  0  0  0  0  0  0  0  0  0  0  # atno 8010 bound_to 7997
  140.0051  144.5656  150.7704 H   0  0  0  0  0  0  0  0  0  0  0  0  # atno 10167 bound_to 10162
  156.2556  130.4192  149.8600 H   0  0  0  0  0  0  0  0  0  0  0  0  # atno 10718 bound_to 10713
  153.0126  135.5332  154.6774 H   0  0  0  0  0  0  0  0  0  0  0  0  # atno 10763 bound_to 10752
  154.5943  135.2862  155.0605 H   0  0  0  0  0  0  0  0  0  0  0  0  # atno 10764 bound_to 10752
  154.1686  135.6536  153.5056 H   0  0  0  0  0  0  0  0  0  0  0  0  # atno 10765 bound_to 10752
  141.0572  133.6722  156.3139 H   0  0  0  0  0  0  0  0  0  0  0  0  # atno 11005 bound_to 11000
  144.7475  140.5106  143.6825 LP  0  0  0  0  0  0  0  0  0  0  0  0  # atno 17320 bound_to 7965
  145.5750  139.1485  143.3267 LP  0  0  0  0  0  0  0  0  0  0  0  0  # atno 17321 bound_to 7965
  140.7403  143.2803  151.3618 LP  0  0  0  0  0  0  0  0  0  0  0  0  # atno 17342 bound_to 10162
  139.6244  144.0843  152.2421 LP  0  0  0  0  0  0  0  0  0  0  0  0  # atno 17343 bound_to 10162
  156.6134  130.8596  151.3459 LP  0  0  0  0  0  0  0  0  0  0  0  0  # atno 17370 bound_to 10713
  157.7231  130.9585  150.1521 LP  0  0  0  0  0  0  0  0  0  0  0  0  # atno 17371 bound_to 10713
  140.5941  134.5621  157.5505 LP  0  0  0  0  0  0  0  0  0  0  0  0  # atno 17394 bound_to 11000
  139.9400  134.7804  156.0703 LP  0  0  0  0  0  0  0  0  0  0  0  0  # atno 17395 bound_to 11000

$$$$
