#       Name:                AV-unprocessed.smi:454
#       Creating user name   scv26
#       Creation time:       Thu Mar 26 23:01:12 2020


#       File generated by GOLD software.
#

@<TRIPOS>MOLECULE
AV-unprocessed.smi:454
    47    48     1
SMALL
NO_CHARGES


@<TRIPOS>ATOM
      1 ****        -2.6132   6.2554   1.7186 C.3            1 S1                 0.0000
      2 ****        -2.3795   4.8591   1.7724 O.3            1 S1                 0.0000
      3 ****        -2.6163   4.2205   0.5285 C.3            1 S1                 0.0000
      4 ****        -2.3523   2.7186   0.6763 C.3            1 S1                 0.0000
      5 ****        -0.9337   2.4400   0.8493 N.pl3          1 S1                 0.0000
      6 ****        -0.4846   1.1291   1.0569 C.ar           1 S1                 0.0000
      7 ****         0.8738   0.9253   1.3833 C.ar           1 S1                 0.0000
      8 ****         1.3348  -0.3899   1.5873 C.ar           1 S1                 0.0000
      9 ****         0.4173  -1.4482   1.4468 C.ar           1 S1                 0.0000
     10 ****         0.9399  -3.1407   1.6856 S.o2           1 S1                 0.0000
     11 ****         2.1371  -3.1380   2.5412 O.2            1 S1                 0.0000
     12 ****        -0.2357  -3.9371   2.0708 O.2            1 S1                 0.0000
     13 ****         1.4244  -3.6418   0.0914 N.pl3          1 S1                 0.0000
     14 ****         2.6947  -3.1473  -0.4696 C.3            1 S1                 0.0000
     15 ****         2.4628  -1.9840  -1.4533 C.3            1 S1                 0.0000
     16 ****         1.5255  -2.3780  -2.5015 N.3            1 S1                 0.0000
     17 ****         1.3446  -1.2704  -3.4291 C.3            1 S1                 0.0000
     18 ****         0.2397  -2.7176  -1.8975 C.3            1 S1                 0.0000
     19 ****         0.3939  -3.9064  -0.9289 C.3            1 S1                 0.0000
     20 ****        -0.9230  -1.1526   1.1307 C.ar           1 S1                 0.0000
     21 ****        -1.3665   0.1073   0.9326 N.ar           1 S1                 0.0000
     22 ****        -2.4138   6.6979   2.6945 H              1 S1                 0.0000
     23 ****        -3.6497   6.4722   1.4563 H              1 S1                 0.0000
     24 ****        -1.9593   6.7371   0.9905 H              1 S1                 0.0000
     25 ****        -3.6551   4.3778   0.2341 H              1 S1                 0.0000
     26 ****        -1.9871   4.6471  -0.2547 H              1 S1                 0.0000
     27 ****        -2.9169   2.3189   1.5195 H              1 S1                 0.0000
     28 ****        -2.6998   2.2023  -0.2192 H              1 S1                 0.0000
     29 ****        -0.3039   3.2146   1.0012 H              1 S1                 0.0000
     30 ****         1.5537   1.7596   1.4757 H              1 S1                 0.0000
     31 ****         2.3697  -0.5770   1.8330 H              1 S1                 0.0000
     32 ****         3.3699  -2.8405   0.3287 H              1 S1                 0.0000
     33 ****         3.1859  -3.9714  -0.9885 H              1 S1                 0.0000
     34 ****         2.0874  -1.1061  -0.9278 H              1 S1                 0.0000
     35 ****         3.4133  -1.6981  -1.9055 H              1 S1                 0.0000
     36 ****         0.6530  -1.5478  -4.2255 H              1 S1                 0.0000
     37 ****         2.2937  -1.0008  -3.8934 H              1 S1                 0.0000
     38 ****         0.9484  -0.3878  -2.9244 H              1 S1                 0.0000
     39 ****        -0.1691  -1.8501  -1.3796 H              1 S1                 0.0000
     40 ****        -0.4715  -2.9804  -2.6814 H              1 S1                 0.0000
     41 ****         0.6828  -4.7972  -1.4876 H              1 S1                 0.0000
     42 ****        -0.5603  -4.1359  -0.4557 H              1 S1                 0.0000
     43 ****        -1.6540  -1.9394   1.0176 H              1 S1                 0.0000
     44 ****        -2.9862   4.4587   2.4591 LP             1 S1                 0.0000
     45 ****        -1.4278   4.7032   2.0369 LP             1 S1                 0.0000
     46 ****         1.8859  -3.1710  -2.9926 LP             1 S1                 0.0000
     47 ****        -2.3231   0.2824   0.6997 LP             1 S1                 0.0000
@<TRIPOS>BOND
    1    1    2 1     
    2    1   22 1     
    3    1   23 1     
    4    1   24 1     
    5    2    3 1     
    6    3    4 1     
    7    3   25 1     
    8    3   26 1     
    9    4    5 1     
   10    4   27 1     
   11    4   28 1     
   12    5    6 1     
   13    5   29 1     
   14    6   21 ar    
   15    6    7 ar    
   16    7    8 ar    
   17    7   30 1     
   18    8    9 ar    
   19    8   31 1     
   20    9   10 1     
   21    9   20 ar    
   22   10   11 2     
   23   10   12 2     
   24   10   13 1     
   25   13   19 1     
   26   13   14 1     
   27   14   15 1     
   28   14   32 1     
   29   14   33 1     
   30   15   16 1     
   31   15   34 1     
   32   15   35 1     
   33   16   17 1     
   34   16   18 1     
   35   17   36 1     
   36   17   37 1     
   37   17   38 1     
   38   18   19 1     
   39   18   39 1     
   40   18   40 1     
   41   19   41 1     
   42   19   42 1     
   43   20   21 ar    
   44   20   43 1     
   45    2   44 1     
   46    2   45 1     
   47   16   46 1     
   48   21   47 1     
@<TRIPOS>SUBSTRUCTURE
      1 S1             1
@<TRIPOS>SET
LONE_PAIRS      STATIC     ATOMS    <user>   **** ""
6 44 45 11 12 46 47
DONOR_HYDROGENS      STATIC     ATOMS    <user>   **** ""
1 29
ATOM$BLUE        STATIC     ATOMS    COLORGROUP SYSTEM
6 44 45 11 12 46 47
ATOM$RED        STATIC     ATOMS    COLORGROUP SYSTEM
1 29
