#       Name:                AV-unprocessed.smi:2758
#       Creating user name   scv26
#       Creation time:       Fri Mar 27 15:07:13 2020


#       File generated by GOLD software.
#

@<TRIPOS>MOLECULE
AV-unprocessed.smi:2758
    37    38     1
SMALL
NO_CHARGES


@<TRIPOS>ATOM
      1 ****        -4.6834   0.8286  -0.7489 C.3            1 S1                 0.0000
      2 ****        -3.2745   0.6837  -0.7180 O.3            1 S1                 0.0000
      3 ****        -2.8675  -0.6745  -0.7484 C.3            1 S1                 0.0000
      4 ****        -1.3343  -0.7405  -0.7005 C.3            1 S1                 0.0000
      5 ****        -0.9315  -2.0758  -0.9287 O.3            1 S1                 0.0000
      6 ****        -0.7664  -0.2498   0.6464 C.3            1 S1                 0.0000
      7 ****         0.7020  -0.3077   0.7056 N.pl3          1 S1                 0.0000
      8 ****         1.5296  -1.2173   1.2952 C.2            1 S1                 0.0000
      9 ****         1.1220  -2.4348   2.0549 C.3            1 S1                 0.0000
     10 ****         2.8090  -0.8080   1.0635 N.pl3          1 S1                 1.0000
     11 ****         2.7998   0.3753   0.3232 C.ar           1 S1                 0.0000
     12 ****         3.8441   1.1649  -0.1482 C.ar           1 S1                 0.0000
     13 ****         3.4862   2.3190  -0.8758 C.ar           1 S1                 0.0000
     14 ****         2.1356   2.6500  -1.1105 C.ar           1 S1                 0.0000
     15 ****         1.0852   1.8416  -0.6278 C.ar           1 S1                 0.0000
     16 ****         1.4485   0.7029   0.0905 C.ar           1 S1                 0.0000
     17 ****        -0.9318  -0.1368  -1.5145 H              1 S1                 0.0000
     18 ****        -4.9433   1.8866  -0.7172 H              1 S1                 0.0000
     19 ****        -5.1489   0.3423   0.1093 H              1 S1                 0.0000
     20 ****        -5.1037   0.4055  -1.6622 H              1 S1                 0.0000
     21 ****        -3.3004  -1.2233   0.0899 H              1 S1                 0.0000
     22 ****        -3.2325  -1.1377  -1.6669 H              1 S1                 0.0000
     23 ****         0.0126  -2.1038  -0.9479 H              1 S1                 0.0000
     24 ****        -1.0755   0.7761   0.8508 H              1 S1                 0.0000
     25 ****        -1.1575  -0.8547   1.4653 H              1 S1                 0.0000
     26 ****         1.9966  -3.0211   2.3375 H              1 S1                 0.0000
     27 ****         0.4684  -3.0594   1.4459 H              1 S1                 0.0000
     28 ****         0.5873  -2.1502   2.9612 H              1 S1                 0.0000
     29 ****         4.8793   0.9137   0.0307 H              1 S1                 0.0000
     30 ****         4.2631   2.9635  -1.2611 H              1 S1                 0.0000
     31 ****         1.9002   3.5424  -1.6724 H              1 S1                 0.0000
     32 ****         0.0535   2.1025  -0.8126 H              1 S1                 0.0000
     33 ****         3.6282  -1.3030   1.3922 H              1 S1                 0.0000
     34 ****        -2.9272   1.1039   0.1203 LP             1 S1                 0.0000
     35 ****        -2.8864   1.1526  -1.5114 LP             1 S1                 0.0000
     36 ****        -1.2966  -2.3937  -1.8037 LP             1 S1                 0.0000
     37 ****        -1.2717  -2.6615  -0.1931 LP             1 S1                 0.0000
@<TRIPOS>BOND
    1    1    2 1     
    2    1   18 1     
    3    1   19 1     
    4    1   20 1     
    5    2    3 1     
    6    3    4 1     
    7    3   21 1     
    8    3   22 1     
    9    4   17 1     
   10    4    5 1     
   11    4    6 1     
   12    5   23 1     
   13    6    7 1     
   14    6   24 1     
   15    6   25 1     
   16    7   16 1     
   17    7    8 1     
   18    8    9 1     
   19    8   10 2     
   20    9   26 1     
   21    9   27 1     
   22    9   28 1     
   23   10   11 1     
   24   10   33 1     
   25   11   16 ar    
   26   11   12 ar    
   27   12   13 ar    
   28   12   29 1     
   29   13   14 ar    
   30   13   30 1     
   31   14   15 ar    
   32   14   31 1     
   33   15   16 ar    
   34   15   32 1     
   35    2   34 1     
   36    2   35 1     
   37    5   36 1     
   38    5   37 1     
@<TRIPOS>SUBSTRUCTURE
      1 S1             1
@<TRIPOS>SET
LONE_PAIRS      STATIC     ATOMS    <user>   **** ""
4 34 35 36 37
DONOR_HYDROGENS      STATIC     ATOMS    <user>   **** ""
2 23 33
ATOM$BLUE        STATIC     ATOMS    COLORGROUP SYSTEM
4 34 35 36 37
ATOM$RED        STATIC     ATOMS    COLORGROUP SYSTEM
2 23 33
