AV-unprocessed.smi:72|AV-procd|sdf|724|dock10
  -GOLD-   2262017 53D 1   1.00000     0.00000
 Structure written by MMmdl.
 28 29  0  0  0  0  0  0  0  0  2 V2000
  152.5278  135.9575  158.2833 N   0  0  0  0  0  0  0  0  0  0  0  0
  152.1139  136.9420  157.6139 C   0  0  0  0  0  0  0  0  0  0  0  0
  151.4781  138.0576  158.2791 N   0  0  0  0  0  0  0  0  0  0  0  0
  151.0997  139.0615  157.5493 C   0  0  0  0  0  0  0  0  0  0  0  0
  151.3159  139.0922  156.1063 N   0  0  0  0  0  0  0  0  0  0  0  0
  150.8803  140.2617  155.2346 C   0  0  1  0  0  0  0  0  0  0  0  0
  150.0376  139.8101  154.2126 O   0  0  0  0  0  0  0  0  0  0  0  0
  148.6769  140.0216  154.5785 C   0  0  2  0  0  0  0  0  0  0  0  0
  147.7523  139.9468  153.3513 C   0  0  0  0  0  0  0  0  0  0  0  0
  147.9951  138.7522  152.6396 O   0  0  0  0  0  0  0  0  0  0  0  0
  148.7467  141.3811  155.2799 C   0  0  2  0  0  0  0  0  0  0  0  0
  148.7506  142.4325  154.3275 O   0  0  0  0  0  0  0  0  0  0  0  0
  150.0610  141.2833  156.0546 C   0  0  2  0  0  0  0  0  0  0  0  0
  150.7022  142.5376  156.1935 O   0  0  0  0  0  0  0  0  0  0  0  0
  151.8986  137.9584  155.4774 C   0  0  0  0  0  0  0  0  0  0  0  0
  152.0255  137.9754  154.2527 O   0  0  0  0  0  0  0  0  0  0  0  0
  152.2898  136.9063  156.2490 N   0  5  0  0  0  0  0  0  0  0  0  0
  151.8007  140.6569  154.8011 H   0  0  0  0  0  0  0  0  0  0  0  0
  148.3770  139.2754  155.3168 H   0  0  0  0  0  0  0  0  0  0  0  0
  147.8994  141.5346  155.9491 H   0  0  0  0  0  0  0  0  0  0  0  0
  149.8602  140.8736  157.0460 H   0  0  0  0  0  0  0  0  0  0  0  0
  152.9489  135.2488  157.7006 H   0  0  0  0  0  0  0  0  0  0  0  0
  150.6011  139.9319  157.9752 H   0  0  0  0  0  0  0  0  0  0  0  0
  146.7088  139.9331  153.6671 H   0  0  0  0  0  0  0  0  0  0  0  0
  147.8848  140.8089  152.6969 H   0  0  0  0  0  0  0  0  0  0  0  0
  148.5671  138.9500  151.9136 H   0  0  0  0  0  0  0  0  0  0  0  0
  148.9815  143.2328  154.7746 H   0  0  0  0  0  0  0  0  0  0  0  0
  150.0433  143.2133  156.1304 H   0  0  0  0  0  0  0  0  0  0  0  0
  1  2  2  0  0  0  0
  1 22  1  0  0  0  0
  2 17  1  0  0  0  0
  2  3  1  0  0  0  0
  3  4  2  0  0  0  0
  4  5  1  0  0  0  0
  4 23  1  0  0  0  0
  5  6  1  0  0  0  0
  5 15  1  0  0  0  0
  6 18  1  0  0  0  0
  6 13  1  0  0  0  0
  6  7  1  0  0  0  0
  7  8  1  0  0  0  0
  8 19  1  0  0  0  0
  8  9  1  0  0  0  0
  8 11  1  0  0  0  0
  9 10  1  0  0  0  0
  9 24  1  0  0  0  0
  9 25  1  0  0  0  0
 10 26  1  0  0  0  0
 11 20  1  0  0  0  0
 11 12  1  0  0  0  0
 11 13  1  0  0  0  0
 12 27  1  0  0  0  0
 13 21  1  0  0  0  0
 13 14  1  0  0  0  0
 14 28  1  0  0  0  0
 15 16  2  0  0  0  0
 15 17  1  0  0  0  0
M  CHG  1  17  -1
M  END
> <s_m_source_file>
AV-unprocessed.smi

> <i_m_source_file_index>
72

> <i_lp_mmshare_version>
43012

> <i_f3d_flags>
0

> <s_epik_input>
W05IMl1jMW5bY0hdbihjKD1PKW4xKVtDQEBIXTJPW0NASF0oW0NIMl1bT0hdKVtDQEBIXShbT0hdKVtDQEhdMltPSF0=

> <s_epik_cmdline>
J2VwaWtfcHl0aG9uJywgJy1waCcsICc3LjAnLCAnLXRuJywgJzgnLCAnLW1hJywgJzIwMCcsICctbWV0YWxfYmluZGluZycsICctaW1hZScsICc8aW5maWxlLm1hZT4nLCAnLW9tYWUnLCAnPG91dGZpbGUubWFlPic=

> <r_lp_tautomer_probability>
7.17554e-07

> <r_epik_Ionization_Penalty>
12.8705

> <r_epik_Ionization_Penalty_Charging>
5.64144

> <r_epik_Ionization_Penalty_Neutral>
7.22905

> <r_epik_State_Penalty>
3.30104

> <r_epik_Charging_Adjusted_Penalty>
8.94249

> <i_epik_Tot_Q>
-1

> <i_epik_Tot_abs_Q>
1

> <r_epik_Metal_State_Penalty>
0.529074

> <b_epik_Metal_Only>
1

> <s_epik_Chemistry_Notes>
This compound contains an acetal/aminal-like group ( X-CH(R)-Y where X, Y are N, S, or O) that may be acid/base labile, releasing an aldehyde.

> <s_lp_Force_Field>
OPLS_2005

> <r_lp_Energy>
35.695

> <b_lp_Chiralities_Consistent>
1

> <s_lp_Variant>
AV-unprocessed.smi:72-62

> <Gold.Version>
5.8.1

> <Gold.Id.Protein>
6NUR|6NUR_protein|mol2

> <Gold.PLP.Fitness>
40.4270

> <Gold.PLP.PLP>
-24.5002

> <Gold.PLP.part.hbond>
-8.0134

> <Gold.PLP.part.metal>
0.0000

> <Gold.PLP.part.buried>
-1.2353

> <Gold.PLP.part.nonpolar>
-15.9081

> <Gold.PLP.part.repulsive>
0.5807

> <Gold.PLP.ligand.clash>
0.0000

> <Gold.PLP.ligand.torsion>
0.1507

> <Gold.PLP.Chemscore.Hbond>
5.4022

> <Gold.PLP.Chemscore.CHOScore>
0.0000

> <Gold.PLP.Chemscore.Metal>
0.0000

> <Gold.Chemscore.Hbonds>
donor molecule, donor type, donor heavy atom, donor atom, acceptor molecule, acceptor atom, score
      L1  H    10    26       P1  7957  1.00
      L1  H    12    27       P1  8028  1.00
      L1  H    14    28       P1  8028  1.00
      P1  H  6896  6908       L1     1  0.34
      P1  H  8011  8017       L1    12  0.09
      P1  H 10752 10765       L1    17  1.95

> <Gold.PLP.Chemscore.Internal.Correction>
0.0217

> <Gold.Rescore>
     Score         DG    S(hbond)    S(metal)    S(lipo)     H(rot)  DE(clash)    DE(int)     intcor
      9.26     -11.04       3.94        0.00      23.40       4.04       0.16       1.63       ----

> <Gold.Chemscore.Fitness>
9.2565

> <Gold.Chemscore.DG>
-11.0425

> <Gold.Chemscore.ZeroCoef>
-5.4800

> <Gold.Chemscore.Hbond>
3.9424

> <Gold.Chemscore.Metal>
0.0000

> <Gold.Chemscore.Lipo>
23.4007

> <Gold.Chemscore.Internal_Hbond>
0.0000

> <Gold.Chemscore.DEClash>
0.1567

> <Gold.Chemscore.DEInternal>
1.6294

> <Gold.Chemscore.Rot>
4.0403

> <Gold.Chemscore.Internal.Correction>
   9.000000E+99

> <Gold.Chemscore.Hbonds>
donor molecule, donor type, donor heavy atom, donor atom, acceptor molecule, acceptor atom, score
      L1  H    10    26       P1  7957  0.85
      L1  H    12    27       P1  8028  1.00
      L1  H    14    28       P1  8028  0.99
      P1  H  6896  6908       L1     1  0.18
      P1  H  8011  8017       L1    12  0.05
      P1  H 10752 10765       L1    17  0.61

> <Gold.Chemscore.Hbond.Weighted>
-13.1677

> <Gold.Chemscore.Metal.Weighted>
-0.0000

> <Gold.Chemscore.Lipo.Weighted>
-2.7379

> <Gold.Chemscore.Internal_Hbond.Weighted>
0.0000

> <Gold.Chemscore.DEClash.Weighted>
0.1567

> <Gold.Chemscore.DEInternal.Weighted>
1.6294

> <Gold.Chemscore.Rot.Weighted>
10.3431

> <Gold.Chemscore.Internal.Correction.Weighted>
   9.000000E+99

> <Gold.Protein.RotatedTorsions>
[ 6907 6896 6895 6894 ] final  -92.94 input  -60.11 | X-H torsion
[ 7974 7965 7964 7962 ] final  132.72 input  175.53 | X-H torsion
[ 8008 7997 7996 7995 ] final  117.06 input   59.86 | X-H torsion
[ 10167 10162 10161 10158 ] final -152.87 input  -65.29 | X-H torsion
[ 10718 10713 10712 10709 ] final  -91.16 input   66.30 | X-H torsion
[ 10763 10752 10751 10750 ] final -150.07 input  -60.55 | X-H torsion
[ 11005 11000 10999 10996 ] final   77.52 input  -57.11 | X-H torsion

> <Gold.Protein.ActiveResidues>
 VAL166  LYS551  ARG553  GLY616  TRP617  ASP618  TYR619  PRO620  LYS621  CYS622 
 ASP623  PHE694  ASN695  SER759  ASP760  ASP761  ALA762  ILE779  LEU786  VAL792 
 PHE793  MET794  SER795  GLU796  ALA797  LYS798  CYS799  TRP800  GLU811  SER814 

> <Gold.Protein.RotatedAtoms>
  150.6914  134.2045  159.4334 H   0  0  0  0  0  0  0  0  0  0  0  0  # atno 6907 bound_to 6896
  152.0009  134.9926  160.0574 H   0  0  0  0  0  0  0  0  0  0  0  0  # atno 6908 bound_to 6896
  152.1579  133.4528  159.4883 H   0  0  0  0  0  0  0  0  0  0  0  0  # atno 6909 bound_to 6896
  144.9939  139.4379  143.5325 H   0  0  0  0  0  0  0  0  0  0  0  0  # atno 7974 bound_to 7965
  156.2473  140.2904  156.0620 H   0  0  0  0  0  0  0  0  0  0  0  0  # atno 8008 bound_to 7997
  155.1766  140.0403  157.2891 H   0  0  0  0  0  0  0  0  0  0  0  0  # atno 8009 bound_to 7997
  154.6289  140.2494  155.7465 H   0  0  0  0  0  0  0  0  0  0  0  0  # atno 8010 bound_to 7997
  139.7145  143.9056  152.2480 H   0  0  0  0  0  0  0  0  0  0  0  0  # atno 10167 bound_to 10162
  155.9992  130.4937  150.5432 H   0  0  0  0  0  0  0  0  0  0  0  0  # atno 10718 bound_to 10713
  154.8140  135.3293  154.7226 H   0  0  0  0  0  0  0  0  0  0  0  0  # atno 10763 bound_to 10752
  153.7870  135.6914  153.4882 H   0  0  0  0  0  0  0  0  0  0  0  0  # atno 10764 bound_to 10752
  153.1942  135.4540  155.0134 H   0  0  0  0  0  0  0  0  0  0  0  0  # atno 10765 bound_to 10752
  139.9251  134.7689  156.1532 H   0  0  0  0  0  0  0  0  0  0  0  0  # atno 11005 bound_to 11000
  146.3437  139.9287  142.8756 LP  0  0  0  0  0  0  0  0  0  0  0  0  # atno 17320 bound_to 7965
  145.2247  140.9949  143.4025 LP  0  0  0  0  0  0  0  0  0  0  0  0  # atno 17321 bound_to 7965
  139.8934  144.6952  150.8745 LP  0  0  0  0  0  0  0  0  0  0  0  0  # atno 17342 bound_to 10162
  140.7740  143.3568  151.1905 LP  0  0  0  0  0  0  0  0  0  0  0  0  # atno 17343 bound_to 10162
  157.3366  131.0709  151.1820 LP  0  0  0  0  0  0  0  0  0  0  0  0  # atno 17370 bound_to 10713
  157.2683  130.6692  149.6007 LP  0  0  0  0  0  0  0  0  0  0  0  0  # atno 17371 bound_to 10713
  141.0802  133.6757  156.2321 LP  0  0  0  0  0  0  0  0  0  0  0  0  # atno 17394 bound_to 11000
  140.6360  134.5215  157.5564 LP  0  0  0  0  0  0  0  0  0  0  0  0  # atno 17395 bound_to 11000

$$$$
