AV-unprocessed.smi:1191|AV-procd|sdf|4985|dock5
  -GOLD-   22720 3583D 1   1.00000     0.00000
 Structure written by MMmdl.
 47 48  0  0  0  0  0  0  0  0  2 V2000
  152.7886  138.5335  154.2439 C   0  0  0  0  0  0  0  0  0  0  0  0
  152.0006  139.5105  155.0662 C   0  0  0  0  0  0  0  0  0  0  0  0
  152.2344  139.9256  156.4070 C   0  0  0  0  0  0  0  0  0  0  0  0
  151.2303  140.8158  156.6657 C   0  0  0  0  0  0  0  0  0  0  0  0
  150.9298  141.5975  157.9024 C   0  0  0  0  0  0  0  0  0  0  0  0
  150.4624  140.8985  155.5174 N   0  0  0  0  0  0  0  0  0  0  0  0
  149.2786  141.7052  155.2602 C   0  0  0  0  0  0  0  0  0  0  0  0
  148.3688  141.0510  154.2184 C   0  0  0  0  0  0  0  0  0  0  0  0
  147.9345  141.7136  153.2765 O   0  0  0  0  0  0  0  0  0  0  0  0
  148.0845  139.7516  154.3981 N   0  0  0  0  0  0  0  0  0  0  0  0
  147.2432  138.9489  153.5198 C   0  0  0  0  0  0  0  0  0  0  0  0
  147.0346  137.5281  154.0792 C   0  0  0  0  0  0  0  0  0  0  0  0
  146.6461  136.5587  153.0246 N   0  3  2  0  0  0  0  0  0  0  0  0
  145.7060  137.1478  152.0365 C   0  0  0  0  0  0  0  0  0  0  0  0
  145.4505  136.1802  150.8698 C   0  0  0  0  0  0  0  0  0  0  0  0
  144.9395  134.8244  151.3780 C   0  0  0  0  0  0  0  0  0  0  0  0
  145.8766  134.2402  152.4515 C   0  0  1  0  0  0  0  0  0  0  0  0
  147.1880  133.6899  151.8638 C   0  0  0  0  0  0  0  0  0  0  0  0
  146.1286  135.2735  153.5692 C   0  0  0  0  0  0  0  0  0  0  0  0
  150.9404  140.0995  154.5381 N   0  0  0  0  0  0  0  0  0  0  0  0
  153.5626  138.0504  154.8407 H   0  0  0  0  0  0  0  0  0  0  0  0
  153.2776  139.0304  153.4059 H   0  0  0  0  0  0  0  0  0  0  0  0
  152.1464  137.7505  153.8397 H   0  0  0  0  0  0  0  0  0  0  0  0
  153.0207  139.6147  157.0789 H   0  0  0  0  0  0  0  0  0  0  0  0
  151.6675  141.3958  158.6792 H   0  0  0  0  0  0  0  0  0  0  0  0
  149.9480  141.3372  158.2980 H   0  0  0  0  0  0  0  0  0  0  0  0
  150.9417  142.6686  157.6996 H   0  0  0  0  0  0  0  0  0  0  0  0
  148.7264  141.8496  156.1902 H   0  0  0  0  0  0  0  0  0  0  0  0
  149.5899  142.6938  154.9207 H   0  0  0  0  0  0  0  0  0  0  0  0
  148.4864  139.2876  155.2007 H   0  0  0  0  0  0  0  0  0  0  0  0
  146.2815  139.4530  153.4205 H   0  0  0  0  0  0  0  0  0  0  0  0
  147.6876  138.9300  152.5247 H   0  0  0  0  0  0  0  0  0  0  0  0
  147.9275  137.1689  154.5930 H   0  0  0  0  0  0  0  0  0  0  0  0
  146.2465  137.5775  154.8323 H   0  0  0  0  0  0  0  0  0  0  0  0
  144.7668  137.4005  152.5316 H   0  0  0  0  0  0  0  0  0  0  0  0
  146.1170  138.0780  151.6418 H   0  0  0  0  0  0  0  0  0  0  0  0
  144.7253  136.6137  150.1805 H   0  0  0  0  0  0  0  0  0  0  0  0
  146.3688  136.0419  150.2985 H   0  0  0  0  0  0  0  0  0  0  0  0
  143.9442  134.9571  151.8046 H   0  0  0  0  0  0  0  0  0  0  0  0
  144.8245  134.1267  150.5478 H   0  0  0  0  0  0  0  0  0  0  0  0
  145.3621  133.3901  152.9015 H   0  0  0  0  0  0  0  0  0  0  0  0
  147.7950  134.4755  151.4137 H   0  0  0  0  0  0  0  0  0  0  0  0
  146.9902  132.9424  151.0951 H   0  0  0  0  0  0  0  0  0  0  0  0
  147.7909  133.2116  152.6361 H   0  0  0  0  0  0  0  0  0  0  0  0
  146.8234  134.8527  154.2947 H   0  0  0  0  0  0  0  0  0  0  0  0
  145.2001  135.4655  154.1096 H   0  0  0  0  0  0  0  0  0  0  0  0
  147.4898  136.3430  152.5129 H   0  0  0  0  0  0  0  0  0  0  0  0
  1  2  1  0  0  0  0
  1 21  1  0  0  0  0
  1 22  1  0  0  0  0
  1 23  1  0  0  0  0
  2 20  2  0  0  0  0
  2  3  1  0  0  0  0
  3  4  2  0  0  0  0
  3 24  1  0  0  0  0
  4  5  1  0  0  0  0
  4  6  1  0  0  0  0
  5 25  1  0  0  0  0
  5 26  1  0  0  0  0
  5 27  1  0  0  0  0
  6  7  1  0  0  0  0
  6 20  1  0  0  0  0
  7  8  1  0  0  0  0
  7 28  1  0  0  0  0
  7 29  1  0  0  0  0
  8  9  2  0  0  0  0
  8 10  1  0  0  0  0
 10 11  1  0  0  0  0
 10 30  1  0  0  0  0
 11 12  1  0  0  0  0
 11 31  1  0  0  0  0
 11 32  1  0  0  0  0
 12 13  1  0  0  0  0
 12 33  1  0  0  0  0
 12 34  1  0  0  0  0
 13 19  1  0  0  0  0
 13 14  1  0  0  0  0
 13 47  1  0  0  0  0
 14 15  1  0  0  0  0
 14 35  1  0  0  0  0
 14 36  1  0  0  0  0
 15 16  1  0  0  0  0
 15 37  1  0  0  0  0
 15 38  1  0  0  0  0
 16 17  1  0  0  0  0
 16 39  1  0  0  0  0
 16 40  1  0  0  0  0
 17 18  1  0  0  0  0
 17 19  1  0  0  0  0
 17 41  1  0  0  0  0
 18 42  1  0  0  0  0
 18 43  1  0  0  0  0
 18 44  1  0  0  0  0
 19 45  1  0  0  0  0
 19 46  1  0  0  0  0
M  CHG  1  13   1
M  END
> <s_m_source_file>
AV-unprocessed.smi

> <i_m_source_file_index>
1191

> <i_lp_mmshare_version>
43012

> <i_f3d_flags>
0

> <s_epik_input>
W0NIM11jMVtjSF1jKFtDSDNdKW4objEpW0NIMl1DKD1PKVtOSF1bQ0gyXVtDSDJdTjJbQ0gyXVtDSDJdW0NIMl1bQ0BASF0oW0NIM10pW0NIMl0y

> <s_epik_cmdline>
J2VwaWtfcHl0aG9uJywgJy1waCcsICc3LjAnLCAnLXRuJywgJzgnLCAnLW1hJywgJzIwMCcsICctbWV0YWxfYmluZGluZycsICctaW1hZScsICc8aW5maWxlLm1hZT4nLCAnLW9tYWUnLCAnPG91dGZpbGUubWFlPic=

> <r_lp_tautomer_probability>
1

> <r_epik_Ionization_Penalty>
0.00249932

> <r_epik_Ionization_Penalty_Charging>
0.00230623

> <r_epik_Ionization_Penalty_Neutral>
0.000193092

> <r_epik_State_Penalty>
-0

> <r_epik_Charging_Adjusted_Penalty>
0.00230623

> <i_epik_Tot_Q>
1

> <i_epik_Tot_abs_Q>
1

> <r_epik_Metal_State_Penalty>
-0

> <b_epik_Metal_Only>
0

> <s_lp_Force_Field>
OPLS_2005

> <r_lp_Energy>
16.5378

> <b_lp_Chiralities_Consistent>
1

> <s_lp_Variant>
AV-unprocessed.smi:1191-2

> <Gold.Version>
5.8.1

> <Gold.Id.Protein>
6NUR|6NUR_protein|mol2

> <Gold.PLP.Fitness>
42.7330

> <Gold.PLP.PLP>
-33.4785

> <Gold.PLP.part.hbond>
-3.0000

> <Gold.PLP.part.metal>
0.0000

> <Gold.PLP.part.buried>
2.7474

> <Gold.PLP.part.nonpolar>
-32.8559

> <Gold.PLP.part.repulsive>
1.2548

> <Gold.PLP.ligand.clash>
0.0000

> <Gold.PLP.ligand.torsion>
0.7628

> <Gold.PLP.Chemscore.Hbond>
3.5780

> <Gold.PLP.Chemscore.CHOScore>
0.0000

> <Gold.PLP.Chemscore.Metal>
0.0000

> <Gold.Chemscore.Hbonds>
donor molecule, donor type, donor heavy atom, donor atom, acceptor molecule, acceptor atom, score
      L1  H    13    47       P1  7948  2.00
      P1  H  7989  7998       L1    20  0.76
      P1  H  8011  8017       L1     9  0.33

> <Gold.PLP.Chemscore.Internal.Correction>
0.0462

> <Gold.Rescore>
     Score         DG    S(hbond)    S(metal)    S(lipo)     H(rot)  DE(clash)    DE(int)     intcor
     13.88     -16.10       1.82        0.00      75.24       1.67       0.30       1.92       ----

> <Gold.Chemscore.Fitness>
13.8847

> <Gold.Chemscore.DG>
-16.1030

> <Gold.Chemscore.ZeroCoef>
-5.4800

> <Gold.Chemscore.Hbond>
1.8216

> <Gold.Chemscore.Metal>
0.0000

> <Gold.Chemscore.Lipo>
75.2402

> <Gold.Chemscore.Internal_Hbond>
0.0000

> <Gold.Chemscore.DEClash>
0.2982

> <Gold.Chemscore.DEInternal>
1.9201

> <Gold.Chemscore.Rot>
1.6657

> <Gold.Chemscore.Internal.Correction>
   9.000000E+99

> <Gold.Chemscore.Hbonds>
donor molecule, donor type, donor heavy atom, donor atom, acceptor molecule, acceptor atom, score
      L1  H    13    47       P1  7948  0.99
      P1  H  7989  7998       L1    20  0.12
      P1  H  8011  8017       L1     9  0.13

> <Gold.Chemscore.Hbond.Weighted>
-6.0840

> <Gold.Chemscore.Metal.Weighted>
-0.0000

> <Gold.Chemscore.Lipo.Weighted>
-8.8031

> <Gold.Chemscore.Internal_Hbond.Weighted>
0.0000

> <Gold.Chemscore.DEClash.Weighted>
0.2982

> <Gold.Chemscore.DEInternal.Weighted>
1.9201

> <Gold.Chemscore.Rot.Weighted>
4.2641

> <Gold.Chemscore.Internal.Correction.Weighted>
   9.000000E+99

> <Gold.Protein.RotatedTorsions>
[ 6907 6896 6895 6894 ] final -177.72 input  -60.11 | X-H torsion
[ 7974 7965 7964 7962 ] final -176.07 input  175.53 | X-H torsion
[ 8008 7997 7996 7995 ] final -141.32 input   59.86 | X-H torsion
[ 10167 10162 10161 10158 ] final   81.05 input  -65.29 | X-H torsion
[ 10718 10713 10712 10709 ] final   96.22 input   66.30 | X-H torsion
[ 10763 10752 10751 10750 ] final -177.05 input  -60.55 | X-H torsion
[ 11005 11000 10999 10996 ] final  -59.14 input  -57.11 | X-H torsion

> <Gold.Protein.ActiveResidues>
 VAL166  LYS551  ARG553  GLY616  TRP617  ASP618  TYR619  PRO620  LYS621  CYS622 
 ASP623  PHE694  ASN695  SER759  ASP760  ASP761  ALA762  ILE779  LEU786  VAL792 
 PHE793  MET794  SER795  GLU796  ALA797  LYS798  CYS799  TRP800  GLU811  SER814 

> <Gold.Protein.RotatedAtoms>
  151.6256  133.3336  159.3097 H   0  0  0  0  0  0  0  0  0  0  0  0  # atno 6907 bound_to 6896
  150.8083  134.7226  159.6676 H   0  0  0  0  0  0  0  0  0  0  0  0  # atno 6908 bound_to 6896
  152.4179  134.6013  160.0052 H   0  0  0  0  0  0  0  0  0  0  0  0  # atno 6909 bound_to 6896
  144.7127  140.1226  143.6404 H   0  0  0  0  0  0  0  0  0  0  0  0  # atno 7974 bound_to 7965
  155.4758  140.0556  157.2973 H   0  0  0  0  0  0  0  0  0  0  0  0  # atno 8008 bound_to 7997
  154.4680  140.2027  156.0022 H   0  0  0  0  0  0  0  0  0  0  0  0  # atno 8009 bound_to 7997
  156.1007  140.3219  155.7943 H   0  0  0  0  0  0  0  0  0  0  0  0  # atno 8010 bound_to 7997
  139.9433  144.6075  150.8231 H   0  0  0  0  0  0  0  0  0  0  0  0  # atno 10167 bound_to 10162
  157.6929  131.0571  150.4458 H   0  0  0  0  0  0  0  0  0  0  0  0  # atno 10718 bound_to 10713
  154.5649  135.2823  155.0883 H   0  0  0  0  0  0  0  0  0  0  0  0  # atno 10763 bound_to 10752
  154.2278  135.6379  153.5169 H   0  0  0  0  0  0  0  0  0  0  0  0  # atno 10764 bound_to 10752
  153.0040  135.5530  154.6255 H   0  0  0  0  0  0  0  0  0  0  0  0  # atno 10765 bound_to 10752
  141.1236  133.6615  156.5026 H   0  0  0  0  0  0  0  0  0  0  0  0  # atno 11005 bound_to 11000
  145.9358  139.2636  143.1298 LP  0  0  0  0  0  0  0  0  0  0  0  0  # atno 17320 bound_to 7965
  145.9475  140.8933  143.0276 LP  0  0  0  0  0  0  0  0  0  0  0  0  # atno 17321 bound_to 7965
  140.7604  143.3151  151.2751 LP  0  0  0  0  0  0  0  0  0  0  0  0  # atno 17342 bound_to 10162
  139.6687  144.0059  152.2739 LP  0  0  0  0  0  0  0  0  0  0  0  0  # atno 17343 bound_to 10162
  156.4813  130.4074  149.6460 LP  0  0  0  0  0  0  0  0  0  0  0  0  # atno 17370 bound_to 10713
  156.3504  130.7429  151.2387 LP  0  0  0  0  0  0  0  0  0  0  0  0  # atno 17371 bound_to 10713
  140.4433  134.6995  157.5003 LP  0  0  0  0  0  0  0  0  0  0  0  0  # atno 17394 bound_to 11000
  140.0214  134.6541  155.9234 LP  0  0  0  0  0  0  0  0  0  0  0  0  # atno 17395 bound_to 11000

$$$$
