AV-unprocessed.smi:1565|AV-procd|sdf|6298|dock4
  -GOLD-   22720 6493D 1   1.00000     0.00000
 Structure written by MMmdl.
 40 41  0  0  0  0  0  0  0  0  1 V2000
  153.3929  142.2659  162.3358 C   0  0  0  0  0  0  0  0  0  0  0  0
  153.1105  142.6265  160.8736 C   0  0  1  0  0  0  0  0  0  0  0  0
  152.5899  141.4192  160.0709 C   0  0  0  0  0  0  0  0  0  0  0  0
  152.2178  141.8273  158.7189 N   0  0  0  0  0  0  0  0  0  0  0  0
  151.9908  140.7747  157.8063 C   0  0  0  0  0  0  0  0  0  0  0  0
  151.7574  141.0565  156.4396 C   0  0  0  0  0  0  0  0  0  0  0  0
  151.5359  139.9916  155.5456 C   0  0  0  0  0  0  0  0  0  0  0  0
  151.5418  138.6680  156.0376 C   0  0  0  0  0  0  0  0  0  0  0  0
  151.3382  137.4873  155.1332 C   0  0  0  0  0  0  0  0  0  0  0  0
  151.9202  137.4138  154.0510 O   0  0  0  0  0  0  0  0  0  0  0  0
  150.5375  136.5219  155.6120 N   0  0  0  0  0  0  0  0  0  0  0  0
  150.2029  135.2844  154.9152 C   0  0  0  0  0  0  0  0  0  0  0  0
  150.2312  134.0678  155.8560 C   0  0  0  0  0  0  0  0  0  0  0  0
  150.0926  132.9556  155.1358 F   0  0  0  0  0  0  0  0  0  0  0  0
  151.3943  134.0134  156.5053 F   0  0  0  0  0  0  0  0  0  0  0  0
  149.2367  134.1271  156.7414 F   0  0  0  0  0  0  0  0  0  0  0  0
  151.7905  138.4846  157.4145 C   0  0  0  0  0  0  0  0  0  0  0  0
  152.0010  139.5026  158.2754 N   0  0  0  0  0  0  0  0  0  0  0  0
  151.3012  142.9651  158.6927 C   0  0  0  0  0  0  0  0  0  0  0  0
  151.8630  144.1281  159.5314 C   0  0  1  0  0  0  0  0  0  0  0  0
  150.8780  145.2980  159.6252 C   0  0  0  0  0  0  0  0  0  0  0  0
  152.1331  143.6633  160.8507 O   0  0  0  0  0  0  0  0  0  0  0  0
  154.1461  141.4809  162.4086 H   0  0  0  0  0  0  0  0  0  0  0  0
  152.4909  141.9127  162.8365 H   0  0  0  0  0  0  0  0  0  0  0  0
  153.7612  143.1321  162.8859 H   0  0  0  0  0  0  0  0  0  0  0  0
  154.0340  142.9954  160.4236 H   0  0  0  0  0  0  0  0  0  0  0  0
  153.3545  140.6437  160.0604 H   0  0  0  0  0  0  0  0  0  0  0  0
  151.7130  140.9925  160.5599 H   0  0  0  0  0  0  0  0  0  0  0  0
  151.7350  142.0709  156.0705 H   0  0  0  0  0  0  0  0  0  0  0  0
  151.3653  140.2008  154.4996 H   0  0  0  0  0  0  0  0  0  0  0  0
  150.1184  136.6594  156.5201 H   0  0  0  0  0  0  0  0  0  0  0  0
  149.2286  135.3682  154.4302 H   0  0  0  0  0  0  0  0  0  0  0  0
  150.9313  135.1460  154.1155 H   0  0  0  0  0  0  0  0  0  0  0  0
  151.8175  137.4948  157.8470 H   0  0  0  0  0  0  0  0  0  0  0  0
  151.1488  143.3002  157.6660 H   0  0  0  0  0  0  0  0  0  0  0  0
  150.3309  142.6540  159.0825 H   0  0  0  0  0  0  0  0  0  0  0  0
  152.7896  144.4903  159.0826 H   0  0  0  0  0  0  0  0  0  0  0  0
  150.6473  145.6969  158.6372 H   0  0  0  0  0  0  0  0  0  0  0  0
  151.2935  146.1099  160.2226 H   0  0  0  0  0  0  0  0  0  0  0  0
  149.9409  144.9887  160.0889 H   0  0  0  0  0  0  0  0  0  0  0  0
  1  2  1  0  0  0  0
  1 23  1  0  0  0  0
  1 24  1  0  0  0  0
  1 25  1  0  0  0  0
  2 22  1  0  0  0  0
  2  3  1  0  0  0  0
  2 26  1  0  0  0  0
  3  4  1  0  0  0  0
  3 27  1  0  0  0  0
  3 28  1  0  0  0  0
  4  5  1  0  0  0  0
  4 19  1  0  0  0  0
  5 18  1  0  0  0  0
  5  6  2  0  0  0  0
  6  7  1  0  0  0  0
  6 29  1  0  0  0  0
  7  8  2  0  0  0  0
  7 30  1  0  0  0  0
  8  9  1  0  0  0  0
  8 17  1  0  0  0  0
  9 10  2  0  0  0  0
  9 11  1  0  0  0  0
 11 12  1  0  0  0  0
 11 31  1  0  0  0  0
 12 13  1  0  0  0  0
 12 32  1  0  0  0  0
 12 33  1  0  0  0  0
 13 14  1  0  0  0  0
 13 15  1  0  0  0  0
 13 16  1  0  0  0  0
 17 18  2  0  0  0  0
 17 34  1  0  0  0  0
 19 20  1  0  0  0  0
 19 35  1  0  0  0  0
 19 36  1  0  0  0  0
 20 21  1  0  0  0  0
 20 22  1  0  0  0  0
 20 37  1  0  0  0  0
 21 38  1  0  0  0  0
 21 39  1  0  0  0  0
 21 40  1  0  0  0  0
M  END
> <s_m_source_file>
AV-unprocessed.smi

> <i_m_source_file_index>
1565

> <i_lp_mmshare_version>
43012

> <i_f3d_flags>
0

> <s_epik_input>
W0NIM11bQ0BASF0xW0NIMl1OKFtDSDJdW0NASF0oTzEpW0NIM10pYzJbY0hdW2NIXWMoW2NIXW4yKUMoPU8pW05IXVtDSDJdQyhGKShGKUY=

> <s_epik_cmdline>
J2VwaWtfcHl0aG9uJywgJy1waCcsICc3LjAnLCAnLXRuJywgJzgnLCAnLW1hJywgJzIwMCcsICctbWV0YWxfYmluZGluZycsICctaW1hZScsICc8aW5maWxlLm1hZT4nLCAnLW9tYWUnLCAnPG91dGZpbGUubWFlPic=

> <r_lp_tautomer_probability>
1

> <r_epik_Ionization_Penalty>
1.48031e-05

> <r_epik_Ionization_Penalty_Charging>
0

> <r_epik_Ionization_Penalty_Neutral>
1.48031e-05

> <r_epik_State_Penalty>
-0

> <r_epik_Charging_Adjusted_Penalty>
0

> <i_epik_Tot_Q>
0

> <i_epik_Tot_abs_Q>
0

> <r_epik_Metal_State_Penalty>
0.00620302

> <b_epik_Metal_Only>
0

> <s_lp_Force_Field>
OPLS_2005

> <r_lp_Energy>
16.2805

> <b_lp_Chiralities_Consistent>
1

> <s_lp_Variant>
AV-unprocessed.smi:1565-2

> <Gold.Version>
5.8.1

> <Gold.Id.Protein>
6NUR|6NUR_protein|mol2

> <Gold.PLP.Fitness>
41.5598

> <Gold.PLP.PLP>
-40.4017

> <Gold.PLP.part.hbond>
-1.0000

> <Gold.PLP.part.metal>
0.0000

> <Gold.PLP.part.buried>
-6.9860

> <Gold.PLP.part.nonpolar>
-33.7626

> <Gold.PLP.part.repulsive>
1.0173

> <Gold.PLP.ligand.clash>
0.0000

> <Gold.PLP.ligand.torsion>
1.0731

> <Gold.PLP.Chemscore.Hbond>
0.9920

> <Gold.PLP.Chemscore.CHOScore>
0.0000

> <Gold.PLP.Chemscore.Metal>
0.0000

> <Gold.Chemscore.Hbonds>
donor molecule, donor type, donor heavy atom, donor atom, acceptor molecule, acceptor atom, score
      P1  H 10752 10765       L1    10  0.99

> <Gold.PLP.Chemscore.Internal.Correction>
0.3284

> <Gold.Rescore>
     Score         DG    S(hbond)    S(metal)    S(lipo)     H(rot)  DE(clash)    DE(int)     intcor
     15.06     -16.46       0.98        0.00      94.38       1.31       0.24       1.16       ----

> <Gold.Chemscore.Fitness>
15.0637

> <Gold.Chemscore.DG>
-16.4597

> <Gold.Chemscore.ZeroCoef>
-5.4800

> <Gold.Chemscore.Hbond>
0.9816

> <Gold.Chemscore.Metal>
0.0000

> <Gold.Chemscore.Lipo>
94.3815

> <Gold.Chemscore.Internal_Hbond>
0.0000

> <Gold.Chemscore.DEClash>
0.2362

> <Gold.Chemscore.DEInternal>
1.1598

> <Gold.Chemscore.Rot>
1.3052

> <Gold.Chemscore.Internal.Correction>
   9.000000E+99

> <Gold.Chemscore.Hbonds>
donor molecule, donor type, donor heavy atom, donor atom, acceptor molecule, acceptor atom, score
      P1  H 10752 10765       L1    10  0.58

> <Gold.Chemscore.Hbond.Weighted>
-3.2785

> <Gold.Chemscore.Metal.Weighted>
-0.0000

> <Gold.Chemscore.Lipo.Weighted>
-11.0426

> <Gold.Chemscore.Internal_Hbond.Weighted>
0.0000

> <Gold.Chemscore.DEClash.Weighted>
0.2362

> <Gold.Chemscore.DEInternal.Weighted>
1.1598

> <Gold.Chemscore.Rot.Weighted>
3.3414

> <Gold.Chemscore.Internal.Correction.Weighted>
   9.000000E+99

> <Gold.Protein.RotatedTorsions>
[ 6907 6896 6895 6894 ] final -108.72 input  -60.11 | X-H torsion
[ 7974 7965 7964 7962 ] final   74.65 input  175.53 | X-H torsion
[ 8008 7997 7996 7995 ] final   36.43 input   59.86 | X-H torsion
[ 10167 10162 10161 10158 ] final  101.15 input  -65.29 | X-H torsion
[ 10718 10713 10712 10709 ] final  170.40 input   66.30 | X-H torsion
[ 10763 10752 10751 10750 ] final  147.89 input  -60.55 | X-H torsion
[ 11005 11000 10999 10996 ] final  125.77 input  -57.11 | X-H torsion

> <Gold.Protein.ActiveResidues>
 VAL166  LYS551  ARG553  GLY616  TRP617  ASP618  TYR619  PRO620  LYS621  CYS622 
 ASP623  PHE694  ASN695  SER759  ASP760  ASP761  ALA762  ILE779  LEU786  VAL792 
 PHE793  MET794  SER795  GLU796  ALA797  LYS798  CYS799  TRP800  GLU811  SER814 

> <Gold.Protein.RotatedAtoms>
  150.7519  133.9635  159.3522 H   0  0  0  0  0  0  0  0  0  0  0  0  # atno 6907 bound_to 6896
  151.7563  135.0819  160.0348 H   0  0  0  0  0  0  0  0  0  0  0  0  # atno 6908 bound_to 6896
  152.3433  133.6055  159.5928 H   0  0  0  0  0  0  0  0  0  0  0  0  # atno 6909 bound_to 6896
  145.7255  139.2664  143.1571 H   0  0  0  0  0  0  0  0  0  0  0  0  # atno 7974 bound_to 7965
  155.1873  140.3305  155.4364 H   0  0  0  0  0  0  0  0  0  0  0  0  # atno 8008 bound_to 7997
  156.2455  140.1916  156.6918 H   0  0  0  0  0  0  0  0  0  0  0  0  # atno 8009 bound_to 7997
  154.6230  140.0593  156.9624 H   0  0  0  0  0  0  0  0  0  0  0  0  # atno 8010 bound_to 7997
  139.7463  144.6997  151.0499 H   0  0  0  0  0  0  0  0  0  0  0  0  # atno 10167 bound_to 10162
  157.0087  131.0197  151.2809 H   0  0  0  0  0  0  0  0  0  0  0  0  # atno 10718 bound_to 10713
  154.0458  135.2886  155.3348 H   0  0  0  0  0  0  0  0  0  0  0  0  # atno 10763 bound_to 10752
  154.6900  135.5230  153.8383 H   0  0  0  0  0  0  0  0  0  0  0  0  # atno 10764 bound_to 10752
  153.0581  135.6603  154.0658 H   0  0  0  0  0  0  0  0  0  0  0  0  # atno 10765 bound_to 10752
  139.9423  134.9634  156.8608 H   0  0  0  0  0  0  0  0  0  0  0  0  # atno 11005 bound_to 11000
  146.0586  140.7995  142.9746 LP  0  0  0  0  0  0  0  0  0  0  0  0  # atno 17320 bound_to 7965
  144.6906  140.3161  143.7240 LP  0  0  0  0  0  0  0  0  0  0  0  0  # atno 17321 bound_to 7965
  140.7792  143.4862  150.9952 LP  0  0  0  0  0  0  0  0  0  0  0  0  # atno 17342 bound_to 10162
  139.8551  143.7388  152.3176 LP  0  0  0  0  0  0  0  0  0  0  0  0  # atno 17343 bound_to 10162
  157.5337  130.8075  149.7946 LP  0  0  0  0  0  0  0  0  0  0  0  0  # atno 17370 bound_to 10713
  156.0144  130.3819  150.2158 LP  0  0  0  0  0  0  0  0  0  0  0  0  # atno 17371 bound_to 10713
  140.5921  134.0251  155.7504 LP  0  0  0  0  0  0  0  0  0  0  0  0  # atno 17394 bound_to 11000
  141.1061  133.9690  157.2993 LP  0  0  0  0  0  0  0  0  0  0  0  0  # atno 17395 bound_to 11000

$$$$
