#       Name:                AV-unprocessed.smi:1288
#       Creating user name   scv26
#       Creation time:       Fri Mar 27 04:53:18 2020


#       File generated by GOLD software.
#

@<TRIPOS>MOLECULE
AV-unprocessed.smi:1288
    47    49     1
SMALL
NO_CHARGES


@<TRIPOS>ATOM
      1 ****        -2.2350   1.5155  -2.8254 C.3            1 S1                 0.0000
      2 ****        -2.7639   1.7840  -1.4564 C.2            1 S1                 0.0000
      3 ****        -4.0755   1.9360  -1.1188 N.pl3          1 S1                 1.0000
      4 ****        -4.1858   2.1729   0.2521 C.ar           1 S1                 0.0000
      5 ****        -5.3041   2.3871   1.0521 C.ar           1 S1                 0.0000
      6 ****        -5.0686   2.5942   2.4270 C.ar           1 S1                 0.0000
      7 ****        -3.7625   2.5829   2.9578 C.ar           1 S1                 0.0000
      8 ****        -2.6364   2.3672   2.1364 C.ar           1 S1                 0.0000
      9 ****        -2.8769   2.1653   0.7771 C.ar           1 S1                 0.0000
     10 ****        -2.0324   1.9266  -0.3145 N.pl3          1 S1                 0.0000
     11 ****        -0.5753   1.8670  -0.1127 C.3            1 S1                 0.0000
     12 ****        -0.0484   0.4302   0.0747 C.3            1 S1                 0.0000
     13 ****        -0.6589  -0.1492   1.2107 O.3            1 S1                 0.0000
     14 ****         1.4741   0.4047   0.2798 C.3            1 S1                 0.0000
     15 ****         1.9593  -0.8935  -0.0192 O.3            1 S1                 0.0000
     16 ****         3.3634  -1.0063   0.1413 C.3            1 S1                 0.0000
     17 ****         3.8444  -2.4046  -0.1921 C.ar           1 S1                 0.0000
     18 ****         4.1905  -3.2996   0.8424 C.ar           1 S1                 0.0000
     19 ****         4.6342  -4.6006   0.5345 C.ar           1 S1                 0.0000
     20 ****         4.7335  -5.0115  -0.8086 C.ar           1 S1                 0.0000
     21 ****         4.3884  -4.1213  -1.8439 C.ar           1 S1                 0.0000
     22 ****         3.9438  -2.8200  -1.5378 C.ar           1 S1                 0.0000
     23 ****         3.6117  -1.9718  -2.5408 F              1 S1                 0.0000
     24 ****        -3.0534   1.3692  -3.5309 H              1 S1                 0.0000
     25 ****        -1.6167   0.6176  -2.8222 H              1 S1                 0.0000
     26 ****        -1.6292   2.3555  -3.1657 H              1 S1                 0.0000
     27 ****        -6.3059   2.3941   0.6482 H              1 S1                 0.0000
     28 ****        -5.9067   2.7628   3.0878 H              1 S1                 0.0000
     29 ****        -3.6205   2.7412   4.0172 H              1 S1                 0.0000
     30 ****        -1.6414   2.3538   2.5556 H              1 S1                 0.0000
     31 ****        -0.1122   2.3188  -0.9907 H              1 S1                 0.0000
     32 ****        -0.3010   2.5015   0.7302 H              1 S1                 0.0000
     33 ****        -0.3090  -0.1604  -0.8044 H              1 S1                 0.0000
     34 ****        -0.3375  -1.0337   1.3011 H              1 S1                 0.0000
     35 ****         1.9478   1.1121  -0.4028 H              1 S1                 0.0000
     36 ****         1.7407   0.7071   1.2942 H              1 S1                 0.0000
     37 ****         3.8740  -0.2929  -0.5078 H              1 S1                 0.0000
     38 ****         3.6417  -0.7589   1.1672 H              1 S1                 0.0000
     39 ****         4.1152  -2.9925   1.8754 H              1 S1                 0.0000
     40 ****         4.8972  -5.2835   1.3289 H              1 S1                 0.0000
     41 ****         5.0736  -6.0089  -1.0449 H              1 S1                 0.0000
     42 ****         4.4637  -4.4373  -2.8738 H              1 S1                 0.0000
     43 ****        -4.8393   1.8807  -1.7803 H              1 S1                 0.0000
     44 ****        -1.6518  -0.1606   1.0924 LP             1 S1                 0.0000
     45 ****        -0.4265   0.3802   2.0267 LP             1 S1                 0.0000
     46 ****         1.7278  -1.1105  -0.9675 LP             1 S1                 0.0000
     47 ****         1.5144  -1.5492   0.5909 LP             1 S1                 0.0000
@<TRIPOS>BOND
    1    1    2 1     
    2    1   24 1     
    3    1   25 1     
    4    1   26 1     
    5    2   10 1     
    6    2    3 2     
    7    3    4 1     
    8    3   43 1     
    9    4    9 ar    
   10    4    5 ar    
   11    5    6 ar    
   12    5   27 1     
   13    6    7 ar    
   14    6   28 1     
   15    7    8 ar    
   16    7   29 1     
   17    8    9 ar    
   18    8   30 1     
   19    9   10 1     
   20   10   11 1     
   21   11   12 1     
   22   11   31 1     
   23   11   32 1     
   24   12   13 1     
   25   12   14 1     
   26   12   33 1     
   27   13   34 1     
   28   14   15 1     
   29   14   35 1     
   30   14   36 1     
   31   15   16 1     
   32   16   17 1     
   33   16   37 1     
   34   16   38 1     
   35   17   22 ar    
   36   17   18 ar    
   37   18   19 ar    
   38   18   39 1     
   39   19   20 ar    
   40   19   40 1     
   41   20   21 ar    
   42   20   41 1     
   43   21   22 ar    
   44   21   42 1     
   45   22   23 1     
   46   13   44 1     
   47   13   45 1     
   48   15   46 1     
   49   15   47 1     
@<TRIPOS>SUBSTRUCTURE
      1 S1             1
@<TRIPOS>SET
LONE_PAIRS      STATIC     ATOMS    <user>   **** ""
4 44 45 46 47
DONOR_HYDROGENS      STATIC     ATOMS    <user>   **** ""
2 43 34
ATOM$BLUE        STATIC     ATOMS    COLORGROUP SYSTEM
4 44 45 46 47
ATOM$RED        STATIC     ATOMS    COLORGROUP SYSTEM
2 43 34
