AV-unprocessed.smi:1919|AV-procd|sdf|7776|dock1
  -GOLD-   22720 9523D 1   1.00000     0.00000
 Structure written by MMmdl.
 37 39  0  0  0  0  0  0  0  0  2 V2000
  151.5984  136.6030  154.0994 O   0  0  0  0  0  0  0  0  0  0  0  0
  151.7416  137.8697  154.7078 C   0  0  0  0  0  0  0  0  0  0  0  0
  150.5794  138.7789  154.4624 C   0  0  0  0  0  0  0  0  0  0  0  0
  149.4977  138.5161  153.6739 N   0  3  0  0  0  0  0  0  0  0  0  0
  148.6219  139.6019  153.6919 C   0  0  0  0  0  0  0  0  0  0  0  0
  147.4016  139.8008  153.0537 C   0  0  0  0  0  0  0  0  0  0  0  0
  146.7589  141.0343  153.2879 C   0  0  0  0  0  0  0  0  0  0  0  0
  147.3303  142.0125  154.1279 C   0  0  0  0  0  0  0  0  0  0  0  0
  148.5686  141.7997  154.7688 C   0  0  0  0  0  0  0  0  0  0  0  0
  149.1966  140.5772  154.5318 C   0  0  0  0  0  0  0  0  0  0  0  0
  150.4002  140.0265  154.9845 N   0  0  0  0  0  0  0  0  0  0  0  0
  151.2475  140.8088  155.8973 C   0  0  0  0  0  0  0  0  0  0  0  0
  150.5703  141.0889  157.2536 C   0  0  1  0  0  0  0  0  0  0  0  0
  150.4154  139.8796  157.9709 O   0  0  0  0  0  0  0  0  0  0  0  0
  151.3371  142.1361  158.0450 C   0  0  0  0  0  0  0  0  0  0  0  0
  151.4941  143.4472  157.5430 C   0  0  0  0  0  0  0  0  0  0  0  0
  152.1982  144.4127  158.2884 C   0  0  0  0  0  0  0  0  0  0  0  0
  152.7468  144.0743  159.5406 C   0  0  0  0  0  0  0  0  0  0  0  0
  152.5891  142.7703  160.0477 C   0  0  0  0  0  0  0  0  0  0  0  0
  153.1123  142.4443  161.2533 F   0  0  0  0  0  0  0  0  0  0  0  0
  151.8855  141.8043  159.3025 C   0  0  0  0  0  0  0  0  0  0  0  0
  151.3690  136.7307  153.1914 H   0  0  0  0  0  0  0  0  0  0  0  0
  151.8689  137.7315  155.7816 H   0  0  0  0  0  0  0  0  0  0  0  0
  152.6494  138.3411  154.3311 H   0  0  0  0  0  0  0  0  0  0  0  0
  146.9622  139.0528  152.4099 H   0  0  0  0  0  0  0  0  0  0  0  0
  145.8090  141.2339  152.8136 H   0  0  0  0  0  0  0  0  0  0  0  0
  146.8081  142.9455  154.2840 H   0  0  0  0  0  0  0  0  0  0  0  0
  148.9984  142.5548  155.4102 H   0  0  0  0  0  0  0  0  0  0  0  0
  152.1773  140.2575  156.0431 H   0  0  0  0  0  0  0  0  0  0  0  0
  151.5195  141.7401  155.3988 H   0  0  0  0  0  0  0  0  0  0  0  0
  149.5641  141.4704  157.0756 H   0  0  0  0  0  0  0  0  0  0  0  0
  151.0598  139.2624  157.6591 H   0  0  0  0  0  0  0  0  0  0  0  0
  151.0729  143.7175  156.5855 H   0  0  0  0  0  0  0  0  0  0  0  0
  152.3166  145.4134  157.8997 H   0  0  0  0  0  0  0  0  0  0  0  0
  153.2862  144.8151  160.1125 H   0  0  0  0  0  0  0  0  0  0  0  0
  151.7675  140.8078  159.7021 H   0  0  0  0  0  0  0  0  0  0  0  0
  149.3743  137.6511  153.1633 H   0  0  0  0  0  0  0  0  0  0  0  0
  1  2  1  0  0  0  0
  1 22  1  0  0  0  0
  2  3  1  0  0  0  0
  2 23  1  0  0  0  0
  2 24  1  0  0  0  0
  3 11  1  0  0  0  0
  3  4  2  0  0  0  0
  4  5  1  0  0  0  0
  4 37  1  0  0  0  0
  5 10  2  0  0  0  0
  5  6  1  0  0  0  0
  6  7  2  0  0  0  0
  6 25  1  0  0  0  0
  7  8  1  0  0  0  0
  7 26  1  0  0  0  0
  8  9  2  0  0  0  0
  8 27  1  0  0  0  0
  9 10  1  0  0  0  0
  9 28  1  0  0  0  0
 10 11  1  0  0  0  0
 11 12  1  0  0  0  0
 12 13  1  0  0  0  0
 12 29  1  0  0  0  0
 12 30  1  0  0  0  0
 13 14  1  0  0  0  0
 13 15  1  0  0  0  0
 13 31  1  0  0  0  0
 14 32  1  0  0  0  0
 15 21  1  0  0  0  0
 15 16  2  0  0  0  0
 16 17  1  0  0  0  0
 16 33  1  0  0  0  0
 17 18  2  0  0  0  0
 17 34  1  0  0  0  0
 18 19  1  0  0  0  0
 18 35  1  0  0  0  0
 19 20  1  0  0  0  0
 19 21  2  0  0  0  0
 21 36  1  0  0  0  0
M  CHG  1   4   1
M  END
> <s_m_source_file>
AV-unprocessed.smi

> <i_m_source_file_index>
1919

> <i_lp_mmshare_version>
43012

> <i_f3d_flags>
0

> <s_epik_input>
W2NIXTFbY0hdW2NIXVtjSF1jKGMxMiluKGMobjIpW0NIMl1bT0hdKVtDSDJdW0NASF0oW09IXSljM1tjSF1bY0hdW2NIXWMoRilbY0hdMw==

> <s_epik_cmdline>
J2VwaWtfcHl0aG9uJywgJy1waCcsICc3LjAnLCAnLXRuJywgJzgnLCAnLW1hJywgJzIwMCcsICctbWV0YWxfYmluZGluZycsICctaW1hZScsICc8aW5maWxlLm1hZT4nLCAnLW9tYWUnLCAnPG91dGZpbGUubWFlPic=

> <r_epik_Ionization_Penalty>
1.35643

> <r_epik_Ionization_Penalty_Charging>
1.35557

> <r_epik_Ionization_Penalty_Neutral>
0.000859316

> <r_epik_State_Penalty>
1.43401

> <r_epik_Charging_Adjusted_Penalty>
2.78958

> <i_epik_Tot_Q>
1

> <i_epik_Tot_abs_Q>
1

> <r_epik_Metal_State_Penalty>
5.47166

> <b_epik_Metal_Only>
0

> <s_lp_Force_Field>
OPLS_2005

> <r_lp_Energy>
12.6386

> <b_lp_Chiralities_Consistent>
1

> <s_lp_Variant>
AV-unprocessed.smi:1919-4

> <Gold.Version>
5.8.1

> <Gold.Id.Protein>
6NUR|6NUR_protein|mol2

> <Gold.PLP.Fitness>
65.1645

> <Gold.PLP.PLP>
-53.3681

> <Gold.PLP.part.hbond>
-4.0000

> <Gold.PLP.part.metal>
0.0000

> <Gold.PLP.part.buried>
1.5685

> <Gold.PLP.part.nonpolar>
-50.6894

> <Gold.PLP.part.repulsive>
0.0636

> <Gold.PLP.ligand.clash>
0.0000

> <Gold.PLP.ligand.torsion>
0.1084

> <Gold.PLP.Chemscore.Hbond>
3.9920

> <Gold.PLP.Chemscore.CHOScore>
0.0000

> <Gold.PLP.Chemscore.Metal>
0.0000

> <Gold.Chemscore.Hbonds>
donor molecule, donor type, donor heavy atom, donor atom, acceptor molecule, acceptor atom, score
      L1  H     1    22       P1  7949  0.96
      L1  H     4    37       P1  7948  2.00
      P1  H 10752 10765       L1     1  1.00

> <Gold.PLP.Chemscore.Internal.Correction>
0.0370

> <Gold.Rescore>
     Score         DG    S(hbond)    S(metal)    S(lipo)     H(rot)  DE(clash)    DE(int)     intcor
     21.13     -21.53       2.50        0.00     127.58       2.82       0.29       0.11       ----

> <Gold.Chemscore.Fitness>
21.1348

> <Gold.Chemscore.DG>
-21.5345

> <Gold.Chemscore.ZeroCoef>
-5.4800

> <Gold.Chemscore.Hbond>
2.5006

> <Gold.Chemscore.Metal>
0.0000

> <Gold.Chemscore.Lipo>
127.5765

> <Gold.Chemscore.Internal_Hbond>
0.0000

> <Gold.Chemscore.DEClash>
0.2860

> <Gold.Chemscore.DEInternal>
0.1136

> <Gold.Chemscore.Rot>
2.8219

> <Gold.Chemscore.Internal.Correction>
   9.000000E+99

> <Gold.Chemscore.Hbonds>
donor molecule, donor type, donor heavy atom, donor atom, acceptor molecule, acceptor atom, score
      L1  H     1    22       P1  7949  0.72
      L1  H     4    37       P1  7948  0.95
      P1  H 10752 10765       L1     1  0.30

> <Gold.Chemscore.Hbond.Weighted>
-8.3520

> <Gold.Chemscore.Metal.Weighted>
-0.0000

> <Gold.Chemscore.Lipo.Weighted>
-14.9264

> <Gold.Chemscore.Internal_Hbond.Weighted>
0.0000

> <Gold.Chemscore.DEClash.Weighted>
0.2860

> <Gold.Chemscore.DEInternal.Weighted>
0.1136

> <Gold.Chemscore.Rot.Weighted>
7.2240

> <Gold.Chemscore.Internal.Correction.Weighted>
   9.000000E+99

> <Gold.Protein.RotatedTorsions>
[ 6907 6896 6895 6894 ] final  129.55 input  -60.11 | X-H torsion
[ 7974 7965 7964 7962 ] final   58.87 input  175.53 | X-H torsion
[ 8008 7997 7996 7995 ] final   30.60 input   59.86 | X-H torsion
[ 10167 10162 10161 10158 ] final   53.89 input  -65.29 | X-H torsion
[ 10718 10713 10712 10709 ] final  172.66 input   66.30 | X-H torsion
[ 10763 10752 10751 10750 ] final  141.76 input  -60.55 | X-H torsion
[ 11005 11000 10999 10996 ] final  121.99 input  -57.11 | X-H torsion

> <Gold.Protein.ActiveResidues>
 VAL166  LYS551  ARG553  GLY616  TRP617  ASP618  TYR619  PRO620  LYS621  CYS622 
 ASP623  PHE694  ASN695  SER759  ASP760  ASP761  ALA762  ILE779  LEU786  VAL792 
 PHE793  MET794  SER795  GLU796  ALA797  LYS798  CYS799  TRP800  GLU811  SER814 

> <Gold.Protein.RotatedAtoms>
  152.3613  133.6301  159.6017 H   0  0  0  0  0  0  0  0  0  0  0  0  # atno 6907 bound_to 6896
  150.7603  133.9419  159.3467 H   0  0  0  0  0  0  0  0  0  0  0  0  # atno 6908 bound_to 6896
  151.7256  135.0886  160.0342 H   0  0  0  0  0  0  0  0  0  0  0  0  # atno 6909 bound_to 6896
  145.9134  139.3672  143.0522 H   0  0  0  0  0  0  0  0  0  0  0  0  # atno 7974 bound_to 7965
  155.0929  140.3222  155.4568 H   0  0  0  0  0  0  0  0  0  0  0  0  # atno 8008 bound_to 7997
  156.2738  140.2074  156.6003 H   0  0  0  0  0  0  0  0  0  0  0  0  # atno 8009 bound_to 7997
  154.6889  140.0518  157.0330 H   0  0  0  0  0  0  0  0  0  0  0  0  # atno 8010 bound_to 7997
  140.2359  144.3636  150.6397 H   0  0  0  0  0  0  0  0  0  0  0  0  # atno 10167 bound_to 10162
  156.9756  131.0103  151.2894 H   0  0  0  0  0  0  0  0  0  0  0  0  # atno 10718 bound_to 10713
  153.9446  135.2976  155.3441 H   0  0  0  0  0  0  0  0  0  0  0  0  # atno 10763 bound_to 10752
  154.7459  135.5003  153.9206 H   0  0  0  0  0  0  0  0  0  0  0  0  # atno 10764 bound_to 10752
  153.1025  135.6738  153.9754 H   0  0  0  0  0  0  0  0  0  0  0  0  # atno 10765 bound_to 10752
  139.9249  134.9640  156.8041 H   0  0  0  0  0  0  0  0  0  0  0  0  # atno 11005 bound_to 11000
  145.8642  140.9457  143.0684 LP  0  0  0  0  0  0  0  0  0  0  0  0  # atno 17320 bound_to 7965
  144.6745  140.0571  143.7477 LP  0  0  0  0  0  0  0  0  0  0  0  0  # atno 17321 bound_to 7965
  140.6150  143.2172  151.6810 LP  0  0  0  0  0  0  0  0  0  0  0  0  # atno 17342 bound_to 10162
  139.5094  144.3579  152.0590 LP  0  0  0  0  0  0  0  0  0  0  0  0  # atno 17343 bound_to 10162
  157.5562  130.8215  149.8207 LP  0  0  0  0  0  0  0  0  0  0  0  0  # atno 17370 bound_to 10713
  156.0265  130.3778  150.1809 LP  0  0  0  0  0  0  0  0  0  0  0  0  # atno 17371 bound_to 10713
  140.6366  133.9857  155.7687 LP  0  0  0  0  0  0  0  0  0  0  0  0  # atno 17394 bound_to 11000
  141.0799  134.0078  157.3402 LP  0  0  0  0  0  0  0  0  0  0  0  0  # atno 17395 bound_to 11000

$$$$
