AV-unprocessed.smi:1403|AV-procd|sdf|5704|dock3
  -GOLD-   22720 5333D 1   1.00000     0.00000
 Structure written by MMmdl.
 35 36  0  0  0  0  0  0  0  0  2 V2000
  144.3074  135.6910  152.2089 C   0  0  0  0  0  0  0  0  0  0  0  0
  145.4155  134.8368  151.5736 C   0  0  1  0  0  0  0  0  0  0  0  0
  146.5823  134.8642  152.4522 N   0  0  0  0  0  0  0  0  0  0  0  0
  146.6179  134.4326  153.7224 C   0  0  0  0  0  0  0  0  0  0  0  0
  145.6419  133.9581  154.3052 O   0  0  0  0  0  0  0  0  0  0  0  0
  147.9586  134.5988  154.4501 C   0  0  0  0  0  0  0  0  0  0  0  0
  147.9535  135.7082  155.4169 N   0  0  0  0  0  0  0  0  0  0  0  0
  148.3907  136.9675  154.9699 C   0  0  0  0  0  0  0  0  0  0  0  0
  148.4168  138.0401  155.7836 C   0  0  0  0  0  0  0  0  0  0  0  0
  147.9766  137.8711  157.1628 C   0  0  0  0  0  0  0  0  0  0  0  0
  147.9993  138.8384  157.9216 O   0  0  0  0  0  0  0  0  0  0  0  0
  147.5563  136.6304  157.5474 N   0  5  0  0  0  0  0  0  0  0  0  0
  147.5318  135.5491  156.7078 C   0  0  0  0  0  0  0  0  0  0  0  0
  147.1455  134.4387  157.0747 O   0  0  0  0  0  0  0  0  0  0  0  0
  144.9719  133.3777  151.3363 C   0  0  1  0  0  0  0  0  0  0  0  0
  144.0049  133.1897  150.1647 C   0  0  0  0  0  0  0  0  0  0  0  0
  144.2622  131.7522  149.7766 C   0  0  0  0  0  0  0  0  0  0  0  0
  145.7722  131.6549  149.9574 C   0  0  0  0  0  0  0  0  0  0  0  0
  146.0924  132.5522  151.0162 O   0  0  0  0  0  0  0  0  0  0  0  0
  143.4274  135.7442  151.5678 H   0  0  0  0  0  0  0  0  0  0  0  0
  144.6491  136.7134  152.3743 H   0  0  0  0  0  0  0  0  0  0  0  0
  143.9944  135.2852  153.1717 H   0  0  0  0  0  0  0  0  0  0  0  0
  145.6684  135.2875  150.6122 H   0  0  0  0  0  0  0  0  0  0  0  0
  147.4327  135.2447  152.0633 H   0  0  0  0  0  0  0  0  0  0  0  0
  148.2281  133.6664  154.9500 H   0  0  0  0  0  0  0  0  0  0  0  0
  148.7331  134.7532  153.6979 H   0  0  0  0  0  0  0  0  0  0  0  0
  148.6929  137.0088  153.9339 H   0  0  0  0  0  0  0  0  0  0  0  0
  148.7524  139.0014  155.4237 H   0  0  0  0  0  0  0  0  0  0  0  0
  144.5158  132.9716  152.2409 H   0  0  0  0  0  0  0  0  0  0  0  0
  142.9655  133.3771  150.4354 H   0  0  0  0  0  0  0  0  0  0  0  0
  144.2682  133.8500  149.3369 H   0  0  0  0  0  0  0  0  0  0  0  0
  143.7549  131.0797  150.4697 H   0  0  0  0  0  0  0  0  0  0  0  0
  143.9365  131.5134  148.7640 H   0  0  0  0  0  0  0  0  0  0  0  0
  146.1016  130.6397  150.1799 H   0  0  0  0  0  0  0  0  0  0  0  0
  146.2862  131.9887  149.0552 H   0  0  0  0  0  0  0  0  0  0  0  0
  1  2  1  0  0  0  0
  1 20  1  0  0  0  0
  1 21  1  0  0  0  0
  1 22  1  0  0  0  0
  2  3  1  0  0  0  0
  2 15  1  0  0  0  0
  2 23  1  0  0  0  0
  3  4  1  0  0  0  0
  3 24  1  0  0  0  0
  4  5  2  0  0  0  0
  4  6  1  0  0  0  0
  6  7  1  0  0  0  0
  6 25  1  0  0  0  0
  6 26  1  0  0  0  0
  7 13  1  0  0  0  0
  7  8  1  0  0  0  0
  8  9  2  0  0  0  0
  8 27  1  0  0  0  0
  9 10  1  0  0  0  0
  9 28  1  0  0  0  0
 10 11  2  0  0  0  0
 10 12  1  0  0  0  0
 12 13  1  0  0  0  0
 13 14  2  0  0  0  0
 15 19  1  0  0  0  0
 15 16  1  0  0  0  0
 15 29  1  0  0  0  0
 16 17  1  0  0  0  0
 16 30  1  0  0  0  0
 16 31  1  0  0  0  0
 17 18  1  0  0  0  0
 17 32  1  0  0  0  0
 17 33  1  0  0  0  0
 18 19  1  0  0  0  0
 18 34  1  0  0  0  0
 18 35  1  0  0  0  0
M  CHG  1  12  -1
M  END
> <s_m_source_file>
AV-unprocessed.smi

> <i_m_source_file_index>
1403

> <i_lp_mmshare_version>
43012

> <i_f3d_flags>
0

> <s_epik_input>
TzFbQ0gyXVtDSDJdW0NIMl1bQ0BIXTFbQ0BIXShbQ0gzXSlbTkhdQyg9TylbQ0gyXW4yW2NIXVtjSF1jKD1PKVtuSF1jMj1P

> <s_epik_cmdline>
J2VwaWtfcHl0aG9uJywgJy1waCcsICc3LjAnLCAnLXRuJywgJzgnLCAnLW1hJywgJzIwMCcsICctbWV0YWxfYmluZGluZycsICctaW1hZScsICc8aW5maWxlLm1hZT4nLCAnLW9tYWUnLCAnPG91dGZpbGUubWFlPic=

> <r_lp_tautomer_probability>
0.999537

> <r_epik_Ionization_Penalty>
3.07438

> <r_epik_Ionization_Penalty_Charging>
2.82466e-08

> <r_epik_Ionization_Penalty_Neutral>
3.07438

> <r_epik_State_Penalty>
3.07341

> <r_epik_Charging_Adjusted_Penalty>
3.07341

> <i_epik_Tot_Q>
-1

> <i_epik_Tot_abs_Q>
1

> <r_epik_Metal_State_Penalty>
0.45947

> <b_epik_Metal_Only>
1

> <s_lp_Force_Field>
OPLS_2005

> <r_lp_Energy>
26.7212

> <b_lp_Chiralities_Consistent>
1

> <s_lp_Variant>
AV-unprocessed.smi:1403-8

> <Gold.Version>
5.8.1

> <Gold.Id.Protein>
6NUR|6NUR_protein|mol2

> <Gold.PLP.Fitness>
38.6948

> <Gold.PLP.PLP>
-28.6222

> <Gold.PLP.part.hbond>
-3.0000

> <Gold.PLP.part.metal>
0.0000

> <Gold.PLP.part.buried>
-3.6315

> <Gold.PLP.part.nonpolar>
-22.4367

> <Gold.PLP.part.repulsive>
0.2452

> <Gold.PLP.ligand.clash>
0.0000

> <Gold.PLP.ligand.torsion>
0.7331

> <Gold.PLP.Chemscore.Hbond>
2.8460

> <Gold.PLP.Chemscore.CHOScore>
0.9905

> <Gold.PLP.Chemscore.Metal>
0.0000

> <Gold.Chemscore.Hbonds>
donor molecule, donor type, donor heavy atom, donor atom, acceptor molecule, acceptor atom, score
      L1  H     3    24       P1  7948  1.00
      L1  C     8    27       P1  7948  1.00

> <Gold.PLP.Chemscore.Internal.Correction>
0.0297

> <Gold.Rescore>
     Score         DG    S(hbond)    S(metal)    S(lipo)     H(rot)  DE(clash)    DE(int)     intcor
     10.60     -12.30       1.80        0.00      50.62       1.99       0.06       1.63       ----

> <Gold.Chemscore.Fitness>
10.6022

> <Gold.Chemscore.DG>
-12.2967

> <Gold.Chemscore.ZeroCoef>
-5.4800

> <Gold.Chemscore.Hbond>
1.7962

> <Gold.Chemscore.Metal>
0.0000

> <Gold.Chemscore.Lipo>
50.6169

> <Gold.Chemscore.Internal_Hbond>
0.0000

> <Gold.Chemscore.DEClash>
0.0640

> <Gold.Chemscore.DEInternal>
1.6305

> <Gold.Chemscore.Rot>
1.9940

> <Gold.Chemscore.Internal.Correction>
   9.000000E+99

> <Gold.Chemscore.Hbonds>
donor molecule, donor type, donor heavy atom, donor atom, acceptor molecule, acceptor atom, score
      L1  H     3    24       P1  7948  0.99

> <Gold.Chemscore.Hbond.Weighted>
-5.9992

> <Gold.Chemscore.Metal.Weighted>
-0.0000

> <Gold.Chemscore.Lipo.Weighted>
-5.9222

> <Gold.Chemscore.Internal_Hbond.Weighted>
0.0000

> <Gold.Chemscore.DEClash.Weighted>
0.0640

> <Gold.Chemscore.DEInternal.Weighted>
1.6305

> <Gold.Chemscore.Rot.Weighted>
5.1047

> <Gold.Chemscore.Internal.Correction.Weighted>
   9.000000E+99

> <Gold.Protein.RotatedTorsions>
[ 6907 6896 6895 6894 ] final -116.40 input  -60.11 | X-H torsion
[ 7974 7965 7964 7962 ] final  161.29 input  175.53 | X-H torsion
[ 8008 7997 7996 7995 ] final -124.73 input   59.86 | X-H torsion
[ 10167 10162 10161 10158 ] final   17.61 input  -65.29 | X-H torsion
[ 10718 10713 10712 10709 ] final  139.38 input   66.30 | X-H torsion
[ 10763 10752 10751 10750 ] final   46.84 input  -60.55 | X-H torsion
[ 11005 11000 10999 10996 ] final -178.73 input  -57.11 | X-H torsion

> <Gold.Protein.ActiveResidues>
 VAL166  LYS551  ARG553  GLY616  TRP617  ASP618  TYR619  PRO620  LYS621  CYS622 
 ASP623  PHE694  ASN695  SER759  ASP760  ASP761  ALA762  ILE779  LEU786  VAL792 
 PHE793  MET794  SER795  GLU796  ALA797  LYS798  CYS799  TRP800  GLU811  SER814 

> <Gold.Protein.RotatedAtoms>
  150.8053  133.8522  159.3208 H   0  0  0  0  0  0  0  0  0  0  0  0  # atno 6907 bound_to 6896
  151.6322  135.1020  160.0133 H   0  0  0  0  0  0  0  0  0  0  0  0  # atno 6908 bound_to 6896
  152.4143  133.6974  159.6460 H   0  0  0  0  0  0  0  0  0  0  0  0  # atno 6909 bound_to 6896
  144.7693  139.7877  143.6303 H   0  0  0  0  0  0  0  0  0  0  0  0  # atno 7974 bound_to 7965
  155.2016  140.0416  157.2918 H   0  0  0  0  0  0  0  0  0  0  0  0  # atno 8008 bound_to 7997
  154.6071  140.2467  155.7689 H   0  0  0  0  0  0  0  0  0  0  0  0  # atno 8009 bound_to 7997
  156.2356  140.2922  156.0314 H   0  0  0  0  0  0  0  0  0  0  0  0  # atno 8010 bound_to 7997
  140.5713  143.9156  150.6715 H   0  0  0  0  0  0  0  0  0  0  0  0  # atno 10167 bound_to 10162
  157.4151  131.1032  151.0413 H   0  0  0  0  0  0  0  0  0  0  0  0  # atno 10718 bound_to 10713
  152.9806  135.5995  154.3666 H   0  0  0  0  0  0  0  0  0  0  0  0  # atno 10763 bound_to 10752
  154.3343  135.2768  155.2458 H   0  0  0  0  0  0  0  0  0  0  0  0  # atno 10764 bound_to 10752
  154.4568  135.5976  153.6284 H   0  0  0  0  0  0  0  0  0  0  0  0  # atno 10765 bound_to 10752
  140.4265  134.6558  157.4690 H   0  0  0  0  0  0  0  0  0  0  0  0  # atno 11005 bound_to 11000
  146.1827  139.5027  142.9856 LP  0  0  0  0  0  0  0  0  0  0  0  0  # atno 17320 bound_to 7965
  145.6373  141.0292  143.1831 LP  0  0  0  0  0  0  0  0  0  0  0  0  # atno 17321 bound_to 7965
  140.2632  143.3509  152.1304 LP  0  0  0  0  0  0  0  0  0  0  0  0  # atno 17342 bound_to 10162
  139.5119  144.6908  151.5764 LP  0  0  0  0  0  0  0  0  0  0  0  0  # atno 17343 bound_to 10162
  157.1364  130.6124  149.5543 LP  0  0  0  0  0  0  0  0  0  0  0  0  # atno 17370 bound_to 10713
  155.9862  130.4896  150.7070 LP  0  0  0  0  0  0  0  0  0  0  0  0  # atno 17371 bound_to 10713
  140.0164  134.6613  155.9304 LP  0  0  0  0  0  0  0  0  0  0  0  0  # atno 17394 bound_to 11000
  141.1763  133.6541  156.4842 LP  0  0  0  0  0  0  0  0  0  0  0  0  # atno 17395 bound_to 11000

$$$$
