AV-unprocessed.smi:500|AV-procd|sdf|2737|dock8
  -GOLD-   2262023193D 1   1.00000     0.00000
 Structure written by MMmdl.
 46 48  0  0  0  0  0  0  0  0  2 V2000
  147.5065  135.5497  162.7184 C   0  0  0  0  0  0  0  0  0  0  0  0
  146.6161  134.3390  162.4290 C   0  0  0  0  0  0  0  0  0  0  0  0
  147.0619  133.7118  161.2382 O   0  0  0  0  0  0  0  0  0  0  0  0
  146.0481  132.9456  160.6109 C   0  0  0  0  0  0  0  0  0  0  0  0
  145.0965  133.8971  159.8761 C   0  0  0  0  0  0  0  0  0  0  0  0
  144.2348  133.1834  158.9246 N   0  0  0  0  0  0  0  0  0  0  0  0
  144.0819  133.3420  157.5775 C   0  0  0  0  0  0  0  0  0  0  0  0
  144.7780  134.3578  156.7147 C   0  0  1  0  0  0  0  0  0  0  0  0
  146.2782  134.4898  157.0402 C   0  0  0  0  0  0  0  0  0  0  0  0
  144.5560  134.1304  155.2863 N   0  0  0  0  0  0  0  0  0  0  0  0
  145.0214  134.8739  154.2676 C   0  0  0  0  0  0  0  0  0  0  0  0
  145.7046  135.8866  154.4190 O   0  0  0  0  0  0  0  0  0  0  0  0
  144.6715  134.3976  152.9162 C   0  0  0  0  0  0  0  0  0  0  0  0
  143.7603  133.4665  152.4907 C   0  0  0  0  0  0  0  0  0  0  0  0
  143.8577  133.4199  151.0726 C   0  0  0  0  0  0  0  0  0  0  0  0
  144.8207  134.3255  150.7322 C   0  0  0  0  0  0  0  0  0  0  0  0
  145.3250  134.9295  151.8424 O   0  0  0  0  0  0  0  0  0  0  0  0
  143.1416  132.4385  157.1745 N   0  3  0  0  0  0  0  0  0  0  0  0
  142.7059  131.6865  158.2656 C   0  0  0  0  0  0  0  0  0  0  0  0
  141.7744  130.6564  158.3502 C   0  0  0  0  0  0  0  0  0  0  0  0
  141.5623  130.0985  159.6283 C   0  0  0  0  0  0  0  0  0  0  0  0
  142.2622  130.5670  160.7593 C   0  0  0  0  0  0  0  0  0  0  0  0
  143.2033  131.6130  160.6608 C   0  0  0  0  0  0  0  0  0  0  0  0
  143.4061  132.1588  159.3937 C   0  0  0  0  0  0  0  0  0  0  0  0
  147.1889  136.0568  163.6297 H   0  0  0  0  0  0  0  0  0  0  0  0
  147.4637  136.2713  161.9021 H   0  0  0  0  0  0  0  0  0  0  0  0
  148.5469  135.2503  162.8474 H   0  0  0  0  0  0  0  0  0  0  0  0
  146.6603  133.6371  163.2630 H   0  0  0  0  0  0  0  0  0  0  0  0
  145.5789  134.6592  162.3207 H   0  0  0  0  0  0  0  0  0  0  0  0
  146.4926  132.2420  159.9051 H   0  0  0  0  0  0  0  0  0  0  0  0
  145.5033  132.3658  161.3575 H   0  0  0  0  0  0  0  0  0  0  0  0
  144.4689  134.4480  160.5774 H   0  0  0  0  0  0  0  0  0  0  0  0
  145.6659  134.6428  159.3213 H   0  0  0  0  0  0  0  0  0  0  0  0
  144.3200  135.3229  156.9334 H   0  0  0  0  0  0  0  0  0  0  0  0
  146.4290  134.7616  158.0853 H   0  0  0  0  0  0  0  0  0  0  0  0
  146.7422  135.2665  156.4315 H   0  0  0  0  0  0  0  0  0  0  0  0
  146.8209  133.5618  156.8583 H   0  0  0  0  0  0  0  0  0  0  0  0
  144.0049  133.3189  155.0466 H   0  0  0  0  0  0  0  0  0  0  0  0
  143.1024  132.8867  153.1213 H   0  0  0  0  0  0  0  0  0  0  0  0
  143.2953  132.8020  150.3884 H   0  0  0  0  0  0  0  0  0  0  0  0
  145.2492  134.6494  149.7951 H   0  0  0  0  0  0  0  0  0  0  0  0
  141.2365  130.2965  157.4853 H   0  0  0  0  0  0  0  0  0  0  0  0
  140.8487  129.2956  159.7436 H   0  0  0  0  0  0  0  0  0  0  0  0
  142.0731  130.1156  161.7225 H   0  0  0  0  0  0  0  0  0  0  0  0
  143.7350  131.9646  161.5328 H   0  0  0  0  0  0  0  0  0  0  0  0
  142.8185  132.3522  156.2194 H   0  0  0  0  0  0  0  0  0  0  0  0
  1  2  1  0  0  0  0
  1 25  1  0  0  0  0
  1 26  1  0  0  0  0
  1 27  1  0  0  0  0
  2  3  1  0  0  0  0
  2 28  1  0  0  0  0
  2 29  1  0  0  0  0
  3  4  1  0  0  0  0
  4  5  1  0  0  0  0
  4 30  1  0  0  0  0
  4 31  1  0  0  0  0
  5  6  1  0  0  0  0
  5 32  1  0  0  0  0
  5 33  1  0  0  0  0
  6 24  1  0  0  0  0
  6  7  1  0  0  0  0
  7  8  1  0  0  0  0
  7 18  2  0  0  0  0
  8  9  1  0  0  0  0
  8 10  1  0  0  0  0
  8 34  1  0  0  0  0
  9 35  1  0  0  0  0
  9 36  1  0  0  0  0
  9 37  1  0  0  0  0
 10 11  1  0  0  0  0
 10 38  1  0  0  0  0
 11 12  2  0  0  0  0
 11 13  1  0  0  0  0
 13 17  1  0  0  0  0
 13 14  2  0  0  0  0
 14 15  1  0  0  0  0
 14 39  1  0  0  0  0
 15 16  2  0  0  0  0
 15 40  1  0  0  0  0
 16 17  1  0  0  0  0
 16 41  1  0  0  0  0
 18 19  1  0  0  0  0
 18 46  1  0  0  0  0
 19 24  2  0  0  0  0
 19 20  1  0  0  0  0
 20 21  2  0  0  0  0
 20 42  1  0  0  0  0
 21 22  1  0  0  0  0
 21 43  1  0  0  0  0
 22 23  2  0  0  0  0
 22 44  1  0  0  0  0
 23 24  1  0  0  0  0
 23 45  1  0  0  0  0
M  CHG  1  18   1
M  END
> <s_m_source_file>
AV-unprocessed.smi

> <i_m_source_file_index>
500

> <i_lp_mmshare_version>
43012

> <i_f3d_flags>
0

> <s_epik_input>
W0NIM11bQ0gyXU9bQ0gyXVtDSDJdbihjKGMxMilbY0hdW2NIXVtjSF1bY0hdMiljKG4xKVtDQEhdKFtDSDNdKVtOSF1DKD1PKWMzW2NIXVtjSF1bY0hdbzM=

> <s_epik_cmdline>
J2VwaWtfcHl0aG9uJywgJy1waCcsICc3LjAnLCAnLXRuJywgJzgnLCAnLW1hJywgJzIwMCcsICctbWV0YWxfYmluZGluZycsICctaW1hZScsICc8aW5maWxlLm1hZT4nLCAnLW9tYWUnLCAnPG91dGZpbGUubWFlPic=

> <r_epik_Ionization_Penalty>
1.05286

> <r_epik_Ionization_Penalty_Charging>
1.05283

> <r_epik_Ionization_Penalty_Neutral>
2.09263e-05

> <r_epik_State_Penalty>
1.10586

> <r_epik_Charging_Adjusted_Penalty>
2.15869

> <i_epik_Tot_Q>
1

> <i_epik_Tot_abs_Q>
1

> <r_epik_Metal_State_Penalty>
1.22833

> <b_epik_Metal_Only>
0

> <s_lp_Force_Field>
OPLS_2005

> <r_lp_Energy>
11.8725

> <b_lp_Chiralities_Consistent>
1

> <s_lp_Variant>
AV-unprocessed.smi:500-4

> <Gold.Version>
5.8.1

> <Gold.Id.Protein>
6NUR|6NUR_protein|mol2

> <Gold.PLP.Fitness>
42.3192

> <Gold.PLP.PLP>
-31.7982

> <Gold.PLP.part.hbond>
-2.1734

> <Gold.PLP.part.metal>
0.0000

> <Gold.PLP.part.buried>
-4.1411

> <Gold.PLP.part.nonpolar>
-26.7818

> <Gold.PLP.part.repulsive>
0.1632

> <Gold.PLP.ligand.clash>
0.0000

> <Gold.PLP.ligand.torsion>
0.6915

> <Gold.PLP.Chemscore.Hbond>
2.9100

> <Gold.PLP.Chemscore.CHOScore>
1.0000

> <Gold.PLP.Chemscore.Metal>
0.0000

> <Gold.Chemscore.Hbonds>
donor molecule, donor type, donor heavy atom, donor atom, acceptor molecule, acceptor atom, score
      L1  H    10    38       P1 10957  0.93
      L1  H    18    46       P1 10957  1.85
      L1  C    16    41       P1  7921  1.00

> <Gold.PLP.Chemscore.Internal.Correction>
0.1741

> <Gold.Rescore>
     Score         DG    S(hbond)    S(metal)    S(lipo)     H(rot)  DE(clash)    DE(int)     intcor
     13.59     -16.15       1.93        0.00      79.36       1.97       0.76       1.80       ----

> <Gold.Chemscore.Fitness>
13.5935

> <Gold.Chemscore.DG>
-16.1537

> <Gold.Chemscore.ZeroCoef>
-5.4800

> <Gold.Chemscore.Hbond>
1.9293

> <Gold.Chemscore.Metal>
0.0000

> <Gold.Chemscore.Lipo>
79.3567

> <Gold.Chemscore.Internal_Hbond>
0.0000

> <Gold.Chemscore.DEClash>
0.7575

> <Gold.Chemscore.DEInternal>
1.8027

> <Gold.Chemscore.Rot>
1.9746

> <Gold.Chemscore.Internal.Correction>
   9.000000E+99

> <Gold.Chemscore.Hbonds>
donor molecule, donor type, donor heavy atom, donor atom, acceptor molecule, acceptor atom, score
      L1  H    10    38       P1 10957  0.89
      L1  H    18    46       P1 10957  0.88

> <Gold.Chemscore.Hbond.Weighted>
-6.4440

> <Gold.Chemscore.Metal.Weighted>
-0.0000

> <Gold.Chemscore.Lipo.Weighted>
-9.2847

> <Gold.Chemscore.Internal_Hbond.Weighted>
0.0000

> <Gold.Chemscore.DEClash.Weighted>
0.7575

> <Gold.Chemscore.DEInternal.Weighted>
1.8027

> <Gold.Chemscore.Rot.Weighted>
5.0550

> <Gold.Chemscore.Internal.Correction.Weighted>
   9.000000E+99

> <Gold.Protein.RotatedTorsions>
[ 6907 6896 6895 6894 ] final   47.55 input  -60.11 | X-H torsion
[ 7974 7965 7964 7962 ] final  122.14 input  175.53 | X-H torsion
[ 8008 7997 7996 7995 ] final   87.17 input   59.86 | X-H torsion
[ 10167 10162 10161 10158 ] final  150.00 input  -65.29 | X-H torsion
[ 10718 10713 10712 10709 ] final  -86.29 input   66.30 | X-H torsion
[ 10763 10752 10751 10750 ] final -125.36 input  -60.55 | X-H torsion
[ 11005 11000 10999 10996 ] final   49.61 input  -57.11 | X-H torsion

> <Gold.Protein.ActiveResidues>
 VAL166  LYS551  ARG553  GLY616  TRP617  ASP618  TYR619  PRO620  LYS621  CYS622 
 ASP623  PHE694  ASN695  SER759  ASP760  ASP761  ALA762  ILE779  LEU786  VAL792 
 PHE793  MET794  SER795  GLU796  ALA797  LYS798  CYS799  TRP800  GLU811  SER814 

> <Gold.Protein.RotatedAtoms>
  152.2693  134.7950  160.0416 H   0  0  0  0  0  0  0  0  0  0  0  0  # atno 6907 bound_to 6896
  151.8568  133.3444  159.3699 H   0  0  0  0  0  0  0  0  0  0  0  0  # atno 6908 bound_to 6896
  150.7146  134.5173  159.5680 H   0  0  0  0  0  0  0  0  0  0  0  0  # atno 6909 bound_to 6896
  145.1111  139.3452  143.4763 H   0  0  0  0  0  0  0  0  0  0  0  0  # atno 7974 bound_to 7965
  155.9720  140.3385  155.6584 H   0  0  0  0  0  0  0  0  0  0  0  0  # atno 8008 bound_to 7997
  155.6662  140.0721  157.2554 H   0  0  0  0  0  0  0  0  0  0  0  0  # atno 8009 bound_to 7997
  154.4169  140.1699  156.1817 H   0  0  0  0  0  0  0  0  0  0  0  0  # atno 8010 bound_to 7997
  139.4855  144.5557  151.7322 H   0  0  0  0  0  0  0  0  0  0  0  0  # atno 10167 bound_to 10162
  155.9991  130.4760  150.4692 H   0  0  0  0  0  0  0  0  0  0  0  0  # atno 10718 bound_to 10713
  154.8735  135.4032  154.3255 H   0  0  0  0  0  0  0  0  0  0  0  0  # atno 10763 bound_to 10752
  153.4077  135.7020  153.6387 H   0  0  0  0  0  0  0  0  0  0  0  0  # atno 10764 bound_to 10752
  153.5103  135.3709  155.2554 H   0  0  0  0  0  0  0  0  0  0  0  0  # atno 10765 bound_to 10752
  140.1089  134.4981  155.8695 H   0  0  0  0  0  0  0  0  0  0  0  0  # atno 11005 bound_to 11000
  146.3526  140.1030  142.8607 LP  0  0  0  0  0  0  0  0  0  0  0  0  # atno 17320 bound_to 7965
  145.0846  140.9244  143.4805 LP  0  0  0  0  0  0  0  0  0  0  0  0  # atno 17321 bound_to 7965
  140.5118  144.1014  150.5997 LP  0  0  0  0  0  0  0  0  0  0  0  0  # atno 17342 bound_to 10162
  140.3942  143.2737  152.0025 LP  0  0  0  0  0  0  0  0  0  0  0  0  # atno 17343 bound_to 10162
  157.2709  131.0587  151.2260 LP  0  0  0  0  0  0  0  0  0  0  0  0  # atno 17370 bound_to 10713
  157.3341  130.7000  149.6342 LP  0  0  0  0  0  0  0  0  0  0  0  0  # atno 17371 bound_to 10713
  141.2125  133.6720  156.6665 LP  0  0  0  0  0  0  0  0  0  0  0  0  # atno 17394 bound_to 11000
  140.3118  134.8080  157.4182 LP  0  0  0  0  0  0  0  0  0  0  0  0  # atno 17395 bound_to 11000

$$$$
