AV-unprocessed.smi:153|AV-procd|sdf|1250|dock4
  -GOLD-   2262018473D 1   1.00000     0.00000
 Structure written by MMmdl.
 60 63  0  0  0  0  0  0  0  0  2 V2000
  147.5470  133.7852  162.4978 C   0  0  0  0  0  0  0  0  0  0  0  0
  147.6624  135.3132  162.6380 C   0  0  2  0  0  0  0  0  0  0  0  0
  146.3566  135.7353  163.0358 O   0  0  0  0  0  0  0  0  0  0  0  0
  145.7201  136.4870  162.0074 C   0  0  0  0  0  0  0  0  0  0  0  0
  146.5732  136.2861  160.7592 C   0  0  0  0  0  0  0  0  0  0  0  0
  147.9653  136.0872  161.3338 C   0  0  1  0  0  0  0  0  0  0  0  0
  148.4787  137.3570  161.7024 O   0  0  0  0  0  0  0  0  0  0  0  0
  148.9532  135.4350  160.3259 C   0  0  0  0  0  0  0  0  0  0  0  0
  149.5238  136.3549  159.3473 N   0  0  0  0  0  0  0  0  0  0  0  0
  150.7363  137.0014  159.4144 C   0  0  0  0  0  0  0  0  0  0  0  0
  151.0169  137.7638  158.3945 N   0  0  0  0  0  0  0  0  0  0  0  0
  149.9255  137.6307  157.5428 C   0  0  0  0  0  0  0  0  0  0  0  0
  149.5759  138.1623  156.2616 C   0  0  0  0  0  0  0  0  0  0  0  0
  150.3418  139.0246  155.5318 N   0  0  0  0  0  0  0  0  0  0  0  0
  151.7237  138.6859  155.2144 C   0  0  0  0  0  0  0  0  0  0  0  0
  149.7276  140.1427  154.8089 C   0  0  0  0  0  0  0  0  0  0  0  0
  149.5101  141.3835  155.6988 C   0  0  2  0  0  0  0  0  0  0  0  0
  148.9572  142.3920  154.8767 O   0  0  0  0  0  0  0  0  0  0  0  0
  150.8186  141.9217  156.3192 C   0  0  0  0  0  0  0  0  0  0  0  0
  150.6033  143.1060  157.1876 N   0  3  0  0  0  0  0  0  0  0  0  0
  149.8521  142.7989  158.4306 C   0  0  0  0  0  0  0  0  0  0  0  0
  149.6434  144.0755  159.2631 C   0  0  0  0  0  0  0  0  0  0  0  0
  150.9027  144.6693  159.5521 O   0  0  0  0  0  0  0  0  0  0  0  0
  151.5953  145.0498  158.3699 C   0  0  0  0  0  0  0  0  0  0  0  0
  151.8701  143.8049  157.5100 C   0  0  0  0  0  0  0  0  0  0  0  0
  148.3915  137.7521  155.7338 N   0  0  0  0  0  0  0  0  0  0  0  0
  147.6058  136.8952  156.3893 C   0  0  0  0  0  0  0  0  0  0  0  0
  147.8065  136.3244  157.5758 N   0  0  0  0  0  0  0  0  0  0  0  0
  148.9865  136.7291  158.1257 C   0  0  0  0  0  0  0  0  0  0  0  0
  148.4984  133.3223  162.2521 H   0  0  0  0  0  0  0  0  0  0  0  0
  146.8289  133.5049  161.7270 H   0  0  0  0  0  0  0  0  0  0  0  0
  147.2109  133.3403  163.4346 H   0  0  0  0  0  0  0  0  0  0  0  0
  148.3875  135.5443  163.4201 H   0  0  0  0  0  0  0  0  0  0  0  0
  144.6878  136.1686  161.8611 H   0  0  0  0  0  0  0  0  0  0  0  0
  145.7107  137.5378  162.2996 H   0  0  0  0  0  0  0  0  0  0  0  0
  146.2500  135.3847  160.2366 H   0  0  0  0  0  0  0  0  0  0  0  0
  146.5034  137.1187  160.0580 H   0  0  0  0  0  0  0  0  0  0  0  0
  147.7531  137.9469  161.8389 H   0  0  0  0  0  0  0  0  0  0  0  0
  149.7659  134.9256  160.8442 H   0  0  0  0  0  0  0  0  0  0  0  0
  148.4320  134.6547  159.7699 H   0  0  0  0  0  0  0  0  0  0  0  0
  151.4257  136.8869  160.2358 H   0  0  0  0  0  0  0  0  0  0  0  0
  152.2695  138.3974  156.1132 H   0  0  0  0  0  0  0  0  0  0  0  0
  152.2428  139.5392  154.7771 H   0  0  0  0  0  0  0  0  0  0  0  0
  151.7651  137.8675  154.4954 H   0  0  0  0  0  0  0  0  0  0  0  0
  150.2805  140.4097  153.9081 H   0  0  0  0  0  0  0  0  0  0  0  0
  148.7595  139.7937  154.4470 H   0  0  0  0  0  0  0  0  0  0  0  0
  148.7773  141.1424  156.4682 H   0  0  0  0  0  0  0  0  0  0  0  0
  148.6757  143.1116  155.4201 H   0  0  0  0  0  0  0  0  0  0  0  0
  151.3162  141.1561  156.9134 H   0  0  0  0  0  0  0  0  0  0  0  0
  151.5090  142.1716  155.5116 H   0  0  0  0  0  0  0  0  0  0  0  0
  148.8833  142.3600  158.1952 H   0  0  0  0  0  0  0  0  0  0  0  0
  150.4010  142.0608  159.0181 H   0  0  0  0  0  0  0  0  0  0  0  0
  149.0043  144.7854  158.7357 H   0  0  0  0  0  0  0  0  0  0  0  0
  149.1441  143.8342  160.2016 H   0  0  0  0  0  0  0  0  0  0  0  0
  151.0142  145.7873  157.8139 H   0  0  0  0  0  0  0  0  0  0  0  0
  152.5343  145.5286  158.6486 H   0  0  0  0  0  0  0  0  0  0  0  0
  152.5395  143.1244  158.0387 H   0  0  0  0  0  0  0  0  0  0  0  0
  152.3744  144.1012  156.5894 H   0  0  0  0  0  0  0  0  0  0  0  0
  146.6852  136.6288  155.8911 H   0  0  0  0  0  0  0  0  0  0  0  0
  150.0485  143.7601  156.6547 H   0  0  0  0  0  0  0  0  0  0  0  0
  1  2  1  0  0  0  0
  1 30  1  0  0  0  0
  1 31  1  0  0  0  0
  1 32  1  0  0  0  0
  2  6  1  0  0  0  0
  2  3  1  0  0  0  0
  2 33  1  0  0  0  0
  3  4  1  0  0  0  0
  4  5  1  0  0  0  0
  4 34  1  0  0  0  0
  4 35  1  0  0  0  0
  5  6  1  0  0  0  0
  5 36  1  0  0  0  0
  5 37  1  0  0  0  0
  6  7  1  0  0  0  0
  6  8  1  0  0  0  0
  7 38  1  0  0  0  0
  8  9  1  0  0  0  0
  8 39  1  0  0  0  0
  8 40  1  0  0  0  0
  9 29  1  0  0  0  0
  9 10  1  0  0  0  0
 10 11  2  0  0  0  0
 10 41  1  0  0  0  0
 11 12  1  0  0  0  0
 12 29  2  0  0  0  0
 12 13  1  0  0  0  0
 13 14  1  0  0  0  0
 13 26  2  0  0  0  0
 14 15  1  0  0  0  0
 14 16  1  0  0  0  0
 15 42  1  0  0  0  0
 15 43  1  0  0  0  0
 15 44  1  0  0  0  0
 16 17  1  0  0  0  0
 16 45  1  0  0  0  0
 16 46  1  0  0  0  0
 17 18  1  0  0  0  0
 17 19  1  0  0  0  0
 17 47  1  0  0  0  0
 18 48  1  0  0  0  0
 19 20  1  0  0  0  0
 19 49  1  0  0  0  0
 19 50  1  0  0  0  0
 20 25  1  0  0  0  0
 20 21  1  0  0  0  0
 20 60  1  0  0  0  0
 21 22  1  0  0  0  0
 21 51  1  0  0  0  0
 21 52  1  0  0  0  0
 22 23  1  0  0  0  0
 22 53  1  0  0  0  0
 22 54  1  0  0  0  0
 23 24  1  0  0  0  0
 24 25  1  0  0  0  0
 24 55  1  0  0  0  0
 24 56  1  0  0  0  0
 25 57  1  0  0  0  0
 25 58  1  0  0  0  0
 26 27  1  0  0  0  0
 27 28  2  0  0  0  0
 27 59  1  0  0  0  0
 28 29  1  0  0  0  0
M  CHG  1  20   1
M  END
> <s_m_source_file>
AV-unprocessed.smi

> <i_m_source_file_index>
153

> <i_lp_mmshare_version>
43012

> <i_f3d_flags>
0

> <s_epik_input>
W0NIMl0xW0NIMl1PW0NAQEhdKFtDSDNdKVtDQEBdMShbT0hdKVtDSDJdbihbY0hdbjIpYyhjMjMpbltjSF1uYzNOKFtDSDNdKVtDSDJdW0NASF0oW09IXSlbQ0gyXU40W0NIMl1bQ0gyXU9bQ0gyXVtDSDJdNA==

> <s_epik_cmdline>
J2VwaWtfcHl0aG9uJywgJy1waCcsICc3LjAnLCAnLXRuJywgJzgnLCAnLW1hJywgJzIwMCcsICctbWV0YWxfYmluZGluZycsICctaW1hZScsICc8aW5maWxlLm1hZT4nLCAnLW9tYWUnLCAnPG91dGZpbGUubWFlPic=

> <r_lp_tautomer_probability>
1

> <r_epik_Ionization_Penalty>
0.403509

> <r_epik_Ionization_Penalty_Charging>
0.40072

> <r_epik_Ionization_Penalty_Neutral>
0.00278876

> <r_epik_State_Penalty>
0.400058

> <r_epik_Charging_Adjusted_Penalty>
0.800778

> <i_epik_Tot_Q>
1

> <i_epik_Tot_abs_Q>
1

> <r_epik_Metal_State_Penalty>
0.400321

> <b_epik_Metal_Only>
0

> <s_lp_Force_Field>
OPLS_2005

> <r_lp_Energy>
46.9593

> <b_lp_Chiralities_Consistent>
1

> <s_lp_Variant>
AV-unprocessed.smi:153-1

> <Gold.Version>
5.8.1

> <Gold.Id.Protein>
6NUR|6NUR_protein|mol2

> <Gold.PLP.Fitness>
50.5913

> <Gold.PLP.PLP>
-41.9006

> <Gold.PLP.part.hbond>
-4.4353

> <Gold.PLP.part.metal>
0.0000

> <Gold.PLP.part.buried>
-3.6273

> <Gold.PLP.part.nonpolar>
-33.5236

> <Gold.PLP.part.repulsive>
0.1854

> <Gold.PLP.ligand.clash>
0.0000

> <Gold.PLP.ligand.torsion>
1.7383

> <Gold.PLP.Chemscore.Hbond>
3.9280

> <Gold.PLP.Chemscore.CHOScore>
0.0000

> <Gold.PLP.Chemscore.Metal>
0.0000

> <Gold.Chemscore.Hbonds>
donor molecule, donor type, donor heavy atom, donor atom, acceptor molecule, acceptor atom, score
      L1  H    18    48       P1  8028  0.85
      L1  H    20    60       P1  8028  2.00

> <Gold.PLP.Chemscore.Internal.Correction>
0.3833

> <Gold.Rescore>
     Score         DG    S(hbond)    S(metal)    S(lipo)     H(rot)  DE(clash)    DE(int)     intcor
     15.00     -16.92       2.70        0.00      99.88       3.62       0.17       1.76       ----

> <Gold.Chemscore.Fitness>
14.9973

> <Gold.Chemscore.DG>
-16.9211

> <Gold.Chemscore.ZeroCoef>
-5.4800

> <Gold.Chemscore.Hbond>
2.7000

> <Gold.Chemscore.Metal>
0.0000

> <Gold.Chemscore.Lipo>
99.8764

> <Gold.Chemscore.Internal_Hbond>
0.0000

> <Gold.Chemscore.DEClash>
0.1659

> <Gold.Chemscore.DEInternal>
1.7579

> <Gold.Chemscore.Rot>
3.6182

> <Gold.Chemscore.Internal.Correction>
   9.000000E+99

> <Gold.Chemscore.Hbonds>
donor molecule, donor type, donor heavy atom, donor atom, acceptor molecule, acceptor atom, score
      L1  H    18    48       P1  8028  0.83
      L1  H    20    60       P1  8028  1.00

> <Gold.Chemscore.Hbond.Weighted>
-9.0181

> <Gold.Chemscore.Metal.Weighted>
-0.0000

> <Gold.Chemscore.Lipo.Weighted>
-11.6855

> <Gold.Chemscore.Internal_Hbond.Weighted>
0.0000

> <Gold.Chemscore.DEClash.Weighted>
0.1659

> <Gold.Chemscore.DEInternal.Weighted>
1.7579

> <Gold.Chemscore.Rot.Weighted>
9.2625

> <Gold.Chemscore.Internal.Correction.Weighted>
   9.000000E+99

> <Gold.Protein.RotatedTorsions>
[ 6907 6896 6895 6894 ] final  -31.46 input  -60.11 | X-H torsion
[ 7974 7965 7964 7962 ] final   58.68 input  175.53 | X-H torsion
[ 8008 7997 7996 7995 ] final  -92.46 input   59.86 | X-H torsion
[ 10167 10162 10161 10158 ] final  -47.56 input  -65.29 | X-H torsion
[ 10718 10713 10712 10709 ] final   55.09 input   66.30 | X-H torsion
[ 10763 10752 10751 10750 ] final  107.21 input  -60.55 | X-H torsion
[ 11005 11000 10999 10996 ] final  -77.05 input  -57.11 | X-H torsion

> <Gold.Protein.ActiveResidues>
 VAL166  LYS551  ARG553  GLY616  TRP617  ASP618  TYR619  PRO620  LYS621  CYS622 
 ASP623  PHE694  ASN695  SER759  ASP760  ASP761  ALA762  ILE779  LEU786  VAL792 
 PHE793  MET794  SER795  GLU796  ALA797  LYS798  CYS799  TRP800  GLU811  SER814 

> <Gold.Protein.RotatedAtoms>
  151.0918  134.9920  159.8406 H   0  0  0  0  0  0  0  0  0  0  0  0  # atno 6907 bound_to 6896
  152.5429  134.2056  159.8739 H   0  0  0  0  0  0  0  0  0  0  0  0  # atno 6908 bound_to 6896
  151.2093  133.4521  159.2631 H   0  0  0  0  0  0  0  0  0  0  0  0  # atno 6909 bound_to 6896
  145.9155  139.3687  143.0510 H   0  0  0  0  0  0  0  0  0  0  0  0  # atno 7974 bound_to 7965
  154.7234  140.0509  157.0660 H   0  0  0  0  0  0  0  0  0  0  0  0  # atno 8008 bound_to 7997
  155.0397  140.3167  155.4709 H   0  0  0  0  0  0  0  0  0  0  0  0  # atno 8009 bound_to 7997
  156.2822  140.2135  156.5521 H   0  0  0  0  0  0  0  0  0  0  0  0  # atno 8010 bound_to 7997
  140.6769  143.2779  151.3945 H   0  0  0  0  0  0  0  0  0  0  0  0  # atno 10167 bound_to 10162
  157.5314  130.8633  149.8693 H   0  0  0  0  0  0  0  0  0  0  0  0  # atno 10718 bound_to 10713
  153.4036  135.3851  155.2004 H   0  0  0  0  0  0  0  0  0  0  0  0  # atno 10763 bound_to 10752
  154.8731  135.3777  154.4587 H   0  0  0  0  0  0  0  0  0  0  0  0  # atno 10764 bound_to 10752
  153.5088  135.7087  153.5854 H   0  0  0  0  0  0  0  0  0  0  0  0  # atno 10765 bound_to 10752
  141.1658  133.7007  156.7761 H   0  0  0  0  0  0  0  0  0  0  0  0  # atno 11005 bound_to 11000
  145.8617  140.9471  143.0696 LP  0  0  0  0  0  0  0  0  0  0  0  0  # atno 17320 bound_to 7965
  144.6747  140.0540  143.7478 LP  0  0  0  0  0  0  0  0  0  0  0  0  # atno 17321 bound_to 7965
  139.6068  144.1181  152.2257 LP  0  0  0  0  0  0  0  0  0  0  0  0  # atno 17342 bound_to 10162
  140.0583  144.5877  150.7283 LP  0  0  0  0  0  0  0  0  0  0  0  0  # atno 17343 bound_to 10162
  156.0425  130.3735  150.1399 LP  0  0  0  0  0  0  0  0  0  0  0  0  # atno 17370 bound_to 10713
  156.9583  130.9797  151.3484 LP  0  0  0  0  0  0  0  0  0  0  0  0  # atno 17371 bound_to 10713
  140.2428  134.8600  157.3590 LP  0  0  0  0  0  0  0  0  0  0  0  0  # atno 17394 bound_to 11000
  140.1779  134.4527  155.7790 LP  0  0  0  0  0  0  0  0  0  0  0  0  # atno 17395 bound_to 11000

$$$$
