AV-unprocessed.smi:308|AV-procd|sdf|2287|dock1
  -GOLD-   2262022183D 1   1.00000     0.00000
 Structure written by MMmdl.
 50 51  0  0  0  0  0  0  0  0  2 V2000
  145.7595  132.3432  150.2133 C   0  0  0  0  0  0  0  0  0  0  0  0
  145.5860  133.3662  151.3444 C   0  0  2  0  0  0  0  0  0  0  0  0
  145.3619  134.7870  150.8007 C   0  0  0  0  0  0  0  0  0  0  0  0
  145.2180  135.8058  151.9440 C   0  0  0  0  0  0  0  0  0  0  0  0
  146.3988  135.7760  152.8448 N   0  3  1  0  0  0  0  0  0  0  0  0
  146.3403  136.8379  153.8821 C   0  0  0  0  0  0  0  0  0  0  0  0
  147.5553  136.8322  154.8351 C   0  0  0  0  0  0  0  0  0  0  0  0
  148.0999  138.1658  155.0788 N   0  0  0  0  0  0  0  0  0  0  0  0
  148.9016  138.4936  156.1020 C   0  0  0  0  0  0  0  0  0  0  0  0
  149.2479  137.6920  156.9683 O   0  0  0  0  0  0  0  0  0  0  0  0
  149.2593  139.7877  156.0402 N   0  0  0  0  0  0  0  0  0  0  0  0
  150.0970  140.5361  156.9131 C   0  0  0  0  0  0  0  0  0  0  0  0
  150.8322  139.9985  157.9956 C   0  0  0  0  0  0  0  0  0  0  0  0
  151.6210  140.8601  158.7821 C   0  0  0  0  0  0  0  0  0  0  0  0
  151.6576  142.2434  158.4774 C   0  0  0  0  0  0  0  0  0  0  0  0
  152.4355  143.1468  159.2374 N   0  0  0  0  0  0  0  0  0  0  0  0
  153.0739  142.6971  160.4703 C   0  0  0  0  0  0  0  0  0  0  0  0
  152.5116  144.5505  158.8522 C   0  0  0  0  0  0  0  0  0  0  0  0
  150.9428  142.7533  157.4452 N   0  0  0  0  0  0  0  0  0  0  0  0
  150.1907  141.9244  156.6929 C   0  0  0  0  0  0  0  0  0  0  0  0
  146.6236  134.4192  153.4092 C   0  0  0  0  0  0  0  0  0  0  0  0
  146.7953  133.3746  152.2938 C   0  0  0  0  0  0  0  0  0  0  0  0
  146.6295  132.5741  149.5979 H   0  0  0  0  0  0  0  0  0  0  0  0
  144.8858  132.3264  149.5615 H   0  0  0  0  0  0  0  0  0  0  0  0
  145.8914  131.3370  150.6121 H   0  0  0  0  0  0  0  0  0  0  0  0
  144.7038  133.0782  151.9185 H   0  0  0  0  0  0  0  0  0  0  0  0
  146.1960  135.0751  150.1589 H   0  0  0  0  0  0  0  0  0  0  0  0
  144.4692  134.8113  150.1747 H   0  0  0  0  0  0  0  0  0  0  0  0
  145.1052  136.8039  151.5187 H   0  0  0  0  0  0  0  0  0  0  0  0
  144.3141  135.6012  152.5201 H   0  0  0  0  0  0  0  0  0  0  0  0
  146.3064  137.8094  153.3872 H   0  0  0  0  0  0  0  0  0  0  0  0
  145.4111  136.7576  154.4477 H   0  0  0  0  0  0  0  0  0  0  0  0
  147.2827  136.3668  155.7836 H   0  0  0  0  0  0  0  0  0  0  0  0
  148.3543  136.2170  154.4220 H   0  0  0  0  0  0  0  0  0  0  0  0
  147.8731  138.8826  154.4044 H   0  0  0  0  0  0  0  0  0  0  0  0
  148.9139  140.3003  155.2420 H   0  0  0  0  0  0  0  0  0  0  0  0
  150.8099  138.9514  158.2506 H   0  0  0  0  0  0  0  0  0  0  0  0
  152.1784  140.4420  159.6065 H   0  0  0  0  0  0  0  0  0  0  0  0
  152.3234  142.3974  161.2023 H   0  0  0  0  0  0  0  0  0  0  0  0
  153.6799  143.4865  160.9149 H   0  0  0  0  0  0  0  0  0  0  0  0
  153.7287  141.8469  160.2764 H   0  0  0  0  0  0  0  0  0  0  0  0
  153.0054  144.6562  157.8859 H   0  0  0  0  0  0  0  0  0  0  0  0
  153.0773  145.1316  159.5809 H   0  0  0  0  0  0  0  0  0  0  0  0
  151.5138  144.9853  158.7849 H   0  0  0  0  0  0  0  0  0  0  0  0
  149.6453  142.3891  155.8844 H   0  0  0  0  0  0  0  0  0  0  0  0
  147.5159  134.4151  154.0345 H   0  0  0  0  0  0  0  0  0  0  0  0
  145.7852  134.1470  154.0526 H   0  0  0  0  0  0  0  0  0  0  0  0
  146.9306  132.3863  152.7349 H   0  0  0  0  0  0  0  0  0  0  0  0
  147.7060  133.5889  151.7321 H   0  0  0  0  0  0  0  0  0  0  0  0
  147.1985  135.9907  152.2662 H   0  0  0  0  0  0  0  0  0  0  0  0
  1  2  1  0  0  0  0
  1 23  1  0  0  0  0
  1 24  1  0  0  0  0
  1 25  1  0  0  0  0
  2 22  1  0  0  0  0
  2  3  1  0  0  0  0
  2 26  1  0  0  0  0
  3  4  1  0  0  0  0
  3 27  1  0  0  0  0
  3 28  1  0  0  0  0
  4  5  1  0  0  0  0
  4 29  1  0  0  0  0
  4 30  1  0  0  0  0
  5  6  1  0  0  0  0
  5 21  1  0  0  0  0
  5 50  1  0  0  0  0
  6  7  1  0  0  0  0
  6 31  1  0  0  0  0
  6 32  1  0  0  0  0
  7  8  1  0  0  0  0
  7 33  1  0  0  0  0
  7 34  1  0  0  0  0
  8  9  1  0  0  0  0
  8 35  1  0  0  0  0
  9 10  2  0  0  0  0
  9 11  1  0  0  0  0
 11 12  1  0  0  0  0
 11 36  1  0  0  0  0
 12 20  1  0  0  0  0
 12 13  2  0  0  0  0
 13 14  1  0  0  0  0
 13 37  1  0  0  0  0
 14 15  2  0  0  0  0
 14 38  1  0  0  0  0
 15 16  1  0  0  0  0
 15 19  1  0  0  0  0
 16 17  1  0  0  0  0
 16 18  1  0  0  0  0
 17 39  1  0  0  0  0
 17 40  1  0  0  0  0
 17 41  1  0  0  0  0
 18 42  1  0  0  0  0
 18 43  1  0  0  0  0
 18 44  1  0  0  0  0
 19 20  2  0  0  0  0
 20 45  1  0  0  0  0
 21 22  1  0  0  0  0
 21 46  1  0  0  0  0
 21 47  1  0  0  0  0
 22 48  1  0  0  0  0
 22 49  1  0  0  0  0
M  CHG  1   5   1
M  END
> <s_m_source_file>
AV-unprocessed.smi

> <i_m_source_file_index>
308

> <i_lp_mmshare_version>
43012

> <i_f3d_flags>
0

> <s_epik_input>
W0NIM11bQ0hdMVtDSDJdW0NIMl1OKFtDSDJdW0NIMl0xKVtDSDJdW0NIMl1bTkhdQyg9TylbTkhdYzJbY0hdW2NIXWMoTihbQ0gzXSlbQ0gzXSluW2NIXTI=

> <s_epik_cmdline>
J2VwaWtfcHl0aG9uJywgJy1waCcsICc3LjAnLCAnLXRuJywgJzgnLCAnLW1hJywgJzIwMCcsICctbWV0YWxfYmluZGluZycsICctaW1hZScsICc8aW5maWxlLm1hZT4nLCAnLW9tYWUnLCAnPG91dGZpbGUubWFlPic=

> <r_lp_tautomer_probability>
1

> <r_epik_Ionization_Penalty>
0.536661

> <r_epik_Ionization_Penalty_Charging>
0.00139388

> <r_epik_Ionization_Penalty_Neutral>
0.535267

> <r_epik_State_Penalty>
0.543381

> <r_epik_Charging_Adjusted_Penalty>
0.544775

> <i_epik_Tot_Q>
1

> <i_epik_Tot_abs_Q>
1

> <r_epik_Metal_State_Penalty>
0.284523

> <b_epik_Metal_Only>
0

> <s_lp_Force_Field>
OPLS_2005

> <r_lp_Energy>
27.2838

> <b_lp_Chiralities_Consistent>
1

> <s_lp_Variant>
AV-unprocessed.smi:308-3

> <Gold.Version>
5.8.1

> <Gold.Id.Protein>
6NUR|6NUR_protein|mol2

> <Gold.PLP.Fitness>
44.4966

> <Gold.PLP.PLP>
-36.3666

> <Gold.PLP.part.hbond>
-1.0000

> <Gold.PLP.part.metal>
0.0000

> <Gold.PLP.part.buried>
-4.0999

> <Gold.PLP.part.nonpolar>
-31.3915

> <Gold.PLP.part.repulsive>
0.1402

> <Gold.PLP.ligand.clash>
0.0000

> <Gold.PLP.ligand.torsion>
0.4867

> <Gold.PLP.Chemscore.Hbond>
2.0000

> <Gold.PLP.Chemscore.CHOScore>
1.0000

> <Gold.PLP.Chemscore.Metal>
0.0000

> <Gold.Chemscore.Hbonds>
donor molecule, donor type, donor heavy atom, donor atom, acceptor molecule, acceptor atom, score
      L1  H     5    50       P1  7948  2.00
      L1  C    20    45       P1  8028  0.99

> <Gold.PLP.Chemscore.Internal.Correction>
0.1034

> <Gold.Rescore>
     Score         DG    S(hbond)    S(metal)    S(lipo)     H(rot)  DE(clash)    DE(int)     intcor
     13.82     -15.40       1.00        0.00      87.54       1.42       0.04       1.54       ----

> <Gold.Chemscore.Fitness>
13.8242

> <Gold.Chemscore.DG>
-15.3998

> <Gold.Chemscore.ZeroCoef>
-5.4800

> <Gold.Chemscore.Hbond>
0.9950

> <Gold.Chemscore.Metal>
0.0000

> <Gold.Chemscore.Lipo>
87.5389

> <Gold.Chemscore.Internal_Hbond>
0.0000

> <Gold.Chemscore.DEClash>
0.0365

> <Gold.Chemscore.DEInternal>
1.5391

> <Gold.Chemscore.Rot>
1.4241

> <Gold.Chemscore.Internal.Correction>
   9.000000E+99

> <Gold.Chemscore.Hbonds>
donor molecule, donor type, donor heavy atom, donor atom, acceptor molecule, acceptor atom, score
      L1  H     5    50       P1  7948  0.99

> <Gold.Chemscore.Hbond.Weighted>
-3.3234

> <Gold.Chemscore.Metal.Weighted>
-0.0000

> <Gold.Chemscore.Lipo.Weighted>
-10.2421

> <Gold.Chemscore.Internal_Hbond.Weighted>
0.0000

> <Gold.Chemscore.DEClash.Weighted>
0.0365

> <Gold.Chemscore.DEInternal.Weighted>
1.5391

> <Gold.Chemscore.Rot.Weighted>
3.6456

> <Gold.Chemscore.Internal.Correction.Weighted>
   9.000000E+99

> <Gold.Protein.RotatedTorsions>
[ 6907 6896 6895 6894 ] final  -93.16 input  -60.11 | X-H torsion
[ 7974 7965 7964 7962 ] final  -48.38 input  175.53 | X-H torsion
[ 8008 7997 7996 7995 ] final  -61.89 input   59.86 | X-H torsion
[ 10167 10162 10161 10158 ] final  130.70 input  -65.29 | X-H torsion
[ 10718 10713 10712 10709 ] final -134.88 input   66.30 | X-H torsion
[ 10763 10752 10751 10750 ] final -121.58 input  -60.55 | X-H torsion
[ 11005 11000 10999 10996 ] final   72.10 input  -57.11 | X-H torsion

> <Gold.Protein.ActiveResidues>
 VAL166  LYS551  ARG553  GLY616  TRP617  ASP618  TYR619  PRO620  LYS621  CYS622 
 ASP623  PHE694  ASN695  SER759  ASP760  ASP761  ALA762  ILE779  LEU786  VAL792 
 PHE793  MET794  SER795  GLU796  ALA797  LYS798  CYS799  TRP800  GLU811  SER814 

> <Gold.Protein.RotatedAtoms>
  150.6918  134.2010  159.4321 H   0  0  0  0  0  0  0  0  0  0  0  0  # atno 6907 bound_to 6896
  151.9976  134.9943  160.0573 H   0  0  0  0  0  0  0  0  0  0  0  0  # atno 6908 bound_to 6896
  152.1608  133.4546  159.4897 H   0  0  0  0  0  0  0  0  0  0  0  0  # atno 6909 bound_to 6896
  145.9518  140.7565  142.9501 H   0  0  0  0  0  0  0  0  0  0  0  0  # atno 7974 bound_to 7965
  154.4471  140.1008  156.6502 H   0  0  0  0  0  0  0  0  0  0  0  0  # atno 8008 bound_to 7997
  155.5406  140.3483  155.4427 H   0  0  0  0  0  0  0  0  0  0  0  0  # atno 8009 bound_to 7997
  156.0600  140.1324  156.9941 H   0  0  0  0  0  0  0  0  0  0  0  0  # atno 8010 bound_to 7997
  139.5417  144.6737  151.4602 H   0  0  0  0  0  0  0  0  0  0  0  0  # atno 10167 bound_to 10162
  156.2602  130.7205  151.1136 H   0  0  0  0  0  0  0  0  0  0  0  0  # atno 10718 bound_to 10713
  154.8671  135.4163  154.2643 H   0  0  0  0  0  0  0  0  0  0  0  0  # atno 10763 bound_to 10752
  153.3565  135.7001  153.6752 H   0  0  0  0  0  0  0  0  0  0  0  0  # atno 10764 bound_to 10752
  153.5670  135.3599  155.2795 H   0  0  0  0  0  0  0  0  0  0  0  0  # atno 10765 bound_to 10752
  139.9508  134.7230  156.0867 H   0  0  0  0  0  0  0  0  0  0  0  0  # atno 11005 bound_to 11000
  144.6797  140.2447  143.7339 LP  0  0  0  0  0  0  0  0  0  0  0  0  # atno 17320 bound_to 7965
  145.8161  139.2023  143.1965 LP  0  0  0  0  0  0  0  0  0  0  0  0  # atno 17321 bound_to 7965
  140.6650  143.8417  150.6931 LP  0  0  0  0  0  0  0  0  0  0  0  0  # atno 17342 bound_to 10162
  140.1823  143.4104  152.1924 LP  0  0  0  0  0  0  0  0  0  0  0  0  # atno 17343 bound_to 10162
  157.7248  131.0657  150.5981 LP  0  0  0  0  0  0  0  0  0  0  0  0  # atno 17370 bound_to 10713
  156.6069  130.4369  149.5875 LP  0  0  0  0  0  0  0  0  0  0  0  0  # atno 17371 bound_to 10713
  141.1170  133.6624  156.3120 LP  0  0  0  0  0  0  0  0  0  0  0  0  # atno 17394 bound_to 11000
  140.5723  134.5828  157.5460 LP  0  0  0  0  0  0  0  0  0  0  0  0  # atno 17395 bound_to 11000

$$$$
