#       Name:                AV-unprocessed.smi:1522
#       Creating user name   scv26
#       Creation time:       Fri Mar 27 06:27:45 2020


#       File generated by GOLD software.
#

@<TRIPOS>MOLECULE
AV-unprocessed.smi:1522
    39    40     1
SMALL
NO_CHARGES


@<TRIPOS>ATOM
      1 ****        -1.4245   1.6357  -0.1829 C.3            1 S1                 0.0000
      2 ****        -0.6874   0.3453  -0.6061 C.3            1 S1                 0.0000
      3 ****         0.8084   0.6375  -0.8960 C.3            1 S1                 0.0000
      4 ****         1.5095   1.2093   0.2499 N.am           1 S1                 0.0000
      5 ****         1.8946   0.5187   1.3326 C.2            1 S1                 0.0000
      6 ****         1.6976  -0.6888   1.4672 O.2            1 S1                 0.0000
      7 ****         2.5058   1.3129   2.2261 N.am           1 S1                 0.0000
      8 ****         3.0163   0.9592   3.5002 C.2            1 S1                 0.0000
      9 ****         3.5878   1.9193   4.2362 N.2            1 S1                 0.0000
     10 ****         4.0381   1.4387   5.4597 N.2            1 S1                 0.0000
     11 ****         3.7871   0.1334   5.5990 C.2            1 S1                 0.0000
     12 ****         2.9757  -0.6400   4.2491 S.3            1 S1                 0.0000
     13 ****        -1.3383  -0.2901  -1.7882 N.4            1 S1                 1.0000
     14 ****        -0.7444  -1.5829  -2.2159 C.3            1 S1                 0.0000
     15 ****        -1.8972  -2.4862  -2.6759 C.3            1 S1                 0.0000
     16 ****        -3.1148  -1.5712  -2.7283 C.3            1 S1                 0.0000
     17 ****        -2.7962  -0.5150  -1.6768 C.3            1 S1                 0.0000
     18 ****        -0.9468   2.1092   0.6749 H              1 S1                 0.0000
     19 ****        -2.4544   1.4404   0.1152 H              1 S1                 0.0000
     20 ****        -1.4422   2.3650  -0.9936 H              1 S1                 0.0000
     21 ****        -0.7547  -0.3631   0.2213 H              1 S1                 0.0000
     22 ****         1.3406  -0.2622  -1.2070 H              1 S1                 0.0000
     23 ****         0.8936   1.3404  -1.7254 H              1 S1                 0.0000
     24 ****         1.7120   2.1981   0.2161 H              1 S1                 0.0000
     25 ****         2.6068   2.2851   1.9744 H              1 S1                 0.0000
     26 ****         4.0814  -0.3774   6.5040 H              1 S1                 0.0000
     27 ****        -0.0345  -1.4028  -3.0238 H              1 S1                 0.0000
     28 ****        -0.2042  -2.0673  -1.4006 H              1 S1                 0.0000
     29 ****        -1.6975  -2.9659  -3.6345 H              1 S1                 0.0000
     30 ****        -2.0616  -3.2742  -1.9396 H              1 S1                 0.0000
     31 ****        -3.1877  -1.1049  -3.7118 H              1 S1                 0.0000
     32 ****        -4.0503  -2.0967  -2.5338 H              1 S1                 0.0000
     33 ****        -3.0356  -0.9009  -0.6843 H              1 S1                 0.0000
     34 ****        -3.3658   0.4013  -1.8352 H              1 S1                 0.0000
     35 ****        -1.2188   0.3418  -2.5671 H              1 S1                 0.0000
     36 ****         1.2296  -1.2023   0.7480 LP             1 S1                 0.0000
     37 ****         2.0057  -1.1564   2.2958 LP             1 S1                 0.0000
     38 ****         3.6800   2.8702   3.9408 LP             1 S1                 0.0000
     39 ****         4.4937   2.0000   6.1506 LP             1 S1                 0.0000
@<TRIPOS>BOND
    1    1    2 1     
    2    1   18 1     
    3    1   19 1     
    4    1   20 1     
    5    2    3 1     
    6    2   13 1     
    7    2   21 1     
    8    3    4 1     
    9    3   22 1     
   10    3   23 1     
   11    4    5 am    
   12    4   24 1     
   13    5    6 2     
   14    5    7 am    
   15    7    8 1     
   16    7   25 1     
   17    8   12 1     
   18    8    9 2     
   19    9   10 1     
   20   10   11 2     
   21   11   12 1     
   22   11   26 1     
   23   13   17 1     
   24   13   14 1     
   25   13   35 1     
   26   14   15 1     
   27   14   27 1     
   28   14   28 1     
   29   15   16 1     
   30   15   29 1     
   31   15   30 1     
   32   16   17 1     
   33   16   31 1     
   34   16   32 1     
   35   17   33 1     
   36   17   34 1     
   37    6   36 1     
   38    6   37 1     
   39    9   38 1     
   40   10   39 1     
@<TRIPOS>SUBSTRUCTURE
      1 S1             1
@<TRIPOS>SET
LONE_PAIRS      STATIC     ATOMS    <user>   **** ""
4 36 37 38 39
DONOR_HYDROGENS      STATIC     ATOMS    <user>   **** ""
3 24 25 35
ATOM$BLUE        STATIC     ATOMS    COLORGROUP SYSTEM
4 36 37 38 39
ATOM$RED        STATIC     ATOMS    COLORGROUP SYSTEM
3 24 25 35
