AV-unprocessed.smi:2260|AV-procd|sdf|9134|dock2
  -GOLD-   2272012343D 1   1.00000     0.00000
 Structure written by MMmdl.
 42 43  0  0  0  0  0  0  0  0  1 V2000
  152.4043  144.7934  158.2904 C   0  0  0  0  0  0  0  0  0  0  0  0
  152.5222  143.3982  158.8792 C   0  0  0  0  0  0  0  0  0  0  0  0
  153.3543  143.0338  159.8605 C   0  0  0  0  0  0  0  0  0  0  0  0
  153.1865  141.3505  160.2991 S   0  0  0  0  0  0  0  0  0  0  0  0
  151.8938  141.1466  159.0625 C   0  0  0  0  0  0  0  0  0  0  0  0
  151.3137  140.0787  158.8723 O   0  0  0  0  0  0  0  0  0  0  0  0
  151.7012  142.3640  158.4119 N   0  0  0  0  0  0  0  0  0  0  0  0
  150.7162  142.5191  157.3387 C   0  0  0  0  0  0  0  0  0  0  0  0
  149.2967  142.2270  157.8474 C   0  0  0  0  0  0  0  0  0  0  0  0
  148.3596  142.3315  156.7396 N   0  0  0  0  0  0  0  0  0  0  0  0
  148.1818  141.0702  156.0244 C   0  0  2  0  0  0  0  0  0  0  0  0
  149.4981  140.6622  155.3205 C   0  0  0  0  0  0  0  0  0  0  0  0
  149.3353  139.3515  154.5390 C   0  0  0  0  0  0  0  0  0  0  0  0
  148.1777  139.4416  153.5381 C   0  0  0  0  0  0  0  0  0  0  0  0
  146.8706  139.8452  154.2407 C   0  0  0  0  0  0  0  0  0  0  0  0
  146.9779  141.1729  155.0348 C   0  0  0  0  0  0  0  0  0  0  0  0
  145.6652  141.3494  155.8287 C   0  0  0  0  0  0  0  0  0  0  0  0
  147.1146  142.3613  154.0510 C   0  0  0  0  0  0  0  0  0  0  0  0
  152.8228  145.5301  158.9771 H   0  0  0  0  0  0  0  0  0  0  0  0
  151.3668  145.0724  158.1075 H   0  0  0  0  0  0  0  0  0  0  0  0
  152.9550  144.8551  157.3516 H   0  0  0  0  0  0  0  0  0  0  0  0
  154.0636  143.6708  160.3680 H   0  0  0  0  0  0  0  0  0  0  0  0
  150.7735  143.5191  156.9086 H   0  0  0  0  0  0  0  0  0  0  0  0
  150.9606  141.8414  156.5187 H   0  0  0  0  0  0  0  0  0  0  0  0
  149.2572  141.2299  158.2854 H   0  0  0  0  0  0  0  0  0  0  0  0
  149.0237  142.9386  158.6271 H   0  0  0  0  0  0  0  0  0  0  0  0
  148.6422  143.0599  156.0992 H   0  0  0  0  0  0  0  0  0  0  0  0
  147.9347  140.2973  156.7543 H   0  0  0  0  0  0  0  0  0  0  0  0
  149.8313  141.4515  154.6462 H   0  0  0  0  0  0  0  0  0  0  0  0
  150.2989  140.5302  156.0475 H   0  0  0  0  0  0  0  0  0  0  0  0
  150.2616  139.1112  154.0162 H   0  0  0  0  0  0  0  0  0  0  0  0
  149.1517  138.5328  155.2358 H   0  0  0  0  0  0  0  0  0  0  0  0
  148.4217  140.1563  152.7520 H   0  0  0  0  0  0  0  0  0  0  0  0
  148.0465  138.4797  153.0417 H   0  0  0  0  0  0  0  0  0  0  0  0
  146.0685  139.9101  153.5043 H   0  0  0  0  0  0  0  0  0  0  0  0
  146.5851  139.0397  154.9191 H   0  0  0  0  0  0  0  0  0  0  0  0
  144.7987  141.3500  155.1664 H   0  0  0  0  0  0  0  0  0  0  0  0
  145.6484  142.2897  156.3809 H   0  0  0  0  0  0  0  0  0  0  0  0
  145.5239  140.5449  156.5511 H   0  0  0  0  0  0  0  0  0  0  0  0
  146.2929  142.3722  153.3342 H   0  0  0  0  0  0  0  0  0  0  0  0
  148.0400  142.3251  153.4777 H   0  0  0  0  0  0  0  0  0  0  0  0
  147.0945  143.3203  154.5693 H   0  0  0  0  0  0  0  0  0  0  0  0
  1  2  1  0  0  0  0
  1 19  1  0  0  0  0
  1 20  1  0  0  0  0
  1 21  1  0  0  0  0
  2  7  1  0  0  0  0
  2  3  2  0  0  0  0
  3  4  1  0  0  0  0
  3 22  1  0  0  0  0
  4  5  1  0  0  0  0
  5  6  2  0  0  0  0
  5  7  1  0  0  0  0
  7  8  1  0  0  0  0
  8  9  1  0  0  0  0
  8 23  1  0  0  0  0
  8 24  1  0  0  0  0
  9 10  1  0  0  0  0
  9 25  1  0  0  0  0
  9 26  1  0  0  0  0
 10 11  1  0  0  0  0
 10 27  1  0  0  0  0
 11 16  1  0  0  0  0
 11 12  1  0  0  0  0
 11 28  1  0  0  0  0
 12 13  1  0  0  0  0
 12 29  1  0  0  0  0
 12 30  1  0  0  0  0
 13 14  1  0  0  0  0
 13 31  1  0  0  0  0
 13 32  1  0  0  0  0
 14 15  1  0  0  0  0
 14 33  1  0  0  0  0
 14 34  1  0  0  0  0
 15 16  1  0  0  0  0
 15 35  1  0  0  0  0
 15 36  1  0  0  0  0
 16 17  1  0  0  0  0
 16 18  1  0  0  0  0
 17 37  1  0  0  0  0
 17 38  1  0  0  0  0
 17 39  1  0  0  0  0
 18 40  1  0  0  0  0
 18 41  1  0  0  0  0
 18 42  1  0  0  0  0
M  END
> <s_m_source_file>
AV-unprocessed.smi

> <i_m_source_file_index>
2260

> <i_lp_mmshare_version>
43012

> <i_f3d_flags>
0

> <s_epik_input>
W0NIM11jMVtjSF1zYyg9TyluMVtDSDJdW0NIMl1bTkhdW0NAQEhdKEMyKFtDSDNdKVtDSDNdKVtDSDJdW0NIMl1bQ0gyXVtDSDJdMg==

> <s_epik_cmdline>
J2VwaWtfcHl0aG9uJywgJy1waCcsICc3LjAnLCAnLXRuJywgJzgnLCAnLW1hJywgJzIwMCcsICctbWV0YWxfYmluZGluZycsICctaW1hZScsICc8aW5maWxlLm1hZT4nLCAnLW9tYWUnLCAnPG91dGZpbGUubWFlPic=

> <r_epik_Ionization_Penalty>
2.34504

> <r_epik_Ionization_Penalty_Charging>
4.7617e-06

> <r_epik_Ionization_Penalty_Neutral>
2.34504

> <r_epik_State_Penalty>
2.49894

> <r_epik_Charging_Adjusted_Penalty>
2.49895

> <i_epik_Tot_Q>
0

> <i_epik_Tot_abs_Q>
0

> <r_epik_Metal_State_Penalty>
2.49894

> <b_epik_Metal_Only>
0

> <s_lp_Force_Field>
OPLS_2005

> <r_lp_Energy>
25.4326

> <b_lp_Chiralities_Consistent>
1

> <s_lp_Variant>
AV-unprocessed.smi:2260-3

> <Gold.Version>
5.8.1

> <Gold.Id.Protein>
6NUR|6NUR_protein|mol2

> <Gold.PLP.Fitness>
39.4746

> <Gold.PLP.PLP>
-36.8887

> <Gold.PLP.part.hbond>
-1.0000

> <Gold.PLP.part.metal>
0.0000

> <Gold.PLP.part.buried>
-2.8367

> <Gold.PLP.part.nonpolar>
-34.2039

> <Gold.PLP.part.repulsive>
0.0000

> <Gold.PLP.ligand.clash>
0.0000

> <Gold.PLP.ligand.torsion>
0.2193

> <Gold.PLP.Chemscore.Hbond>
1.0000

> <Gold.PLP.Chemscore.CHOScore>
0.0000

> <Gold.PLP.Chemscore.Metal>
0.0000

> <Gold.Chemscore.Hbonds>
donor molecule, donor type, donor heavy atom, donor atom, acceptor molecule, acceptor atom, score
      L1  H    10    27       P1  8028  1.00

> <Gold.PLP.Chemscore.Internal.Correction>
0.0244

> <Gold.Rescore>
     Score         DG    S(hbond)    S(metal)    S(lipo)     H(rot)  DE(clash)    DE(int)     intcor
     15.40     -17.46       0.97        0.00     105.82       1.43       1.75       0.31       ----

> <Gold.Chemscore.Fitness>
15.3957

> <Gold.Chemscore.DG>
-17.4587

> <Gold.Chemscore.ZeroCoef>
-5.4800

> <Gold.Chemscore.Hbond>
0.9743

> <Gold.Chemscore.Metal>
0.0000

> <Gold.Chemscore.Lipo>
105.8233

> <Gold.Chemscore.Internal_Hbond>
0.0000

> <Gold.Chemscore.DEClash>
1.7522

> <Gold.Chemscore.DEInternal>
0.3109

> <Gold.Chemscore.Rot>
1.4285

> <Gold.Chemscore.Internal.Correction>
   9.000000E+99

> <Gold.Chemscore.Hbonds>
donor molecule, donor type, donor heavy atom, donor atom, acceptor molecule, acceptor atom, score
      L1  H    10    27       P1  8028  0.95

> <Gold.Chemscore.Hbond.Weighted>
-3.2542

> <Gold.Chemscore.Metal.Weighted>
-0.0000

> <Gold.Chemscore.Lipo.Weighted>
-12.3813

> <Gold.Chemscore.Internal_Hbond.Weighted>
0.0000

> <Gold.Chemscore.DEClash.Weighted>
1.7522

> <Gold.Chemscore.DEInternal.Weighted>
0.3109

> <Gold.Chemscore.Rot.Weighted>
3.6569

> <Gold.Chemscore.Internal.Correction.Weighted>
   9.000000E+99

> <Gold.Protein.RotatedTorsions>
[ 6907 6896 6895 6894 ] final   31.49 input  -60.11 | X-H torsion
[ 7974 7965 7964 7962 ] final -106.23 input  175.53 | X-H torsion
[ 8008 7997 7996 7995 ] final -168.05 input   59.86 | X-H torsion
[ 10167 10162 10161 10158 ] final -123.43 input  -65.29 | X-H torsion
[ 10718 10713 10712 10709 ] final  153.22 input   66.30 | X-H torsion
[ 10763 10752 10751 10750 ] final   62.13 input  -60.55 | X-H torsion
[ 11005 11000 10999 10996 ] final -151.05 input  -57.11 | X-H torsion

> <Gold.Protein.ActiveResidues>
 VAL166  LYS551  ARG553  GLY616  TRP617  ASP618  TYR619  PRO620  LYS621  CYS622 
 ASP623  PHE694  ASN695  SER759  ASP760  ASP761  ALA762  ILE779  LEU786  VAL792 
 PHE793  MET794  SER795  GLU796  ALA797  LYS798  CYS799  TRP800  GLU811  SER814 

> <Gold.Protein.RotatedAtoms>
  152.0611  134.9594  160.0574 H   0  0  0  0  0  0  0  0  0  0  0  0  # atno 6907 bound_to 6896
  152.0957  133.4218  159.4572 H   0  0  0  0  0  0  0  0  0  0  0  0  # atno 6908 bound_to 6896
  150.6838  134.2739  159.4643 H   0  0  0  0  0  0  0  0  0  0  0  0  # atno 6909 bound_to 6896
  145.2204  140.9132  143.3262 H   0  0  0  0  0  0  0  0  0  0  0  0  # atno 7974 bound_to 7965
  155.8861  140.1017  157.1451 H   0  0  0  0  0  0  0  0  0  0  0  0  # atno 8008 bound_to 7997
  154.4010  140.1319  156.4321 H   0  0  0  0  0  0  0  0  0  0  0  0  # atno 8009 bound_to 7997
  155.7587  140.3463  155.5189 H   0  0  0  0  0  0  0  0  0  0  0  0  # atno 8010 bound_to 7997
  140.0036  143.5515  152.2293 H   0  0  0  0  0  0  0  0  0  0  0  0  # atno 10167 bound_to 10162
  157.2477  131.0772  151.1751 H   0  0  0  0  0  0  0  0  0  0  0  0  # atno 10718 bound_to 10713
  152.9972  135.5476  154.6144 H   0  0  0  0  0  0  0  0  0  0  0  0  # atno 10763 bound_to 10752
  154.5457  135.2823  155.1057 H   0  0  0  0  0  0  0  0  0  0  0  0  # atno 10764 bound_to 10752
  154.2317  135.6432  153.5230 H   0  0  0  0  0  0  0  0  0  0  0  0  # atno 10765 bound_to 10752
  140.7337  134.3592  157.5161 H   0  0  0  0  0  0  0  0  0  0  0  0  # atno 11005 bound_to 11000
  144.9771  139.3821  143.6280 LP  0  0  0  0  0  0  0  0  0  0  0  0  # atno 17320 bound_to 7965
  146.3377  139.8894  142.8811 LP  0  0  0  0  0  0  0  0  0  0  0  0  # atno 17321 bound_to 7965
  139.6254  144.7636  151.2649 LP  0  0  0  0  0  0  0  0  0  0  0  0  # atno 17342 bound_to 10162
  140.7409  143.6573  150.8195 LP  0  0  0  0  0  0  0  0  0  0  0  0  # atno 17343 bound_to 10162
  157.3312  130.6986  149.6325 LP  0  0  0  0  0  0  0  0  0  0  0  0  # atno 17370 bound_to 10713
  155.9667  130.4307  150.4888 LP  0  0  0  0  0  0  0  0  0  0  0  0  # atno 17371 bound_to 10713
  139.8821  134.9035  156.2857 LP  0  0  0  0  0  0  0  0  0  0  0  0  # atno 17394 bound_to 11000
  140.9898  133.7215  156.0797 LP  0  0  0  0  0  0  0  0  0  0  0  0  # atno 17395 bound_to 11000

$$$$
