AV-unprocessed.smi:39|AV-procd|sdf|356|dock9
  -GOLD-   2262016193D 1   1.00000     0.00000
 Structure written by MMmdl.
 32 33  0  0  0  0  0  0  0  0  3 V2000
  149.7925  136.2832  158.0446 C   0  0  0  0  0  0  0  0  0  0  0  0
  150.6252  137.2200  157.1848 C   0  0  0  0  0  0  0  0  0  0  0  0
  150.1924  138.4560  156.8263 C   0  0  0  0  0  0  0  0  0  0  0  0
  150.9323  139.3386  156.0468 N   0  0  0  0  0  0  0  0  0  0  0  0
  150.4128  140.7058  155.6421 C   0  0  2  0  0  0  0  0  0  0  0  0
  149.1252  141.0682  156.4015 C   0  0  0  0  0  0  0  0  0  0  0  0
  148.2895  141.7056  155.3114 C   0  0  2  0  0  0  0  0  0  0  0  0
  146.8577  141.7154  155.6240 N   0  0  0  0  0  0  0  0  0  0  0  0
  146.5198  142.3387  156.6391 N   0  3  0  0  0  0  0  0  0  0  0  0
  146.2172  143.0175  157.5008 N   0  5  0  0  0  0  0  0  0  0  0  0
  148.6811  140.8741  154.0802 C   0  0  2  0  0  0  0  0  0  0  0  0
  148.0003  139.4902  153.9703 C   0  0  0  0  0  0  0  0  0  0  0  0
  148.8060  138.6208  153.2044 O   0  0  0  0  0  0  0  0  0  0  0  0
  150.0858  140.7105  154.2787 O   0  0  0  0  0  0  0  0  0  0  0  0
  152.1829  138.9227  155.5432 C   0  0  0  0  0  0  0  0  0  0  0  0
  152.8702  139.6249  154.8027 O   0  0  0  0  0  0  0  0  0  0  0  0
  152.6301  137.6565  155.9150 N   0  0  0  0  0  0  0  0  0  0  0  0
  151.9362  136.7550  156.7247 C   0  0  0  0  0  0  0  0  0  0  0  0
  152.4396  135.6648  156.9903 O   0  0  0  0  0  0  0  0  0  0  0  0
  151.2404  141.3954  155.8195 H   0  0  0  0  0  0  0  0  0  0  0  0
  148.6513  142.7262  155.1686 H   0  0  0  0  0  0  0  0  0  0  0  0
  148.4960  141.4481  153.1711 H   0  0  0  0  0  0  0  0  0  0  0  0
  153.5297  137.3624  155.5635 H   0  0  0  0  0  0  0  0  0  0  0  0
  148.8423  136.7338  158.3330 H   0  0  0  0  0  0  0  0  0  0  0  0
  150.3295  136.0256  158.9581 H   0  0  0  0  0  0  0  0  0  0  0  0
  149.5750  135.3621  157.5029 H   0  0  0  0  0  0  0  0  0  0  0  0
  149.2147  138.7505  157.1755 H   0  0  0  0  0  0  0  0  0  0  0  0
  148.6465  140.1638  156.7813 H   0  0  0  0  0  0  0  0  0  0  0  0
  149.3335  141.7386  157.2358 H   0  0  0  0  0  0  0  0  0  0  0  0
  147.7904  139.0518  154.9451 H   0  0  0  0  0  0  0  0  0  0  0  0
  147.0474  139.5683  153.4481 H   0  0  0  0  0  0  0  0  0  0  0  0
  149.0125  139.0455  152.3858 H   0  0  0  0  0  0  0  0  0  0  0  0
  1  2  1  0  0  0  0
  1 24  1  0  0  0  0
  1 25  1  0  0  0  0
  1 26  1  0  0  0  0
  2 18  1  0  0  0  0
  2  3  2  0  0  0  0
  3  4  1  0  0  0  0
  3 27  1  0  0  0  0
  4  5  1  0  0  0  0
  4 15  1  0  0  0  0
  5 20  1  0  0  0  0
  5 14  1  0  0  0  0
  5  6  1  0  0  0  0
  6  7  1  0  0  0  0
  6 28  1  0  0  0  0
  6 29  1  0  0  0  0
  7 21  1  0  0  0  0
  7  8  1  0  0  0  0
  7 11  1  0  0  0  0
  8  9  2  0  0  0  0
  9 10  2  0  0  0  0
 11 22  1  0  0  0  0
 11 12  1  0  0  0  0
 11 14  1  0  0  0  0
 12 13  1  0  0  0  0
 12 30  1  0  0  0  0
 12 31  1  0  0  0  0
 13 32  1  0  0  0  0
 15 16  2  0  0  0  0
 15 17  1  0  0  0  0
 17 23  1  0  0  0  0
 17 18  1  0  0  0  0
 18 19  2  0  0  0  0
M  CHG  1   9   1
M  CHG  1  10  -1
M  END
> <s_m_source_file>
AV-unprocessed.smi

> <i_m_source_file_index>
39

> <i_lp_mmshare_version>
43012

> <i_f3d_flags>
0

> <s_epik_input>
Tz1jMVtuSF1jKD1PKW4oW2NIXWMxW0NIM10pW0NASF0yW0NIMl1bQ0BIXShOPVtOK109W04tXSlbQ0BIXShPMilbQ0gyXVtPSF0=

> <s_epik_cmdline>
J2VwaWtfcHl0aG9uJywgJy1waCcsICc3LjAnLCAnLXRuJywgJzgnLCAnLW1hJywgJzIwMCcsICctbWV0YWxfYmluZGluZycsICctaW1hZScsICc8aW5maWxlLm1hZT4nLCAnLW9tYWUnLCAnPG91dGZpbGUubWFlPic=

> <r_lp_tautomer_probability>
0.999537

> <r_epik_Ionization_Penalty>
0.00127512

> <r_epik_Ionization_Penalty_Charging>
0.00127507

> <r_epik_Ionization_Penalty_Neutral>
5.43433e-08

> <r_epik_State_Penalty>
0.000844892

> <r_epik_Charging_Adjusted_Penalty>
0.00211996

> <i_epik_Tot_Q>
0

> <i_epik_Tot_abs_Q>
2

> <r_epik_Metal_State_Penalty>
0.680636

> <b_epik_Metal_Only>
0

> <s_epik_Chemistry_Notes>
This compound contains an acetal/aminal-like group ( X-CH(R)-Y where X, Y are N, S, or O) that may be acid/base labile, releasing an aldehyde.

> <s_lp_Force_Field>
OPLS_2005

> <r_lp_Energy>
27.6629

> <b_lp_Chiralities_Consistent>
1

> <s_lp_Variant>
AV-unprocessed.smi:39-6

> <Gold.Version>
5.8.1

> <Gold.Id.Protein>
6NUR|6NUR_protein|mol2

> <Gold.PLP.Fitness>
32.7405

> <Gold.PLP.PLP>
-22.3171

> <Gold.PLP.part.hbond>
-6.0000

> <Gold.PLP.part.metal>
0.0000

> <Gold.PLP.part.buried>
-2.5786

> <Gold.PLP.part.nonpolar>
-15.5014

> <Gold.PLP.part.repulsive>
0.7316

> <Gold.PLP.ligand.clash>
0.0000

> <Gold.PLP.ligand.torsion>
0.4094

> <Gold.PLP.Chemscore.Hbond>
3.7360

> <Gold.PLP.Chemscore.CHOScore>
0.0000

> <Gold.PLP.Chemscore.Metal>
0.0000

> <Gold.Chemscore.Hbonds>
donor molecule, donor type, donor heavy atom, donor atom, acceptor molecule, acceptor atom, score
      L1  H    13    32       P1  7957  1.00
      P1  H  7989  7998       L1    14  0.72
      P1  H  7997  8009       L1    16  1.00
      P1  H 10752 10765       L1    19  1.00

> <Gold.PLP.Chemscore.Internal.Correction>
0.0344

> <Gold.Rescore>
     Score         DG    S(hbond)    S(metal)    S(lipo)     H(rot)  DE(clash)    DE(int)     intcor
     12.01     -12.65       3.24        0.00      28.99       2.75       0.07       0.57       ----

> <Gold.Chemscore.Fitness>
12.0135

> <Gold.Chemscore.DG>
-12.6481

> <Gold.Chemscore.ZeroCoef>
-5.4800

> <Gold.Chemscore.Hbond>
3.2404

> <Gold.Chemscore.Metal>
0.0000

> <Gold.Chemscore.Lipo>
28.9859

> <Gold.Chemscore.Internal_Hbond>
0.0000

> <Gold.Chemscore.DEClash>
0.0659

> <Gold.Chemscore.DEInternal>
0.5687

> <Gold.Chemscore.Rot>
2.7524

> <Gold.Chemscore.Internal.Correction>
   9.000000E+99

> <Gold.Chemscore.Hbonds>
donor molecule, donor type, donor heavy atom, donor atom, acceptor molecule, acceptor atom, score
      L1  H    13    32       P1  7957  0.99
      P1  H  7989  7998       L1    14  0.32
      P1  H  7997  8009       L1    16  0.58
      P1  H 10752 10765       L1    19  0.28

> <Gold.Chemscore.Hbond.Weighted>
-10.8229

> <Gold.Chemscore.Metal.Weighted>
-0.0000

> <Gold.Chemscore.Lipo.Weighted>
-3.3914

> <Gold.Chemscore.Internal_Hbond.Weighted>
0.0000

> <Gold.Chemscore.DEClash.Weighted>
0.0659

> <Gold.Chemscore.DEInternal.Weighted>
0.5687

> <Gold.Chemscore.Rot.Weighted>
7.0461

> <Gold.Chemscore.Internal.Correction.Weighted>
   9.000000E+99

> <Gold.Protein.RotatedTorsions>
[ 6907 6896 6895 6894 ] final  102.09 input  -60.11 | X-H torsion
[ 7974 7965 7964 7962 ] final   69.36 input  175.53 | X-H torsion
[ 8008 7997 7996 7995 ] final -134.04 input   59.86 | X-H torsion
[ 10167 10162 10161 10158 ] final   80.59 input  -65.29 | X-H torsion
[ 10718 10713 10712 10709 ] final  127.39 input   66.30 | X-H torsion
[ 10763 10752 10751 10750 ] final -117.58 input  -60.55 | X-H torsion
[ 11005 11000 10999 10996 ] final  165.41 input  -57.11 | X-H torsion

> <Gold.Protein.ActiveResidues>
 VAL166  LYS551  ARG553  GLY616  TRP617  ASP618  TYR619  PRO620  LYS621  CYS622 
 ASP623  PHE694  ASN695  SER759  ASP760  ASP761  ALA762  ILE779  LEU786  VAL792 
 PHE793  MET794  SER795  GLU796  ALA797  LYS798  CYS799  TRP800  GLU811  SER814 

> <Gold.Protein.RotatedAtoms>
  152.5333  134.0027  159.7901 H   0  0  0  0  0  0  0  0  0  0  0  0  # atno 6907 bound_to 6896
  151.0243  133.5840  159.2675 H   0  0  0  0  0  0  0  0  0  0  0  0  # atno 6908 bound_to 6896
  151.2868  135.0737  159.9243 H   0  0  0  0  0  0  0  0  0  0  0  0  # atno 6909 bound_to 6896
  145.7913  139.2935  143.1208 H   0  0  0  0  0  0  0  0  0  0  0  0  # atno 7974 bound_to 7965
  155.3555  140.0480  157.3046 H   0  0  0  0  0  0  0  0  0  0  0  0  # atno 8008 bound_to 7997
  154.5205  140.2223  155.8949 H   0  0  0  0  0  0  0  0  0  0  0  0  # atno 8009 bound_to 7997
  156.1684  140.3101  155.8935 H   0  0  0  0  0  0  0  0  0  0  0  0  # atno 8010 bound_to 7997
  139.9482  144.6044  150.8186 H   0  0  0  0  0  0  0  0  0  0  0  0  # atno 10167 bound_to 10162
  157.5337  131.1098  150.8970 H   0  0  0  0  0  0  0  0  0  0  0  0  # atno 10718 bound_to 10713
  154.8559  135.4304  154.2002 H   0  0  0  0  0  0  0  0  0  0  0  0  # atno 10763 bound_to 10752
  153.3050  135.6971  153.7173 H   0  0  0  0  0  0  0  0  0  0  0  0  # atno 10764 bound_to 10752
  153.6288  135.3488  155.3009 H   0  0  0  0  0  0  0  0  0  0  0  0  # atno 10765 bound_to 10752
  140.2559  134.7941  157.3545 H   0  0  0  0  0  0  0  0  0  0  0  0  # atno 11005 bound_to 11000
  145.9974  140.8550  143.0036 LP  0  0  0  0  0  0  0  0  0  0  0  0  # atno 17320 bound_to 7965
  144.6781  140.2302  143.7356 LP  0  0  0  0  0  0  0  0  0  0  0  0  # atno 17321 bound_to 7965
  140.7591  143.3121  151.2820 LP  0  0  0  0  0  0  0  0  0  0  0  0  # atno 17342 bound_to 10162
  139.6650  144.0122  152.2717 LP  0  0  0  0  0  0  0  0  0  0  0  0  # atno 17343 bound_to 10162
  156.9543  130.5431  149.5283 LP  0  0  0  0  0  0  0  0  0  0  0  0  # atno 17370 bound_to 10713
  156.0442  130.5520  150.8841 LP  0  0  0  0  0  0  0  0  0  0  0  0  # atno 17371 bound_to 10713
  140.1512  134.4847  155.7960 LP  0  0  0  0  0  0  0  0  0  0  0  0  # atno 17394 bound_to 11000
  141.2196  133.6863  156.7382 LP  0  0  0  0  0  0  0  0  0  0  0  0  # atno 17395 bound_to 11000

$$$$
