AV-unprocessed.smi:896|AV-procd|sdf|4077|dock2
  -GOLD-   22720 1563D 1   1.00000     0.00000
 Structure written by MMmdl.
 49 50  0  0  0  0  0  0  0  0  2 V2000
  150.2717  142.9428  157.5748 C   0  0  0  0  0  0  0  0  0  0  0  0
  150.9848  142.2154  156.5807 O   0  0  0  0  0  0  0  0  0  0  0  0
  150.3026  141.2647  155.8496 C   0  0  0  0  0  0  0  0  0  0  0  0
  148.9256  141.4487  155.6220 C   0  0  0  0  0  0  0  0  0  0  0  0
  148.2256  140.4854  154.8718 C   0  0  0  0  0  0  0  0  0  0  0  0
  148.9260  139.3655  154.3628 C   0  0  0  0  0  0  0  0  0  0  0  0
  148.2991  138.3320  153.6114 N   0  0  0  0  0  0  0  0  0  0  0  0
  146.9926  138.1801  153.3356 C   0  0  0  0  0  0  0  0  0  0  0  0
  146.0957  138.9428  153.6959 O   0  0  0  0  0  0  0  0  0  0  0  0
  146.7771  137.0889  152.5870 N   0  0  0  0  0  0  0  0  0  0  0  0
  145.4713  136.6494  152.1088 C   0  0  0  0  0  0  0  0  0  0  0  0
  145.6047  135.5855  151.0034 C   0  0  0  0  0  0  0  0  0  0  0  0
  145.5403  134.1339  151.5192 C   0  0  2  0  0  0  0  0  0  0  0  0
  146.8216  133.7678  152.2916 C   0  0  0  0  0  0  0  0  0  0  0  0
  146.7845  132.3148  152.7927 C   0  0  0  0  0  0  0  0  0  0  0  0
  146.5772  131.3708  151.6676 N   0  3  1  0  0  0  0  0  0  0  0  0
  146.6572  129.9578  152.0958 C   0  0  0  0  0  0  0  0  0  0  0  0
  145.3299  131.6662  150.9211 C   0  0  0  0  0  0  0  0  0  0  0  0
  145.3320  133.1084  150.3860 C   0  0  0  0  0  0  0  0  0  0  0  0
  150.3056  139.2610  154.6641 C   0  0  0  0  0  0  0  0  0  0  0  0
  151.1346  138.0825  154.1849 C   0  0  0  0  0  0  0  0  0  0  0  0
  150.9786  140.1868  155.3823 N   0  0  0  0  0  0  0  0  0  0  0  0
  150.9468  143.6485  158.0583 H   0  0  0  0  0  0  0  0  0  0  0  0
  149.8776  142.2804  158.3470 H   0  0  0  0  0  0  0  0  0  0  0  0
  149.4511  143.5151  157.1397 H   0  0  0  0  0  0  0  0  0  0  0  0
  148.4134  142.3129  156.0188 H   0  0  0  0  0  0  0  0  0  0  0  0
  147.1660  140.6159  154.7144 H   0  0  0  0  0  0  0  0  0  0  0  0
  148.9264  137.6763  153.1695 H   0  0  0  0  0  0  0  0  0  0  0  0
  147.5718  136.5209  152.3316 H   0  0  0  0  0  0  0  0  0  0  0  0
  144.9217  136.2385  152.9561 H   0  0  0  0  0  0  0  0  0  0  0  0
  144.9034  137.5127  151.7605 H   0  0  0  0  0  0  0  0  0  0  0  0
  144.8350  135.7356  150.2449 H   0  0  0  0  0  0  0  0  0  0  0  0
  146.5586  135.7385  150.4961 H   0  0  0  0  0  0  0  0  0  0  0  0
  144.7004  134.0572  152.2115 H   0  0  0  0  0  0  0  0  0  0  0  0
  147.6933  133.9092  151.6507 H   0  0  0  0  0  0  0  0  0  0  0  0
  146.9515  134.4403  153.1403 H   0  0  0  0  0  0  0  0  0  0  0  0
  147.7224  132.0811  153.2980 H   0  0  0  0  0  0  0  0  0  0  0  0
  145.9878  132.1901  153.5279 H   0  0  0  0  0  0  0  0  0  0  0  0
  145.8616  129.7174  152.8023 H   0  0  0  0  0  0  0  0  0  0  0  0
  147.6146  129.7545  152.5766 H   0  0  0  0  0  0  0  0  0  0  0  0
  146.5674  129.2899  151.2385 H   0  0  0  0  0  0  0  0  0  0  0  0
  145.2305  130.9703  150.0871 H   0  0  0  0  0  0  0  0  0  0  0  0
  144.4676  131.5077  151.5710 H   0  0  0  0  0  0  0  0  0  0  0  0
  144.3901  133.2933  149.8701 H   0  0  0  0  0  0  0  0  0  0  0  0
  146.1190  133.2182  149.6384 H   0  0  0  0  0  0  0  0  0  0  0  0
  151.0917  138.0038  153.0982 H   0  0  0  0  0  0  0  0  0  0  0  0
  150.7573  137.1542  154.6147 H   0  0  0  0  0  0  0  0  0  0  0  0
  152.1818  138.1853  154.4727 H   0  0  0  0  0  0  0  0  0  0  0  0
  147.3406  131.5187  151.0229 H   0  0  0  0  0  0  0  0  0  0  0  0
  1  2  1  0  0  0  0
  1 23  1  0  0  0  0
  1 24  1  0  0  0  0
  1 25  1  0  0  0  0
  2  3  1  0  0  0  0
  3 22  1  0  0  0  0
  3  4  2  0  0  0  0
  4  5  1  0  0  0  0
  4 26  1  0  0  0  0
  5  6  2  0  0  0  0
  5 27  1  0  0  0  0
  6  7  1  0  0  0  0
  6 20  1  0  0  0  0
  7  8  1  0  0  0  0
  7 28  1  0  0  0  0
  8  9  2  0  0  0  0
  8 10  1  0  0  0  0
 10 11  1  0  0  0  0
 10 29  1  0  0  0  0
 11 12  1  0  0  0  0
 11 30  1  0  0  0  0
 11 31  1  0  0  0  0
 12 13  1  0  0  0  0
 12 32  1  0  0  0  0
 12 33  1  0  0  0  0
 13 19  1  0  0  0  0
 13 14  1  0  0  0  0
 13 34  1  0  0  0  0
 14 15  1  0  0  0  0
 14 35  1  0  0  0  0
 14 36  1  0  0  0  0
 15 16  1  0  0  0  0
 15 37  1  0  0  0  0
 15 38  1  0  0  0  0
 16 17  1  0  0  0  0
 16 18  1  0  0  0  0
 16 49  1  0  0  0  0
 17 39  1  0  0  0  0
 17 40  1  0  0  0  0
 17 41  1  0  0  0  0
 18 19  1  0  0  0  0
 18 42  1  0  0  0  0
 18 43  1  0  0  0  0
 19 44  1  0  0  0  0
 19 45  1  0  0  0  0
 20 21  1  0  0  0  0
 20 22  2  0  0  0  0
 21 46  1  0  0  0  0
 21 47  1  0  0  0  0
 21 48  1  0  0  0  0
M  CHG  1  16   1
M  END
> <s_m_source_file>
AV-unprocessed.smi

> <i_m_source_file_index>
896

> <i_lp_mmshare_version>
43012

> <i_f3d_flags>
0

> <s_epik_input>
W0NIM11PYzFbY0hdW2NIXWMoYyhuMSlbQ0gzXSlbTkhdQyg9TylbTkhdW0NIMl1bQ0gyXVtDSF0yW0NIMl1bQ0gyXU4oW0NIM10pW0NIMl1bQ0gyXTI=

> <s_epik_cmdline>
J2VwaWtfcHl0aG9uJywgJy1waCcsICc3LjAnLCAnLXRuJywgJzgnLCAnLW1hJywgJzIwMCcsICctbWV0YWxfYmluZGluZycsICctaW1hZScsICc8aW5maWxlLm1hZT4nLCAnLW9tYWUnLCAnPG91dGZpbGUubWFlPic=

> <r_lp_tautomer_probability>
1

> <r_epik_Ionization_Penalty>
0.000968128

> <r_epik_Ionization_Penalty_Charging>
0.000718523

> <r_epik_Ionization_Penalty_Neutral>
0.000249604

> <r_epik_State_Penalty>
0.00045807

> <r_epik_Charging_Adjusted_Penalty>
0.00117659

> <i_epik_Tot_Q>
1

> <i_epik_Tot_abs_Q>
1

> <r_epik_Metal_State_Penalty>
-0

> <b_epik_Metal_Only>
0

> <s_lp_Force_Field>
OPLS_2005

> <r_lp_Energy>
19.0488

> <b_lp_Chiralities_Consistent>
1

> <s_lp_Variant>
AV-unprocessed.smi:896-1

> <Gold.Version>
5.8.1

> <Gold.Id.Protein>
6NUR|6NUR_protein|mol2

> <Gold.PLP.Fitness>
45.2746

> <Gold.PLP.PLP>
-37.1429

> <Gold.PLP.part.hbond>
-4.0566

> <Gold.PLP.part.metal>
0.0000

> <Gold.PLP.part.buried>
-4.2007

> <Gold.PLP.part.nonpolar>
-30.5900

> <Gold.PLP.part.repulsive>
0.3598

> <Gold.PLP.ligand.clash>
0.0000

> <Gold.PLP.ligand.torsion>
0.7797

> <Gold.PLP.Chemscore.Hbond>
3.1962

> <Gold.PLP.Chemscore.CHOScore>
0.0000

> <Gold.PLP.Chemscore.Metal>
0.0000

> <Gold.Chemscore.Hbonds>
donor molecule, donor type, donor heavy atom, donor atom, acceptor molecule, acceptor atom, score
      L1  H     7    28       P1  7948  0.85
      L1  H    10    29       P1  7948  0.86
      L1  H    16    49       P1 10747  0.94
      P1  H  7989  7998       L1    22  0.20

> <Gold.PLP.Chemscore.Internal.Correction>
0.1026

> <Gold.Rescore>
     Score         DG    S(hbond)    S(metal)    S(lipo)     H(rot)  DE(clash)    DE(int)     intcor
     18.57     -21.09       2.54        0.00      96.96       1.65       0.55       1.97       ----

> <Gold.Chemscore.Fitness>
18.5727

> <Gold.Chemscore.DG>
-21.0885

> <Gold.Chemscore.ZeroCoef>
-5.4800

> <Gold.Chemscore.Hbond>
2.5429

> <Gold.Chemscore.Metal>
0.0000

> <Gold.Chemscore.Lipo>
96.9639

> <Gold.Chemscore.Internal_Hbond>
0.0000

> <Gold.Chemscore.DEClash>
0.5461

> <Gold.Chemscore.DEInternal>
1.9696

> <Gold.Chemscore.Rot>
1.6521

> <Gold.Chemscore.Internal.Correction>
   9.000000E+99

> <Gold.Chemscore.Hbonds>
donor molecule, donor type, donor heavy atom, donor atom, acceptor molecule, acceptor atom, score
      L1  H     7    28       P1  7948  0.84
      L1  H    10    29       P1  7948  0.83
      L1  H    16    49       P1 10747  0.92

> <Gold.Chemscore.Hbond.Weighted>
-8.4931

> <Gold.Chemscore.Metal.Weighted>
-0.0000

> <Gold.Chemscore.Lipo.Weighted>
-11.3448

> <Gold.Chemscore.Internal_Hbond.Weighted>
0.0000

> <Gold.Chemscore.DEClash.Weighted>
0.5461

> <Gold.Chemscore.DEInternal.Weighted>
1.9696

> <Gold.Chemscore.Rot.Weighted>
4.2294

> <Gold.Chemscore.Internal.Correction.Weighted>
   9.000000E+99

> <Gold.Protein.RotatedTorsions>
[ 6907 6896 6895 6894 ] final  107.43 input  -60.11 | X-H torsion
[ 7974 7965 7964 7962 ] final  -17.11 input  175.53 | X-H torsion
[ 8008 7997 7996 7995 ] final   58.87 input   59.86 | X-H torsion
[ 10167 10162 10161 10158 ] final  -90.60 input  -65.29 | X-H torsion
[ 10718 10713 10712 10709 ] final  124.34 input   66.30 | X-H torsion
[ 10763 10752 10751 10750 ] final  153.75 input  -60.55 | X-H torsion
[ 11005 11000 10999 10996 ] final  142.71 input  -57.11 | X-H torsion

> <Gold.Protein.ActiveResidues>
 VAL166  LYS551  ARG553  GLY616  TRP617  ASP618  TYR619  PRO620  LYS621  CYS622 
 ASP623  PHE694  ASN695  SER759  ASP760  ASP761  ALA762  ILE779  LEU786  VAL792 
 PHE793  MET794  SER795  GLU796  ALA797  LYS798  CYS799  TRP800  GLU811  SER814 

> <Gold.Protein.RotatedAtoms>
  152.5154  133.9235  159.7545 H   0  0  0  0  0  0  0  0  0  0  0  0  # atno 6907 bound_to 6896
  150.9601  133.6446  159.2763 H   0  0  0  0  0  0  0  0  0  0  0  0  # atno 6908 bound_to 6896
  151.3693  135.0925  159.9513 H   0  0  0  0  0  0  0  0  0  0  0  0  # atno 6909 bound_to 6896
  146.1956  140.3733  142.8442 H   0  0  0  0  0  0  0  0  0  0  0  0  # atno 7974 bound_to 7965
  155.5570  140.3487  155.4482 H   0  0  0  0  0  0  0  0  0  0  0  0  # atno 8008 bound_to 7997
  156.0542  140.1325  157.0041 H   0  0  0  0  0  0  0  0  0  0  0  0  # atno 8009 bound_to 7997
  154.4448  140.0998  156.6406 H   0  0  0  0  0  0  0  0  0  0  0  0  # atno 8010 bound_to 7997
  140.3533  143.2880  151.9701 H   0  0  0  0  0  0  0  0  0  0  0  0  # atno 10167 bound_to 10162
  157.5593  131.1090  150.8566 H   0  0  0  0  0  0  0  0  0  0  0  0  # atno 10718 bound_to 10713
  154.1413  135.2820  155.3160 H   0  0  0  0  0  0  0  0  0  0  0  0  # atno 10763 bound_to 10752
  154.6285  135.5443  153.7657 H   0  0  0  0  0  0  0  0  0  0  0  0  # atno 10764 bound_to 10752
  153.0250  135.6456  154.1560 H   0  0  0  0  0  0  0  0  0  0  0  0  # atno 10765 bound_to 10752
  140.0498  134.9262  157.0995 H   0  0  0  0  0  0  0  0  0  0  0  0  # atno 11005 bound_to 11000
  144.8574  140.7090  143.6129 LP  0  0  0  0  0  0  0  0  0  0  0  0  # atno 17320 bound_to 7965
  145.3653  139.1671  143.4361 LP  0  0  0  0  0  0  0  0  0  0  0  0  # atno 17321 bound_to 7965
  139.4823  144.6057  151.7525 LP  0  0  0  0  0  0  0  0  0  0  0  0  # atno 17342 bound_to 10162
  140.5198  144.0897  150.6019 LP  0  0  0  0  0  0  0  0  0  0  0  0  # atno 17343 bound_to 10162
  156.9069  130.5266  149.5281 LP  0  0  0  0  0  0  0  0  0  0  0  0  # atno 17370 bound_to 10713
  156.0648  130.5693  150.9265 LP  0  0  0  0  0  0  0  0  0  0  0  0  # atno 17371 bound_to 10713
  140.3936  134.2158  155.7165 LP  0  0  0  0  0  0  0  0  0  0  0  0  # atno 17394 bound_to 11000
  141.1924  133.8173  157.0839 LP  0  0  0  0  0  0  0  0  0  0  0  0  # atno 17395 bound_to 11000

$$$$
