AV-unprocessed.smi:2855|AV-procd|sdf|10990|dock6
  -GOLD-   2272015443D 1   1.00000     0.00000
 Structure written by MMmdl.
 46 47  0  0  0  0  0  0  0  0  2 V2000
  146.0487  140.9717  155.7498 C   0  0  0  0  0  0  0  0  0  0  0  0
  146.6329  140.7927  154.3373 C   0  0  1  0  0  0  0  0  0  0  0  0
  147.7097  141.8390  154.0014 C   0  0  0  0  0  0  0  0  0  0  0  0
  149.0253  141.5841  154.7533 C   0  0  0  0  0  0  0  0  0  0  0  0
  149.5814  140.1638  154.4913 C   0  0  1  0  0  0  0  0  0  0  0  0
  150.9594  139.9131  155.1753 C   0  0  0  0  0  0  0  0  0  0  0  0
  151.7824  138.7793  154.5355 C   0  0  0  0  0  0  0  0  0  0  0  0
  150.8313  139.6982  156.6935 C   0  0  0  0  0  0  0  0  0  0  0  0
  148.5051  139.0913  154.8251 C   0  0  2  0  0  0  0  0  0  0  0  0
  148.9580  137.7553  154.4386 N   0  0  0  0  0  0  0  0  0  0  0  0
  149.2771  136.7527  155.2717 C   0  0  0  0  0  0  0  0  0  0  0  0
  149.2525  136.8548  156.4988 O   0  0  0  0  0  0  0  0  0  0  0  0
  149.7203  135.4464  154.5983 C   0  0  0  0  0  0  0  0  0  0  0  0
  149.6872  134.2826  155.4990 N   0  0  0  0  0  0  0  0  0  0  0  0
  148.8965  133.1840  155.1186 C   0  0  0  0  0  0  0  0  0  0  0  0
  148.8036  132.0777  155.8805 C   0  0  0  0  0  0  0  0  0  0  0  0
  149.5517  132.0359  157.1309 C   0  0  0  0  0  0  0  0  0  0  0  0
  149.4763  131.0347  157.8406 O   0  0  0  0  0  0  0  0  0  0  0  0
  150.3080  133.1254  157.4545 N   0  5  0  0  0  0  0  0  0  0  0  0
  150.3936  134.2438  156.6691 C   0  0  0  0  0  0  0  0  0  0  0  0
  151.0822  135.2164  156.9800 O   0  0  0  0  0  0  0  0  0  0  0  0
  147.1761  139.3727  154.0922 C   0  0  0  0  0  0  0  0  0  0  0  0
  146.8001  140.8351  156.5273 H   0  0  0  0  0  0  0  0  0  0  0  0
  145.2503  140.2528  155.9356 H   0  0  0  0  0  0  0  0  0  0  0  0
  145.6253  141.9690  155.8729 H   0  0  0  0  0  0  0  0  0  0  0  0
  145.8049  140.9464  153.6439 H   0  0  0  0  0  0  0  0  0  0  0  0
  147.9058  141.8187  152.9285 H   0  0  0  0  0  0  0  0  0  0  0  0
  147.3418  142.8417  154.2218 H   0  0  0  0  0  0  0  0  0  0  0  0
  149.7474  142.3392  154.4451 H   0  0  0  0  0  0  0  0  0  0  0  0
  148.8643  141.7367  155.8201 H   0  0  0  0  0  0  0  0  0  0  0  0
  149.7563  140.0945  153.4160 H   0  0  0  0  0  0  0  0  0  0  0  0
  151.5497  140.8228  155.0687 H   0  0  0  0  0  0  0  0  0  0  0  0
  151.3007  137.8096  154.6583 H   0  0  0  0  0  0  0  0  0  0  0  0
  152.7681  138.7107  154.9964 H   0  0  0  0  0  0  0  0  0  0  0  0
  151.9411  138.9423  153.4702 H   0  0  0  0  0  0  0  0  0  0  0  0
  150.3314  138.7596  156.9317 H   0  0  0  0  0  0  0  0  0  0  0  0
  150.2694  140.5068  157.1617 H   0  0  0  0  0  0  0  0  0  0  0  0
  151.8137  139.6696  157.1655 H   0  0  0  0  0  0  0  0  0  0  0  0
  148.3008  139.1201  155.8953 H   0  0  0  0  0  0  0  0  0  0  0  0
  149.0187  137.5715  153.4480 H   0  0  0  0  0  0  0  0  0  0  0  0
  149.0942  135.2562  153.7241 H   0  0  0  0  0  0  0  0  0  0  0  0
  150.7260  135.5947  154.2030 H   0  0  0  0  0  0  0  0  0  0  0  0
  148.3792  133.2933  154.1767 H   0  0  0  0  0  0  0  0  0  0  0  0
  148.1926  131.2417  155.5734 H   0  0  0  0  0  0  0  0  0  0  0  0
  146.4261  138.6351  154.3821 H   0  0  0  0  0  0  0  0  0  0  0  0
  147.3264  139.2402  153.0195 H   0  0  0  0  0  0  0  0  0  0  0  0
  1  2  1  0  0  0  0
  1 23  1  0  0  0  0
  1 24  1  0  0  0  0
  1 25  1  0  0  0  0
  2 22  1  0  0  0  0
  2  3  1  0  0  0  0
  2 26  1  0  0  0  0
  3  4  1  0  0  0  0
  3 27  1  0  0  0  0
  3 28  1  0  0  0  0
  4  5  1  0  0  0  0
  4 29  1  0  0  0  0
  4 30  1  0  0  0  0
  5  6  1  0  0  0  0
  5  9  1  0  0  0  0
  5 31  1  0  0  0  0
  6  7  1  0  0  0  0
  6  8  1  0  0  0  0
  6 32  1  0  0  0  0
  7 33  1  0  0  0  0
  7 34  1  0  0  0  0
  7 35  1  0  0  0  0
  8 36  1  0  0  0  0
  8 37  1  0  0  0  0
  8 38  1  0  0  0  0
  9 10  1  0  0  0  0
  9 22  1  0  0  0  0
  9 39  1  0  0  0  0
 10 11  1  0  0  0  0
 10 40  1  0  0  0  0
 11 12  2  0  0  0  0
 11 13  1  0  0  0  0
 13 14  1  0  0  0  0
 13 41  1  0  0  0  0
 13 42  1  0  0  0  0
 14 20  1  0  0  0  0
 14 15  1  0  0  0  0
 15 16  2  0  0  0  0
 15 43  1  0  0  0  0
 16 17  1  0  0  0  0
 16 44  1  0  0  0  0
 17 18  2  0  0  0  0
 17 19  1  0  0  0  0
 19 20  1  0  0  0  0
 20 21  2  0  0  0  0
 22 45  1  0  0  0  0
 22 46  1  0  0  0  0
M  CHG  1  19  -1
M  END
> <s_m_source_file>
AV-unprocessed.smi

> <i_m_source_file_index>
2855

> <i_lp_mmshare_version>
43012

> <i_f3d_flags>
0

> <s_epik_input>
W0NIM11bQ0BASF0xW0NIMl1bQ0gyXVtDQEBIXShbQ0hdKFtDSDNdKVtDSDNdKVtDQEhdKFtDSDJdMSlbTkhdQyg9TylbQ0gyXW4yW2NIXVtjSF1jKD1PKVtuSF1jMj1P

> <s_epik_cmdline>
J2VwaWtfcHl0aG9uJywgJy1waCcsICc3LjAnLCAnLXRuJywgJzgnLCAnLW1hJywgJzIwMCcsICctbWV0YWxfYmluZGluZycsICctaW1hZScsICc8aW5maWxlLm1hZT4nLCAnLW9tYWUnLCAnPG91dGZpbGUubWFlPic=

> <r_lp_tautomer_probability>
0.999537

> <r_epik_Ionization_Penalty>
3.12102

> <r_epik_Ionization_Penalty_Charging>
2.9581e-08

> <r_epik_Ionization_Penalty_Neutral>
3.12102

> <r_epik_State_Penalty>
3.12011

> <r_epik_Charging_Adjusted_Penalty>
3.12011

> <i_epik_Tot_Q>
-1

> <i_epik_Tot_abs_Q>
1

> <r_epik_Metal_State_Penalty>
0.463583

> <b_epik_Metal_Only>
1

> <s_lp_Force_Field>
OPLS_2005

> <r_lp_Energy>
25.2964

> <b_lp_Chiralities_Consistent>
1

> <s_lp_Variant>
AV-unprocessed.smi:2855-14

> <Gold.Version>
5.8.1

> <Gold.Id.Protein>
6NUR|6NUR_protein|mol2

> <Gold.PLP.Fitness>
39.7685

> <Gold.PLP.PLP>
-32.2708

> <Gold.PLP.part.hbond>
-3.0000

> <Gold.PLP.part.metal>
0.0000

> <Gold.PLP.part.buried>
-1.8051

> <Gold.PLP.part.nonpolar>
-28.9183

> <Gold.PLP.part.repulsive>
0.0157

> <Gold.PLP.ligand.clash>
0.0000

> <Gold.PLP.ligand.torsion>
0.5316

> <Gold.PLP.Chemscore.Hbond>
2.8320

> <Gold.PLP.Chemscore.CHOScore>
0.0000

> <Gold.PLP.Chemscore.Metal>
0.0000

> <Gold.Chemscore.Hbonds>
donor molecule, donor type, donor heavy atom, donor atom, acceptor molecule, acceptor atom, score
      L1  H    10    40       P1  7948  0.93
      P1  H  6896  6909       L1    19  1.59

> <Gold.PLP.Chemscore.Internal.Correction>
0.0649

> <Gold.Rescore>
     Score         DG    S(hbond)    S(metal)    S(lipo)     H(rot)  DE(clash)    DE(int)     intcor
      9.63     -15.38       1.70        0.00      75.62       1.81       0.25       5.50       ----

> <Gold.Chemscore.Fitness>
9.6339

> <Gold.Chemscore.DG>
-15.3840

> <Gold.Chemscore.ZeroCoef>
-5.4800

> <Gold.Chemscore.Hbond>
1.7035

> <Gold.Chemscore.Metal>
0.0000

> <Gold.Chemscore.Lipo>
75.6227

> <Gold.Chemscore.Internal_Hbond>
0.0000

> <Gold.Chemscore.DEClash>
0.2515

> <Gold.Chemscore.DEInternal>
5.4985

> <Gold.Chemscore.Rot>
1.8100

> <Gold.Chemscore.Internal.Correction>
   9.000000E+99

> <Gold.Chemscore.Hbonds>
donor molecule, donor type, donor heavy atom, donor atom, acceptor molecule, acceptor atom, score
      L1  H    10    40       P1  7948  0.84
      P1  H  6896  6909       L1    19  0.58

> <Gold.Chemscore.Hbond.Weighted>
-5.6897

> <Gold.Chemscore.Metal.Weighted>
-0.0000

> <Gold.Chemscore.Lipo.Weighted>
-8.8479

> <Gold.Chemscore.Internal_Hbond.Weighted>
0.0000

> <Gold.Chemscore.DEClash.Weighted>
0.2515

> <Gold.Chemscore.DEInternal.Weighted>
5.4985

> <Gold.Chemscore.Rot.Weighted>
4.6335

> <Gold.Chemscore.Internal.Correction.Weighted>
   9.000000E+99

> <Gold.Protein.RotatedTorsions>
[ 6907 6896 6895 6894 ] final  -40.76 input  -60.11 | X-H torsion
[ 7974 7965 7964 7962 ] final   26.01 input  175.53 | X-H torsion
[ 8008 7997 7996 7995 ] final -161.73 input   59.86 | X-H torsion
[ 10167 10162 10161 10158 ] final -119.59 input  -65.29 | X-H torsion
[ 10718 10713 10712 10709 ] final  164.07 input   66.30 | X-H torsion
[ 10763 10752 10751 10750 ] final   10.73 input  -60.55 | X-H torsion
[ 11005 11000 10999 10996 ] final   83.44 input  -57.11 | X-H torsion

> <Gold.Protein.ActiveResidues>
 VAL166  LYS551  ARG553  GLY616  TRP617  ASP618  TYR619  PRO620  LYS621  CYS622 
 ASP623  PHE694  ASN695  SER759  ASP760  ASP761  ALA762  ILE779  LEU786  VAL792 
 PHE793  MET794  SER795  GLU796  ALA797  LYS798  CYS799  TRP800  GLU811  SER814 

> <Gold.Protein.RotatedAtoms>
  150.9746  134.9113  159.7808 H   0  0  0  0  0  0  0  0  0  0  0  0  # atno 6907 bound_to 6896
  152.5202  134.3494  159.9255 H   0  0  0  0  0  0  0  0  0  0  0  0  # atno 6908 bound_to 6896
  151.3502  133.3887  159.2714 H   0  0  0  0  0  0  0  0  0  0  0  0  # atno 6909 bound_to 6896
  146.1860  139.7388  142.8866 H   0  0  0  0  0  0  0  0  0  0  0  0  # atno 7974 bound_to 7965
  155.7965  140.0886  157.1980 H   0  0  0  0  0  0  0  0  0  0  0  0  # atno 8008 bound_to 7997
  154.3983  140.1480  156.3283 H   0  0  0  0  0  0  0  0  0  0  0  0  # atno 8009 bound_to 7997
  155.8506  140.3435  155.5693 H   0  0  0  0  0  0  0  0  0  0  0  0  # atno 8010 bound_to 7997
  140.0450  143.5116  152.2111 H   0  0  0  0  0  0  0  0  0  0  0  0  # atno 10167 bound_to 10162
  157.0995  131.0439  151.2504 H   0  0  0  0  0  0  0  0  0  0  0  0  # atno 10718 bound_to 10713
  153.2001  135.6855  153.8242 H   0  0  0  0  0  0  0  0  0  0  0  0  # atno 10763 bound_to 10752
  153.7512  135.3223  155.3322 H   0  0  0  0  0  0  0  0  0  0  0  0  # atno 10764 bound_to 10752
  154.8166  135.4681  154.0763 H   0  0  0  0  0  0  0  0  0  0  0  0  # atno 10765 bound_to 10752
  139.9031  134.8145  156.2310 H   0  0  0  0  0  0  0  0  0  0  0  0  # atno 11005 bound_to 11000
  145.3938  141.0376  143.3109 LP  0  0  0  0  0  0  0  0  0  0  0  0  # atno 17320 bound_to 7965
  144.8398  139.5491  143.6905 LP  0  0  0  0  0  0  0  0  0  0  0  0  # atno 17321 bound_to 7965
  139.5990  144.7576  151.3218 LP  0  0  0  0  0  0  0  0  0  0  0  0  # atno 17342 bound_to 10162
  140.7243  143.7048  150.7816 LP  0  0  0  0  0  0  0  0  0  0  0  0  # atno 17343 bound_to 10162
  157.4653  130.7677  149.7273 LP  0  0  0  0  0  0  0  0  0  0  0  0  # atno 17370 bound_to 10713
  155.9877  130.3965  150.3152 LP  0  0  0  0  0  0  0  0  0  0  0  0  # atno 17371 bound_to 10713
  141.0345  133.6970  156.1489 LP  0  0  0  0  0  0  0  0  0  0  0  0  # atno 17394 bound_to 11000
  140.7047  134.4526  157.5584 LP  0  0  0  0  0  0  0  0  0  0  0  0  # atno 17395 bound_to 11000

$$$$
