AV-unprocessed.smi:573|AV-procd|sdf|2967|dock2
  -GOLD-   2262023473D 1   1.00000     0.00000
 Structure written by MMmdl.
 45 47  0  0  0  0  0  0  0  0  2 V2000
  147.4301  139.6393  153.6893 C   0  0  0  0  0  0  0  0  0  0  0  0
  148.0584  141.0362  153.8027 C   0  0  2  0  0  0  0  0  0  0  0  0
  149.3820  140.9679  153.3177 O   0  0  0  0  0  0  0  0  0  0  0  0
  148.1075  141.5595  155.2499 C   0  0  0  0  0  0  0  0  0  0  0  0
  149.0676  140.8397  156.0744 N   0  0  0  0  0  0  0  0  0  0  0  0
  149.9250  141.5439  156.9280 C   0  0  0  0  0  0  0  0  0  0  0  0
  150.1006  142.8924  156.9549 N   0  3  0  0  0  0  0  0  0  0  0  0
  151.0501  143.1929  157.9355 C   0  0  0  0  0  0  0  0  0  0  0  0
  151.5729  144.4149  158.3474 C   0  0  0  0  0  0  0  0  0  0  0  0
  152.5391  144.3772  159.3741 C   0  0  0  0  0  0  0  0  0  0  0  0
  152.9528  143.1586  159.9502 C   0  0  0  0  0  0  0  0  0  0  0  0
  152.4158  141.9247  159.5285 C   0  0  0  0  0  0  0  0  0  0  0  0
  151.4579  141.9671  158.5154 C   0  0  0  0  0  0  0  0  0  0  0  0
  150.7251  140.9674  157.8612 N   0  0  0  0  0  0  0  0  0  0  0  0
  150.9060  139.5557  158.2307 C   0  0  0  0  0  0  0  0  0  0  0  0
  151.3979  138.7018  157.0503 C   0  0  2  0  0  0  0  0  0  0  0  0
  152.1926  139.5370  156.0285 C   0  0  0  0  0  0  0  0  0  0  0  0
  152.6130  138.6720  154.8348 C   0  0  0  0  0  0  0  0  0  0  0  0
  151.3858  137.9629  154.2522 C   0  0  0  0  0  0  0  0  0  0  0  0
  150.6281  137.2105  155.3576 C   0  0  0  0  0  0  0  0  0  0  0  0
  150.2728  138.1108  156.4021 O   0  0  0  0  0  0  0  0  0  0  0  0
  146.3906  139.6457  154.0187 H   0  0  0  0  0  0  0  0  0  0  0  0
  147.9669  138.9114  154.2987 H   0  0  0  0  0  0  0  0  0  0  0  0
  147.4428  139.2849  152.6580 H   0  0  0  0  0  0  0  0  0  0  0  0
  147.5115  141.7346  153.1683 H   0  0  0  0  0  0  0  0  0  0  0  0
  149.4236  140.3044  152.6457 H   0  0  0  0  0  0  0  0  0  0  0  0
  148.3761  142.6163  155.2545 H   0  0  0  0  0  0  0  0  0  0  0  0
  147.1202  141.4958  155.7093 H   0  0  0  0  0  0  0  0  0  0  0  0
  148.9872  139.8363  156.1567 H   0  0  0  0  0  0  0  0  0  0  0  0
  151.2611  145.3500  157.9056 H   0  0  0  0  0  0  0  0  0  0  0  0
  152.9738  145.3019  159.7250 H   0  0  0  0  0  0  0  0  0  0  0  0
  153.6987  143.1697  160.7319 H   0  0  0  0  0  0  0  0  0  0  0  0
  152.7454  140.9974  159.9733 H   0  0  0  0  0  0  0  0  0  0  0  0
  151.5901  139.4919  159.0770 H   0  0  0  0  0  0  0  0  0  0  0  0
  149.9445  139.1842  158.5868 H   0  0  0  0  0  0  0  0  0  0  0  0
  152.0357  137.9069  157.4417 H   0  0  0  0  0  0  0  0  0  0  0  0
  151.5803  140.3683  155.6767 H   0  0  0  0  0  0  0  0  0  0  0  0
  153.0736  139.9747  156.4992 H   0  0  0  0  0  0  0  0  0  0  0  0
  153.0972  139.2834  154.0726 H   0  0  0  0  0  0  0  0  0  0  0  0
  153.3465  137.9321  155.1575 H   0  0  0  0  0  0  0  0  0  0  0  0
  150.7230  138.6962  153.7909 H   0  0  0  0  0  0  0  0  0  0  0  0
  151.6875  137.2729  153.4637 H   0  0  0  0  0  0  0  0  0  0  0  0
  149.7189  136.7665  154.9522 H   0  0  0  0  0  0  0  0  0  0  0  0
  151.2304  136.3931  155.7570 H   0  0  0  0  0  0  0  0  0  0  0  0
  149.6176  143.5465  156.3528 H   0  0  0  0  0  0  0  0  0  0  0  0
  1  2  1  0  0  0  0
  1 22  1  0  0  0  0
  1 23  1  0  0  0  0
  1 24  1  0  0  0  0
  2  3  1  0  0  0  0
  2  4  1  0  0  0  0
  2 25  1  0  0  0  0
  3 26  1  0  0  0  0
  4  5  1  0  0  0  0
  4 27  1  0  0  0  0
  4 28  1  0  0  0  0
  5  6  1  0  0  0  0
  5 29  1  0  0  0  0
  6 14  1  0  0  0  0
  6  7  2  0  0  0  0
  7  8  1  0  0  0  0
  7 45  1  0  0  0  0
  8 13  2  0  0  0  0
  8  9  1  0  0  0  0
  9 10  2  0  0  0  0
  9 30  1  0  0  0  0
 10 11  1  0  0  0  0
 10 31  1  0  0  0  0
 11 12  2  0  0  0  0
 11 32  1  0  0  0  0
 12 13  1  0  0  0  0
 12 33  1  0  0  0  0
 13 14  1  0  0  0  0
 14 15  1  0  0  0  0
 15 16  1  0  0  0  0
 15 34  1  0  0  0  0
 15 35  1  0  0  0  0
 16 21  1  0  0  0  0
 16 17  1  0  0  0  0
 16 36  1  0  0  0  0
 17 18  1  0  0  0  0
 17 37  1  0  0  0  0
 17 38  1  0  0  0  0
 18 19  1  0  0  0  0
 18 39  1  0  0  0  0
 18 40  1  0  0  0  0
 19 20  1  0  0  0  0
 19 41  1  0  0  0  0
 19 42  1  0  0  0  0
 20 21  1  0  0  0  0
 20 43  1  0  0  0  0
 20 44  1  0  0  0  0
M  CHG  1   7   1
M  END
> <s_m_source_file>
AV-unprocessed.smi

> <i_m_source_file_index>
573

> <i_lp_mmshare_version>
43012

> <i_f3d_flags>
0

> <s_epik_input>
W0NIM11bQ0BIXShbT0hdKVtDSDJdW05IXWMobjEpbihjKGMxMilbY0hdW2NIXVtjSF1bY0hdMilbQ0gyXVtDQEBIXTNbQ0gyXVtDSDJdW0NIMl1bQ0gyXU8z

> <s_epik_cmdline>
J2VwaWtfcHl0aG9uJywgJy1waCcsICc3LjAnLCAnLXRuJywgJzgnLCAnLW1hJywgJzIwMCcsICctbWV0YWxfYmluZGluZycsICctaW1hZScsICc8aW5maWxlLm1hZT4nLCAnLW9tYWUnLCAnPG91dGZpbGUubWFlPic=

> <r_epik_Ionization_Penalty>
0.0692245

> <r_epik_Ionization_Penalty_Charging>
0.0692223

> <r_epik_Ionization_Penalty_Neutral>
2.1869e-06

> <r_epik_State_Penalty>
0.0606215

> <r_epik_Charging_Adjusted_Penalty>
0.129844

> <i_epik_Tot_Q>
1

> <i_epik_Tot_abs_Q>
1

> <r_epik_Metal_State_Penalty>
2.77811

> <b_epik_Metal_Only>
0

> <s_lp_Force_Field>
OPLS_2005

> <r_lp_Energy>
19.8097

> <b_lp_Chiralities_Consistent>
1

> <s_lp_Variant>
AV-unprocessed.smi:573-1

> <Gold.Version>
5.8.1

> <Gold.Id.Protein>
6NUR|6NUR_protein|mol2

> <Gold.PLP.Fitness>
57.2509

> <Gold.PLP.PLP>
-46.8391

> <Gold.PLP.part.hbond>
-3.3874

> <Gold.PLP.part.metal>
0.0000

> <Gold.PLP.part.buried>
-5.7546

> <Gold.PLP.part.nonpolar>
-39.0182

> <Gold.PLP.part.repulsive>
0.0543

> <Gold.PLP.ligand.clash>
0.0244

> <Gold.PLP.ligand.torsion>
0.5983

> <Gold.PLP.Chemscore.Hbond>
3.8656

> <Gold.PLP.Chemscore.CHOScore>
0.0000

> <Gold.PLP.Chemscore.Metal>
0.0000

> <Gold.Chemscore.Hbonds>
donor molecule, donor type, donor heavy atom, donor atom, acceptor molecule, acceptor atom, score
      L1  H     3    26       P1  7957  0.87
      L1  H     7    45       P1  8028  2.00
      P1  H  7989  7998       L1     3  0.05
      P1  H  8011  8017       L1     3  0.95

> <Gold.PLP.Chemscore.Internal.Correction>
0.0360

> <Gold.Rescore>
     Score         DG    S(hbond)    S(metal)    S(lipo)     H(rot)  DE(clash)    DE(int)     intcor
     20.56     -21.37       1.95        0.00     125.37       2.07       0.08       0.72       ----

> <Gold.Chemscore.Fitness>
20.5618

> <Gold.Chemscore.DG>
-21.3656

> <Gold.Chemscore.ZeroCoef>
-5.4800

> <Gold.Chemscore.Hbond>
1.9511

> <Gold.Chemscore.Metal>
0.0000

> <Gold.Chemscore.Lipo>
125.3688

> <Gold.Chemscore.Internal_Hbond>
0.0000

> <Gold.Chemscore.DEClash>
0.0805

> <Gold.Chemscore.DEInternal>
0.7233

> <Gold.Chemscore.Rot>
2.0699

> <Gold.Chemscore.Internal.Correction>
   9.000000E+99

> <Gold.Chemscore.Hbonds>
donor molecule, donor type, donor heavy atom, donor atom, acceptor molecule, acceptor atom, score
      L1  H     3    26       P1  7957  0.80
      L1  H     7    45       P1  8028  0.94
      P1  H  8011  8017       L1     3  0.18

> <Gold.Chemscore.Hbond.Weighted>
-6.5165

> <Gold.Chemscore.Metal.Weighted>
-0.0000

> <Gold.Chemscore.Lipo.Weighted>
-14.6681

> <Gold.Chemscore.Internal_Hbond.Weighted>
0.0000

> <Gold.Chemscore.DEClash.Weighted>
0.0805

> <Gold.Chemscore.DEInternal.Weighted>
0.7233

> <Gold.Chemscore.Rot.Weighted>
5.2991

> <Gold.Chemscore.Internal.Correction.Weighted>
   9.000000E+99

> <Gold.Protein.RotatedTorsions>
[ 6907 6896 6895 6894 ] final  -28.98 input  -60.11 | X-H torsion
[ 7974 7965 7964 7962 ] final -113.43 input  175.53 | X-H torsion
[ 8008 7997 7996 7995 ] final  170.10 input   59.86 | X-H torsion
[ 10167 10162 10161 10158 ] final -168.71 input  -65.29 | X-H torsion
[ 10718 10713 10712 10709 ] final -158.86 input   66.30 | X-H torsion
[ 10763 10752 10751 10750 ] final -130.22 input  -60.55 | X-H torsion
[ 11005 11000 10999 10996 ] final  167.96 input  -57.11 | X-H torsion

> <Gold.Protein.ActiveResidues>
 VAL166  LYS551  ARG553  GLY616  TRP617  ASP618  TYR619  PRO620  LYS621  CYS622 
 ASP623  PHE694  ASN695  SER759  ASP760  ASP761  ALA762  ILE779  LEU786  VAL792 
 PHE793  MET794  SER795  GLU796  ALA797  LYS798  CYS799  TRP800  GLU811  SER814 

> <Gold.Protein.RotatedAtoms>
  151.1254  135.0102  159.8557 H   0  0  0  0  0  0  0  0  0  0  0  0  # atno 6907 bound_to 6896
  152.5449  134.1673  159.8592 H   0  0  0  0  0  0  0  0  0  0  0  0  # atno 6908 bound_to 6896
  151.1734  133.4725  159.2627 H   0  0  0  0  0  0  0  0  0  0  0  0  # atno 6909 bound_to 6896
  145.1322  140.8731  143.3751 H   0  0  0  0  0  0  0  0  0  0  0  0  # atno 7974 bound_to 7965
  156.1396  140.1547  156.8940 H   0  0  0  0  0  0  0  0  0  0  0  0  # atno 8008 bound_to 7997
  154.4976  140.0834  156.7769 H   0  0  0  0  0  0  0  0  0  0  0  0  # atno 8009 bound_to 7997
  155.4103  140.3418  155.4265 H   0  0  0  0  0  0  0  0  0  0  0  0  # atno 8010 bound_to 7997
  139.5968  144.1095  152.1698 H   0  0  0  0  0  0  0  0  0  0  0  0  # atno 10167 bound_to 10162
  156.5600  130.8643  151.2807 H   0  0  0  0  0  0  0  0  0  0  0  0  # atno 10718 bound_to 10713
  154.8756  135.3870  154.4047 H   0  0  0  0  0  0  0  0  0  0  0  0  # atno 10763 bound_to 10752
  153.4768  135.7030  153.5966 H   0  0  0  0  0  0  0  0  0  0  0  0  # atno 10764 bound_to 10752
  153.4399  135.3858  155.2189 H   0  0  0  0  0  0  0  0  0  0  0  0  # atno 10765 bound_to 10752
  140.2823  134.7741  157.3768 H   0  0  0  0  0  0  0  0  0  0  0  0  # atno 11005 bound_to 11000
  145.0623  139.3095  143.5874 LP  0  0  0  0  0  0  0  0  0  0  0  0  # atno 17320 bound_to 7965
  146.3513  140.0070  142.8670 LP  0  0  0  0  0  0  0  0  0  0  0  0  # atno 17321 bound_to 7965
  140.0682  144.5801  150.7211 LP  0  0  0  0  0  0  0  0  0  0  0  0  # atno 17342 bound_to 10162
  140.7218  143.2596  151.4252 LP  0  0  0  0  0  0  0  0  0  0  0  0  # atno 17343 bound_to 10162
  157.7370  130.9789  150.2170 LP  0  0  0  0  0  0  0  0  0  0  0  0  # atno 17370 bound_to 10713
  156.2807  130.3733  149.7938 LP  0  0  0  0  0  0  0  0  0  0  0  0  # atno 17371 bound_to 10713
  140.1272  134.5142  155.8135 LP  0  0  0  0  0  0  0  0  0  0  0  0  # atno 17394 bound_to 11000
  141.2160  133.6777  156.6974 LP  0  0  0  0  0  0  0  0  0  0  0  0  # atno 17395 bound_to 11000

$$$$
