AV-unprocessed.smi:652|AV-procd|sdf|3193|dock1
  -GOLD-   22720 0123D 1   1.00000     0.00000
 Structure written by MMmdl.
 48 49  0  0  0  0  0  0  0  0  2 V2000
  153.9463  142.2972  160.9080 C   0  0  0  0  0  0  0  0  0  0  0  0
  153.8006  143.1137  159.6147 C   0  0  0  0  0  0  0  0  0  0  0  0
  153.7352  144.6200  159.8998 C   0  0  0  0  0  0  0  0  0  0  0  0
  152.6017  142.7048  158.8884 N   0  0  0  0  0  0  0  0  0  0  0  0
  152.2904  141.4456  158.5437 C   0  0  0  0  0  0  0  0  0  0  0  0
  153.0035  140.4771  158.8079 O   0  0  0  0  0  0  0  0  0  0  0  0
  150.9712  141.2693  157.7837 C   0  0  0  0  0  0  0  0  0  0  0  0
  151.1061  140.4235  156.4992 C   0  0  0  0  0  0  0  0  0  0  0  0
  151.6646  139.0689  156.7585 N   0  3  2  0  0  0  0  0  0  0  0  0
  151.9169  138.2902  155.5211 C   0  0  0  0  0  0  0  0  0  0  0  0
  150.6105  137.7021  154.9567 C   0  0  0  0  0  0  0  0  0  0  0  0
  149.9742  136.9123  155.9541 O   0  0  0  0  0  0  0  0  0  0  0  0
  149.6134  137.6702  157.1052 C   0  0  1  0  0  0  0  0  0  0  0  0
  148.8774  136.7433  158.0822 C   0  0  0  0  0  0  0  0  0  0  0  0
  148.8274  137.3090  159.4232 N   0  0  0  0  0  0  0  0  0  0  0  0
  148.1953  136.6226  160.4683 C   0  0  0  0  0  0  0  0  0  0  0  0
  147.8994  135.2547  160.3048 C   0  0  0  0  0  0  0  0  0  0  0  0
  147.2599  134.5942  161.3679 C   0  0  0  0  0  0  0  0  0  0  0  0
  146.9650  135.3531  162.5151 C   0  0  0  0  0  0  0  0  0  0  0  0
  147.2731  136.6656  162.6188 N   0  0  0  0  0  0  0  0  0  0  0  0
  147.8815  137.2930  161.6055 N   0  0  0  0  0  0  0  0  0  0  0  0
  150.8999  138.2483  157.7330 C   0  0  0  0  0  0  0  0  0  0  0  0
  154.8470  142.5840  161.4513 H   0  0  0  0  0  0  0  0  0  0  0  0
  154.0177  141.2296  160.6970 H   0  0  0  0  0  0  0  0  0  0  0  0
  153.0950  142.4496  161.5724 H   0  0  0  0  0  0  0  0  0  0  0  0
  154.6770  142.9331  158.9895 H   0  0  0  0  0  0  0  0  0  0  0  0
  154.6314  144.9591  160.4199 H   0  0  0  0  0  0  0  0  0  0  0  0
  152.8753  144.8706  160.5223 H   0  0  0  0  0  0  0  0  0  0  0  0
  153.6565  145.1925  158.9750 H   0  0  0  0  0  0  0  0  0  0  0  0
  151.9589  143.4393  158.6298 H   0  0  0  0  0  0  0  0  0  0  0  0
  150.2526  140.8018  158.4582 H   0  0  0  0  0  0  0  0  0  0  0  0
  150.5881  142.2626  157.5512 H   0  0  0  0  0  0  0  0  0  0  0  0
  150.1478  140.3556  155.9839 H   0  0  0  0  0  0  0  0  0  0  0  0
  151.7837  140.9399  155.8174 H   0  0  0  0  0  0  0  0  0  0  0  0
  152.4223  138.9028  154.7737 H   0  0  0  0  0  0  0  0  0  0  0  0
  152.6020  137.4763  155.7625 H   0  0  0  0  0  0  0  0  0  0  0  0
  149.9376  138.4872  154.6092 H   0  0  0  0  0  0  0  0  0  0  0  0
  150.8274  137.0696  154.0959 H   0  0  0  0  0  0  0  0  0  0  0  0
  148.9415  138.4808  156.8192 H   0  0  0  0  0  0  0  0  0  0  0  0
  147.8655  136.5432  157.7274 H   0  0  0  0  0  0  0  0  0  0  0  0
  149.3971  135.7852  158.1312 H   0  0  0  0  0  0  0  0  0  0  0  0
  149.2334  138.2183  159.5896 H   0  0  0  0  0  0  0  0  0  0  0  0
  148.1514  134.7282  159.3958 H   0  0  0  0  0  0  0  0  0  0  0  0
  147.0042  133.5469  161.3062 H   0  0  0  0  0  0  0  0  0  0  0  0
  146.4743  134.9013  163.3644 H   0  0  0  0  0  0  0  0  0  0  0  0
  151.5416  137.4273  158.0564 H   0  0  0  0  0  0  0  0  0  0  0  0
  150.6696  138.8163  158.6332 H   0  0  0  0  0  0  0  0  0  0  0  0
  152.5717  139.2331  157.1712 H   0  0  0  0  0  0  0  0  0  0  0  0
  1  2  1  0  0  0  0
  1 23  1  0  0  0  0
  1 24  1  0  0  0  0
  1 25  1  0  0  0  0
  2  3  1  0  0  0  0
  2  4  1  0  0  0  0
  2 26  1  0  0  0  0
  3 27  1  0  0  0  0
  3 28  1  0  0  0  0
  3 29  1  0  0  0  0
  4  5  1  0  0  0  0
  4 30  1  0  0  0  0
  5  6  2  0  0  0  0
  5  7  1  0  0  0  0
  7  8  1  0  0  0  0
  7 31  1  0  0  0  0
  7 32  1  0  0  0  0
  8  9  1  0  0  0  0
  8 33  1  0  0  0  0
  8 34  1  0  0  0  0
  9 22  1  0  0  0  0
  9 10  1  0  0  0  0
  9 48  1  0  0  0  0
 10 11  1  0  0  0  0
 10 35  1  0  0  0  0
 10 36  1  0  0  0  0
 11 12  1  0  0  0  0
 11 37  1  0  0  0  0
 11 38  1  0  0  0  0
 12 13  1  0  0  0  0
 13 14  1  0  0  0  0
 13 22  1  0  0  0  0
 13 39  1  0  0  0  0
 14 15  1  0  0  0  0
 14 40  1  0  0  0  0
 14 41  1  0  0  0  0
 15 16  1  0  0  0  0
 15 42  1  0  0  0  0
 16 21  1  0  0  0  0
 16 17  2  0  0  0  0
 17 18  1  0  0  0  0
 17 43  1  0  0  0  0
 18 19  2  0  0  0  0
 18 44  1  0  0  0  0
 19 20  1  0  0  0  0
 19 45  1  0  0  0  0
 20 21  2  0  0  0  0
 22 46  1  0  0  0  0
 22 47  1  0  0  0  0
M  CHG  1   9   1
M  END
> <s_m_source_file>
AV-unprocessed.smi

> <i_m_source_file_index>
652

> <i_lp_mmshare_version>
43012

> <i_f3d_flags>
0

> <s_epik_input>
W0NIM11bQ0hdKFtDSDNdKVtOSF1DKD1PKVtDSDJdW0NIMl1OMVtDSDJdW0NIMl1PW0NASF0oW0NIMl0xKVtDSDJdW05IXWMyW2NIXVtjSF1bY0hdbm4y

> <s_epik_cmdline>
J2VwaWtfcHl0aG9uJywgJy1waCcsICc3LjAnLCAnLXRuJywgJzgnLCAnLW1hJywgJzIwMCcsICctbWV0YWxfYmluZGluZycsICctaW1hZScsICc8aW5maWxlLm1hZT4nLCAnLW9tYWUnLCAnPG91dGZpbGUubWFlPic=

> <r_lp_tautomer_probability>
0.999978

> <r_epik_Ionization_Penalty>
0.433079

> <r_epik_Ionization_Penalty_Charging>
0.413784

> <r_epik_Ionization_Penalty_Neutral>
0.0192945

> <r_epik_State_Penalty>
0.425138

> <r_epik_Charging_Adjusted_Penalty>
0.838922

> <i_epik_Tot_Q>
1

> <i_epik_Tot_abs_Q>
1

> <r_epik_Metal_State_Penalty>
0.422073

> <b_epik_Metal_Only>
0

> <s_lp_Force_Field>
OPLS_2005

> <r_lp_Energy>
24.1608

> <b_lp_Chiralities_Consistent>
1

> <s_lp_Variant>
AV-unprocessed.smi:652-2

> <Gold.Version>
5.8.1

> <Gold.Id.Protein>
6NUR|6NUR_protein|mol2

> <Gold.PLP.Fitness>
44.0229

> <Gold.PLP.PLP>
-39.0129

> <Gold.PLP.part.hbond>
-2.0000

> <Gold.PLP.part.metal>
0.0000

> <Gold.PLP.part.buried>
-6.8353

> <Gold.PLP.part.nonpolar>
-30.4002

> <Gold.PLP.part.repulsive>
0.3622

> <Gold.PLP.ligand.clash>
0.0000

> <Gold.PLP.ligand.torsion>
0.3359

> <Gold.PLP.Chemscore.Hbond>
1.7920

> <Gold.PLP.Chemscore.CHOScore>
0.0000

> <Gold.PLP.Chemscore.Metal>
0.0000

> <Gold.Chemscore.Hbonds>
donor molecule, donor type, donor heavy atom, donor atom, acceptor molecule, acceptor atom, score
      P1  H  6931  6943       L1    21  0.99
      P1  H  6934  6947       L1    21  0.64

> <Gold.PLP.Chemscore.Internal.Correction>
0.3059

> <Gold.Rescore>
     Score         DG    S(hbond)    S(metal)    S(lipo)     H(rot)  DE(clash)    DE(int)     intcor
     12.89     -14.94       1.30        0.00      93.00       2.26       0.13       1.92       ----

> <Gold.Chemscore.Fitness>
12.8912

> <Gold.Chemscore.DG>
-14.9353

> <Gold.Chemscore.ZeroCoef>
-5.4800

> <Gold.Chemscore.Hbond>
1.3048

> <Gold.Chemscore.Metal>
0.0000

> <Gold.Chemscore.Lipo>
93.0041

> <Gold.Chemscore.Internal_Hbond>
0.0000

> <Gold.Chemscore.DEClash>
0.1269

> <Gold.Chemscore.DEInternal>
1.9172

> <Gold.Chemscore.Rot>
2.2594

> <Gold.Chemscore.Internal.Correction>
   9.000000E+99

> <Gold.Chemscore.Hbonds>
donor molecule, donor type, donor heavy atom, donor atom, acceptor molecule, acceptor atom, score
      P1  H  6931  6943       L1    21  0.56
      P1  H  6934  6947       L1    21  0.27

> <Gold.Chemscore.Hbond.Weighted>
-4.3580

> <Gold.Chemscore.Metal.Weighted>
-0.0000

> <Gold.Chemscore.Lipo.Weighted>
-10.8815

> <Gold.Chemscore.Internal_Hbond.Weighted>
0.0000

> <Gold.Chemscore.DEClash.Weighted>
0.1269

> <Gold.Chemscore.DEInternal.Weighted>
1.9172

> <Gold.Chemscore.Rot.Weighted>
5.7841

> <Gold.Chemscore.Internal.Correction.Weighted>
   9.000000E+99

> <Gold.Protein.RotatedTorsions>
[ 6907 6896 6895 6894 ] final  -58.69 input  -60.11 | X-H torsion
[ 7974 7965 7964 7962 ] final    4.03 input  175.53 | X-H torsion
[ 8008 7997 7996 7995 ] final -176.51 input   59.86 | X-H torsion
[ 10167 10162 10161 10158 ] final  138.75 input  -65.29 | X-H torsion
[ 10718 10713 10712 10709 ] final  132.24 input   66.30 | X-H torsion
[ 10763 10752 10751 10750 ] final -106.56 input  -60.55 | X-H torsion
[ 11005 11000 10999 10996 ] final   83.73 input  -57.11 | X-H torsion

> <Gold.Protein.ActiveResidues>
 VAL166  LYS551  ARG553  GLY616  TRP617  ASP618  TYR619  PRO620  LYS621  CYS622 
 ASP623  PHE694  ASN695  SER759  ASP760  ASP761  ALA762  ILE779  LEU786  VAL792 
 PHE793  MET794  SER795  GLU796  ALA797  LYS798  CYS799  TRP800  GLU811  SER814 

> <Gold.Protein.RotatedAtoms>
  150.7987  134.7065  159.6579 H   0  0  0  0  0  0  0  0  0  0  0  0  # atno 6907 bound_to 6896
  152.4102  134.6134  160.0041 H   0  0  0  0  0  0  0  0  0  0  0  0  # atno 6908 bound_to 6896
  151.6379  133.3291  159.3159 H   0  0  0  0  0  0  0  0  0  0  0  0  # atno 6909 bound_to 6896
  146.2444  140.0596  142.8369 H   0  0  0  0  0  0  0  0  0  0  0  0  # atno 7974 bound_to 7965
  155.9957  140.1210  157.0595 H   0  0  0  0  0  0  0  0  0  0  0  0  # atno 8008 bound_to 7997
  154.4226  140.1116  156.5696 H   0  0  0  0  0  0  0  0  0  0  0  0  # atno 8009 bound_to 7997
  155.6281  140.3473  155.4676 H   0  0  0  0  0  0  0  0  0  0  0  0  # atno 8010 bound_to 7997
  139.5100  144.6335  151.5757 H   0  0  0  0  0  0  0  0  0  0  0  0  # atno 10167 bound_to 10162
  157.4890  131.1089  150.9582 H   0  0  0  0  0  0  0  0  0  0  0  0  # atno 10718 bound_to 10713
  154.8020  135.4707  154.0298 H   0  0  0  0  0  0  0  0  0  0  0  0  # atno 10763 bound_to 10752
  153.1797  135.6838  153.8502 H   0  0  0  0  0  0  0  0  0  0  0  0  # atno 10764 bound_to 10752
  153.8057  135.3224  155.3373 H   0  0  0  0  0  0  0  0  0  0  0  0  # atno 10765 bound_to 10752
  139.9022  134.8165  156.2349 H   0  0  0  0  0  0  0  0  0  0  0  0  # atno 11005 bound_to 11000
  145.0911  140.9285  143.4768 LP  0  0  0  0  0  0  0  0  0  0  0  0  # atno 17320 bound_to 7965
  145.0769  139.2989  143.5803 LP  0  0  0  0  0  0  0  0  0  0  0  0  # atno 17321 bound_to 7965
  140.6076  143.9496  150.6430 LP  0  0  0  0  0  0  0  0  0  0  0  0  # atno 17342 bound_to 10162
  140.2728  143.3444  152.1222 LP  0  0  0  0  0  0  0  0  0  0  0  0  # atno 17343 bound_to 10162
  157.0290  130.5703  149.5340 LP  0  0  0  0  0  0  0  0  0  0  0  0  # atno 17370 bound_to 10713
  156.0163  130.5257  150.8143 LP  0  0  0  0  0  0  0  0  0  0  0  0  # atno 17371 bound_to 10713
  141.0322  133.6982  156.1450 LP  0  0  0  0  0  0  0  0  0  0  0  0  # atno 17394 bound_to 11000
  140.7079  134.4493  157.5583 LP  0  0  0  0  0  0  0  0  0  0  0  0  # atno 17395 bound_to 11000

$$$$
