AV-unprocessed.smi:1686|AV-procd|sdf|6760|dock8
  -GOLD-   22720 7523D 1   1.00000     0.00000
 Structure written by MMmdl.
 41 43  0  0  0  0  0  0  0  0  1 V2000
  147.1444  138.8872  153.1221 C   0  0  0  0  0  0  0  0  0  0  0  0
  146.9803  139.5652  154.4521 C   0  0  0  0  0  0  0  0  0  0  0  0
  145.9454  139.2494  155.2191 N   0  0  0  0  0  0  0  0  0  0  0  0
  146.0627  140.0244  156.3785 O   0  0  0  0  0  0  0  0  0  0  0  0
  147.1787  140.7763  156.2411 C   0  0  0  0  0  0  0  0  0  0  0  0
  147.7081  141.8672  157.4594 Cl  0  0  0  0  0  0  0  0  0  0  0  0
  147.8173  140.5492  155.0558 C   0  0  0  0  0  0  0  0  0  0  0  0
  149.0922  141.1559  154.5216 C   0  0  0  0  0  0  0  0  0  0  0  0
  150.2528  140.8140  155.4570 C   0  0  0  0  0  0  0  0  0  0  0  0
  151.0803  139.9652  155.1276 O   0  0  0  0  0  0  0  0  0  0  0  0
  150.3095  141.5050  156.6062 N   0  0  0  0  0  0  0  0  0  0  0  0
  151.4030  141.4834  157.5729 C   0  0  2  0  0  0  0  0  0  0  0  0
  151.4609  140.0904  158.2204 C   0  0  0  0  0  0  0  0  0  0  0  0
  151.1886  142.6139  158.6089 C   0  0  1  0  0  0  0  0  0  0  0  0
  152.2997  142.6946  159.6834 C   0  0  0  0  0  0  0  0  0  0  0  0
  152.7533  144.1635  159.6142 C   0  0  2  0  0  0  0  0  0  0  0  0
  151.6360  145.0762  160.1524 C   0  0  0  0  0  0  0  0  0  0  0  0
  150.5839  145.0215  159.0293 C   0  0  0  0  0  0  0  0  0  0  0  0
  151.2193  144.0493  158.0178 C   0  0  1  0  0  0  0  0  0  0  0  0
  152.6923  144.4306  158.1163 C   0  0  0  0  0  0  0  0  0  0  0  0
  148.1972  138.7616  152.8702 H   0  0  0  0  0  0  0  0  0  0  0  0
  146.6798  139.4717  152.3278 H   0  0  0  0  0  0  0  0  0  0  0  0
  146.6875  137.8969  153.1183 H   0  0  0  0  0  0  0  0  0  0  0  0
  149.3256  140.7876  153.5223 H   0  0  0  0  0  0  0  0  0  0  0  0
  149.0073  142.2398  154.4339 H   0  0  0  0  0  0  0  0  0  0  0  0
  149.5713  142.1704  156.7837 H   0  0  0  0  0  0  0  0  0  0  0  0
  152.3513  141.6590  157.0624 H   0  0  0  0  0  0  0  0  0  0  0  0
  152.2813  140.0122  158.9336 H   0  0  0  0  0  0  0  0  0  0  0  0
  151.6120  139.3165  157.4670 H   0  0  0  0  0  0  0  0  0  0  0  0
  150.5369  139.8606  158.7518 H   0  0  0  0  0  0  0  0  0  0  0  0
  150.2242  142.4466  159.0917 H   0  0  0  0  0  0  0  0  0  0  0  0
  151.9399  142.4167  160.6746 H   0  0  0  0  0  0  0  0  0  0  0  0
  153.1381  142.0401  159.4420 H   0  0  0  0  0  0  0  0  0  0  0  0
  153.7251  144.3426  160.0750 H   0  0  0  0  0  0  0  0  0  0  0  0
  151.2431  144.7279  161.1083 H   0  0  0  0  0  0  0  0  0  0  0  0
  151.9973  146.0961  160.2892 H   0  0  0  0  0  0  0  0  0  0  0  0
  149.6095  144.6819  159.3822 H   0  0  0  0  0  0  0  0  0  0  0  0
  150.4498  146.0078  158.5831 H   0  0  0  0  0  0  0  0  0  0  0  0
  150.7927  144.1466  157.0197 H   0  0  0  0  0  0  0  0  0  0  0  0
  152.8885  145.4716  157.8537 H   0  0  0  0  0  0  0  0  0  0  0  0
  153.3501  143.7854  157.5318 H   0  0  0  0  0  0  0  0  0  0  0  0
  1  2  1  0  0  0  0
  1 21  1  0  0  0  0
  1 22  1  0  0  0  0
  1 23  1  0  0  0  0
  2  7  1  0  0  0  0
  2  3  2  0  0  0  0
  3  4  1  0  0  0  0
  4  5  1  0  0  0  0
  5  6  1  0  0  0  0
  5  7  2  0  0  0  0
  7  8  1  0  0  0  0
  8  9  1  0  0  0  0
  8 24  1  0  0  0  0
  8 25  1  0  0  0  0
  9 10  2  0  0  0  0
  9 11  1  0  0  0  0
 11 12  1  0  0  0  0
 11 26  1  0  0  0  0
 12 13  1  0  0  0  0
 12 14  1  0  0  0  0
 12 27  1  0  0  0  0
 13 28  1  0  0  0  0
 13 29  1  0  0  0  0
 13 30  1  0  0  0  0
 14 19  1  0  0  0  0
 14 15  1  0  0  0  0
 14 31  1  0  0  0  0
 15 16  1  0  0  0  0
 15 32  1  0  0  0  0
 15 33  1  0  0  0  0
 16 20  1  0  0  0  0
 16 17  1  0  0  0  0
 16 34  1  0  0  0  0
 17 18  1  0  0  0  0
 17 35  1  0  0  0  0
 17 36  1  0  0  0  0
 18 19  1  0  0  0  0
 18 37  1  0  0  0  0
 18 38  1  0  0  0  0
 19 20  1  0  0  0  0
 19 39  1  0  0  0  0
 20 40  1  0  0  0  0
 20 41  1  0  0  0  0
M  END
> <s_m_source_file>
AV-unprocessed.smi

> <i_m_source_file_index>
1686

> <i_lp_mmshare_version>
43012

> <i_f3d_flags>
0

> <s_epik_input>
W0NIM11jMW5vYyhDbCljMVtDSDJdQyg9TylbTkhdW0NASF0oW0NIM10pW0NASF0oW0NIMl1bQ0BIXTIzKVtDQEhdKFtDSDJdMylbQ0gyXVtDSDJdMg==

> <s_epik_cmdline>
J2VwaWtfcHl0aG9uJywgJy1waCcsICc3LjAnLCAnLXRuJywgJzgnLCAnLW1hJywgJzIwMCcsICctbWV0YWxfYmluZGluZycsICctaW1hZScsICc8aW5maWxlLm1hZT4nLCAnLW9tYWUnLCAnPG91dGZpbGUubWFlPic=

> <r_lp_tautomer_probability>
1

> <r_epik_Ionization_Penalty>
2.01576e-08

> <r_epik_Ionization_Penalty_Charging>
0

> <r_epik_Ionization_Penalty_Neutral>
2.01576e-08

> <r_epik_State_Penalty>
-0

> <r_epik_Charging_Adjusted_Penalty>
0

> <i_epik_Tot_Q>
0

> <i_epik_Tot_abs_Q>
0

> <r_epik_Metal_State_Penalty>
-0

> <b_epik_Metal_Only>
0

> <s_lp_Force_Field>
OPLS_2005

> <r_lp_Energy>
45.33

> <b_lp_Chiralities_Consistent>
1

> <s_lp_Variant>
AV-unprocessed.smi:1686-3

> <Gold.Version>
5.8.1

> <Gold.Id.Protein>
6NUR|6NUR_protein|mol2

> <Gold.PLP.Fitness>
44.3194

> <Gold.PLP.PLP>
-41.8571

> <Gold.PLP.part.hbond>
-1.0000

> <Gold.PLP.part.metal>
0.0000

> <Gold.PLP.part.buried>
-5.7013

> <Gold.PLP.part.nonpolar>
-36.2871

> <Gold.PLP.part.repulsive>
0.2241

> <Gold.PLP.ligand.clash>
0.0000

> <Gold.PLP.ligand.torsion>
0.2781

> <Gold.PLP.Chemscore.Hbond>
1.0000

> <Gold.PLP.Chemscore.CHOScore>
0.0000

> <Gold.PLP.Chemscore.Metal>
0.0000

> <Gold.Chemscore.Hbonds>
donor molecule, donor type, donor heavy atom, donor atom, acceptor molecule, acceptor atom, score
      P1  H  7989  7998       L1    10  0.80

> <Gold.PLP.Chemscore.Internal.Correction>
0.0186

> <Gold.Rescore>
     Score         DG    S(hbond)    S(metal)    S(lipo)     H(rot)  DE(clash)    DE(int)     intcor
     18.29     -18.89       0.94        0.00     119.70       1.46       0.01       0.59       ----

> <Gold.Chemscore.Fitness>
18.2887

> <Gold.Chemscore.DG>
-18.8892

> <Gold.Chemscore.ZeroCoef>
-5.4800

> <Gold.Chemscore.Hbond>
0.9445

> <Gold.Chemscore.Metal>
0.0000

> <Gold.Chemscore.Lipo>
119.6962

> <Gold.Chemscore.Internal_Hbond>
0.0000

> <Gold.Chemscore.DEClash>
0.0137

> <Gold.Chemscore.DEInternal>
0.5869

> <Gold.Chemscore.Rot>
1.4648

> <Gold.Chemscore.Internal.Correction>
   9.000000E+99

> <Gold.Chemscore.Hbonds>
donor molecule, donor type, donor heavy atom, donor atom, acceptor molecule, acceptor atom, score
      P1  H  7989  7998       L1    10  0.12

> <Gold.Chemscore.Hbond.Weighted>
-3.1547

> <Gold.Chemscore.Metal.Weighted>
-0.0000

> <Gold.Chemscore.Lipo.Weighted>
-14.0045

> <Gold.Chemscore.Internal_Hbond.Weighted>
0.0000

> <Gold.Chemscore.DEClash.Weighted>
0.0137

> <Gold.Chemscore.DEInternal.Weighted>
0.5869

> <Gold.Chemscore.Rot.Weighted>
3.7500

> <Gold.Chemscore.Internal.Correction.Weighted>
   9.000000E+99

> <Gold.Protein.RotatedTorsions>
[ 6907 6896 6895 6894 ] final   41.18 input  -60.11 | X-H torsion
[ 7974 7965 7964 7962 ] final -136.52 input  175.53 | X-H torsion
[ 8008 7997 7996 7995 ] final  142.97 input   59.86 | X-H torsion
[ 10167 10162 10161 10158 ] final   28.47 input  -65.29 | X-H torsion
[ 10718 10713 10712 10709 ] final  105.66 input   66.30 | X-H torsion
[ 10763 10752 10751 10750 ] final  -31.09 input  -60.55 | X-H torsion
[ 11005 11000 10999 10996 ] final  -68.85 input  -57.11 | X-H torsion

> <Gold.Protein.ActiveResidues>
 VAL166  LYS551  ARG553  GLY616  TRP617  ASP618  TYR619  PRO620  LYS621  CYS622 
 ASP623  PHE694  ASN695  SER759  ASP760  ASP761  ALA762  ILE779  LEU786  VAL792 
 PHE793  MET794  SER795  GLU796  ALA797  LYS798  CYS799  TRP800  GLU811  SER814 

> <Gold.Protein.RotatedAtoms>
  152.1920  134.8663  160.0516 H   0  0  0  0  0  0  0  0  0  0  0  0  # atno 6907 bound_to 6896
  151.9549  133.3672  159.4022 H   0  0  0  0  0  0  0  0  0  0  0  0  # atno 6908 bound_to 6896
  150.6937  134.4226  159.5255 H   0  0  0  0  0  0  0  0  0  0  0  0  # atno 6909 bound_to 6896
  144.8920  140.6654  143.5139 H   0  0  0  0  0  0  0  0  0  0  0  0  # atno 7974 bound_to 7965
  156.2939  140.2275  156.4814 H   0  0  0  0  0  0  0  0  0  0  0  0  # atno 8008 bound_to 7997
  154.7849  140.0458  157.1177 H   0  0  0  0  0  0  0  0  0  0  0  0  # atno 8009 bound_to 7997
  154.9714  140.3067  155.4989 H   0  0  0  0  0  0  0  0  0  0  0  0  # atno 8010 bound_to 7997
  140.4850  144.0557  150.6277 H   0  0  0  0  0  0  0  0  0  0  0  0  # atno 10167 bound_to 10162
  157.6697  131.0833  150.5890 H   0  0  0  0  0  0  0  0  0  0  0  0  # atno 10718 bound_to 10713
  153.7917  135.6897  153.4870 H   0  0  0  0  0  0  0  0  0  0  0  0  # atno 10763 bound_to 10752
  153.1745  135.4530  154.9945 H   0  0  0  0  0  0  0  0  0  0  0  0  # atno 10764 bound_to 10752
  154.8042  135.3350  154.7413 H   0  0  0  0  0  0  0  0  0  0  0  0  # atno 10765 bound_to 10752
  141.1541  133.6750  156.6509 H   0  0  0  0  0  0  0  0  0  0  0  0  # atno 11005 bound_to 11000
  145.3767  139.1646  143.4303 LP  0  0  0  0  0  0  0  0  0  0  0  0  # atno 17320 bound_to 7965
  146.3059  140.3844  142.8687 LP  0  0  0  0  0  0  0  0  0  0  0  0  # atno 17321 bound_to 7965
  140.3810  143.2803  152.0171 LP  0  0  0  0  0  0  0  0  0  0  0  0  # atno 17342 bound_to 10162
  139.4840  144.6155  151.7354 LP  0  0  0  0  0  0  0  0  0  0  0  0  # atno 17343 bound_to 10162
  156.6190  130.4401  149.5829 LP  0  0  0  0  0  0  0  0  0  0  0  0  # atno 17370 bound_to 10713
  156.2370  130.6829  151.1519 LP  0  0  0  0  0  0  0  0  0  0  0  0  # atno 17371 bound_to 10713
  140.3321  134.7920  157.4334 LP  0  0  0  0  0  0  0  0  0  0  0  0  # atno 17394 bound_to 11000
  140.1008  134.5475  155.8355 LP  0  0  0  0  0  0  0  0  0  0  0  0  # atno 17395 bound_to 11000

$$$$
