AV-unprocessed.smi:3230|AV-procd|sdf|12329|dock9
  -GOLD-   2272018183D 1   1.00000     0.00000
 Structure written by MMmdl.
 40 40  0  0  0  0  0  0  0  0  1 V2000
  151.8469  145.6204  159.6390 C   0  0  0  0  0  0  0  0  0  0  0  0
  152.6330  144.5704  158.8393 C   0  0  0  0  0  0  0  0  0  0  0  0
  152.1070  143.1195  158.9932 C   0  0  0  0  0  0  0  0  0  0  0  0
  153.2655  142.1126  159.2094 C   0  0  0  0  0  0  0  0  0  0  0  0
  153.8973  142.1545  160.6090 C   0  0  0  0  0  0  0  0  0  0  0  0
  151.1726  142.6996  157.8233 C   0  0  2  0  0  0  0  0  0  0  0  0
  149.9132  143.3256  157.9785 O   0  0  0  0  0  0  0  0  0  0  0  0
  150.9566  141.1718  157.7271 C   0  0  0  0  0  0  0  0  0  0  0  0
  149.9570  140.8185  156.7242 N   0  0  0  0  0  0  0  0  0  0  0  0
  150.2208  140.2626  155.5312 C   0  0  0  0  0  0  0  0  0  0  0  0
  151.3597  140.0020  155.1425 O   0  0  0  0  0  0  0  0  0  0  0  0
  149.0182  139.9523  154.6387 C   0  0  0  0  0  0  0  0  0  0  0  0
  147.9443  140.9864  154.8405 C   0  0  0  0  0  0  0  0  0  0  0  0
  147.2581  141.7500  153.8555 C   0  0  0  0  0  0  0  0  0  0  0  0
  146.3993  142.5216  154.5847 C   0  0  0  0  0  0  0  0  0  0  0  0
  145.3818  143.5434  154.2082 C   0  0  0  0  0  0  0  0  0  0  0  0
  146.5447  142.2616  155.9095 O   0  0  0  0  0  0  0  0  0  0  0  0
  147.5340  141.2842  156.0637 N   0  0  0  0  0  0  0  0  0  0  0  0
  152.2031  146.6237  159.4048 H   0  0  0  0  0  0  0  0  0  0  0  0
  151.9559  145.4845  160.7143 H   0  0  0  0  0  0  0  0  0  0  0  0
  150.7840  145.5847  159.3990 H   0  0  0  0  0  0  0  0  0  0  0  0
  152.5868  144.8715  157.7936 H   0  0  0  0  0  0  0  0  0  0  0  0
  153.6870  144.6182  159.1156 H   0  0  0  0  0  0  0  0  0  0  0  0
  151.4997  143.0981  159.8993 H   0  0  0  0  0  0  0  0  0  0  0  0
  152.9310  141.0984  158.9893 H   0  0  0  0  0  0  0  0  0  0  0  0
  154.0645  142.3180  158.4989 H   0  0  0  0  0  0  0  0  0  0  0  0
  154.7816  141.5183  160.6476 H   0  0  0  0  0  0  0  0  0  0  0  0
  153.2134  141.7986  161.3788 H   0  0  0  0  0  0  0  0  0  0  0  0
  154.2075  143.1660  160.8722 H   0  0  0  0  0  0  0  0  0  0  0  0
  151.6056  143.0476  156.8868 H   0  0  0  0  0  0  0  0  0  0  0  0
  149.7406  143.8440  157.2075 H   0  0  0  0  0  0  0  0  0  0  0  0
  151.8925  140.6752  157.4654 H   0  0  0  0  0  0  0  0  0  0  0  0
  150.6516  140.7545  158.6871 H   0  0  0  0  0  0  0  0  0  0  0  0
  148.9924  141.0019  156.9605 H   0  0  0  0  0  0  0  0  0  0  0  0
  149.3260  139.9088  153.5927 H   0  0  0  0  0  0  0  0  0  0  0  0
  148.6403  138.9608  154.8899 H   0  0  0  0  0  0  0  0  0  0  0  0
  147.3755  141.7295  152.7822 H   0  0  0  0  0  0  0  0  0  0  0  0
  145.4758  143.8171  153.1573 H   0  0  0  0  0  0  0  0  0  0  0  0
  145.5013  144.4481  154.8046 H   0  0  0  0  0  0  0  0  0  0  0  0
  144.3738  143.1610  154.3696 H   0  0  0  0  0  0  0  0  0  0  0  0
  1  2  1  0  0  0  0
  1 19  1  0  0  0  0
  1 20  1  0  0  0  0
  1 21  1  0  0  0  0
  2  3  1  0  0  0  0
  2 22  1  0  0  0  0
  2 23  1  0  0  0  0
  3  4  1  0  0  0  0
  3  6  1  0  0  0  0
  3 24  1  0  0  0  0
  4  5  1  0  0  0  0
  4 25  1  0  0  0  0
  4 26  1  0  0  0  0
  5 27  1  0  0  0  0
  5 28  1  0  0  0  0
  5 29  1  0  0  0  0
  6  7  1  0  0  0  0
  6  8  1  0  0  0  0
  6 30  1  0  0  0  0
  7 31  1  0  0  0  0
  8  9  1  0  0  0  0
  8 32  1  0  0  0  0
  8 33  1  0  0  0  0
  9 10  1  0  0  0  0
  9 34  1  0  0  0  0
 10 11  2  0  0  0  0
 10 12  1  0  0  0  0
 12 13  1  0  0  0  0
 12 35  1  0  0  0  0
 12 36  1  0  0  0  0
 13 18  2  0  0  0  0
 13 14  1  0  0  0  0
 14 15  2  0  0  0  0
 14 37  1  0  0  0  0
 15 16  1  0  0  0  0
 15 17  1  0  0  0  0
 16 38  1  0  0  0  0
 16 39  1  0  0  0  0
 16 40  1  0  0  0  0
 17 18  1  0  0  0  0
M  END
> <s_m_source_file>
AV-unprocessed.smi

> <i_m_source_file_index>
3230

> <i_lp_mmshare_version>
43012

> <i_f3d_flags>
0

> <s_epik_input>
W0NIM11bQ0gyXVtDSF0oW0NIMl1bQ0gzXSlbQ0BIXShbT0hdKVtDSDJdW05IXUMoPU8pW0NIMl1jMVtjSF1jKFtDSDNdKW9uMQ==

> <s_epik_cmdline>
J2VwaWtfcHl0aG9uJywgJy1waCcsICc3LjAnLCAnLXRuJywgJzgnLCAnLW1hJywgJzIwMCcsICctbWV0YWxfYmluZGluZycsICctaW1hZScsICc8aW5maWxlLm1hZT4nLCAnLW9tYWUnLCAnPG91dGZpbGUubWFlPic=

> <r_lp_tautomer_probability>
1

> <r_epik_Ionization_Penalty>
2.40054e-07

> <r_epik_Ionization_Penalty_Charging>
0

> <r_epik_Ionization_Penalty_Neutral>
2.40054e-07

> <r_epik_State_Penalty>
-0

> <r_epik_Charging_Adjusted_Penalty>
0

> <i_epik_Tot_Q>
0

> <i_epik_Tot_abs_Q>
0

> <r_epik_Metal_State_Penalty>
-0

> <b_epik_Metal_Only>
0

> <s_lp_Force_Field>
OPLS_2005

> <r_lp_Energy>
9.05643

> <b_lp_Chiralities_Consistent>
1

> <s_lp_Variant>
AV-unprocessed.smi:3230-1

> <Gold.Version>
5.8.1

> <Gold.Id.Protein>
6NUR|6NUR_protein|mol2

> <Gold.PLP.Fitness>
47.9293

> <Gold.PLP.PLP>
-45.0397

> <Gold.PLP.part.hbond>
-2.0347

> <Gold.PLP.part.metal>
0.0000

> <Gold.PLP.part.buried>
-5.3700

> <Gold.PLP.part.nonpolar>
-37.3096

> <Gold.PLP.part.repulsive>
0.2941

> <Gold.PLP.ligand.clash>
0.0000

> <Gold.PLP.ligand.torsion>
1.6234

> <Gold.PLP.Chemscore.Hbond>
1.9920

> <Gold.PLP.Chemscore.CHOScore>
0.0000

> <Gold.PLP.Chemscore.Metal>
0.0000

> <Gold.Chemscore.Hbonds>
donor molecule, donor type, donor heavy atom, donor atom, acceptor molecule, acceptor atom, score
      L1  H     7    31       P1  8028  1.00
      P1  H  7989  7998       L1    11  1.00

> <Gold.PLP.Chemscore.Internal.Correction>
0.1603

> <Gold.Rescore>
     Score         DG    S(hbond)    S(metal)    S(lipo)     H(rot)  DE(clash)    DE(int)     intcor
     14.25     -17.77       1.95        0.00     105.64       2.57       0.13       3.38       ----

> <Gold.Chemscore.Fitness>
14.2548

> <Gold.Chemscore.DG>
-17.7717

> <Gold.Chemscore.ZeroCoef>
-5.4800

> <Gold.Chemscore.Hbond>
1.9507

> <Gold.Chemscore.Metal>
0.0000

> <Gold.Chemscore.Lipo>
105.6379

> <Gold.Chemscore.Internal_Hbond>
0.0000

> <Gold.Chemscore.DEClash>
0.1338

> <Gold.Chemscore.DEInternal>
3.3831

> <Gold.Chemscore.Rot>
2.5715

> <Gold.Chemscore.Internal.Correction>
   9.000000E+99

> <Gold.Chemscore.Hbonds>
donor molecule, donor type, donor heavy atom, donor atom, acceptor molecule, acceptor atom, score
      L1  H     7    31       P1  8028  0.77
      P1  H  7989  7998       L1    11  0.69

> <Gold.Chemscore.Hbond.Weighted>
-6.5152

> <Gold.Chemscore.Metal.Weighted>
-0.0000

> <Gold.Chemscore.Lipo.Weighted>
-12.3596

> <Gold.Chemscore.Internal_Hbond.Weighted>
0.0000

> <Gold.Chemscore.DEClash.Weighted>
0.1338

> <Gold.Chemscore.DEInternal.Weighted>
3.3831

> <Gold.Chemscore.Rot.Weighted>
6.5831

> <Gold.Chemscore.Internal.Correction.Weighted>
   9.000000E+99

> <Gold.Protein.RotatedTorsions>
[ 6907 6896 6895 6894 ] final -117.57 input  -60.11 | X-H torsion
[ 7974 7965 7964 7962 ] final   30.43 input  175.53 | X-H torsion
[ 8008 7997 7996 7995 ] final -171.51 input   59.86 | X-H torsion
[ 10167 10162 10161 10158 ] final   -9.31 input  -65.29 | X-H torsion
[ 10718 10713 10712 10709 ] final  -95.31 input   66.30 | X-H torsion
[ 10763 10752 10751 10750 ] final  177.82 input  -60.55 | X-H torsion
[ 11005 11000 10999 10996 ] final  -18.47 input  -57.11 | X-H torsion

> <Gold.Protein.ActiveResidues>
 VAL166  LYS551  ARG553  GLY616  TRP617  ASP618  TYR619  PRO620  LYS621  CYS622 
 ASP623  PHE694  ASN695  SER759  ASP760  ASP761  ALA762  ILE779  LEU786  VAL792 
 PHE793  MET794  SER795  GLU796  ALA797  LYS798  CYS799  TRP800  GLU811  SER814 

> <Gold.Protein.RotatedAtoms>
  150.8148  133.8357  159.3165 H   0  0  0  0  0  0  0  0  0  0  0  0  # atno 6907 bound_to 6896
  151.6132  135.1037  160.0095 H   0  0  0  0  0  0  0  0  0  0  0  0  # atno 6908 bound_to 6896
  152.4239  133.7122  159.6542 H   0  0  0  0  0  0  0  0  0  0  0  0  # atno 6909 bound_to 6896
  146.1612  139.6789  142.9032 H   0  0  0  0  0  0  0  0  0  0  0  0  # atno 7974 bound_to 7965
  155.9325  140.1094  157.1121 H   0  0  0  0  0  0  0  0  0  0  0  0  # atno 8008 bound_to 7997
  154.4073  140.1235  156.4887 H   0  0  0  0  0  0  0  0  0  0  0  0  # atno 8009 bound_to 7997
  155.7062  140.3471  155.4956 H   0  0  0  0  0  0  0  0  0  0  0  0  # atno 8010 bound_to 7997
  140.7083  143.5872  150.8930 H   0  0  0  0  0  0  0  0  0  0  0  0  # atno 10167 bound_to 10162
  156.0041  130.5104  150.6057 H   0  0  0  0  0  0  0  0  0  0  0  0  # atno 10718 bound_to 10713
  154.4995  135.2783  155.1432 H   0  0  0  0  0  0  0  0  0  0  0  0  # atno 10763 bound_to 10752
  154.3071  135.6236  153.5453 H   0  0  0  0  0  0  0  0  0  0  0  0  # atno 10764 bound_to 10752
  152.9900  135.5711  154.5435 H   0  0  0  0  0  0  0  0  0  0  0  0  # atno 10765 bound_to 10752
  140.8272  133.8024  155.9720 H   0  0  0  0  0  0  0  0  0  0  0  0  # atno 11005 bound_to 11000
  145.4583  141.0432  143.2765 LP  0  0  0  0  0  0  0  0  0  0  0  0  # atno 17320 bound_to 7965
  144.8029  139.6105  143.7063 LP  0  0  0  0  0  0  0  0  0  0  0  0  # atno 17321 bound_to 7965
  139.9598  143.6177  152.3005 LP  0  0  0  0  0  0  0  0  0  0  0  0  # atno 17342 bound_to 10162
  139.6725  144.7660  151.1756 LP  0  0  0  0  0  0  0  0  0  0  0  0  # atno 17343 bound_to 10162
  157.3898  131.0794  151.1404 LP  0  0  0  0  0  0  0  0  0  0  0  0  # atno 17370 bound_to 10713
  157.2099  130.6433  149.5770 LP  0  0  0  0  0  0  0  0  0  0  0  0  # atno 17371 bound_to 10713
  140.9037  134.2347  157.5027 LP  0  0  0  0  0  0  0  0  0  0  0  0  # atno 17394 bound_to 11000
  139.8706  134.9718  156.4751 LP  0  0  0  0  0  0  0  0  0  0  0  0  # atno 17395 bound_to 11000

$$$$
