#       Name:                AV-unprocessed.smi:2626
#       Creating user name   scv26
#       Creation time:       Fri Mar 27 14:24:42 2020


#       File generated by GOLD software.
#

@<TRIPOS>MOLECULE
AV-unprocessed.smi:2626
    33    34     1
SMALL
NO_CHARGES


@<TRIPOS>ATOM
      1 ****        -3.5377   1.5881   0.0061 C.3            1 S1                 0.0000
      2 ****        -2.0317   1.7487   0.0060 C.2            1 S1                 0.0000
      3 ****        -1.4041   2.9417   0.0074 C.2            1 S1                 0.0000
      4 ****         0.0636   2.9871   0.0075 C.2            1 S1                 0.0000
      5 ****         0.6626   4.0601   0.0084 O.2            1 S1                 0.0000
      6 ****         0.7497   1.7613   0.0063 N.2            1 S1                 0.0000
      7 ****         0.0819   0.6421   0.0047 C.2            1 S1                 0.0000
      8 ****         0.7045  -0.5964   0.0024 N.3            1 S1                 0.0000
      9 ****         1.4059  -1.0027  -1.2112 C.3            1 S1                 0.0000
     10 ****         1.7334  -2.5054  -1.1810 C.3            1 S1                 0.0000
     11 ****         2.4901  -2.8047  -0.0144 O.3            1 S1                 0.0000
     12 ****         1.7698  -2.4935   1.1719 C.3            1 S1                 0.0000
     13 ****         1.4438  -0.9907   1.1974 C.3            1 S1                 0.0000
     14 ****        -1.3062   0.5708   0.0044 N.pl3          1 S1                 0.0000
     15 ****        -1.8128  -0.3027   0.0036 H              1 S1                 0.0000
     16 ****        -4.0372   2.5575   0.0059 H              1 S1                 0.0000
     17 ****        -3.8615   1.0395   0.8909 H              1 S1                 0.0000
     18 ****        -3.8617   1.0391  -0.8785 H              1 S1                 0.0000
     19 ****        -1.9704   3.8616   0.0085 H              1 S1                 0.0000
     20 ****         2.3256  -0.4233  -1.3053 H              1 S1                 0.0000
     21 ****         0.7961  -0.7772  -2.0874 H              1 S1                 0.0000
     22 ****         0.8205  -3.1029  -1.2003 H              1 S1                 0.0000
     23 ****         2.3137  -2.7807  -2.0616 H              1 S1                 0.0000
     24 ****         0.8579  -3.0905   1.2253 H              1 S1                 0.0000
     25 ****         2.3770  -2.7607   2.0369 H              1 S1                 0.0000
     26 ****         0.8616  -0.7560   2.0899 H              1 S1                 0.0000
     27 ****         2.3661  -0.4107   1.2570 H              1 S1                 0.0000
     28 ****         0.1501   4.9188   0.0090 LP             1 S1                 0.0000
     29 ****         1.6625   4.0746   0.0084 LP             1 S1                 0.0000
     30 ****         1.7496   1.7475   0.0066 LP             1 S1                 0.0000
     31 ****        -0.1373  -1.1360   0.0198 LP             1 S1                 0.0000
     32 ****         3.3354  -2.2706  -0.0302 LP             1 S1                 0.0000
     33 ****         2.7118  -3.7798  -0.0129 LP             1 S1                 0.0000
@<TRIPOS>BOND
    1    1   16 1     
    2    1   17 1     
    3    1   18 1     
    4    1    2 1     
    5    2    3 2     
    6    2   14 1     
    7    3    4 1     
    8    3   19 1     
    9    4    6 1     
   10    4    5 2     
   11    6    7 2     
   12    7   14 1     
   13    7    8 1     
   14    8   13 1     
   15    8    9 1     
   16    9   10 1     
   17    9   20 1     
   18    9   21 1     
   19   10   11 1     
   20   10   22 1     
   21   10   23 1     
   22   11   12 1     
   23   12   13 1     
   24   12   24 1     
   25   12   25 1     
   26   13   26 1     
   27   13   27 1     
   28   14   15 1     
   29    5   28 1     
   30    5   29 1     
   31    6   30 1     
   32    8   31 1     
   33   11   32 1     
   34   11   33 1     
@<TRIPOS>SUBSTRUCTURE
      1 S1             1
@<TRIPOS>SET
LONE_PAIRS      STATIC     ATOMS    <user>   **** ""
6 28 29 30 31 32 33
DONOR_HYDROGENS      STATIC     ATOMS    <user>   **** ""
1 15
ATOM$BLUE        STATIC     ATOMS    COLORGROUP SYSTEM
6 28 29 30 31 32 33
ATOM$RED        STATIC     ATOMS    COLORGROUP SYSTEM
1 15
