AV-unprocessed.smi:243|AV-procd|sdf|1853|dock3
  -GOLD-   2262020483D 1   1.00000     0.00000
 Structure written by MMmdl.
 58 61  0  0  0  0  0  0  0  0  2 V2000
  146.3239  128.5810  151.5967 C   0  0  0  0  0  0  0  0  0  0  0  0
  145.7905  130.0209  151.5934 C   0  0  0  0  0  0  0  0  0  0  0  0
  146.7737  130.9945  152.1330 N   0  3  1  0  0  0  0  0  0  0  0  0
  146.2784  132.3955  152.1174 C   0  0  0  0  0  0  0  0  0  0  0  0
  147.3609  133.3914  152.5790 C   0  0  0  0  0  0  0  0  0  0  0  0
  148.0591  133.0124  153.9026 C   0  0  1  0  0  0  0  0  0  0  0  0
  147.3558  133.4965  155.1051 N   0  0  0  0  0  0  0  0  0  0  0  0
  145.9852  133.1341  155.4546 C   0  0  0  0  0  0  0  0  0  0  0  0
  148.0948  134.1062  156.0675 C   0  0  0  0  0  0  0  0  0  0  0  0
  147.5769  134.1895  157.3207 N   0  0  0  0  0  0  0  0  0  0  0  0
  148.2695  134.7776  158.3002 C   0  0  0  0  0  0  0  0  0  0  0  0
  149.4768  135.3420  158.2448 N   0  0  0  0  0  0  0  0  0  0  0  0
  150.0016  135.2679  156.9882 C   0  0  0  0  0  0  0  0  0  0  0  0
  149.3870  134.6682  155.8520 C   0  0  0  0  0  0  0  0  0  0  0  0
  150.2225  134.7907  154.7474 N   0  0  0  0  0  0  0  0  0  0  0  0
  151.2709  135.4176  155.2056 C   0  0  0  0  0  0  0  0  0  0  0  0
  151.2175  135.7537  156.5394 N   0  0  0  0  0  0  0  0  0  0  0  0
  152.2379  136.4576  157.3018 C   0  0  0  0  0  0  0  0  0  0  0  0
  152.6602  137.8065  156.6726 C   0  0  2  0  0  0  0  0  0  0  0  0
  153.6527  138.4051  157.4887 O   0  0  0  0  0  0  0  0  0  0  0  0
  151.5007  138.7857  156.5362 C   0  0  0  0  0  0  0  0  0  0  0  0
  151.9064  139.6223  155.3303 C   0  0  0  0  0  0  0  0  0  0  0  0
  152.4775  138.6619  154.4583 O   0  0  0  0  0  0  0  0  0  0  0  0
  153.2045  137.7110  155.2314 C   0  0  0  0  0  0  0  0  0  0  0  0
  148.4332  131.5094  153.9240 C   0  0  1  0  0  0  0  0  0  0  0  0
  149.0643  131.0488  155.2494 C   0  0  0  0  0  0  0  0  0  0  0  0
  147.2689  130.6040  153.4775 C   0  0  0  0  0  0  0  0  0  0  0  0
  145.5462  127.8846  151.2826 H   0  0  0  0  0  0  0  0  0  0  0  0
  146.6482  128.2829  152.5942 H   0  0  0  0  0  0  0  0  0  0  0  0
  147.1644  128.4522  150.9156 H   0  0  0  0  0  0  0  0  0  0  0  0
  145.4826  130.3158  150.5893 H   0  0  0  0  0  0  0  0  0  0  0  0
  144.8903  130.0392  152.2089 H   0  0  0  0  0  0  0  0  0  0  0  0
  145.9753  132.6701  151.1077 H   0  0  0  0  0  0  0  0  0  0  0  0
  145.3800  132.4722  152.7258 H   0  0  0  0  0  0  0  0  0  0  0  0
  148.1230  133.4322  151.7999 H   0  0  0  0  0  0  0  0  0  0  0  0
  146.9502  134.4002  152.6398 H   0  0  0  0  0  0  0  0  0  0  0  0
  149.0186  133.5299  153.8717 H   0  0  0  0  0  0  0  0  0  0  0  0
  145.6013  133.7768  156.2481 H   0  0  0  0  0  0  0  0  0  0  0  0
  145.9309  132.1041  155.8052 H   0  0  0  0  0  0  0  0  0  0  0  0
  145.3101  133.2517  154.6126 H   0  0  0  0  0  0  0  0  0  0  0  0
  147.7868  134.8004  159.2662 H   0  0  0  0  0  0  0  0  0  0  0  0
  152.1152  135.6613  154.5769 H   0  0  0  0  0  0  0  0  0  0  0  0
  151.8594  136.6180  158.3121 H   0  0  0  0  0  0  0  0  0  0  0  0
  153.1029  135.8004  157.4024 H   0  0  0  0  0  0  0  0  0  0  0  0
  153.4690  138.1886  158.3902 H   0  0  0  0  0  0  0  0  0  0  0  0
  150.5791  138.2510  156.3018 H   0  0  0  0  0  0  0  0  0  0  0  0
  151.3195  139.3814  157.4318 H   0  0  0  0  0  0  0  0  0  0  0  0
  151.0632  140.1354  154.8677 H   0  0  0  0  0  0  0  0  0  0  0  0
  152.6578  140.3652  155.6020 H   0  0  0  0  0  0  0  0  0  0  0  0
  154.2738  137.9224  155.1782 H   0  0  0  0  0  0  0  0  0  0  0  0
  153.0457  136.7276  154.7903 H   0  0  0  0  0  0  0  0  0  0  0  0
  149.2111  131.3855  153.1685 H   0  0  0  0  0  0  0  0  0  0  0  0
  148.3423  131.0555  156.0656 H   0  0  0  0  0  0  0  0  0  0  0  0
  149.8954  131.6949  155.5341 H   0  0  0  0  0  0  0  0  0  0  0  0
  149.4516  130.0329  155.1657 H   0  0  0  0  0  0  0  0  0  0  0  0
  146.4483  130.6235  154.1939 H   0  0  0  0  0  0  0  0  0  0  0  0
  147.6232  129.5728  153.4421 H   0  0  0  0  0  0  0  0  0  0  0  0
  147.5756  130.9585  151.5200 H   0  0  0  0  0  0  0  0  0  0  0  0
  1  2  1  0  0  0  0
  1 28  1  0  0  0  0
  1 29  1  0  0  0  0
  1 30  1  0  0  0  0
  2  3  1  0  0  0  0
  2 31  1  0  0  0  0
  2 32  1  0  0  0  0
  3 27  1  0  0  0  0
  3  4  1  0  0  0  0
  3 58  1  0  0  0  0
  4  5  1  0  0  0  0
  4 33  1  0  0  0  0
  4 34  1  0  0  0  0
  5  6  1  0  0  0  0
  5 35  1  0  0  0  0
  5 36  1  0  0  0  0
  6  7  1  0  0  0  0
  6 25  1  0  0  0  0
  6 37  1  0  0  0  0
  7  8  1  0  0  0  0
  7  9  1  0  0  0  0
  8 38  1  0  0  0  0
  8 39  1  0  0  0  0
  8 40  1  0  0  0  0
  9 14  1  0  0  0  0
  9 10  2  0  0  0  0
 10 11  1  0  0  0  0
 11 12  2  0  0  0  0
 11 41  1  0  0  0  0
 12 13  1  0  0  0  0
 13 17  1  0  0  0  0
 13 14  2  0  0  0  0
 14 15  1  0  0  0  0
 15 16  2  0  0  0  0
 16 17  1  0  0  0  0
 16 42  1  0  0  0  0
 17 18  1  0  0  0  0
 18 19  1  0  0  0  0
 18 43  1  0  0  0  0
 18 44  1  0  0  0  0
 19 24  1  0  0  0  0
 19 20  1  0  0  0  0
 19 21  1  0  0  0  0
 20 45  1  0  0  0  0
 21 22  1  0  0  0  0
 21 46  1  0  0  0  0
 21 47  1  0  0  0  0
 22 23  1  0  0  0  0
 22 48  1  0  0  0  0
 22 49  1  0  0  0  0
 23 24  1  0  0  0  0
 24 50  1  0  0  0  0
 24 51  1  0  0  0  0
 25 26  1  0  0  0  0
 25 27  1  0  0  0  0
 25 52  1  0  0  0  0
 26 53  1  0  0  0  0
 26 54  1  0  0  0  0
 26 55  1  0  0  0  0
 27 56  1  0  0  0  0
 27 57  1  0  0  0  0
M  CHG  1   3   1
M  END
> <s_m_source_file>
AV-unprocessed.smi

> <i_m_source_file_index>
243

> <i_lp_mmshare_version>
43012

> <i_f3d_flags>
0

> <s_epik_input>
W0NIM11bQ0gyXU4xW0NIMl1bQ0gyXVtDQEhdKFtDQEBIXShbQ0gzXSlbQ0gyXTEpTihbQ0gzXSljKG5bY0hdbjIpYyhjMjMpbltjSF1uM1tDSDJdW0NAQF00KFtPSF0pW0NIMl1bQ0gyXU9bQ0gyXTQ=

> <s_epik_cmdline>
J2VwaWtfcHl0aG9uJywgJy1waCcsICc3LjAnLCAnLXRuJywgJzgnLCAnLW1hJywgJzIwMCcsICctbWV0YWxfYmluZGluZycsICctaW1hZScsICc8aW5maWxlLm1hZT4nLCAnLW9tYWUnLCAnPG91dGZpbGUubWFlPic=

> <r_lp_tautomer_probability>
1

> <r_epik_Ionization_Penalty>
0.00253099

> <r_epik_Ionization_Penalty_Charging>
0.00137877

> <r_epik_Ionization_Penalty_Neutral>
0.00115221

> <r_epik_State_Penalty>
-0

> <r_epik_Charging_Adjusted_Penalty>
0.00137877

> <i_epik_Tot_Q>
1

> <i_epik_Tot_abs_Q>
1

> <r_epik_Metal_State_Penalty>
-0

> <b_epik_Metal_Only>
0

> <s_lp_Force_Field>
OPLS_2005

> <r_lp_Energy>
51.4738

> <b_lp_Chiralities_Consistent>
1

> <s_lp_Variant>
AV-unprocessed.smi:243-6

> <Gold.Version>
5.8.1

> <Gold.Id.Protein>
6NUR|6NUR_protein|mol2

> <Gold.PLP.Fitness>
47.9146

> <Gold.PLP.PLP>
-36.0556

> <Gold.PLP.part.hbond>
-4.0000

> <Gold.PLP.part.metal>
0.0000

> <Gold.PLP.part.buried>
-5.0975

> <Gold.PLP.part.nonpolar>
-28.8565

> <Gold.PLP.part.repulsive>
1.1417

> <Gold.PLP.ligand.clash>
0.0054

> <Gold.PLP.ligand.torsion>
0.4394

> <Gold.PLP.Chemscore.Hbond>
3.9920

> <Gold.PLP.Chemscore.CHOScore>
0.1439

> <Gold.PLP.Chemscore.Metal>
0.0000

> <Gold.Chemscore.Hbonds>
donor molecule, donor type, donor heavy atom, donor atom, acceptor molecule, acceptor atom, score
      L1  H     3    58       P1 10747  1.00
      P1  H  6896  6908       L1    12  0.98
      P1  H  7997  8008       L1    20  0.90

> <Gold.PLP.Chemscore.Internal.Correction>
0.3354

> <Gold.Rescore>
     Score         DG    S(hbond)    S(metal)    S(lipo)     H(rot)  DE(clash)    DE(int)     intcor
     17.81     -20.48       3.35        0.00      81.46       2.24       0.07       2.60       ----

> <Gold.Chemscore.Fitness>
17.8087

> <Gold.Chemscore.DG>
-20.4771

> <Gold.Chemscore.ZeroCoef>
-5.4800

> <Gold.Chemscore.Hbond>
3.3519

> <Gold.Chemscore.Metal>
0.0000

> <Gold.Chemscore.Lipo>
81.4601

> <Gold.Chemscore.Internal_Hbond>
0.0000

> <Gold.Chemscore.DEClash>
0.0729

> <Gold.Chemscore.DEInternal>
2.5956

> <Gold.Chemscore.Rot>
2.2379

> <Gold.Chemscore.Internal.Correction>
   9.000000E+99

> <Gold.Chemscore.Hbonds>
donor molecule, donor type, donor heavy atom, donor atom, acceptor molecule, acceptor atom, score
      L1  H     3    58       P1 10747  1.00
      P1  H  6896  6908       L1    12  0.68
      P1  H  7997  8008       L1    20  0.79

> <Gold.Chemscore.Hbond.Weighted>
-11.1954

> <Gold.Chemscore.Metal.Weighted>
-0.0000

> <Gold.Chemscore.Lipo.Weighted>
-9.5308

> <Gold.Chemscore.Internal_Hbond.Weighted>
0.0000

> <Gold.Chemscore.DEClash.Weighted>
0.0729

> <Gold.Chemscore.DEInternal.Weighted>
2.5956

> <Gold.Chemscore.Rot.Weighted>
5.7291

> <Gold.Chemscore.Internal.Correction.Weighted>
   9.000000E+99

> <Gold.Protein.RotatedTorsions>
[ 6907 6896 6895 6894 ] final -176.11 input  -60.11 | X-H torsion
[ 7974 7965 7964 7962 ] final   -1.48 input  175.53 | X-H torsion
[ 8008 7997 7996 7995 ] final  -66.80 input   59.86 | X-H torsion
[ 10167 10162 10161 10158 ] final  149.73 input  -65.29 | X-H torsion
[ 10718 10713 10712 10709 ] final  -61.77 input   66.30 | X-H torsion
[ 10763 10752 10751 10750 ] final  155.79 input  -60.55 | X-H torsion
[ 11005 11000 10999 10996 ] final -143.28 input  -57.11 | X-H torsion

> <Gold.Protein.ActiveResidues>
 VAL166  LYS551  ARG553  GLY616  TRP617  ASP618  TYR619  PRO620  LYS621  CYS622 
 ASP623  PHE694  ASN695  SER759  ASP760  ASP761  ALA762  ILE779  LEU786  VAL792 
 PHE793  MET794  SER795  GLU796  ALA797  LYS798  CYS799  TRP800  GLU811  SER814 

> <Gold.Protein.RotatedAtoms>
  151.5995  133.3358  159.3044 H   0  0  0  0  0  0  0  0  0  0  0  0  # atno 6907 bound_to 6896
  150.8216  134.7429  159.6788 H   0  0  0  0  0  0  0  0  0  0  0  0  # atno 6908 bound_to 6896
  152.4309  134.5786  159.9993 H   0  0  0  0  0  0  0  0  0  0  0  0  # atno 6909 bound_to 6896
  146.2416  140.1427  142.8335 H   0  0  0  0  0  0  0  0  0  0  0  0  # atno 7974 bound_to 7965
  154.4758  140.0905  156.7258 H   0  0  0  0  0  0  0  0  0  0  0  0  # atno 8008 bound_to 7997
  155.4600  140.3460  155.4293 H   0  0  0  0  0  0  0  0  0  0  0  0  # atno 8009 bound_to 7997
  156.1114  140.1449  156.9322 H   0  0  0  0  0  0  0  0  0  0  0  0  # atno 8010 bound_to 7997
  139.4858  144.5578  151.7285 H   0  0  0  0  0  0  0  0  0  0  0  0  # atno 10167 bound_to 10162
  156.0899  130.4202  150.1040 H   0  0  0  0  0  0  0  0  0  0  0  0  # atno 10718 bound_to 10713
  154.1740  135.2803  155.3072 H   0  0  0  0  0  0  0  0  0  0  0  0  # atno 10763 bound_to 10752
  154.6053  135.5516  153.7420 H   0  0  0  0  0  0  0  0  0  0  0  0  # atno 10764 bound_to 10752
  153.0156  135.6402  154.1880 H   0  0  0  0  0  0  0  0  0  0  0  0  # atno 10765 bound_to 10752
  140.8141  134.2709  157.4928 H   0  0  0  0  0  0  0  0  0  0  0  0  # atno 11005 bound_to 11000
  145.0233  140.8812  143.5153 LP  0  0  0  0  0  0  0  0  0  0  0  0  # atno 17320 bound_to 7965
  145.1479  139.2532  143.5456 LP  0  0  0  0  0  0  0  0  0  0  0  0  # atno 17321 bound_to 7965
  140.5143  144.0977  150.6004 LP  0  0  0  0  0  0  0  0  0  0  0  0  # atno 17342 bound_to 10162
  140.3913  143.2751  152.0056 LP  0  0  0  0  0  0  0  0  0  0  0  0  # atno 17343 bound_to 10162
  156.9053  130.9634  151.3571 LP  0  0  0  0  0  0  0  0  0  0  0  0  # atno 17370 bound_to 10713
  157.6046  130.8537  149.8855 LP  0  0  0  0  0  0  0  0  0  0  0  0  # atno 17371 bound_to 10713
  139.8712  134.9499  156.4040 LP  0  0  0  0  0  0  0  0  0  0  0  0  # atno 17394 bound_to 11000
  140.9167  133.7673  155.9857 LP  0  0  0  0  0  0  0  0  0  0  0  0  # atno 17395 bound_to 11000

$$$$
