AV-unprocessed.smi:1364|AV-procd|sdf|5567|dock5
  -GOLD-   22720 5163D 1   1.00000     0.00000
 Structure written by MMmdl.
 40 41  0  0  0  0  0  0  0  0  1 V2000
  152.8932  143.2149  159.7051 C   0  0  0  0  0  0  0  0  0  0  0  0
  151.8934  143.6712  158.6222 C   0  0  0  0  0  0  0  0  0  0  0  0
  150.6855  144.3458  159.3053 C   0  0  0  0  0  0  0  0  0  0  0  0
  152.5880  144.7050  157.7037 C   0  0  0  0  0  0  0  0  0  0  0  0
  151.3940  142.4239  157.8502 C   0  0  0  0  0  0  0  0  0  0  0  0
  151.8973  141.3278  158.0995 O   0  0  0  0  0  0  0  0  0  0  0  0
  150.4379  142.6058  156.9175 N   0  0  0  0  0  0  0  0  0  0  0  0
  149.8112  141.6401  156.0846 C   0  0  0  0  0  0  0  0  0  0  0  0
  150.4692  140.5193  155.5282 C   0  0  0  0  0  0  0  0  0  0  0  0
  149.7321  139.6205  154.7336 C   0  0  0  0  0  0  0  0  0  0  0  0
  148.3535  139.8554  154.5172 C   0  0  0  0  0  0  0  0  0  0  0  0
  147.5968  138.9674  153.7213 N   0  0  0  0  0  0  0  0  0  0  0  0
  146.7022  138.0302  154.3985 C   0  0  0  0  0  0  0  0  0  0  0  0
  146.1967  136.9633  153.4128 C   0  0  0  0  0  0  0  0  0  0  0  0
  145.5843  137.5963  152.2944 O   0  0  0  0  0  0  0  0  0  0  0  0
  146.5038  138.4182  151.5832 C   0  0  0  0  0  0  0  0  0  0  0  0
  147.0244  139.5360  152.5032 C   0  0  0  0  0  0  0  0  0  0  0  0
  147.7223  140.9196  155.0711 N   0  0  0  0  0  0  0  0  0  0  0  0
  148.4325  141.7789  155.8312 C   0  0  0  0  0  0  0  0  0  0  0  0
  153.2648  144.0626  160.2818 H   0  0  0  0  0  0  0  0  0  0  0  0
  153.7581  142.7172  159.2641 H   0  0  0  0  0  0  0  0  0  0  0  0
  152.4388  142.5197  160.4125 H   0  0  0  0  0  0  0  0  0  0  0  0
  150.1861  143.6749  160.0059 H   0  0  0  0  0  0  0  0  0  0  0  0
  149.9438  144.6700  158.5741 H   0  0  0  0  0  0  0  0  0  0  0  0
  150.9928  145.2274  159.8691 H   0  0  0  0  0  0  0  0  0  0  0  0
  152.9237  145.5713  158.2748 H   0  0  0  0  0  0  0  0  0  0  0  0
  151.9159  145.0754  156.9282 H   0  0  0  0  0  0  0  0  0  0  0  0
  153.4683  144.2861  157.2141 H   0  0  0  0  0  0  0  0  0  0  0  0
  150.1727  143.5645  156.7433 H   0  0  0  0  0  0  0  0  0  0  0  0
  151.5142  140.3205  155.7075 H   0  0  0  0  0  0  0  0  0  0  0  0
  150.2275  138.7557  154.3186 H   0  0  0  0  0  0  0  0  0  0  0  0
  147.2214  137.5405  155.2234 H   0  0  0  0  0  0  0  0  0  0  0  0
  145.8586  138.5777  154.8212 H   0  0  0  0  0  0  0  0  0  0  0  0
  147.0146  136.3224  153.0795 H   0  0  0  0  0  0  0  0  0  0  0  0
  145.4658  136.3181  153.9005 H   0  0  0  0  0  0  0  0  0  0  0  0
  147.3282  137.8141  151.2008 H   0  0  0  0  0  0  0  0  0  0  0  0
  145.9984  138.8497  150.7192 H   0  0  0  0  0  0  0  0  0  0  0  0
  146.2065  140.2029  152.7784 H   0  0  0  0  0  0  0  0  0  0  0  0
  147.7499  140.1351  151.9550 H   0  0  0  0  0  0  0  0  0  0  0  0
  147.8796  142.6085  156.2470 H   0  0  0  0  0  0  0  0  0  0  0  0
  1  2  1  0  0  0  0
  1 20  1  0  0  0  0
  1 21  1  0  0  0  0
  1 22  1  0  0  0  0
  2  3  1  0  0  0  0
  2  4  1  0  0  0  0
  2  5  1  0  0  0  0
  3 23  1  0  0  0  0
  3 24  1  0  0  0  0
  3 25  1  0  0  0  0
  4 26  1  0  0  0  0
  4 27  1  0  0  0  0
  4 28  1  0  0  0  0
  5  6  2  0  0  0  0
  5  7  1  0  0  0  0
  7  8  1  0  0  0  0
  7 29  1  0  0  0  0
  8 19  1  0  0  0  0
  8  9  2  0  0  0  0
  9 10  1  0  0  0  0
  9 30  1  0  0  0  0
 10 11  2  0  0  0  0
 10 31  1  0  0  0  0
 11 12  1  0  0  0  0
 11 18  1  0  0  0  0
 12 17  1  0  0  0  0
 12 13  1  0  0  0  0
 13 14  1  0  0  0  0
 13 32  1  0  0  0  0
 13 33  1  0  0  0  0
 14 15  1  0  0  0  0
 14 34  1  0  0  0  0
 14 35  1  0  0  0  0
 15 16  1  0  0  0  0
 16 17  1  0  0  0  0
 16 36  1  0  0  0  0
 16 37  1  0  0  0  0
 17 38  1  0  0  0  0
 17 39  1  0  0  0  0
 18 19  2  0  0  0  0
 19 40  1  0  0  0  0
M  END
> <s_m_source_file>
AV-unprocessed.smi

> <i_m_source_file_index>
1364

> <i_lp_mmshare_version>
43012

> <i_f3d_flags>
0

> <s_epik_input>
W0NIM11DKFtDSDNdKShbQ0gzXSlDKD1PKVtOSF1jMVtjSF1bY0hdYyhuW2NIXTEpTjJbQ0gyXVtDSDJdT1tDSDJdW0NIMl0y

> <s_epik_cmdline>
J2VwaWtfcHl0aG9uJywgJy1waCcsICc3LjAnLCAnLXRuJywgJzgnLCAnLW1hJywgJzIwMCcsICctbWV0YWxfYmluZGluZycsICctaW1hZScsICc8aW5maWxlLm1hZT4nLCAnLW9tYWUnLCAnPG91dGZpbGUubWFlPic=

> <r_lp_tautomer_probability>
1

> <r_epik_Ionization_Penalty>
0.000770434

> <r_epik_Ionization_Penalty_Charging>
0

> <r_epik_Ionization_Penalty_Neutral>
0.000770434

> <r_epik_State_Penalty>
0.00047801

> <r_epik_Charging_Adjusted_Penalty>
0.00047801

> <i_epik_Tot_Q>
0

> <i_epik_Tot_abs_Q>
0

> <r_epik_Metal_State_Penalty>
-0

> <b_epik_Metal_Only>
0

> <s_lp_Force_Field>
OPLS_2005

> <r_lp_Energy>
28.9923

> <b_lp_Chiralities_Consistent>
1

> <s_lp_Variant>
AV-unprocessed.smi:1364-1

> <Gold.Version>
5.8.1

> <Gold.Id.Protein>
6NUR|6NUR_protein|mol2

> <Gold.PLP.Fitness>
36.3089

> <Gold.PLP.PLP>
-32.4648

> <Gold.PLP.part.hbond>
-1.0000

> <Gold.PLP.part.metal>
0.0000

> <Gold.PLP.part.buried>
0.1368

> <Gold.PLP.part.nonpolar>
-32.3828

> <Gold.PLP.part.repulsive>
0.5632

> <Gold.PLP.ligand.clash>
0.0000

> <Gold.PLP.ligand.torsion>
0.5475

> <Gold.PLP.Chemscore.Hbond>
0.8800

> <Gold.PLP.Chemscore.CHOScore>
0.6492

> <Gold.PLP.Chemscore.Metal>
0.0000

> <Gold.Chemscore.Hbonds>
donor molecule, donor type, donor heavy atom, donor atom, acceptor molecule, acceptor atom, score
      L1  H     7    29       P1  8028  0.87
      L1  C    19    40       P1  8028  0.65

> <Gold.PLP.Chemscore.Internal.Correction>
0.3515

> <Gold.Rescore>
     Score         DG    S(hbond)    S(metal)    S(lipo)     H(rot)  DE(clash)    DE(int)     intcor
     15.22     -16.79       0.95        0.00      95.07       1.17       0.27       1.30       ----

> <Gold.Chemscore.Fitness>
15.2223

> <Gold.Chemscore.DG>
-16.7890

> <Gold.Chemscore.ZeroCoef>
-5.4800

> <Gold.Chemscore.Hbond>
0.9505

> <Gold.Chemscore.Metal>
0.0000

> <Gold.Chemscore.Lipo>
95.0703

> <Gold.Chemscore.Internal_Hbond>
0.0000

> <Gold.Chemscore.DEClash>
0.2679

> <Gold.Chemscore.DEInternal>
1.2988

> <Gold.Chemscore.Rot>
1.1675

> <Gold.Chemscore.Internal.Correction>
   9.000000E+99

> <Gold.Chemscore.Hbonds>
donor molecule, donor type, donor heavy atom, donor atom, acceptor molecule, acceptor atom, score
      L1  H     7    29       P1  8028  0.81

> <Gold.Chemscore.Hbond.Weighted>
-3.1745

> <Gold.Chemscore.Metal.Weighted>
-0.0000

> <Gold.Chemscore.Lipo.Weighted>
-11.1232

> <Gold.Chemscore.Internal_Hbond.Weighted>
0.0000

> <Gold.Chemscore.DEClash.Weighted>
0.2679

> <Gold.Chemscore.DEInternal.Weighted>
1.2988

> <Gold.Chemscore.Rot.Weighted>
2.9888

> <Gold.Chemscore.Internal.Correction.Weighted>
   9.000000E+99

> <Gold.Protein.RotatedTorsions>
[ 6907 6896 6895 6894 ] final -171.42 input  -60.11 | X-H torsion
[ 7974 7965 7964 7962 ] final   21.95 input  175.53 | X-H torsion
[ 8008 7997 7996 7995 ] final  -57.31 input   59.86 | X-H torsion
[ 10167 10162 10161 10158 ] final -148.22 input  -65.29 | X-H torsion
[ 10718 10713 10712 10709 ] final  144.35 input   66.30 | X-H torsion
[ 10763 10752 10751 10750 ] final   89.17 input  -60.55 | X-H torsion
[ 11005 11000 10999 10996 ] final   12.61 input  -57.11 | X-H torsion

> <Gold.Protein.ActiveResidues>
 VAL166  LYS551  ARG553  GLY616  TRP617  ASP618  TYR619  PRO620  LYS621  CYS622 
 ASP623  PHE694  ASN695  SER759  ASP760  ASP761  ALA762  ILE779  LEU786  VAL792 
 PHE793  MET794  SER795  GLU796  ALA797  LYS798  CYS799  TRP800  GLU811  SER814 

> <Gold.Protein.RotatedAtoms>
  151.5235  133.3462  159.2905 H   0  0  0  0  0  0  0  0  0  0  0  0  # atno 6907 bound_to 6896
  150.8637  134.7998  159.7113 H   0  0  0  0  0  0  0  0  0  0  0  0  # atno 6908 bound_to 6896
  152.4649  134.5108  159.9805 H   0  0  0  0  0  0  0  0  0  0  0  0  # atno 6909 bound_to 6896
  146.2050  139.7954  142.8733 H   0  0  0  0  0  0  0  0  0  0  0  0  # atno 7974 bound_to 7965
  154.4263  140.1110  156.5777 H   0  0  0  0  0  0  0  0  0  0  0  0  # atno 8008 bound_to 7997
  155.6146  140.3494  155.4614 H   0  0  0  0  0  0  0  0  0  0  0  0  # atno 8009 bound_to 7997
  156.0073  140.1211  157.0479 H   0  0  0  0  0  0  0  0  0  0  0  0  # atno 8010 bound_to 7997
  139.7551  143.8460  152.2595 H   0  0  0  0  0  0  0  0  0  0  0  0  # atno 10167 bound_to 10162
  157.3583  131.0961  151.0939 H   0  0  0  0  0  0  0  0  0  0  0  0  # atno 10718 bound_to 10713
  153.1843  135.4480  155.0068 H   0  0  0  0  0  0  0  0  0  0  0  0  # atno 10763 bound_to 10752
  154.8050  135.3271  154.7456 H   0  0  0  0  0  0  0  0  0  0  0  0  # atno 10764 bound_to 10752
  153.7917  135.6969  153.4925 H   0  0  0  0  0  0  0  0  0  0  0  0  # atno 10765 bound_to 10752
  140.4900  134.0849  155.7769 H   0  0  0  0  0  0  0  0  0  0  0  0  # atno 11005 bound_to 11000
  145.3353  141.0276  143.3423 LP  0  0  0  0  0  0  0  0  0  0  0  0  # atno 17320 bound_to 7965
  144.8770  139.4957  143.6741 LP  0  0  0  0  0  0  0  0  0  0  0  0  # atno 17321 bound_to 7965
  139.8450  144.7192  150.9284 LP  0  0  0  0  0  0  0  0  0  0  0  0  # atno 17342 bound_to 10162
  140.7802  143.3949  151.1246 LP  0  0  0  0  0  0  0  0  0  0  0  0  # atno 17343 bound_to 10162
  157.2088  130.6428  149.5766 LP  0  0  0  0  0  0  0  0  0  0  0  0  # atno 17370 bound_to 10713
  155.9733  130.4666  150.6297 LP  0  0  0  0  0  0  0  0  0  0  0  0  # atno 17371 bound_to 10713
  141.1489  133.9006  157.2148 LP  0  0  0  0  0  0  0  0  0  0  0  0  # atno 17394 bound_to 11000
  139.9775  135.0109  156.9667 LP  0  0  0  0  0  0  0  0  0  0  0  0  # atno 17395 bound_to 11000

$$$$
