#       Name:                AV-unprocessed.smi:2928
#       Creating user name   scv26
#       Creation time:       Fri Mar 27 16:13:11 2020


#       File generated by GOLD software.
#

@<TRIPOS>MOLECULE
AV-unprocessed.smi:2928
    59    62     1
SMALL
NO_CHARGES


@<TRIPOS>ATOM
      1 ****        -4.9672  -2.8234  -0.4311 C.3            1 S1                 0.0000
      2 ****        -3.8302  -1.9268  -0.1129 N.4            1 S1                 1.0000
      3 ****        -3.8198  -1.4031   1.2747 C.3            1 S1                 0.0000
      4 ****        -4.9603  -0.3770   1.4981 C.3            1 S1                 0.0000
      5 ****        -5.0099   0.7481   0.4464 C.3            1 S1                 0.0000
      6 ****        -4.7527   0.2324  -0.9822 C.3            1 S1                 0.0000
      7 ****        -3.6191  -0.8197  -1.0773 C.3            1 S1                 0.0000
      8 ****        -2.1925  -0.2529  -0.8863 C.3            1 S1                 0.0000
      9 ****        -1.8460   0.1385   0.5735 C.3            1 S1                 0.0000
     10 ****        -0.3976   0.2420   0.7387 N.am           1 S1                 0.0000
     11 ****         0.3487   1.2945   0.3730 C.2            1 S1                 0.0000
     12 ****        -0.1098   2.2995  -0.1699 O.2            1 S1                 0.0000
     13 ****         1.6468   1.0956   0.6565 N.am           1 S1                 0.0000
     14 ****         2.7399   1.9694   0.3943 C.ar           1 S1                 0.0000
     15 ****         2.5941   3.3765   0.5031 C.ar           1 S1                 0.0000
     16 ****         3.7083   4.2154   0.3134 C.ar           1 S1                 0.0000
     17 ****         4.9569   3.6345   0.0338 C.ar           1 S1                 0.0000
     18 ****         5.0660   2.2928  -0.0520 N.pl3          1 S1                 1.0000
     19 ****         4.0283   1.4329   0.1046 C.ar           1 S1                 0.0000
     20 ****         4.2902   0.0502  -0.0290 N.3            1 S1                 0.0000
     21 ****         5.6613  -0.4347  -0.1400 C.3            1 S1                 0.0000
     22 ****         5.5338  -1.8751  -0.6279 C.3            1 S1                 0.0000
     23 ****         4.3185  -1.8036  -1.5475 C.3            1 S1                 0.0000
     24 ****         3.4216  -0.7532  -0.8840 C.3            1 S1                 0.0000
     25 ****        -2.4015  -0.8787   1.5986 C.3            1 S1                 0.0000
     26 ****        -5.9273  -2.3111  -0.3782 H              1 S1                 0.0000
     27 ****        -4.9943  -3.6622   0.2649 H              1 S1                 0.0000
     28 ****        -4.8585  -3.2335  -1.4355 H              1 S1                 0.0000
     29 ****        -4.0013  -2.2413   1.9492 H              1 S1                 0.0000
     30 ****        -5.9145  -0.9042   1.4816 H              1 S1                 0.0000
     31 ****        -4.8873   0.0548   2.4968 H              1 S1                 0.0000
     32 ****        -5.9834   1.2378   0.4855 H              1 S1                 0.0000
     33 ****        -4.3033   1.5345   0.6975 H              1 S1                 0.0000
     34 ****        -5.6752  -0.2094  -1.3600 H              1 S1                 0.0000
     35 ****        -4.5427   1.0722  -1.6455 H              1 S1                 0.0000
     36 ****        -3.6526  -1.2423  -2.0827 H              1 S1                 0.0000
     37 ****        -1.4887  -1.0191  -1.2159 H              1 S1                 0.0000
     38 ****        -2.0342   0.5973  -1.5510 H              1 S1                 0.0000
     39 ****        -2.2648   1.1166   0.7973 H              1 S1                 0.0000
     40 ****         0.0670  -0.5407   1.1757 H              1 S1                 0.0000
     41 ****         1.8935   0.1820   1.0086 H              1 S1                 0.0000
     42 ****         1.6452   3.8264   0.7535 H              1 S1                 0.0000
     43 ****         3.6075   5.2878   0.3949 H              1 S1                 0.0000
     44 ****         5.8668   4.1968  -0.1189 H              1 S1                 0.0000
     45 ****         6.2157   0.1517  -0.8739 H              1 S1                 0.0000
     46 ****         6.1843  -0.3756   0.8150 H              1 S1                 0.0000
     47 ****         6.4314  -2.2349  -1.1316 H              1 S1                 0.0000
     48 ****         5.3262  -2.5387   0.2128 H              1 S1                 0.0000
     49 ****         4.6262  -1.4538  -2.5341 H              1 S1                 0.0000
     50 ****         3.8216  -2.7661  -1.6727 H              1 S1                 0.0000
     51 ****         2.6734  -1.2438  -0.2611 H              1 S1                 0.0000
     52 ****         2.9017  -0.1486  -1.6287 H              1 S1                 0.0000
     53 ****        -2.3767  -0.4507   2.6015 H              1 S1                 0.0000
     54 ****        -1.7341  -1.7418   1.6294 H              1 S1                 0.0000
     55 ****        -3.0131  -2.5155  -0.1892 H              1 S1                 0.0000
     56 ****         5.9858   1.9016  -0.2558 H              1 S1                 0.0000
     57 ****        -1.0895   2.3618  -0.3608 LP             1 S1                 0.0000
     58 ****         0.4973   3.0537  -0.4200 LP             1 S1                 0.0000
     59 ****         4.0226  -0.1095   0.9213 LP             1 S1                 0.0000
@<TRIPOS>BOND
    1    1    2 1     
    2    1   26 1     
    3    1   27 1     
    4    1   28 1     
    5    2    7 1     
    6    2    3 1     
    7    2   55 1     
    8    3   25 1     
    9    3    4 1     
   10    3   29 1     
   11    4    5 1     
   12    4   30 1     
   13    4   31 1     
   14    5    6 1     
   15    5   32 1     
   16    5   33 1     
   17    6    7 1     
   18    6   34 1     
   19    6   35 1     
   20    7    8 1     
   21    7   36 1     
   22    8    9 1     
   23    8   37 1     
   24    8   38 1     
   25    9   10 1     
   26    9   25 1     
   27    9   39 1     
   28   10   11 am    
   29   10   40 1     
   30   11   12 2     
   31   11   13 am    
   32   13   14 1     
   33   13   41 1     
   34   14   19 ar    
   35   14   15 ar    
   36   15   16 ar    
   37   15   42 1     
   38   16   17 ar    
   39   16   43 1     
   40   17   18 ar    
   41   17   44 1     
   42   18   19 ar    
   43   18   56 1     
   44   19   20 1     
   45   20   24 1     
   46   20   21 1     
   47   21   22 1     
   48   21   45 1     
   49   21   46 1     
   50   22   23 1     
   51   22   47 1     
   52   22   48 1     
   53   23   24 1     
   54   23   49 1     
   55   23   50 1     
   56   24   51 1     
   57   24   52 1     
   58   25   53 1     
   59   25   54 1     
   60   12   57 1     
   61   12   58 1     
   62   20   59 1     
@<TRIPOS>SUBSTRUCTURE
      1 S1             1
@<TRIPOS>SET
LONE_PAIRS      STATIC     ATOMS    <user>   **** ""
3 57 58 59
DONOR_HYDROGENS      STATIC     ATOMS    <user>   **** ""
4 55 40 41 56
ATOM$BLUE        STATIC     ATOMS    COLORGROUP SYSTEM
3 57 58 59
ATOM$RED        STATIC     ATOMS    COLORGROUP SYSTEM
4 55 40 41 56
