AV-unprocessed.smi:2339|AV-procd|sdf|9338|dock5
  -GOLD-   2272012563D 1   1.00000     0.00000
 Structure written by MMmdl.
 49 52  0  0  0  0  0  0  0  0  1 V2000
  145.7157  143.0778  155.2986 C   0  0  0  0  0  0  0  0  0  0  0  0
  146.5552  142.8239  154.0415 C   0  0  0  0  0  0  0  0  0  0  0  0
  147.3578  141.6155  154.1630 N   0  0  0  0  0  0  0  0  0  0  0  0
  148.5342  141.5973  154.9053 C   0  0  0  0  0  0  0  0  0  0  0  0
  149.3527  140.5312  154.9965 C   0  0  0  0  0  0  0  0  0  0  0  0
  149.0085  139.2906  154.2728 C   0  0  0  0  0  0  0  0  0  0  0  0
  149.7342  138.2976  154.3314 O   0  0  0  0  0  0  0  0  0  0  0  0
  147.7518  139.3108  153.4794 C   0  0  0  0  0  0  0  0  0  0  0  0
  147.4251  138.1221  152.8091 N   0  0  0  0  0  0  0  0  0  0  0  0
  146.2703  137.7592  152.2144 C   0  0  0  0  0  0  0  0  0  0  0  0
  145.2608  138.4549  152.1318 O   0  0  0  0  0  0  0  0  0  0  0  0
  146.3103  136.5317  151.6688 N   0  0  0  0  0  0  0  0  0  0  0  0
  145.2278  135.8395  150.9506 C   0  0  2  0  0  0  0  0  0  0  0  0
  143.8838  135.8347  151.6884 C   0  0  2  0  0  0  0  0  0  0  0  0
  143.2584  136.6469  152.7651 C   0  0  0  0  0  0  0  0  0  0  0  0
  142.6322  135.4713  153.5610 C   0  0  0  0  0  0  0  0  0  0  0  0
  143.1798  134.2605  152.9806 O   0  0  0  0  0  0  0  0  0  0  0  0
  144.4362  134.6596  152.4673 C   0  0  1  0  0  0  0  0  0  0  0  0
  145.1937  134.2783  151.1732 C   0  0  0  0  0  0  0  0  0  0  0  0
  144.4301  133.4187  150.1453 C   0  0  0  0  0  0  0  0  0  0  0  0
  145.3714  132.3252  149.6398 C   0  0  0  0  0  0  0  0  0  0  0  0
  146.3781  132.1460  150.7663 C   0  0  0  0  0  0  0  0  0  0  0  0
  146.5354  133.5518  151.3385 C   0  0  0  0  0  0  0  0  0  0  0  0
  147.0179  140.4526  153.4752 C   0  0  0  0  0  0  0  0  0  0  0  0
  145.1117  143.9781  155.1850 H   0  0  0  0  0  0  0  0  0  0  0  0
  146.3488  143.2086  156.1766 H   0  0  0  0  0  0  0  0  0  0  0  0
  145.0380  142.2463  155.4939 H   0  0  0  0  0  0  0  0  0  0  0  0
  145.9031  142.7388  153.1714 H   0  0  0  0  0  0  0  0  0  0  0  0
  147.2064  143.6779  153.8523 H   0  0  0  0  0  0  0  0  0  0  0  0
  148.7490  142.5214  155.4223 H   0  0  0  0  0  0  0  0  0  0  0  0
  150.2562  140.5626  155.5876 H   0  0  0  0  0  0  0  0  0  0  0  0
  148.1801  137.4535  152.7540 H   0  0  0  0  0  0  0  0  0  0  0  0
  147.1909  136.0401  151.7210 H   0  0  0  0  0  0  0  0  0  0  0  0
  145.1496  136.1190  149.8986 H   0  0  0  0  0  0  0  0  0  0  0  0
  143.1081  135.5321  150.9776 H   0  0  0  0  0  0  0  0  0  0  0  0
  143.9963  137.1911  153.3558 H   0  0  0  0  0  0  0  0  0  0  0  0
  142.5125  137.3474  152.3887 H   0  0  0  0  0  0  0  0  0  0  0  0
  142.8925  135.5364  154.6181 H   0  0  0  0  0  0  0  0  0  0  0  0
  141.5449  135.4567  153.4801 H   0  0  0  0  0  0  0  0  0  0  0  0
  145.1105  134.9371  153.2841 H   0  0  0  0  0  0  0  0  0  0  0  0
  143.5648  132.9514  150.6171 H   0  0  0  0  0  0  0  0  0  0  0  0
  144.0482  134.0091  149.3118 H   0  0  0  0  0  0  0  0  0  0  0  0
  144.8497  131.4014  149.3886 H   0  0  0  0  0  0  0  0  0  0  0  0
  145.8866  132.6721  148.7429 H   0  0  0  0  0  0  0  0  0  0  0  0
  145.9637  131.4830  151.5270 H   0  0  0  0  0  0  0  0  0  0  0  0
  147.3225  131.7194  150.4269 H   0  0  0  0  0  0  0  0  0  0  0  0
  147.3128  134.0744  150.7798 H   0  0  0  0  0  0  0  0  0  0  0  0
  146.8652  133.5165  152.3772 H   0  0  0  0  0  0  0  0  0  0  0  0
  146.0846  140.5500  152.9444 H   0  0  0  0  0  0  0  0  0  0  0  0
  1  2  1  0  0  0  0
  1 25  1  0  0  0  0
  1 26  1  0  0  0  0
  1 27  1  0  0  0  0
  2  3  1  0  0  0  0
  2 28  1  0  0  0  0
  2 29  1  0  0  0  0
  3 24  1  0  0  0  0
  3  4  1  0  0  0  0
  4  5  2  0  0  0  0
  4 30  1  0  0  0  0
  5  6  1  0  0  0  0
  5 31  1  0  0  0  0
  6  7  2  0  0  0  0
  6  8  1  0  0  0  0
  8  9  1  0  0  0  0
  8 24  2  0  0  0  0
  9 10  1  0  0  0  0
  9 32  1  0  0  0  0
 10 11  2  0  0  0  0
 10 12  1  0  0  0  0
 12 13  1  0  0  0  0
 12 33  1  0  0  0  0
 13 19  1  0  0  0  0
 13 14  1  0  0  0  0
 13 34  1  0  0  0  0
 14 18  1  0  0  0  0
 14 15  1  0  0  0  0
 14 35  1  0  0  0  0
 15 16  1  0  0  0  0
 15 36  1  0  0  0  0
 15 37  1  0  0  0  0
 16 17  1  0  0  0  0
 16 38  1  0  0  0  0
 16 39  1  0  0  0  0
 17 18  1  0  0  0  0
 18 19  1  0  0  0  0
 18 40  1  0  0  0  0
 19 23  1  0  0  0  0
 19 20  1  0  0  0  0
 20 21  1  0  0  0  0
 20 41  1  0  0  0  0
 20 42  1  0  0  0  0
 21 22  1  0  0  0  0
 21 43  1  0  0  0  0
 21 44  1  0  0  0  0
 22 23  1  0  0  0  0
 22 45  1  0  0  0  0
 22 46  1  0  0  0  0
 23 47  1  0  0  0  0
 23 48  1  0  0  0  0
 24 49  1  0  0  0  0
M  END
> <s_m_source_file>
AV-unprocessed.smi

> <i_m_source_file_index>
2339

> <i_lp_mmshare_version>
43012

> <i_f3d_flags>
0

> <s_epik_input>
W0NIM11bQ0gyXW4xW2NIXVtjSF1jKD1PKWMoW2NIXTEpW05IXUMoPU8pW05IXVtDQEBIXTJbQ0BASF0oW0NIMl1bQ0gyXU8zKVtDQEBIXTNDMjRbQ0gyXVtDSDJdW0NIMl1bQ0gyXTQ=

> <s_epik_cmdline>
J2VwaWtfcHl0aG9uJywgJy1waCcsICc3LjAnLCAnLXRuJywgJzgnLCAnLW1hJywgJzIwMCcsICctbWV0YWxfYmluZGluZycsICctaW1hZScsICc8aW5maWxlLm1hZT4nLCAnLW9tYWUnLCAnPG91dGZpbGUubWFlPic=

> <r_lp_tautomer_probability>
1

> <r_epik_Ionization_Penalty>
0.00145966

> <r_epik_Ionization_Penalty_Charging>
0.00143969

> <r_epik_Ionization_Penalty_Neutral>
1.99697e-05

> <r_epik_State_Penalty>
0.000961843

> <r_epik_Charging_Adjusted_Penalty>
0.00240153

> <i_epik_Tot_Q>
0

> <i_epik_Tot_abs_Q>
0

> <r_epik_Metal_State_Penalty>
-0

> <b_epik_Metal_Only>
0

> <s_lp_Force_Field>
OPLS_2005

> <r_lp_Energy>
81.9731

> <b_lp_Chiralities_Consistent>
1

> <s_lp_Variant>
AV-unprocessed.smi:2339-3

> <Gold.Version>
5.8.1

> <Gold.Id.Protein>
6NUR|6NUR_protein|mol2

> <Gold.PLP.Fitness>
51.2062

> <Gold.PLP.PLP>
-40.0940

> <Gold.PLP.part.hbond>
-2.4544

> <Gold.PLP.part.metal>
0.0000

> <Gold.PLP.part.buried>
-1.6272

> <Gold.PLP.part.nonpolar>
-43.0884

> <Gold.PLP.part.repulsive>
7.3536

> <Gold.PLP.ligand.clash>
0.0000

> <Gold.PLP.ligand.torsion>
0.4635

> <Gold.PLP.Chemscore.Hbond>
1.9200

> <Gold.PLP.Chemscore.CHOScore>
2.0000

> <Gold.PLP.Chemscore.Metal>
0.0000

> <Gold.Chemscore.Hbonds>
donor molecule, donor type, donor heavy atom, donor atom, acceptor molecule, acceptor atom, score
      L1  H     9    32       P1  7948  0.94
      L1  H    12    33       P1  7948  0.91
      L1  C     4    30       P1  8028  1.00
      L1  C    24    49       P1 10175  1.00

> <Gold.PLP.Chemscore.Internal.Correction>
0.2792

> <Gold.Rescore>
     Score         DG    S(hbond)    S(metal)    S(lipo)     H(rot)  DE(clash)    DE(int)     intcor
     12.81     -20.51       1.95        0.00      98.31       1.17       4.49       3.21       ----

> <Gold.Chemscore.Fitness>
12.8117

> <Gold.Chemscore.DG>
-20.5074

> <Gold.Chemscore.ZeroCoef>
-5.4800

> <Gold.Chemscore.Hbond>
1.9500

> <Gold.Chemscore.Metal>
0.0000

> <Gold.Chemscore.Lipo>
98.3075

> <Gold.Chemscore.Internal_Hbond>
0.0000

> <Gold.Chemscore.DEClash>
4.4900

> <Gold.Chemscore.DEInternal>
3.2057

> <Gold.Chemscore.Rot>
1.1670

> <Gold.Chemscore.Internal.Correction>
   9.000000E+99

> <Gold.Chemscore.Hbonds>
donor molecule, donor type, donor heavy atom, donor atom, acceptor molecule, acceptor atom, score
      L1  H     9    32       P1  7948  0.91
      L1  H    12    33       P1  7948  0.88

> <Gold.Chemscore.Hbond.Weighted>
-6.5128

> <Gold.Chemscore.Metal.Weighted>
-0.0000

> <Gold.Chemscore.Lipo.Weighted>
-11.5020

> <Gold.Chemscore.Internal_Hbond.Weighted>
0.0000

> <Gold.Chemscore.DEClash.Weighted>
4.4900

> <Gold.Chemscore.DEInternal.Weighted>
3.2057

> <Gold.Chemscore.Rot.Weighted>
2.9874

> <Gold.Chemscore.Internal.Correction.Weighted>
   9.000000E+99

> <Gold.Protein.RotatedTorsions>
[ 6907 6896 6895 6894 ] final -152.57 input  -60.11 | X-H torsion
[ 7974 7965 7964 7962 ] final  101.34 input  175.53 | X-H torsion
[ 8008 7997 7996 7995 ] final   56.24 input   59.86 | X-H torsion
[ 10167 10162 10161 10158 ] final    3.60 input  -65.29 | X-H torsion
[ 10718 10713 10712 10709 ] final  -49.34 input   66.30 | X-H torsion
[ 10763 10752 10751 10750 ] final   57.12 input  -60.55 | X-H torsion
[ 11005 11000 10999 10996 ] final -168.92 input  -57.11 | X-H torsion

> <Gold.Protein.ActiveResidues>
 VAL166  LYS551  ARG553  GLY616  TRP617  ASP618  TYR619  PRO620  LYS621  CYS622 
 ASP623  PHE694  ASN695  SER759  ASP760  ASP761  ALA762  ILE779  LEU786  VAL792 
 PHE793  MET794  SER795  GLU796  ALA797  LYS798  CYS799  TRP800  GLU811  SER814 

> <Gold.Protein.RotatedAtoms>
  151.2297  133.4457  159.2603 H   0  0  0  0  0  0  0  0  0  0  0  0  # atno 6907 bound_to 6896
  151.0806  134.9856  159.8364 H   0  0  0  0  0  0  0  0  0  0  0  0  # atno 6908 bound_to 6896
  152.5424  134.2237  159.8850 H   0  0  0  0  0  0  0  0  0  0  0  0  # atno 6909 bound_to 6896
  145.3736  139.2393  143.3441 H   0  0  0  0  0  0  0  0  0  0  0  0  # atno 7974 bound_to 7965
  155.5142  140.3478  155.4394 H   0  0  0  0  0  0  0  0  0  0  0  0  # atno 8008 bound_to 7997
  156.0828  140.1391  156.9717 H   0  0  0  0  0  0  0  0  0  0  0  0  # atno 8009 bound_to 7997
  154.4590  140.0942  156.6815 H   0  0  0  0  0  0  0  0  0  0  0  0  # atno 8010 bound_to 7997
  140.6577  143.7383  150.7683 H   0  0  0  0  0  0  0  0  0  0  0  0  # atno 10167 bound_to 10162
  156.1902  130.4152  149.9382 H   0  0  0  0  0  0  0  0  0  0  0  0  # atno 10718 bound_to 10713
  152.9844  135.5653  154.5339 H   0  0  0  0  0  0  0  0  0  0  0  0  # atno 10763 bound_to 10752
  154.4806  135.2788  155.1576 H   0  0  0  0  0  0  0  0  0  0  0  0  # atno 10764 bound_to 10752
  154.3086  135.6293  153.5509 H   0  0  0  0  0  0  0  0  0  0  0  0  # atno 10765 bound_to 10752
  140.5366  134.5564  157.5089 H   0  0  0  0  0  0  0  0  0  0  0  0  # atno 11005 bound_to 11000
  146.2874  140.4392  142.8752 LP  0  0  0  0  0  0  0  0  0  0  0  0  # atno 17320 bound_to 7965
  144.8558  140.7068  143.6139 LP  0  0  0  0  0  0  0  0  0  0  0  0  # atno 17321 bound_to 7965
  140.1046  143.4755  152.2405 LP  0  0  0  0  0  0  0  0  0  0  0  0  # atno 17342 bound_to 10162
  139.5804  144.7507  151.3655 LP  0  0  0  0  0  0  0  0  0  0  0  0  # atno 17343 bound_to 10162
  156.7125  130.8975  151.3611 LP  0  0  0  0  0  0  0  0  0  0  0  0  # atno 17370 bound_to 10713
  157.6924  130.9247  150.0550 LP  0  0  0  0  0  0  0  0  0  0  0  0  # atno 17371 bound_to 10713
  139.9526  134.7590  156.0414 LP  0  0  0  0  0  0  0  0  0  0  0  0  # atno 17394 bound_to 11000
  141.1251  133.6601  156.3316 LP  0  0  0  0  0  0  0  0  0  0  0  0  # atno 17395 bound_to 11000

$$$$
