AV-unprocessed.smi:109|AV-procd|sdf|1033|dock3
  -GOLD-   2262018 43D 1   1.00000     0.00000
 Structure written by MMmdl.
 58 61  0  0  0  0  0  0  0  0  1 V2000
  145.1599  137.5260  157.7517 O   0  0  0  0  0  0  0  0  0  0  0  0
  146.3783  137.1915  158.3798 C   0  0  0  0  0  0  0  0  0  0  0  0
  146.7686  135.7452  158.0300 C   0  0  0  0  0  0  0  0  0  0  0  0
  148.1098  135.2825  158.6511 C   0  0  2  0  0  0  0  0  0  0  0  0
  148.5534  134.0522  157.9911 N   0  0  0  0  0  0  0  0  0  0  0  0
  148.7512  133.9778  156.6557 C   0  0  0  0  0  0  0  0  0  0  0  0
  149.8948  134.4304  156.0799 N   0  0  0  0  0  0  0  0  0  0  0  0
  150.0566  134.3462  154.7567 C   0  0  0  0  0  0  0  0  0  0  0  0
  149.2164  133.8538  153.8446 N   0  0  0  0  0  0  0  0  0  0  0  0
  148.0641  133.3976  154.4153 C   0  0  0  0  0  0  0  0  0  0  0  0
  147.7606  133.4229  155.8053 C   0  0  0  0  0  0  0  0  0  0  0  0
  146.5043  132.8739  156.0235 N   0  0  0  0  0  0  0  0  0  0  0  0
  146.0941  132.5419  154.8291 C   0  0  0  0  0  0  0  0  0  0  0  0
  146.9689  132.8198  153.8022 N   0  0  0  0  0  0  0  0  0  0  0  0
  146.7629  132.5477  152.3417 C   0  0  1  0  0  0  0  0  0  0  0  0
  145.5131  131.9502  152.1527 O   0  0  0  0  0  0  0  0  0  0  0  0
  144.6915  132.7557  151.3074 C   0  0  2  0  0  0  0  0  0  0  0  0
  143.7549  131.8545  150.4898 C   0  0  0  0  0  0  0  0  0  0  0  0
  143.2094  132.5830  149.4109 O   0  0  0  0  0  0  0  0  0  0  0  0
  145.7146  133.5134  150.4595 C   0  0  1  0  0  0  0  0  0  0  0  0
  145.1843  134.6758  149.8509 O   0  0  0  0  0  0  0  0  0  0  0  0
  146.8140  133.8163  151.4680 C   0  0  1  0  0  0  0  0  0  0  0  0
  146.5836  135.0163  152.1899 O   0  0  0  0  0  0  0  0  0  0  0  0
  148.0404  135.0488  160.1881 C   0  0  0  0  0  0  0  0  0  0  0  0
  147.0006  133.9741  160.5956 C   0  0  0  0  0  0  0  0  0  0  0  0
  146.9019  133.7942  162.1196 C   0  0  0  0  0  0  0  0  0  0  0  0
  146.5870  135.1197  162.8223 C   0  0  0  0  0  0  0  0  0  0  0  0
  147.6311  136.1812  162.4582 C   0  0  0  0  0  0  0  0  0  0  0  0
  147.7223  136.3696  160.9362 C   0  0  0  0  0  0  0  0  0  0  0  0
  147.5391  131.8264  152.0832 H   0  0  0  0  0  0  0  0  0  0  0  0
  144.1238  133.4669  151.9095 H   0  0  0  0  0  0  0  0  0  0  0  0
  146.1103  132.8541  149.6851 H   0  0  0  0  0  0  0  0  0  0  0  0
  147.7903  133.8903  150.9881 H   0  0  0  0  0  0  0  0  0  0  0  0
  145.2591  137.4047  156.8197 H   0  0  0  0  0  0  0  0  0  0  0  0
  147.1398  137.8991  158.0525 H   0  0  0  0  0  0  0  0  0  0  0  0
  146.2637  137.3076  159.4578 H   0  0  0  0  0  0  0  0  0  0  0  0
  145.9576  135.1110  158.3838 H   0  0  0  0  0  0  0  0  0  0  0  0
  146.8038  135.6239  156.9464 H   0  0  0  0  0  0  0  0  0  0  0  0
  148.8342  136.0819  158.4972 H   0  0  0  0  0  0  0  0  0  0  0  0
  148.6739  133.2552  158.5997 H   0  0  0  0  0  0  0  0  0  0  0  0
  150.9918  134.7278  154.3742 H   0  0  0  0  0  0  0  0  0  0  0  0
  145.1327  132.0783  154.6628 H   0  0  0  0  0  0  0  0  0  0  0  0
  144.3095  131.0147  150.0703 H   0  0  0  0  0  0  0  0  0  0  0  0
  142.9598  131.4408  151.1109 H   0  0  0  0  0  0  0  0  0  0  0  0
  142.4999  133.1153  149.7377 H   0  0  0  0  0  0  0  0  0  0  0  0
  145.7285  134.9032  149.1124 H   0  0  0  0  0  0  0  0  0  0  0  0
  147.3893  135.5112  152.2079 H   0  0  0  0  0  0  0  0  0  0  0  0
  149.0199  134.7022  160.5218 H   0  0  0  0  0  0  0  0  0  0  0  0
  146.0210  134.2395  160.1958 H   0  0  0  0  0  0  0  0  0  0  0  0
  147.2575  133.0046  160.1723 H   0  0  0  0  0  0  0  0  0  0  0  0
  146.1334  133.0578  162.3565 H   0  0  0  0  0  0  0  0  0  0  0  0
  147.8413  133.3924  162.5014 H   0  0  0  0  0  0  0  0  0  0  0  0
  145.5938  135.4644  162.5312 H   0  0  0  0  0  0  0  0  0  0  0  0
  146.5622  134.9743  163.9024 H   0  0  0  0  0  0  0  0  0  0  0  0
  147.3782  137.1289  162.9347 H   0  0  0  0  0  0  0  0  0  0  0  0
  148.6058  135.8880  162.8504 H   0  0  0  0  0  0  0  0  0  0  0  0
  148.4833  137.1229  160.7322 H   0  0  0  0  0  0  0  0  0  0  0  0
  146.7819  136.7809  160.5666 H   0  0  0  0  0  0  0  0  0  0  0  0
  1  2  1  0  0  0  0
  1 34  1  0  0  0  0
  2  3  1  0  0  0  0
  2 35  1  0  0  0  0
  2 36  1  0  0  0  0
  3  4  1  0  0  0  0
  3 37  1  0  0  0  0
  3 38  1  0  0  0  0
  4  5  1  0  0  0  0
  4 24  1  0  0  0  0
  4 39  1  0  0  0  0
  5  6  1  0  0  0  0
  5 40  1  0  0  0  0
  6 11  1  0  0  0  0
  6  7  2  0  0  0  0
  7  8  1  0  0  0  0
  8  9  2  0  0  0  0
  8 41  1  0  0  0  0
  9 10  1  0  0  0  0
 10 14  1  0  0  0  0
 10 11  2  0  0  0  0
 11 12  1  0  0  0  0
 12 13  2  0  0  0  0
 13 14  1  0  0  0  0
 13 42  1  0  0  0  0
 14 15  1  0  0  0  0
 15 30  1  0  0  0  0
 15 22  1  0  0  0  0
 15 16  1  0  0  0  0
 16 17  1  0  0  0  0
 17 31  1  0  0  0  0
 17 18  1  0  0  0  0
 17 20  1  0  0  0  0
 18 19  1  0  0  0  0
 18 43  1  0  0  0  0
 18 44  1  0  0  0  0
 19 45  1  0  0  0  0
 20 32  1  0  0  0  0
 20 21  1  0  0  0  0
 20 22  1  0  0  0  0
 21 46  1  0  0  0  0
 22 33  1  0  0  0  0
 22 23  1  0  0  0  0
 23 47  1  0  0  0  0
 24 29  1  0  0  0  0
 24 25  1  0  0  0  0
 24 48  1  0  0  0  0
 25 26  1  0  0  0  0
 25 49  1  0  0  0  0
 25 50  1  0  0  0  0
 26 27  1  0  0  0  0
 26 51  1  0  0  0  0
 26 52  1  0  0  0  0
 27 28  1  0  0  0  0
 27 53  1  0  0  0  0
 27 54  1  0  0  0  0
 28 29  1  0  0  0  0
 28 55  1  0  0  0  0
 28 56  1  0  0  0  0
 29 57  1  0  0  0  0
 29 58  1  0  0  0  0
M  END
> <s_m_source_file>
AV-unprocessed.smi

> <i_m_source_file_index>
109

> <i_lp_mmshare_version>
43012

> <i_f3d_flags>
0

> <s_epik_input>
W0NIMl0xW0NIMl1bQ0gyXVtDSDJdW0NIMl1bQ0hdMVtDQEhdKFtDSDJdW0NIMl1bT0hdKVtOSF1jKG5bY0hdbjIpYyhjMjMpbltjSF1uM1tDQEBIXTRPW0NASF0oW0NIMl1bT0hdKVtDQEBIXShbT0hdKVtDQEhdNFtPSF0=

> <s_epik_cmdline>
J2VwaWtfcHl0aG9uJywgJy1waCcsICc3LjAnLCAnLXRuJywgJzgnLCAnLW1hJywgJzIwMCcsICctbWV0YWxfYmluZGluZycsICctaW1hZScsICc8aW5maWxlLm1hZT4nLCAnLW9tYWUnLCAnPG91dGZpbGUubWFlPic=

> <r_lp_tautomer_probability>
1

> <r_epik_Ionization_Penalty>
0.000793976

> <r_epik_Ionization_Penalty_Charging>
0

> <r_epik_Ionization_Penalty_Neutral>
0.000793976

> <r_epik_State_Penalty>
-0

> <r_epik_Charging_Adjusted_Penalty>
0

> <i_epik_Tot_Q>
0

> <i_epik_Tot_abs_Q>
0

> <r_epik_Metal_State_Penalty>
-0

> <b_epik_Metal_Only>
0

> <s_epik_Chemistry_Notes>
This compound contains an acetal/aminal-like group ( X-CH(R)-Y where X, Y are N, S, or O) that may be acid/base labile, releasing an aldehyde.

> <s_lp_Force_Field>
OPLS_2005

> <r_lp_Energy>
57.1061

> <b_lp_Chiralities_Consistent>
1

> <s_lp_Variant>
AV-unprocessed.smi:109-3

> <Gold.Version>
5.8.1

> <Gold.Id.Protein>
6NUR|6NUR_protein|mol2

> <Gold.PLP.Fitness>
52.6788

> <Gold.PLP.PLP>
-42.2738

> <Gold.PLP.part.hbond>
-3.2373

> <Gold.PLP.part.metal>
0.0000

> <Gold.PLP.part.buried>
-6.7583

> <Gold.PLP.part.nonpolar>
-31.5679

> <Gold.PLP.part.repulsive>
1.2619

> <Gold.PLP.ligand.clash>
0.0000

> <Gold.PLP.ligand.torsion>
0.9294

> <Gold.PLP.Chemscore.Hbond>
3.0000

> <Gold.PLP.Chemscore.CHOScore>
0.9903

> <Gold.PLP.Chemscore.Metal>
0.0000

> <Gold.Chemscore.Hbonds>
donor molecule, donor type, donor heavy atom, donor atom, acceptor molecule, acceptor atom, score
      L1  H    19    45       P1 10186  1.00
      L1  H    21    46       P1  7921  1.00
      L1  H    23    47       P1  7948  1.00
      L1  C    13    42       P1 10957  1.00

> <Gold.PLP.Chemscore.Internal.Correction>
0.2927

> <Gold.Rescore>
     Score         DG    S(hbond)    S(metal)    S(lipo)     H(rot)  DE(clash)    DE(int)     intcor
     10.01     -11.15       2.96        0.00      83.52       5.47       0.02       1.12       ----

> <Gold.Chemscore.Fitness>
10.0099

> <Gold.Chemscore.DG>
-11.1509

> <Gold.Chemscore.ZeroCoef>
-5.4800

> <Gold.Chemscore.Hbond>
2.9618

> <Gold.Chemscore.Metal>
0.0000

> <Gold.Chemscore.Lipo>
83.5226

> <Gold.Chemscore.Internal_Hbond>
0.0000

> <Gold.Chemscore.DEClash>
0.0197

> <Gold.Chemscore.DEInternal>
1.1214

> <Gold.Chemscore.Rot>
5.4662

> <Gold.Chemscore.Internal.Correction>
   9.000000E+99

> <Gold.Chemscore.Hbonds>
donor molecule, donor type, donor heavy atom, donor atom, acceptor molecule, acceptor atom, score
      L1  H    19    45       P1 10186  0.94
      L1  H    21    46       P1  7921  0.90
      L1  H    23    47       P1  7948  1.00

> <Gold.Chemscore.Hbond.Weighted>
-9.8923

> <Gold.Chemscore.Metal.Weighted>
-0.0000

> <Gold.Chemscore.Lipo.Weighted>
-9.7721

> <Gold.Chemscore.Internal_Hbond.Weighted>
0.0000

> <Gold.Chemscore.DEClash.Weighted>
0.0197

> <Gold.Chemscore.DEInternal.Weighted>
1.1214

> <Gold.Chemscore.Rot.Weighted>
13.9935

> <Gold.Chemscore.Internal.Correction.Weighted>
   9.000000E+99

> <Gold.Protein.RotatedTorsions>
[ 6907 6896 6895 6894 ] final   88.78 input  -60.11 | X-H torsion
[ 7974 7965 7964 7962 ] final  -10.16 input  175.53 | X-H torsion
[ 8008 7997 7996 7995 ] final   71.83 input   59.86 | X-H torsion
[ 10167 10162 10161 10158 ] final   91.70 input  -65.29 | X-H torsion
[ 10718 10713 10712 10709 ] final   -4.23 input   66.30 | X-H torsion
[ 10763 10752 10751 10750 ] final  166.11 input  -60.55 | X-H torsion
[ 11005 11000 10999 10996 ] final   19.67 input  -57.11 | X-H torsion

> <Gold.Protein.ActiveResidues>
 VAL166  LYS551  ARG553  GLY616  TRP617  ASP618  TYR619  PRO620  LYS621  CYS622 
 ASP623  PHE694  ASN695  SER759  ASP760  ASP761  ALA762  ILE779  LEU786  VAL792 
 PHE793  MET794  SER795  GLU796  ALA797  LYS798  CYS799  TRP800  GLU811  SER814 

> <Gold.Protein.RotatedAtoms>
  152.5429  134.2068  159.8733 H   0  0  0  0  0  0  0  0  0  0  0  0  # atno 6907 bound_to 6896
  151.2053  133.4580  159.2604 H   0  0  0  0  0  0  0  0  0  0  0  0  # atno 6908 bound_to 6896
  151.0949  134.9951  159.8476 H   0  0  0  0  0  0  0  0  0  0  0  0  # atno 6909 bound_to 6896
  146.2229  140.2723  142.8357 H   0  0  0  0  0  0  0  0  0  0  0  0  # atno 7974 bound_to 7965
  155.7597  140.3487  155.5192 H   0  0  0  0  0  0  0  0  0  0  0  0  # atno 8008 bound_to 7997
  155.8925  140.1020  157.1429 H   0  0  0  0  0  0  0  0  0  0  0  0  # atno 8009 bound_to 7997
  154.4035  140.1301  156.4321 H   0  0  0  0  0  0  0  0  0  0  0  0  # atno 8010 bound_to 7997
  139.8349  144.6669  150.9354 H   0  0  0  0  0  0  0  0  0  0  0  0  # atno 10167 bound_to 10162
  156.7644  130.5280  149.5779 H   0  0  0  0  0  0  0  0  0  0  0  0  # atno 10718 bound_to 10713
  154.3342  135.2754  155.2456 H   0  0  0  0  0  0  0  0  0  0  0  0  # atno 10763 bound_to 10752
  154.4755  135.5872  153.6355 H   0  0  0  0  0  0  0  0  0  0  0  0  # atno 10764 bound_to 10752
  152.9863  135.6098  154.3537 H   0  0  0  0  0  0  0  0  0  0  0  0  # atno 10765 bound_to 10752
  140.4111  134.1617  155.7667 H   0  0  0  0  0  0  0  0  0  0  0  0  # atno 11005 bound_to 11000
  144.9258  140.7920  143.5720 LP  0  0  0  0  0  0  0  0  0  0  0  0  # atno 17320 bound_to 7965
  145.2663  139.1972  143.4865 LP  0  0  0  0  0  0  0  0  0  0  0  0  # atno 17321 bound_to 7965
  140.7803  143.3966  151.1219 LP  0  0  0  0  0  0  0  0  0  0  0  0  # atno 17342 bound_to 10162
  139.7617  143.8625  152.3101 LP  0  0  0  0  0  0  0  0  0  0  0  0  # atno 17343 bound_to 10162
  156.1318  130.6183  151.0344 LP  0  0  0  0  0  0  0  0  0  0  0  0  # atno 17370 bound_to 10713
  157.6720  131.0859  150.7589 LP  0  0  0  0  0  0  0  0  0  0  0  0  # atno 17371 bound_to 10713
  141.1820  133.8393  157.1222 LP  0  0  0  0  0  0  0  0  0  0  0  0  # atno 17394 bound_to 11000
  140.0266  134.9921  157.0699 LP  0  0  0  0  0  0  0  0  0  0  0  0  # atno 17395 bound_to 11000

$$$$
