#       Name:                AV-unprocessed.smi:72
#       Creating user name   scv26
#       Creation time:       Thu Mar 26 16:58:26 2020


#       File generated by GOLD software.
#

@<TRIPOS>MOLECULE
AV-unprocessed.smi:72
    41    42     1
SMALL
NO_CHARGES


@<TRIPOS>ATOM
      1 ****        -3.8093   2.7683   1.9551 N.2            1 S1                 0.0000
      2 ****        -2.7852   2.2238   1.4015 C.2            1 S1                 0.0000
      3 ****        -1.5776   1.9235   2.0489 N.2            1 S1                 0.0000
      4 ****        -0.6291   1.3573   1.3687 C.2            1 S1                 0.0000
      5 ****        -0.7828   1.0063  -0.0380 N.am           1 S1                 0.0000
      6 ****         0.3234   0.3524  -0.8505 C.3            1 S1                 0.0000
      7 ****         1.4886   0.2567  -0.0816 O.3            1 S1                 0.0000
      8 ****         1.5999  -1.0537   0.4664 C.3            1 S1                 0.0000
      9 ****         3.0330  -1.3385   0.9480 C.3            1 S1                 0.0000
     10 ****         3.2220  -0.7955   2.2371 O.3            1 S1                 0.0000
     11 ****         1.0993  -1.9219  -0.6916 C.3            1 S1                 0.0000
     12 ****         2.1311  -2.1180  -1.6452 O.3            1 S1                 0.0000
     13 ****        -0.0604  -1.0921  -1.2425 C.3            1 S1                 0.0000
     14 ****        -0.2387  -1.2695  -2.6355 O.3            1 S1                 0.0000
     15 ****        -1.9834   1.3403  -0.7129 C.2            1 S1                 0.0000
     16 ****        -2.1535   1.1078  -1.9097 O.2            1 S1                 0.0000
     17 ****        -2.9370   1.9287   0.0407 N.am           1 S1                 0.0000
     18 ****         0.4959   1.0226  -1.6948 H              1 S1                 0.0000
     19 ****         0.9004  -1.1625   1.2975 H              1 S1                 0.0000
     20 ****         0.7641  -2.9012  -0.3484 H              1 S1                 0.0000
     21 ****        -0.9781  -1.3767  -0.7253 H              1 S1                 0.0000
     22 ****        -4.5550   2.8853   1.2849 H              1 S1                 0.0000
     23 ****         0.3355   1.1153   1.8146 H              1 S1                 0.0000
     24 ****         3.1983  -2.4140   1.0183 H              1 S1                 0.0000
     25 ****         3.7755  -0.9375   0.2574 H              1 S1                 0.0000
     26 ****         3.1141   0.1420   2.1848 H              1 S1                 0.0000
     27 ****         1.7514  -2.5177  -2.4130 H              1 S1                 0.0000
     28 ****        -0.9374  -0.6999  -2.9212 H              1 S1                 0.0000
     29 ****        -3.8057   2.1698  -0.4135 H              1 S1                 0.0000
     30 ****        -3.8602   3.0386   2.9165 LP             1 S1                 0.0000
     31 ****        -1.4502   2.1417   3.0164 LP             1 S1                 0.0000
     32 ****         1.4518   0.9251   0.6613 LP             1 S1                 0.0000
     33 ****         2.2835   0.4436  -0.6590 LP             1 S1                 0.0000
     34 ****         4.1423  -1.0118   2.5630 LP             1 S1                 0.0000
     35 ****         2.5466  -1.1785   2.8672 LP             1 S1                 0.0000
     36 ****         2.8348  -2.7177  -1.2642 LP             1 S1                 0.0000
     37 ****         2.5392  -1.2380  -1.8883 LP             1 S1                 0.0000
     38 ****        -0.4788  -2.2212  -2.8270 LP             1 S1                 0.0000
     39 ****         0.6061  -1.0356  -3.1168 LP             1 S1                 0.0000
     40 ****        -1.4297   0.6680  -2.4414 LP             1 S1                 0.0000
     41 ****        -3.0154   1.3588  -2.3503 LP             1 S1                 0.0000
@<TRIPOS>BOND
    1    1    2 2     
    2    1   22 1     
    3    2   17 1     
    4    2    3 1     
    5    3    4 2     
    6    4    5 1     
    7    4   23 1     
    8    5    6 1     
    9    5   15 am    
   10    6   18 1     
   11    6   13 1     
   12    6    7 1     
   13    7    8 1     
   14    8   19 1     
   15    8    9 1     
   16    8   11 1     
   17    9   10 1     
   18    9   24 1     
   19    9   25 1     
   20   10   26 1     
   21   11   20 1     
   22   11   12 1     
   23   11   13 1     
   24   12   27 1     
   25   13   21 1     
   26   13   14 1     
   27   14   28 1     
   28   15   16 2     
   29   15   17 am    
   30   17   29 1     
   31    1   30 1     
   32    3   31 1     
   33    7   32 1     
   34    7   33 1     
   35   10   34 1     
   36   10   35 1     
   37   12   36 1     
   38   12   37 1     
   39   14   38 1     
   40   14   39 1     
   41   16   40 1     
   42   16   41 1     
@<TRIPOS>SUBSTRUCTURE
      1 S1             1
@<TRIPOS>SET
LONE_PAIRS      STATIC     ATOMS    <user>   **** ""
12 30 31 32 33 34 35 36 37 38 39 40 41
DONOR_HYDROGENS      STATIC     ATOMS    <user>   **** ""
5 22 26 27 28 29
ATOM$BLUE        STATIC     ATOMS    COLORGROUP SYSTEM
12 30 31 32 33 34 35 36 37 38 39 40 41
ATOM$RED        STATIC     ATOMS    COLORGROUP SYSTEM
5 22 26 27 28 29
