AV-unprocessed.smi:84|AV-procd|sdf|808|dock7
  -GOLD-   2262017203D 1   1.00000     0.00000
 Structure written by MMmdl.
 51 55  0  0  0  0  0  0  0  0  1 V2000
  151.4936  143.6825  157.4806 O   0  0  0  0  0  0  0  0  0  0  0  0
  150.6877  142.7983  157.2006 C   0  0  0  0  0  0  0  0  0  0  0  0
  150.9703  141.6825  156.2080 C   0  0  0  0  0  0  0  0  0  0  0  0
  149.5680  141.1080  155.9269 C   0  0  1  0  0  0  0  0  0  0  0  0
  148.9176  141.6987  154.6619 C   0  0  0  0  0  0  0  0  0  0  0  0
  147.8822  140.6467  154.2678 C   0  0  0  0  0  0  0  0  0  0  0  0
  148.4712  139.3810  154.6781 N   0  0  0  0  0  0  0  0  0  0  0  0
  147.7947  138.2066  154.5927 C   0  0  0  0  0  0  0  0  0  0  0  0
  147.8601  137.3418  155.6397 N   0  0  0  0  0  0  0  0  0  0  0  0
  147.2144  136.1735  155.5976 C   0  0  0  0  0  0  0  0  0  0  0  0
  146.4488  135.6798  154.6241 N   0  0  0  0  0  0  0  0  0  0  0  0
  146.3614  136.5466  153.5754 C   0  0  0  0  0  0  0  0  0  0  0  0
  146.9992  137.8170  153.4743 C   0  0  0  0  0  0  0  0  0  0  0  0
  146.6762  138.4032  152.2548 N   0  0  0  0  0  0  0  0  0  0  0  0
  145.9090  137.5270  151.6668 C   0  0  0  0  0  0  0  0  0  0  0  0
  145.6436  136.3951  152.4021 N   0  0  0  0  0  0  0  0  0  0  0  0
  144.8665  135.2643  151.9870 C   0  0  0  0  0  0  0  0  0  0  0  0
  145.2988  133.8355  152.3261 C   0  0  0  0  0  0  0  0  0  0  0  0
  144.6773  133.3418  150.9997 C   0  0  0  0  0  0  0  0  0  0  0  0
  145.5021  132.2975  150.2293 C   0  0  0  0  0  0  0  0  0  0  0  0
  146.8819  132.6004  150.2731 O   0  0  0  0  0  0  0  0  0  0  0  0
  143.2146  132.8625  151.0956 C   0  0  0  0  0  0  0  0  0  0  0  0
  142.6938  132.5351  149.8235 O   0  0  0  0  0  0  0  0  0  0  0  0
  144.8589  134.8012  150.5283 C   0  0  0  0  0  0  0  0  0  0  0  0
  149.5375  139.5941  155.6472 C   0  0  0  0  0  0  0  0  0  0  0  0
  148.7651  141.5057  157.1888 C   0  0  0  0  0  0  0  0  0  0  0  0
  149.4631  142.6666  157.7074 N   0  0  0  0  0  0  0  0  0  0  0  0
  151.4730  142.0517  155.3135 H   0  0  0  0  0  0  0  0  0  0  0  0
  151.6159  140.9451  156.6867 H   0  0  0  0  0  0  0  0  0  0  0  0
  148.4811  142.6871  154.8120 H   0  0  0  0  0  0  0  0  0  0  0  0
  149.6563  141.7836  153.8635 H   0  0  0  0  0  0  0  0  0  0  0  0
  146.9462  140.8081  154.8041 H   0  0  0  0  0  0  0  0  0  0  0  0
  147.6754  140.6668  153.1972 H   0  0  0  0  0  0  0  0  0  0  0  0
  147.3262  135.5453  156.4691 H   0  0  0  0  0  0  0  0  0  0  0  0
  145.5076  137.6886  150.6768 H   0  0  0  0  0  0  0  0  0  0  0  0
  143.8505  135.4538  152.3376 H   0  0  0  0  0  0  0  0  0  0  0  0
  146.3846  133.7239  152.3536 H   0  0  0  0  0  0  0  0  0  0  0  0
  144.8442  133.4313  153.2311 H   0  0  0  0  0  0  0  0  0  0  0  0
  145.3671  131.3042  150.6588 H   0  0  0  0  0  0  0  0  0  0  0  0
  145.1872  132.2245  149.1883 H   0  0  0  0  0  0  0  0  0  0  0  0
  147.3672  131.8200  150.0526 H   0  0  0  0  0  0  0  0  0  0  0  0
  143.1296  131.9776  151.7263 H   0  0  0  0  0  0  0  0  0  0  0  0
  142.5759  133.6187  151.5522 H   0  0  0  0  0  0  0  0  0  0  0  0
  141.9672  131.9420  149.9409 H   0  0  0  0  0  0  0  0  0  0  0  0
  144.0353  135.1969  149.9331 H   0  0  0  0  0  0  0  0  0  0  0  0
  145.8164  134.9729  150.0318 H   0  0  0  0  0  0  0  0  0  0  0  0
  150.4755  139.2661  155.1981 H   0  0  0  0  0  0  0  0  0  0  0  0
  149.3840  139.0204  156.5617 H   0  0  0  0  0  0  0  0  0  0  0  0
  147.7188  141.7320  156.9802 H   0  0  0  0  0  0  0  0  0  0  0  0
  148.7927  140.7239  157.9489 H   0  0  0  0  0  0  0  0  0  0  0  0
  149.0571  143.2920  158.3884 H   0  0  0  0  0  0  0  0  0  0  0  0
  1  2  2  0  0  0  0
  2 27  1  0  0  0  0
  2  3  1  0  0  0  0
  3  4  1  0  0  0  0
  3 28  1  0  0  0  0
  3 29  1  0  0  0  0
  4 25  1  0  0  0  0
  4  5  1  0  0  0  0
  4 26  1  0  0  0  0
  5  6  1  0  0  0  0
  5 30  1  0  0  0  0
  5 31  1  0  0  0  0
  6  7  1  0  0  0  0
  6 32  1  0  0  0  0
  6 33  1  0  0  0  0
  7  8  1  0  0  0  0
  7 25  1  0  0  0  0
  8 13  1  0  0  0  0
  8  9  2  0  0  0  0
  9 10  1  0  0  0  0
 10 11  2  0  0  0  0
 10 34  1  0  0  0  0
 11 12  1  0  0  0  0
 12 16  1  0  0  0  0
 12 13  2  0  0  0  0
 13 14  1  0  0  0  0
 14 15  2  0  0  0  0
 15 16  1  0  0  0  0
 15 35  1  0  0  0  0
 16 17  1  0  0  0  0
 17 24  1  0  0  0  0
 17 18  1  0  0  0  0
 17 36  1  0  0  0  0
 18 19  1  0  0  0  0
 18 37  1  0  0  0  0
 18 38  1  0  0  0  0
 19 20  1  0  0  0  0
 19 22  1  0  0  0  0
 19 24  1  0  0  0  0
 20 21  1  0  0  0  0
 20 39  1  0  0  0  0
 20 40  1  0  0  0  0
 21 41  1  0  0  0  0
 22 23  1  0  0  0  0
 22 42  1  0  0  0  0
 22 43  1  0  0  0  0
 23 44  1  0  0  0  0
 24 45  1  0  0  0  0
 24 46  1  0  0  0  0
 25 47  1  0  0  0  0
 25 48  1  0  0  0  0
 26 27  1  0  0  0  0
 26 49  1  0  0  0  0
 26 50  1  0  0  0  0
 27 51  1  0  0  0  0
M  END
> <s_m_source_file>
AV-unprocessed.smi

> <i_m_source_file_index>
84

> <i_lp_mmshare_version>
43012

> <i_f3d_flags>
0

> <s_epik_input>
W0NIMl0xW05IXUMoPU8pW0NIMl1bQ0BdMTJbQ0gyXVtDSDJdTihbQ0gyXTIpYyhuW2NIXW4zKWMoYzM0KW5bY0hdbjRbQ0hdKFtDSDJdNSlbQ0gyXUM1KFtDSDJdW09IXSlbQ0gyXVtPSF0=

> <s_epik_cmdline>
J2VwaWtfcHl0aG9uJywgJy1waCcsICc3LjAnLCAnLXRuJywgJzgnLCAnLW1hJywgJzIwMCcsICctbWV0YWxfYmluZGluZycsICctaW1hZScsICc8aW5maWxlLm1hZT4nLCAnLW9tYWUnLCAnPG91dGZpbGUubWFlPic=

> <r_lp_tautomer_probability>
1

> <r_epik_Ionization_Penalty>
0.00201507

> <r_epik_Ionization_Penalty_Charging>
0

> <r_epik_Ionization_Penalty_Neutral>
0.00201507

> <r_epik_State_Penalty>
0.00133787

> <r_epik_Charging_Adjusted_Penalty>
0.00133787

> <i_epik_Tot_Q>
0

> <i_epik_Tot_abs_Q>
0

> <r_epik_Metal_State_Penalty>
-0

> <b_epik_Metal_Only>
0

> <s_lp_Force_Field>
OPLS_2005

> <r_lp_Energy>
65.4538

> <b_lp_Chiralities_Consistent>
1

> <s_lp_Variant>
AV-unprocessed.smi:84-1

> <Gold.Version>
5.8.1

> <Gold.Id.Protein>
6NUR|6NUR_protein|mol2

> <Gold.PLP.Fitness>
42.0347

> <Gold.PLP.PLP>
-35.1473

> <Gold.PLP.part.hbond>
-3.9839

> <Gold.PLP.part.metal>
0.0000

> <Gold.PLP.part.buried>
-0.1794

> <Gold.PLP.part.nonpolar>
-31.8177

> <Gold.PLP.part.repulsive>
0.6170

> <Gold.PLP.ligand.clash>
0.0000

> <Gold.PLP.ligand.torsion>
1.2751

> <Gold.PLP.Chemscore.Hbond>
1.9280

> <Gold.PLP.Chemscore.CHOScore>
1.0000

> <Gold.PLP.Chemscore.Metal>
0.0000

> <Gold.Chemscore.Hbonds>
donor molecule, donor type, donor heavy atom, donor atom, acceptor molecule, acceptor atom, score
      L1  H    21    41       P1 10747  0.93
      L1  H    23    44       P1 10952  1.00
      L1  C    15    35       P1 10171  1.00

> <Gold.PLP.Chemscore.Internal.Correction>
0.6536

> <Gold.Rescore>
     Score         DG    S(hbond)    S(metal)    S(lipo)     H(rot)  DE(clash)    DE(int)     intcor
     11.22     -12.76       1.91        0.00      72.64       2.96       0.24       1.30       ----

> <Gold.Chemscore.Fitness>
11.2190

> <Gold.Chemscore.DG>
-12.7584

> <Gold.Chemscore.ZeroCoef>
-5.4800

> <Gold.Chemscore.Hbond>
1.9071

> <Gold.Chemscore.Metal>
0.0000

> <Gold.Chemscore.Lipo>
72.6403

> <Gold.Chemscore.Internal_Hbond>
0.0000

> <Gold.Chemscore.DEClash>
0.2351

> <Gold.Chemscore.DEInternal>
1.3043

> <Gold.Chemscore.Rot>
2.9649

> <Gold.Chemscore.Internal.Correction>
   9.000000E+99

> <Gold.Chemscore.Hbonds>
donor molecule, donor type, donor heavy atom, donor atom, acceptor molecule, acceptor atom, score
      L1  H    21    41       P1 10747  0.91
      L1  H    23    44       P1 10952  0.89

> <Gold.Chemscore.Hbond.Weighted>
-6.3696

> <Gold.Chemscore.Metal.Weighted>
-0.0000

> <Gold.Chemscore.Lipo.Weighted>
-8.4989

> <Gold.Chemscore.Internal_Hbond.Weighted>
0.0000

> <Gold.Chemscore.DEClash.Weighted>
0.2351

> <Gold.Chemscore.DEInternal.Weighted>
1.3043

> <Gold.Chemscore.Rot.Weighted>
7.5902

> <Gold.Chemscore.Internal.Correction.Weighted>
   9.000000E+99

> <Gold.Protein.RotatedTorsions>
[ 6907 6896 6895 6894 ] final  -24.92 input  -60.11 | X-H torsion
[ 7974 7965 7964 7962 ] final  -63.60 input  175.53 | X-H torsion
[ 8008 7997 7996 7995 ] final  -61.02 input   59.86 | X-H torsion
[ 10167 10162 10161 10158 ] final  -93.01 input  -65.29 | X-H torsion
[ 10718 10713 10712 10709 ] final -161.95 input   66.30 | X-H torsion
[ 10763 10752 10751 10750 ] final  -49.88 input  -60.55 | X-H torsion
[ 11005 11000 10999 10996 ] final  -73.89 input  -57.11 | X-H torsion

> <Gold.Protein.ActiveResidues>
 VAL166  LYS551  ARG553  GLY616  TRP617  ASP618  TYR619  PRO620  LYS621  CYS622 
 ASP623  PHE694  ASN695  SER759  ASP760  ASP761  ALA762  ILE779  LEU786  VAL792 
 PHE793  MET794  SER795  GLU796  ALA797  LYS798  CYS799  TRP800  GLU811  SER814 

> <Gold.Protein.RotatedAtoms>
  151.1825  135.0367  159.8798 H   0  0  0  0  0  0  0  0  0  0  0  0  # atno 6907 bound_to 6896
  152.5444  134.1046  159.8343 H   0  0  0  0  0  0  0  0  0  0  0  0  # atno 6908 bound_to 6896
  151.1165  133.5088  159.2636 H   0  0  0  0  0  0  0  0  0  0  0  0  # atno 6909 bound_to 6896
  145.7771  140.8782  143.0350 H   0  0  0  0  0  0  0  0  0  0  0  0  # atno 7974 bound_to 7965
  154.4427  140.1027  156.6365 H   0  0  0  0  0  0  0  0  0  0  0  0  # atno 8008 bound_to 7997
  155.5548  140.3486  155.4458 H   0  0  0  0  0  0  0  0  0  0  0  0  # atno 8009 bound_to 7997
  156.0503  140.1302  157.0047 H   0  0  0  0  0  0  0  0  0  0  0  0  # atno 8010 bound_to 7997
  140.3290  143.3006  151.9963 H   0  0  0  0  0  0  0  0  0  0  0  0  # atno 10167 bound_to 10162
  156.6035  130.8820  151.2919 H   0  0  0  0  0  0  0  0  0  0  0  0  # atno 10718 bound_to 10713
  154.1013  135.6563  153.4869 H   0  0  0  0  0  0  0  0  0  0  0  0  # atno 10763 bound_to 10752
  153.0287  135.5226  154.7283 H   0  0  0  0  0  0  0  0  0  0  0  0  # atno 10764 bound_to 10752
  154.6436  135.2991  155.0042 H   0  0  0  0  0  0  0  0  0  0  0  0  # atno 10765 bound_to 10752
  141.1628  133.6893  156.7281 H   0  0  0  0  0  0  0  0  0  0  0  0  # atno 11005 bound_to 11000
  144.6802  139.9936  143.7484 LP  0  0  0  0  0  0  0  0  0  0  0  0  # atno 17320 bound_to 7965
  146.0112  139.3171  143.0869 LP  0  0  0  0  0  0  0  0  0  0  0  0  # atno 17321 bound_to 7965
  139.4860  144.6250  151.7181 LP  0  0  0  0  0  0  0  0  0  0  0  0  # atno 17342 bound_to 10162
  140.5415  144.0572  150.6090 LP  0  0  0  0  0  0  0  0  0  0  0  0  # atno 17343 bound_to 10162
  157.7273  130.9641  150.1694 LP  0  0  0  0  0  0  0  0  0  0  0  0  # atno 17370 bound_to 10713
  156.2449  130.3694  149.8295 LP  0  0  0  0  0  0  0  0  0  0  0  0  # atno 17371 bound_to 10713
  140.2765  134.8350  157.3895 LP  0  0  0  0  0  0  0  0  0  0  0  0  # atno 17394 bound_to 11000
  140.1472  134.4896  155.7987 LP  0  0  0  0  0  0  0  0  0  0  0  0  # atno 17395 bound_to 11000

$$$$
