#       Name:                AV-unprocessed.smi:2247
#       Creating user name   scv26
#       Creation time:       Fri Mar 27 12:29:08 2020


#       File generated by GOLD software.
#

@<TRIPOS>MOLECULE
AV-unprocessed.smi:2247
    41    42     1
SMALL
NO_CHARGES


@<TRIPOS>ATOM
      1 ****        -3.9619  -1.8439   2.1907 C.3            1 S1                 0.0000
      2 ****        -3.3567  -0.9774   1.0716 C.3            1 S1                 0.0000
      3 ****        -3.8534  -1.4038  -0.3187 C.3            1 S1                 0.0000
      4 ****        -1.8882  -0.9584   1.1065 N.am           1 S1                 0.0000
      5 ****        -1.1042  -2.1025   1.5433 C.3            1 S1                 0.0000
      6 ****         0.3259  -1.7810   1.0990 C.3            1 S1                 0.0000
      7 ****         0.3743  -0.2564   0.9118 C.3            1 S1                 0.0000
      8 ****         1.1545   0.0792  -0.2785 N.am           1 S1                 0.0000
      9 ****         1.7526   1.2575  -0.5137 C.2            1 S1                 0.0000
     10 ****         1.6869   2.1891   0.2948 O.2            1 S1                 0.0000
     11 ****         2.4253   1.2177  -1.7254 N.2            1 S1                 0.0000
     12 ****         3.3603   2.0856  -1.9598 C.2            1 S1                 0.0000
     13 ****         4.1310   2.2113  -3.1046 N.pl3          1 S1                 0.0000
     14 ****         5.0037   3.2476  -2.9185 C.2            1 S1                 0.0000
     15 ****         4.7917   3.7550  -1.7076 C.2            1 S1                 0.0000
     16 ****         3.7906   3.0647  -1.0937 O.3            1 S1                 0.0000
     17 ****        -1.1096   0.0628   0.7222 C.2            1 S1                 0.0000
     18 ****        -1.5090   1.1432   0.2873 O.2            1 S1                 0.0000
     19 ****        -5.0490  -1.7621   2.1979 H              1 S1                 0.0000
     20 ****        -3.6050  -1.5269   3.1713 H              1 S1                 0.0000
     21 ****        -3.7168  -2.8990   2.0665 H              1 S1                 0.0000
     22 ****        -3.7069   0.0415   1.2470 H              1 S1                 0.0000
     23 ****        -4.9424  -1.3838  -0.3678 H              1 S1                 0.0000
     24 ****        -3.5282  -2.4157  -0.5623 H              1 S1                 0.0000
     25 ****        -3.4781  -0.7368  -1.0956 H              1 S1                 0.0000
     26 ****        -1.1599  -2.1873   2.6295 H              1 S1                 0.0000
     27 ****        -1.4620  -3.0344   1.1040 H              1 S1                 0.0000
     28 ****         1.0664  -2.1300   1.8194 H              1 S1                 0.0000
     29 ****         0.5280  -2.2934   0.1563 H              1 S1                 0.0000
     30 ****         0.7463   0.2374   1.8110 H              1 S1                 0.0000
     31 ****         1.2474  -0.6423  -0.9788 H              1 S1                 0.0000
     32 ****         4.0952   1.6559  -3.9473 H              1 S1                 0.0000
     33 ****         5.7042   3.5184  -3.6947 H              1 S1                 0.0000
     34 ****         5.2484   4.5674  -1.1621 H              1 S1                 0.0000
     35 ****         1.1789   2.0753   1.1486 LP             1 S1                 0.0000
     36 ****         2.1416   3.0572   0.0954 LP             1 S1                 0.0000
     37 ****         2.1923   0.5278  -2.4108 LP             1 S1                 0.0000
     38 ****         4.1322   2.6475  -0.2516 LP             1 S1                 0.0000
     39 ****         3.0349   3.6827  -0.8768 LP             1 S1                 0.0000
     40 ****        -2.4902   1.3141   0.1972 LP             1 S1                 0.0000
     41 ****        -0.8523   1.8499   0.0241 LP             1 S1                 0.0000
@<TRIPOS>BOND
    1    1    2 1     
    2    1   19 1     
    3    1   20 1     
    4    1   21 1     
    5    2    3 1     
    6    2    4 1     
    7    2   22 1     
    8    3   23 1     
    9    3   24 1     
   10    3   25 1     
   11    4   17 am    
   12    4    5 1     
   13    5    6 1     
   14    5   26 1     
   15    5   27 1     
   16    6    7 1     
   17    6   28 1     
   18    6   29 1     
   19    7    8 1     
   20    7   17 1     
   21    7   30 1     
   22    8   31 1     
   23    8    9 am    
   24    9   11 1     
   25    9   10 2     
   26   11   12 2     
   27   12   16 1     
   28   12   13 1     
   29   13   32 1     
   30   13   14 1     
   31   14   33 1     
   32   14   15 2     
   33   15   34 1     
   34   15   16 1     
   35   17   18 2     
   36   10   35 1     
   37   10   36 1     
   38   11   37 1     
   39   16   38 1     
   40   16   39 1     
   41   18   40 1     
   42   18   41 1     
@<TRIPOS>SUBSTRUCTURE
      1 S1             1
@<TRIPOS>SET
LONE_PAIRS      STATIC     ATOMS    <user>   **** ""
7 35 36 37 38 39 40 41
DONOR_HYDROGENS      STATIC     ATOMS    <user>   **** ""
2 31 32
ATOM$BLUE        STATIC     ATOMS    COLORGROUP SYSTEM
7 35 36 37 38 39 40 41
ATOM$RED        STATIC     ATOMS    COLORGROUP SYSTEM
2 31 32
