AV-unprocessed.smi:2061|AV-procd|sdf|8394|dock7
  -GOLD-   2272011 83D 1   1.00000     0.00000
 Structure written by MMmdl.
 45 46  0  0  0  0  0  0  0  0  3 V2000
  147.0458  135.2966  162.8477 C   0  0  0  0  0  0  0  0  0  0  0  0
  147.5467  135.6744  161.4961 C   0  0  0  0  0  0  0  0  0  0  0  0
  147.5902  135.0126  160.3014 C   0  0  0  0  0  0  0  0  0  0  0  0
  148.1971  135.9577  159.4317 C   0  0  0  0  0  0  0  0  0  0  0  0
  148.4272  135.6428  158.0658 N   0  0  0  0  0  0  0  0  0  0  0  0
  147.6868  134.8788  157.2415 C   0  0  0  0  0  0  0  0  0  0  0  0
  146.6558  134.3346  157.6546 O   0  0  0  0  0  0  0  0  0  0  0  0
  148.2133  134.8112  155.9878 N   0  5  0  0  0  0  0  0  0  0  0  0
  147.5135  135.2377  154.7759 C   0  0  0  0  0  0  0  0  0  0  0  0
  147.2981  134.0363  153.8093 C   0  0  2  0  0  0  0  0  0  0  0  0
  148.5828  133.1616  153.7233 C   0  0  0  0  0  0  0  0  0  0  0  0
  146.8020  134.5423  152.4799 N   0  3  1  0  0  0  0  0  0  0  0  0
  146.6278  133.5604  151.3736 C   0  0  0  0  0  0  0  0  0  0  0  0
  145.3096  132.7696  151.5161 C   0  0  2  0  0  0  0  0  0  0  0  0
  145.0849  131.8104  150.3424 C   0  0  0  0  0  0  0  0  0  0  0  0
  144.2249  133.6888  151.5470 O   0  0  0  0  0  0  0  0  0  0  0  0
  144.2949  134.5782  152.6552 C   0  0  2  0  0  0  0  0  0  0  0  0
  143.0415  135.4598  152.6330 C   0  0  0  0  0  0  0  0  0  0  0  0
  145.5903  135.4110  152.5533 C   0  0  0  0  0  0  0  0  0  0  0  0
  148.4932  137.0957  160.0423 N   0  0  0  0  0  0  0  0  0  0  0  0
  148.0781  136.9200  161.3674 O   0  0  0  0  0  0  0  0  0  0  0  0
  146.8855  134.2206  162.9168 H   0  0  0  0  0  0  0  0  0  0  0  0
  146.1000  135.7944  163.0612 H   0  0  0  0  0  0  0  0  0  0  0  0
  147.7610  135.5813  163.6196 H   0  0  0  0  0  0  0  0  0  0  0  0
  147.2452  134.0121  160.0862 H   0  0  0  0  0  0  0  0  0  0  0  0
  149.2518  136.0559  157.6564 H   0  0  0  0  0  0  0  0  0  0  0  0
  146.5444  135.6700  155.0278 H   0  0  0  0  0  0  0  0  0  0  0  0
  148.0516  136.0247  154.2457 H   0  0  0  0  0  0  0  0  0  0  0  0
  146.5178  133.3974  154.2250 H   0  0  0  0  0  0  0  0  0  0  0  0
  148.8966  132.7882  154.7004 H   0  0  0  0  0  0  0  0  0  0  0  0
  149.4305  133.7042  153.3001 H   0  0  0  0  0  0  0  0  0  0  0  0
  148.4300  132.2695  153.1188 H   0  0  0  0  0  0  0  0  0  0  0  0
  146.5939  134.1261  150.4413 H   0  0  0  0  0  0  0  0  0  0  0  0
  147.4871  132.9003  151.2644 H   0  0  0  0  0  0  0  0  0  0  0  0
  145.3042  132.1888  152.4387 H   0  0  0  0  0  0  0  0  0  0  0  0
  145.8840  131.0712  150.2813 H   0  0  0  0  0  0  0  0  0  0  0  0
  145.0514  132.3471  149.3939 H   0  0  0  0  0  0  0  0  0  0  0  0
  144.1433  131.2723  150.4539 H   0  0  0  0  0  0  0  0  0  0  0  0
  144.2890  134.0002  153.5804 H   0  0  0  0  0  0  0  0  0  0  0  0
  143.0363  136.1548  153.4731 H   0  0  0  0  0  0  0  0  0  0  0  0
  142.1375  134.8538  152.6981 H   0  0  0  0  0  0  0  0  0  0  0  0
  142.9848  136.0442  151.7141 H   0  0  0  0  0  0  0  0  0  0  0  0
  145.6508  136.1156  153.3830 H   0  0  0  0  0  0  0  0  0  0  0  0
  145.5580  136.0191  151.6482 H   0  0  0  0  0  0  0  0  0  0  0  0
  147.5525  135.1437  152.1705 H   0  0  0  0  0  0  0  0  0  0  0  0
  1  2  1  0  0  0  0
  1 22  1  0  0  0  0
  1 23  1  0  0  0  0
  1 24  1  0  0  0  0
  2 21  1  0  0  0  0
  2  3  2  0  0  0  0
  3  4  1  0  0  0  0
  3 25  1  0  0  0  0
  4  5  1  0  0  0  0
  4 20  2  0  0  0  0
  5  6  1  0  0  0  0
  5 26  1  0  0  0  0
  6  7  2  0  0  0  0
  6  8  1  0  0  0  0
  8  9  1  0  0  0  0
  9 10  1  0  0  0  0
  9 27  1  0  0  0  0
  9 28  1  0  0  0  0
 10 11  1  0  0  0  0
 10 12  1  0  0  0  0
 10 29  1  0  0  0  0
 11 30  1  0  0  0  0
 11 31  1  0  0  0  0
 11 32  1  0  0  0  0
 12 19  1  0  0  0  0
 12 13  1  0  0  0  0
 12 45  1  0  0  0  0
 13 14  1  0  0  0  0
 13 33  1  0  0  0  0
 13 34  1  0  0  0  0
 14 15  1  0  0  0  0
 14 16  1  0  0  0  0
 14 35  1  0  0  0  0
 15 36  1  0  0  0  0
 15 37  1  0  0  0  0
 15 38  1  0  0  0  0
 16 17  1  0  0  0  0
 17 18  1  0  0  0  0
 17 19  1  0  0  0  0
 17 39  1  0  0  0  0
 18 40  1  0  0  0  0
 18 41  1  0  0  0  0
 18 42  1  0  0  0  0
 19 43  1  0  0  0  0
 19 44  1  0  0  0  0
 20 21  1  0  0  0  0
M  CHG  1   8  -1
M  CHG  1  12   1
M  END
> <s_m_source_file>
AV-unprocessed.smi

> <i_m_source_file_index>
2061

> <i_lp_mmshare_version>
43012

> <i_f3d_flags>
0

> <s_epik_input>
W0NIM11jMVtjSF1jKG5vMSlbTkhdQyg9TylbTkhdW0NIMl1bQ0BIXShbQ0gzXSlOMltDSDJdW0NAQEhdKFtDSDNdKU9bQ0BASF0oW0NIM10pW0NIMl0y

> <s_epik_cmdline>
J2VwaWtfcHl0aG9uJywgJy1waCcsICc3LjAnLCAnLXRuJywgJzgnLCAnLW1hJywgJzIwMCcsICctbWV0YWxfYmluZGluZycsICctaW1hZScsICc8aW5maWxlLm1hZT4nLCAnLW9tYWUnLCAnPG91dGZpbGUubWFlPic=

> <r_epik_Ionization_Penalty>
6.8073

> <r_epik_Ionization_Penalty_Charging>
6.80729

> <r_epik_Ionization_Penalty_Neutral>
5.65391e-06

> <r_epik_State_Penalty>
7.47323

> <r_epik_Charging_Adjusted_Penalty>
14.2805

> <i_epik_Tot_Q>
0

> <i_epik_Tot_abs_Q>
2

> <r_epik_Metal_State_Penalty>
3.40035

> <b_epik_Metal_Only>
1

> <s_lp_Force_Field>
OPLS_2005

> <r_lp_Energy>
21.662

> <b_lp_Chiralities_Consistent>
1

> <s_lp_Variant>
AV-unprocessed.smi:2061-35

> <Gold.Version>
5.8.1

> <Gold.Id.Protein>
6NUR|6NUR_protein|mol2

> <Gold.PLP.Fitness>
39.7379

> <Gold.PLP.PLP>
-32.2517

> <Gold.PLP.part.hbond>
-4.5993

> <Gold.PLP.part.metal>
0.0000

> <Gold.PLP.part.buried>
-4.4036

> <Gold.PLP.part.nonpolar>
-23.5471

> <Gold.PLP.part.repulsive>
0.2333

> <Gold.PLP.ligand.clash>
0.0000

> <Gold.PLP.ligand.torsion>
0.9238

> <Gold.PLP.Chemscore.Hbond>
3.0731

> <Gold.PLP.Chemscore.CHOScore>
0.0000

> <Gold.PLP.Chemscore.Metal>
0.0000

> <Gold.Chemscore.Hbonds>
donor molecule, donor type, donor heavy atom, donor atom, acceptor molecule, acceptor atom, score
      L1  H    12    45       P1  7948  2.00
      P1  H  6931  6943       L1    21  0.60

> <Gold.PLP.Chemscore.Internal.Correction>
0.1146

> <Gold.Rescore>
     Score         DG    S(hbond)    S(metal)    S(lipo)     H(rot)  DE(clash)    DE(int)     intcor
     13.06     -15.30       1.73        0.00      68.66       1.56       0.06       2.18       ----

> <Gold.Chemscore.Fitness>
13.0565

> <Gold.Chemscore.DG>
-15.3023

> <Gold.Chemscore.ZeroCoef>
-5.4800

> <Gold.Chemscore.Hbond>
1.7275

> <Gold.Chemscore.Metal>
0.0000

> <Gold.Chemscore.Lipo>
68.6615

> <Gold.Chemscore.Internal_Hbond>
0.0000

> <Gold.Chemscore.DEClash>
0.0640

> <Gold.Chemscore.DEInternal>
2.1818

> <Gold.Chemscore.Rot>
1.5550

> <Gold.Chemscore.Internal.Correction>
   9.000000E+99

> <Gold.Chemscore.Hbonds>
donor molecule, donor type, donor heavy atom, donor atom, acceptor molecule, acceptor atom, score
      L1  H    12    45       P1  7948  0.98
      P1  H  6931  6943       L1    21  0.04

> <Gold.Chemscore.Hbond.Weighted>
-5.7698

> <Gold.Chemscore.Metal.Weighted>
-0.0000

> <Gold.Chemscore.Lipo.Weighted>
-8.0334

> <Gold.Chemscore.Internal_Hbond.Weighted>
0.0000

> <Gold.Chemscore.DEClash.Weighted>
0.0640

> <Gold.Chemscore.DEInternal.Weighted>
2.1818

> <Gold.Chemscore.Rot.Weighted>
3.9809

> <Gold.Chemscore.Internal.Correction.Weighted>
   9.000000E+99

> <Gold.Protein.RotatedTorsions>
[ 6907 6896 6895 6894 ] final   39.81 input  -60.11 | X-H torsion
[ 7974 7965 7964 7962 ] final   16.65 input  175.53 | X-H torsion
[ 8008 7997 7996 7995 ] final -163.56 input   59.86 | X-H torsion
[ 10167 10162 10161 10158 ] final -158.17 input  -65.29 | X-H torsion
[ 10718 10713 10712 10709 ] final   56.51 input   66.30 | X-H torsion
[ 10763 10752 10751 10750 ] final  -25.34 input  -60.55 | X-H torsion
[ 11005 11000 10999 10996 ] final   43.39 input  -57.11 | X-H torsion

> <Gold.Protein.ActiveResidues>
 VAL166  LYS551  ARG553  GLY616  TRP617  ASP618  TYR619  PRO620  LYS621  CYS622 
 ASP623  PHE694  ASN695  SER759  ASP760  ASP761  ALA762  ILE779  LEU786  VAL792 
 PHE793  MET794  SER795  GLU796  ALA797  LYS798  CYS799  TRP800  GLU811  SER814 

> <Gold.Protein.RotatedAtoms>
  152.1744  134.8807  160.0531 H   0  0  0  0  0  0  0  0  0  0  0  0  # atno 6907 bound_to 6896
  151.9754  133.3735  159.4095 H   0  0  0  0  0  0  0  0  0  0  0  0  # atno 6908 bound_to 6896
  150.6907  134.4018  159.5166 H   0  0  0  0  0  0  0  0  0  0  0  0  # atno 6909 bound_to 6896
  146.2243  139.8716  142.8586 H   0  0  0  0  0  0  0  0  0  0  0  0  # atno 7974 bound_to 7965
  155.8230  140.0922  157.1838 H   0  0  0  0  0  0  0  0  0  0  0  0  # atno 8008 bound_to 7997
  154.3979  140.1433  156.3583 H   0  0  0  0  0  0  0  0  0  0  0  0  # atno 8009 bound_to 7997
  155.8246  140.3445  155.5537 H   0  0  0  0  0  0  0  0  0  0  0  0  # atno 8010 bound_to 7997
  139.6713  143.9740  152.2285 H   0  0  0  0  0  0  0  0  0  0  0  0  # atno 10167 bound_to 10162
  157.5437  130.8715  149.8859 H   0  0  0  0  0  0  0  0  0  0  0  0  # atno 10718 bound_to 10713
  153.6983  135.6958  153.5070 H   0  0  0  0  0  0  0  0  0  0  0  0  # atno 10763 bound_to 10752
  153.2362  135.4321  155.0647 H   0  0  0  0  0  0  0  0  0  0  0  0  # atno 10764 bound_to 10752
  154.8352  135.3496  154.6523 H   0  0  0  0  0  0  0  0  0  0  0  0  # atno 10765 bound_to 10752
  140.1649  134.4295  155.8294 H   0  0  0  0  0  0  0  0  0  0  0  0  # atno 11005 bound_to 11000
  145.2602  141.0074  143.3831 LP  0  0  0  0  0  0  0  0  0  0  0  0  # atno 17320 bound_to 7965
  144.9304  139.4305  143.6497 LP  0  0  0  0  0  0  0  0  0  0  0  0  # atno 17321 bound_to 7965
  139.9506  144.6623  150.8176 LP  0  0  0  0  0  0  0  0  0  0  0  0  # atno 17342 bound_to 10162
  140.7619  143.3185  151.2677 LP  0  0  0  0  0  0  0  0  0  0  0  0  # atno 17343 bound_to 10162
  156.0517  130.3716  150.1185 LP  0  0  0  0  0  0  0  0  0  0  0  0  # atno 17370 bound_to 10713
  156.9363  130.9730  151.3524 LP  0  0  0  0  0  0  0  0  0  0  0  0  # atno 17371 bound_to 10713
  141.2213  133.6930  156.7660 LP  0  0  0  0  0  0  0  0  0  0  0  0  # atno 17394 bound_to 11000
  140.2446  134.8587  157.3607 LP  0  0  0  0  0  0  0  0  0  0  0  0  # atno 17395 bound_to 11000

$$$$
