#       Name:                AV-unprocessed.smi:2363
#       Creating user name   scv26
#       Creation time:       Fri Mar 27 13:05:16 2020


#       File generated by GOLD software.
#

@<TRIPOS>MOLECULE
AV-unprocessed.smi:2363
    49    50     1
SMALL
NO_CHARGES


@<TRIPOS>ATOM
      1 ****        -2.4957  -4.4148  -1.5671 C.3            1 S1                 0.0000
      2 ****        -3.0407  -2.9840  -1.5088 C.3            1 S1                 0.0000
      3 ****        -3.2861  -2.5072  -0.0698 C.3            1 S1                 0.0000
      4 ****        -3.8142  -1.1545  -0.0368 N.pl3          1 S1                 0.0000
      5 ****        -5.1502  -0.9568   0.0092 N.2            1 S1                 0.0000
      6 ****        -5.3026   0.3611   0.0236 C.2            1 S1                 0.0000
      7 ****        -4.0661   1.0664  -0.0177 C.2            1 S1                 0.0000
      8 ****        -3.1479   0.0527  -0.0574 C.2            1 S1                 0.0000
      9 ****        -1.7919   0.1320  -0.1197 N.am           1 S1                 0.0000
     10 ****        -1.0125   1.2275  -0.1150 C.2            1 S1                 0.0000
     11 ****        -1.4118   2.3882  -0.0216 O.2            1 S1                 0.0000
     12 ****         0.2826   0.8972  -0.2234 N.am           1 S1                 0.0000
     13 ****         1.4040   1.8363  -0.2312 C.3            1 S1                 0.0000
     14 ****         1.6100   2.3574  -1.6664 C.3            1 S1                 0.0000
     15 ****         2.6666   1.1583   0.3632 C.3            1 S1                 0.0000
     16 ****         2.4209   0.5997   1.7815 C.3            1 S1                 0.0000
     17 ****         3.7039  -0.0036   2.3749 C.3            1 S1                 0.0000
     18 ****         4.7373   0.9729   2.3940 O.3            1 S1                 0.0000
     19 ****         5.0873   1.4254   1.0922 C.3            1 S1                 0.0000
     20 ****         3.8803   2.1075   0.4278 C.3            1 S1                 0.0000
     21 ****        -2.3288  -4.7257  -2.5986 H              1 S1                 0.0000
     22 ****        -3.1949  -5.1199  -1.1169 H              1 S1                 0.0000
     23 ****        -1.5470  -4.4974  -1.0363 H              1 S1                 0.0000
     24 ****        -2.3386  -2.3116  -2.0033 H              1 S1                 0.0000
     25 ****        -3.9708  -2.9310  -2.0762 H              1 S1                 0.0000
     26 ****        -3.9884  -3.1723   0.4354 H              1 S1                 0.0000
     27 ****        -2.3599  -2.5346   0.5054 H              1 S1                 0.0000
     28 ****        -6.3032   0.7658   0.0605 H              1 S1                 0.0000
     29 ****        -3.9045   2.1337  -0.0215 H              1 S1                 0.0000
     30 ****        -1.3126  -0.7539  -0.1845 H              1 S1                 0.0000
     31 ****         0.5156  -0.0824  -0.2955 H              1 S1                 0.0000
     32 ****         1.1511   2.6862   0.4060 H              1 S1                 0.0000
     33 ****         2.3544   3.1519  -1.7055 H              1 S1                 0.0000
     34 ****         0.6873   2.7754  -2.0702 H              1 S1                 0.0000
     35 ****         1.9331   1.5603  -2.3367 H              1 S1                 0.0000
     36 ****         2.9350   0.3197  -0.2817 H              1 S1                 0.0000
     37 ****         2.0627   1.3969   2.4342 H              1 S1                 0.0000
     38 ****         1.6437  -0.1647   1.7709 H              1 S1                 0.0000
     39 ****         3.5208  -0.3403   3.3954 H              1 S1                 0.0000
     40 ****         4.0235  -0.8773   1.8049 H              1 S1                 0.0000
     41 ****         5.9150   2.1298   1.1763 H              1 S1                 0.0000
     42 ****         5.4426   0.5892   0.4878 H              1 S1                 0.0000
     43 ****         4.1713   2.4339  -0.5701 H              1 S1                 0.0000
     44 ****         3.6185   3.0061   0.9878 H              1 S1                 0.0000
     45 ****        -5.8681  -1.6527   0.0283 LP             1 S1                 0.0000
     46 ****        -2.3908   2.5752   0.0595 LP             1 S1                 0.0000
     47 ****        -0.7571   3.1441  -0.0268 LP             1 S1                 0.0000
     48 ****         5.5476   0.5732   2.8226 LP             1 S1                 0.0000
     49 ****         4.4275   1.7564   2.9327 LP             1 S1                 0.0000
@<TRIPOS>BOND
    1    1    2 1     
    2    1   21 1     
    3    1   22 1     
    4    1   23 1     
    5    2    3 1     
    6    2   24 1     
    7    2   25 1     
    8    3    4 1     
    9    3   26 1     
   10    3   27 1     
   11    4    8 1     
   12    4    5 1     
   13    5    6 2     
   14    6    7 1     
   15    6   28 1     
   16    7    8 2     
   17    7   29 1     
   18    8    9 1     
   19    9   10 am    
   20    9   30 1     
   21   10   11 2     
   22   10   12 am    
   23   12   13 1     
   24   12   31 1     
   25   13   14 1     
   26   13   15 1     
   27   13   32 1     
   28   14   33 1     
   29   14   34 1     
   30   14   35 1     
   31   15   20 1     
   32   15   16 1     
   33   15   36 1     
   34   16   17 1     
   35   16   37 1     
   36   16   38 1     
   37   17   18 1     
   38   17   39 1     
   39   17   40 1     
   40   18   19 1     
   41   19   20 1     
   42   19   41 1     
   43   19   42 1     
   44   20   43 1     
   45   20   44 1     
   46    5   45 1     
   47   11   46 1     
   48   11   47 1     
   49   18   48 1     
   50   18   49 1     
@<TRIPOS>SUBSTRUCTURE
      1 S1             1
@<TRIPOS>SET
LONE_PAIRS      STATIC     ATOMS    <user>   **** ""
5 45 46 47 48 49
DONOR_HYDROGENS      STATIC     ATOMS    <user>   **** ""
2 30 31
ATOM$BLUE        STATIC     ATOMS    COLORGROUP SYSTEM
5 45 46 47 48 49
ATOM$RED        STATIC     ATOMS    COLORGROUP SYSTEM
2 30 31
