AV-unprocessed.smi:1240|AV-procd|sdf|5198|dock3
  -GOLD-   22720 4283D 1   1.00000     0.00000
 Structure written by MMmdl.
 47 49  0  0  0  0  0  0  0  0  1 V2000
  144.7486  137.2081  152.3578 O   0  0  0  0  0  0  0  0  0  0  0  0
  145.9537  136.9761  152.2630 C   0  0  0  0  0  0  0  0  0  0  0  0
  146.9030  137.8684  152.5790 N   0  0  0  0  0  0  0  0  0  0  0  0
  146.6519  139.2053  153.1085 C   0  0  0  0  0  0  0  0  0  0  0  0
  146.9010  139.3020  154.6412 C   0  0  1  0  0  0  0  0  0  0  0  0
  148.4179  139.3191  155.0012 C   0  0  1  0  0  0  0  0  0  0  0  0
  149.2431  138.0639  154.7068 C   0  0  0  0  0  0  0  0  0  0  0  0
  150.5456  138.6079  154.1157 C   0  0  0  0  0  0  0  0  0  0  0  0
  150.5766  139.9708  154.5113 O   0  0  0  0  0  0  0  0  0  0  0  0
  149.2497  140.4577  154.3997 C   0  0  0  0  0  0  0  0  0  0  0  0
  146.0832  140.3116  155.3415 N   0  0  0  0  0  0  0  0  0  0  0  0
  146.1902  140.3100  156.7989 C   0  0  0  0  0  0  0  0  0  0  0  0
  145.2348  141.3309  157.4424 C   0  0  0  0  0  0  0  0  0  0  0  0
  145.4679  142.6258  156.8989 O   0  0  0  0  0  0  0  0  0  0  0  0
  145.3040  142.6638  155.4853 C   0  0  0  0  0  0  0  0  0  0  0  0
  146.2766  141.6678  154.8333 C   0  0  0  0  0  0  0  0  0  0  0  0
  146.4956  135.8124  151.8646 N   0  0  0  0  0  0  0  0  0  0  0  0
  145.8360  134.6106  151.4903 C   0  0  0  0  0  0  0  0  0  0  0  0
  146.6325  133.4731  151.2448 C   0  0  0  0  0  0  0  0  0  0  0  0
  146.0023  132.2732  150.8595 C   0  0  0  0  0  0  0  0  0  0  0  0
  144.6672  132.1546  150.7011 N   0  0  0  0  0  0  0  0  0  0  0  0
  143.9078  133.2487  150.9212 C   0  0  0  0  0  0  0  0  0  0  0  0
  144.4365  134.4955  151.3106 C   0  0  0  0  0  0  0  0  0  0  0  0
  147.8692  137.5964  152.4715 H   0  0  0  0  0  0  0  0  0  0  0  0
  147.2960  139.8978  152.5678 H   0  0  0  0  0  0  0  0  0  0  0  0
  145.6299  139.4862  152.8542 H   0  0  0  0  0  0  0  0  0  0  0  0
  146.5638  138.3460  155.0445 H   0  0  0  0  0  0  0  0  0  0  0  0
  148.4818  139.4613  156.0812 H   0  0  0  0  0  0  0  0  0  0  0  0
  149.4390  137.5243  155.6341 H   0  0  0  0  0  0  0  0  0  0  0  0
  148.7645  137.3623  154.0258 H   0  0  0  0  0  0  0  0  0  0  0  0
  151.4251  138.0682  154.4675 H   0  0  0  0  0  0  0  0  0  0  0  0
  150.5253  138.5526  153.0262 H   0  0  0  0  0  0  0  0  0  0  0  0
  149.0281  140.6294  153.3457 H   0  0  0  0  0  0  0  0  0  0  0  0
  149.1211  141.3992  154.9341 H   0  0  0  0  0  0  0  0  0  0  0  0
  145.9434  139.3283  157.1961 H   0  0  0  0  0  0  0  0  0  0  0  0
  147.2130  140.5340  157.1021 H   0  0  0  0  0  0  0  0  0  0  0  0
  144.1960  141.0428  157.2740 H   0  0  0  0  0  0  0  0  0  0  0  0
  145.3863  141.3636  158.5212 H   0  0  0  0  0  0  0  0  0  0  0  0
  144.2718  142.4272  155.2226 H   0  0  0  0  0  0  0  0  0  0  0  0
  145.5019  143.6752  155.1302 H   0  0  0  0  0  0  0  0  0  0  0  0
  147.2947  142.0039  155.0278 H   0  0  0  0  0  0  0  0  0  0  0  0
  146.1395  141.6845  153.7514 H   0  0  0  0  0  0  0  0  0  0  0  0
  147.5021  135.7548  151.9114 H   0  0  0  0  0  0  0  0  0  0  0  0
  147.7064  133.5120  151.3550 H   0  0  0  0  0  0  0  0  0  0  0  0
  146.5874  131.3849  150.6719 H   0  0  0  0  0  0  0  0  0  0  0  0
  142.8442  133.1292  150.7762 H   0  0  0  0  0  0  0  0  0  0  0  0
  143.7668  135.3299  151.4503 H   0  0  0  0  0  0  0  0  0  0  0  0
  1  2  2  0  0  0  0
  2  3  1  0  0  0  0
  2 17  1  0  0  0  0
  3  4  1  0  0  0  0
  3 24  1  0  0  0  0
  4  5  1  0  0  0  0
  4 25  1  0  0  0  0
  4 26  1  0  0  0  0
  5  6  1  0  0  0  0
  5 11  1  0  0  0  0
  5 27  1  0  0  0  0
  6 10  1  0  0  0  0
  6  7  1  0  0  0  0
  6 28  1  0  0  0  0
  7  8  1  0  0  0  0
  7 29  1  0  0  0  0
  7 30  1  0  0  0  0
  8  9  1  0  0  0  0
  8 31  1  0  0  0  0
  8 32  1  0  0  0  0
  9 10  1  0  0  0  0
 10 33  1  0  0  0  0
 10 34  1  0  0  0  0
 11 16  1  0  0  0  0
 11 12  1  0  0  0  0
 12 13  1  0  0  0  0
 12 35  1  0  0  0  0
 12 36  1  0  0  0  0
 13 14  1  0  0  0  0
 13 37  1  0  0  0  0
 13 38  1  0  0  0  0
 14 15  1  0  0  0  0
 15 16  1  0  0  0  0
 15 39  1  0  0  0  0
 15 40  1  0  0  0  0
 16 41  1  0  0  0  0
 16 42  1  0  0  0  0
 17 18  1  0  0  0  0
 17 43  1  0  0  0  0
 18 23  1  0  0  0  0
 18 19  2  0  0  0  0
 19 20  1  0  0  0  0
 19 44  1  0  0  0  0
 20 21  2  0  0  0  0
 20 45  1  0  0  0  0
 21 22  1  0  0  0  0
 22 23  2  0  0  0  0
 22 46  1  0  0  0  0
 23 47  1  0  0  0  0
M  END
> <s_m_source_file>
AV-unprocessed.smi

> <i_m_source_file_index>
1240

> <i_lp_mmshare_version>
43012

> <i_f3d_flags>
0

> <s_epik_input>
W2NIXTFbY0hdbltjSF1bY0hdYzFbTkhdQyg9TylbTkhdW0NIMl1bQ0BIXShbQ0BASF0yW0NIMl1bQ0gyXU9bQ0gyXTIpTjNbQ0gyXVtDSDJdT1tDSDJdW0NIMl0z

> <s_epik_cmdline>
J2VwaWtfcHl0aG9uJywgJy1waCcsICc3LjAnLCAnLXRuJywgJzgnLCAnLW1hJywgJzIwMCcsICctbWV0YWxfYmluZGluZycsICctaW1hZScsICc8aW5maWxlLm1hZT4nLCAnLW9tYWUnLCAnPG91dGZpbGUubWFlPic=

> <r_epik_Ionization_Penalty>
0.238664

> <r_epik_Ionization_Penalty_Charging>
0

> <r_epik_Ionization_Penalty_Neutral>
0.238664

> <r_epik_State_Penalty>
0.217087

> <r_epik_Charging_Adjusted_Penalty>
0.217087

> <i_epik_Tot_Q>
0

> <i_epik_Tot_abs_Q>
0

> <r_epik_Metal_State_Penalty>
0.199194

> <b_epik_Metal_Only>
0

> <s_lp_Force_Field>
OPLS_2005

> <r_lp_Energy>
57.1619

> <b_lp_Chiralities_Consistent>
1

> <s_lp_Variant>
AV-unprocessed.smi:1240-4

> <Gold.Version>
5.8.1

> <Gold.Id.Protein>
6NUR|6NUR_protein|mol2

> <Gold.PLP.Fitness>
45.1570

> <Gold.PLP.PLP>
-31.3157

> <Gold.PLP.part.hbond>
-2.8642

> <Gold.PLP.part.metal>
0.0000

> <Gold.PLP.part.buried>
-7.3609

> <Gold.PLP.part.nonpolar>
-24.1475

> <Gold.PLP.part.repulsive>
1.4881

> <Gold.PLP.ligand.clash>
0.0000

> <Gold.PLP.ligand.torsion>
0.5919

> <Gold.PLP.Chemscore.Hbond>
2.8713

> <Gold.PLP.Chemscore.CHOScore>
1.9954

> <Gold.PLP.Chemscore.Metal>
0.0000

> <Gold.Chemscore.Hbonds>
donor molecule, donor type, donor heavy atom, donor atom, acceptor molecule, acceptor atom, score
      L1  H     3    24       P1  7948  0.86
      L1  H    17    43       P1  7948  0.91
      P1  H  7989  7998       L1     9  1.00
      L1  C    20    45       P1 10747  1.00
      L1  C    22    46       P1 10186  0.94

> <Gold.PLP.Chemscore.Internal.Correction>
0.4252

> <Gold.Rescore>
     Score         DG    S(hbond)    S(metal)    S(lipo)     H(rot)  DE(clash)    DE(int)     intcor
     17.14     -19.19       2.80        0.00      73.42       1.65       0.22       1.83       ----

> <Gold.Chemscore.Fitness>
17.1397

> <Gold.Chemscore.DG>
-19.1905

> <Gold.Chemscore.ZeroCoef>
-5.4800

> <Gold.Chemscore.Hbond>
2.7984

> <Gold.Chemscore.Metal>
0.0000

> <Gold.Chemscore.Lipo>
73.4196

> <Gold.Chemscore.Internal_Hbond>
0.0000

> <Gold.Chemscore.DEClash>
0.2214

> <Gold.Chemscore.DEInternal>
1.8294

> <Gold.Chemscore.Rot>
1.6508

> <Gold.Chemscore.Internal.Correction>
   9.000000E+99

> <Gold.Chemscore.Hbonds>
donor molecule, donor type, donor heavy atom, donor atom, acceptor molecule, acceptor atom, score
      L1  H     3    24       P1  7948  0.85
      L1  H    17    43       P1  7948  0.88
      P1  H  7989  7998       L1     9  0.55

> <Gold.Chemscore.Hbond.Weighted>
-9.3466

> <Gold.Chemscore.Metal.Weighted>
-0.0000

> <Gold.Chemscore.Lipo.Weighted>
-8.5901

> <Gold.Chemscore.Internal_Hbond.Weighted>
0.0000

> <Gold.Chemscore.DEClash.Weighted>
0.2214

> <Gold.Chemscore.DEInternal.Weighted>
1.8294

> <Gold.Chemscore.Rot.Weighted>
4.2262

> <Gold.Chemscore.Internal.Correction.Weighted>
   9.000000E+99

> <Gold.Protein.RotatedTorsions>
[ 6907 6896 6895 6894 ] final   -5.92 input  -60.11 | X-H torsion
[ 7974 7965 7964 7962 ] final  135.48 input  175.53 | X-H torsion
[ 8008 7997 7996 7995 ] final   46.04 input   59.86 | X-H torsion
[ 10167 10162 10161 10158 ] final -124.18 input  -65.29 | X-H torsion
[ 10718 10713 10712 10709 ] final -167.78 input   66.30 | X-H torsion
[ 10763 10752 10751 10750 ] final   63.99 input  -60.55 | X-H torsion
[ 11005 11000 10999 10996 ] final  -26.00 input  -57.11 | X-H torsion

> <Gold.Protein.ActiveResidues>
 VAL166  LYS551  ARG553  GLY616  TRP617  ASP618  TYR619  PRO620  LYS621  CYS622 
 ASP623  PHE694  ASN695  SER759  ASP760  ASP761  ALA762  ILE779  LEU786  VAL792 
 PHE793  MET794  SER795  GLU796  ALA797  LYS798  CYS799  TRP800  GLU811  SER814 

> <Gold.Protein.RotatedAtoms>
  151.4739  135.1047  159.9758 H   0  0  0  0  0  0  0  0  0  0  0  0  # atno 6907 bound_to 6896
  152.4806  133.8240  159.7079 H   0  0  0  0  0  0  0  0  0  0  0  0  # atno 6908 bound_to 6896
  150.8874  133.7227  159.2941 H   0  0  0  0  0  0  0  0  0  0  0  0  # atno 6909 bound_to 6896
  144.9659  139.4658  143.5456 H   0  0  0  0  0  0  0  0  0  0  0  0  # atno 7974 bound_to 7965
  155.3458  140.3410  155.4239 H   0  0  0  0  0  0  0  0  0  0  0  0  # atno 8008 bound_to 7997
  156.1789  140.1657  156.8346 H   0  0  0  0  0  0  0  0  0  0  0  0  # atno 8009 bound_to 7997
  154.5312  140.0745  156.8331 H   0  0  0  0  0  0  0  0  0  0  0  0  # atno 8010 bound_to 7997
  139.9955  143.5595  152.2325 H   0  0  0  0  0  0  0  0  0  0  0  0  # atno 10167 bound_to 10162
  156.6873  130.9145  151.3064 H   0  0  0  0  0  0  0  0  0  0  0  0  # atno 10718 bound_to 10713
  153.0038  135.5409  154.6439 H   0  0  0  0  0  0  0  0  0  0  0  0  # atno 10763 bound_to 10752
  154.5687  135.2840  155.0850 H   0  0  0  0  0  0  0  0  0  0  0  0  # atno 10764 bound_to 10752
  154.2024  135.6481  153.5143 H   0  0  0  0  0  0  0  0  0  0  0  0  # atno 10765 bound_to 10752
  140.8990  133.7537  156.0518 H   0  0  0  0  0  0  0  0  0  0  0  0  # atno 11005 bound_to 11000
  146.3367  139.8840  142.8819 LP  0  0  0  0  0  0  0  0  0  0  0  0  # atno 17320 bound_to 7965
  145.2630  141.0083  143.3815 LP  0  0  0  0  0  0  0  0  0  0  0  0  # atno 17321 bound_to 7965
  139.6309  144.7644  151.2538 LP  0  0  0  0  0  0  0  0  0  0  0  0  # atno 17342 bound_to 10162
  140.7438  143.6481  150.8273 LP  0  0  0  0  0  0  0  0  0  0  0  0  # atno 17343 bound_to 10162
  157.7022  130.9345  150.0819 LP  0  0  0  0  0  0  0  0  0  0  0  0  # atno 17370 bound_to 10713
  156.1823  130.3650  149.9019 LP  0  0  0  0  0  0  0  0  0  0  0  0  # atno 17371 bound_to 10713
  140.8254  134.3241  157.5367 LP  0  0  0  0  0  0  0  0  0  0  0  0  # atno 17394 bound_to 11000
  139.8739  134.9333  156.3577 LP  0  0  0  0  0  0  0  0  0  0  0  0  # atno 17395 bound_to 11000

$$$$
