AV-unprocessed.smi:2414|AV-procd|sdf|9539|dock3
  -GOLD-   2272013173D 1   1.00000     0.00000
 Structure written by MMmdl.
 43 44  0  0  0  0  0  0  0  0  1 V2000
  151.1138  142.8176  157.8710 C   0  0  0  0  0  0  0  0  0  0  0  0
  150.8441  141.8993  156.7273 C   0  0  0  0  0  0  0  0  0  0  0  0
  150.5738  142.2402  155.4252 C   0  0  0  0  0  0  0  0  0  0  0  0
  150.3665  141.1434  154.5858 N   0  0  0  0  0  0  0  0  0  0  0  0
  150.4743  139.9781  155.2310 C   0  0  0  0  0  0  0  0  0  0  0  0
  150.3039  138.6436  154.5761 C   0  0  1  0  0  0  0  0  0  0  0  0
  151.6196  137.8460  154.5597 C   0  0  0  0  0  0  0  0  0  0  0  0
  149.1025  137.8720  155.1638 C   0  0  0  0  0  0  0  0  0  0  0  0
  148.4519  137.0130  154.1798 N   0  0  0  0  0  0  0  0  0  0  0  0
  147.2753  136.3969  154.3582 C   0  0  0  0  0  0  0  0  0  0  0  0
  146.6127  136.4610  155.3937 O   0  0  0  0  0  0  0  0  0  0  0  0
  146.9028  135.7158  153.2679 N   0  0  0  0  0  0  0  0  0  0  0  0
  145.6537  134.9741  153.1307 C   0  0  0  0  0  0  0  0  0  0  0  0
  145.4262  134.4870  151.6833 C   0  0  1  0  0  0  0  0  0  0  0  0
  145.3316  135.6864  150.7246 C   0  0  0  0  0  0  0  0  0  0  0  0
  146.4778  133.4695  151.1946 C   0  0  0  0  0  0  0  0  0  0  0  0
  145.6515  132.4680  150.4164 C   0  0  0  0  0  0  0  0  0  0  0  0
  144.3616  132.4519  151.2230 C   0  0  0  0  0  0  0  0  0  0  0  0
  144.1704  133.8068  151.6109 O   0  0  0  0  0  0  0  0  0  0  0  0
  150.8491  140.1682  156.9403 S   0  0  0  0  0  0  0  0  0  0  0  0
  150.5197  143.7278  157.7875 H   0  0  0  0  0  0  0  0  0  0  0  0
  152.1660  143.1014  157.8975 H   0  0  0  0  0  0  0  0  0  0  0  0
  150.8678  142.3434  158.8214 H   0  0  0  0  0  0  0  0  0  0  0  0
  150.5103  143.2350  155.0096 H   0  0  0  0  0  0  0  0  0  0  0  0
  150.0649  138.8545  153.5330 H   0  0  0  0  0  0  0  0  0  0  0  0
  152.4168  138.4205  154.0871 H   0  0  0  0  0  0  0  0  0  0  0  0
  151.5182  136.9139  154.0034 H   0  0  0  0  0  0  0  0  0  0  0  0
  151.9434  137.5968  155.5706 H   0  0  0  0  0  0  0  0  0  0  0  0
  149.4317  137.2452  155.9931 H   0  0  0  0  0  0  0  0  0  0  0  0
  148.3713  138.5687  155.5778 H   0  0  0  0  0  0  0  0  0  0  0  0
  148.9221  136.8975  153.2940 H   0  0  0  0  0  0  0  0  0  0  0  0
  147.5172  135.7201  152.4667 H   0  0  0  0  0  0  0  0  0  0  0  0
  145.6875  134.1238  153.8130 H   0  0  0  0  0  0  0  0  0  0  0  0
  144.8086  135.5923  153.4390 H   0  0  0  0  0  0  0  0  0  0  0  0
  146.2615  136.2555  150.7115 H   0  0  0  0  0  0  0  0  0  0  0  0
  144.5322  136.3667  151.0204 H   0  0  0  0  0  0  0  0  0  0  0  0
  145.1257  135.3645  149.7033 H   0  0  0  0  0  0  0  0  0  0  0  0
  147.2668  133.9216  150.5926 H   0  0  0  0  0  0  0  0  0  0  0  0
  146.9623  132.9591  152.0275 H   0  0  0  0  0  0  0  0  0  0  0  0
  145.4612  132.8350  149.4070 H   0  0  0  0  0  0  0  0  0  0  0  0
  146.1219  131.4872  150.3432 H   0  0  0  0  0  0  0  0  0  0  0  0
  143.5117  132.0718  150.6562 H   0  0  0  0  0  0  0  0  0  0  0  0
  144.4785  131.8390  152.1179 H   0  0  0  0  0  0  0  0  0  0  0  0
  1  2  1  0  0  0  0
  1 21  1  0  0  0  0
  1 22  1  0  0  0  0
  1 23  1  0  0  0  0
  2 20  1  0  0  0  0
  2  3  2  0  0  0  0
  3  4  1  0  0  0  0
  3 24  1  0  0  0  0
  4  5  2  0  0  0  0
  5  6  1  0  0  0  0
  5 20  1  0  0  0  0
  6  7  1  0  0  0  0
  6  8  1  0  0  0  0
  6 25  1  0  0  0  0
  7 26  1  0  0  0  0
  7 27  1  0  0  0  0
  7 28  1  0  0  0  0
  8  9  1  0  0  0  0
  8 29  1  0  0  0  0
  8 30  1  0  0  0  0
  9 10  1  0  0  0  0
  9 31  1  0  0  0  0
 10 11  2  0  0  0  0
 10 12  1  0  0  0  0
 12 13  1  0  0  0  0
 12 32  1  0  0  0  0
 13 14  1  0  0  0  0
 13 33  1  0  0  0  0
 13 34  1  0  0  0  0
 14 19  1  0  0  0  0
 14 15  1  0  0  0  0
 14 16  1  0  0  0  0
 15 35  1  0  0  0  0
 15 36  1  0  0  0  0
 15 37  1  0  0  0  0
 16 17  1  0  0  0  0
 16 38  1  0  0  0  0
 16 39  1  0  0  0  0
 17 18  1  0  0  0  0
 17 40  1  0  0  0  0
 17 41  1  0  0  0  0
 18 19  1  0  0  0  0
 18 42  1  0  0  0  0
 18 43  1  0  0  0  0
M  END
> <s_m_source_file>
AV-unprocessed.smi

> <i_m_source_file_index>
2414

> <i_lp_mmshare_version>
43012

> <i_f3d_flags>
0

> <s_epik_input>
W0NIM11jMVtjSF1uYyhzMSlbQ0BIXShbQ0gzXSlbQ0gyXVtOSF1DKD1PKVtOSF1bQ0gyXVtDQEBdMihbQ0gzXSlbQ0gyXVtDSDJdW0NIMl1PMg==

> <s_epik_cmdline>
J2VwaWtfcHl0aG9uJywgJy1waCcsICc3LjAnLCAnLXRuJywgJzgnLCAnLW1hJywgJzIwMCcsICctbWV0YWxfYmluZGluZycsICctaW1hZScsICc8aW5maWxlLm1hZT4nLCAnLW9tYWUnLCAnPG91dGZpbGUubWFlPic=

> <r_epik_Ionization_Penalty>
0.000646956

> <r_epik_Ionization_Penalty_Charging>
0

> <r_epik_Ionization_Penalty_Neutral>
0.000646956

> <r_epik_State_Penalty>
0.000375727

> <r_epik_Charging_Adjusted_Penalty>
0.000375727

> <i_epik_Tot_Q>
0

> <i_epik_Tot_abs_Q>
0

> <r_epik_Metal_State_Penalty>
-0

> <b_epik_Metal_Only>
0

> <s_lp_Force_Field>
OPLS_2005

> <r_lp_Energy>
8.28222

> <b_lp_Chiralities_Consistent>
1

> <s_lp_Variant>
AV-unprocessed.smi:2414-2

> <Gold.Version>
5.8.1

> <Gold.Id.Protein>
6NUR|6NUR_protein|mol2

> <Gold.PLP.Fitness>
42.6648

> <Gold.PLP.PLP>
-32.1668

> <Gold.PLP.part.hbond>
-3.0000

> <Gold.PLP.part.metal>
0.0000

> <Gold.PLP.part.buried>
-3.4743

> <Gold.PLP.part.nonpolar>
-26.1263

> <Gold.PLP.part.repulsive>
0.2375

> <Gold.PLP.ligand.clash>
0.0000

> <Gold.PLP.ligand.torsion>
0.4782

> <Gold.PLP.Chemscore.Hbond>
2.7760

> <Gold.PLP.Chemscore.CHOScore>
1.0000

> <Gold.PLP.Chemscore.Metal>
0.0000

> <Gold.Chemscore.Hbonds>
donor molecule, donor type, donor heavy atom, donor atom, acceptor molecule, acceptor atom, score
      L1  H     9    31       P1  7948  0.99
      L1  H    12    32       P1  7948  0.94
      P1  H  7989  7998       L1     4  0.52
      L1  C     3    24       P1  8028  0.86

> <Gold.PLP.Chemscore.Internal.Correction>
0.1263

> <Gold.Rescore>
     Score         DG    S(hbond)    S(metal)    S(lipo)     H(rot)  DE(clash)    DE(int)     intcor
     18.66     -19.49       2.62        0.00      81.11       1.65       0.09       0.73       ----

> <Gold.Chemscore.Fitness>
18.6644

> <Gold.Chemscore.DG>
-19.4895

> <Gold.Chemscore.ZeroCoef>
-5.4800

> <Gold.Chemscore.Hbond>
2.6197

> <Gold.Chemscore.Metal>
0.0000

> <Gold.Chemscore.Lipo>
81.1051

> <Gold.Chemscore.Internal_Hbond>
0.0000

> <Gold.Chemscore.DEClash>
0.0914

> <Gold.Chemscore.DEInternal>
0.7338

> <Gold.Chemscore.Rot>
1.6522

> <Gold.Chemscore.Internal.Correction>
   9.000000E+99

> <Gold.Chemscore.Hbonds>
donor molecule, donor type, donor heavy atom, donor atom, acceptor molecule, acceptor atom, score
      L1  H     9    31       P1  7948  0.91
      L1  H    12    32       P1  7948  0.90
      P1  H  7989  7998       L1     4  0.09

> <Gold.Chemscore.Hbond.Weighted>
-8.7498

> <Gold.Chemscore.Metal.Weighted>
-0.0000

> <Gold.Chemscore.Lipo.Weighted>
-9.4893

> <Gold.Chemscore.Internal_Hbond.Weighted>
0.0000

> <Gold.Chemscore.DEClash.Weighted>
0.0914

> <Gold.Chemscore.DEInternal.Weighted>
0.7338

> <Gold.Chemscore.Rot.Weighted>
4.2295

> <Gold.Chemscore.Internal.Correction.Weighted>
   9.000000E+99

> <Gold.Protein.RotatedTorsions>
[ 6907 6896 6895 6894 ] final   28.91 input  -60.11 | X-H torsion
[ 7974 7965 7964 7962 ] final  145.21 input  175.53 | X-H torsion
[ 8008 7997 7996 7995 ] final  -12.33 input   59.86 | X-H torsion
[ 10167 10162 10161 10158 ] final    7.29 input  -65.29 | X-H torsion
[ 10718 10713 10712 10709 ] final   22.49 input   66.30 | X-H torsion
[ 10763 10752 10751 10750 ] final  165.20 input  -60.55 | X-H torsion
[ 11005 11000 10999 10996 ] final  159.20 input  -57.11 | X-H torsion

> <Gold.Protein.ActiveResidues>
 VAL166  LYS551  ARG553  GLY616  TRP617  ASP618  TYR619  PRO620  LYS621  CYS622 
 ASP623  PHE694  ASN695  SER759  ASP760  ASP761  ALA762  ILE779  LEU786  VAL792 
 PHE793  MET794  SER795  GLU796  ALA797  LYS798  CYS799  TRP800  GLU811  SER814 

> <Gold.Protein.RotatedAtoms>
  152.0238  134.9807  160.0570 H   0  0  0  0  0  0  0  0  0  0  0  0  # atno 6907 bound_to 6896
  152.1311  133.4403  159.4729 H   0  0  0  0  0  0  0  0  0  0  0  0  # atno 6908 bound_to 6896
  150.6856  134.2338  159.4488 H   0  0  0  0  0  0  0  0  0  0  0  0  # atno 6909 bound_to 6896
  144.8772  139.5755  143.5860 H   0  0  0  0  0  0  0  0  0  0  0  0  # atno 7974 bound_to 7965
  154.5386  140.2279  155.8679 H   0  0  0  0  0  0  0  0  0  0  0  0  # atno 8008 bound_to 7997
  156.1836  140.3094  155.9159 H   0  0  0  0  0  0  0  0  0  0  0  0  # atno 8009 bound_to 7997
  155.3303  140.0445  157.3033 H   0  0  0  0  0  0  0  0  0  0  0  0  # atno 8010 bound_to 7997
  140.6380  143.7841  150.7387 H   0  0  0  0  0  0  0  0  0  0  0  0  # atno 10167 bound_to 10162
  157.1531  130.6683  149.6018 H   0  0  0  0  0  0  0  0  0  0  0  0  # atno 10718 bound_to 10713
  154.3204  135.2756  155.2522 H   0  0  0  0  0  0  0  0  0  0  0  0  # atno 10763 bound_to 10752
  154.4878  135.5841  153.6440 H   0  0  0  0  0  0  0  0  0  0  0  0  # atno 10764 bound_to 10752
  152.9877  135.6127  154.3389 H   0  0  0  0  0  0  0  0  0  0  0  0  # atno 10765 bound_to 10752
  140.1939  134.8387  157.2943 H   0  0  0  0  0  0  0  0  0  0  0  0  # atno 11005 bound_to 11000
  146.2970  139.7309  142.9119 LP  0  0  0  0  0  0  0  0  0  0  0  0  # atno 17320 bound_to 7965
  145.4021  141.0386  143.3064 LP  0  0  0  0  0  0  0  0  0  0  0  0  # atno 17321 bound_to 7965
  140.1466  143.4394  152.2159 LP  0  0  0  0  0  0  0  0  0  0  0  0  # atno 17342 bound_to 10162
  139.5590  144.7392  151.4211 LP  0  0  0  0  0  0  0  0  0  0  0  0  # atno 17343 bound_to 10162
  155.9767  130.4738  150.6545 LP  0  0  0  0  0  0  0  0  0  0  0  0  # atno 17370 bound_to 10713
  157.4202  131.0835  151.1138 LP  0  0  0  0  0  0  0  0  0  0  0  0  # atno 17371 bound_to 10713
  140.2129  134.4117  155.7604 LP  0  0  0  0  0  0  0  0  0  0  0  0  # atno 17394 bound_to 11000
  141.2227  133.7127  156.8367 LP  0  0  0  0  0  0  0  0  0  0  0  0  # atno 17395 bound_to 11000

$$$$
