AV-unprocessed.smi:1498|AV-procd|sdf|6059|dock7
  -GOLD-   22720 6173D 1   1.00000     0.00000
 Structure written by MMmdl.
 38 39  0  0  0  0  0  0  0  0  2 V2000
  147.5239  130.0643  153.2219 C   0  0  0  0  0  0  0  0  0  0  0  0
  147.0097  131.0448  152.2421 N   0  3  0  0  0  0  0  0  0  0  0  0
  147.0805  132.4419  152.7447 C   0  0  0  0  0  0  0  0  0  0  0  0
  146.5340  133.4408  151.7067 C   0  0  0  0  0  0  0  0  0  0  0  0
  145.1666  133.0450  151.3344 N   0  0  0  0  0  0  0  0  0  0  0  0
  144.0221  133.6550  151.7344 C   0  0  0  0  0  0  0  0  0  0  0  0
  142.9081  133.1705  151.5335 O   0  0  0  0  0  0  0  0  0  0  0  0
  144.2097  134.8614  152.3031 N   0  0  0  0  0  0  0  0  0  0  0  0
  143.2254  135.7392  152.8243 C   0  0  0  0  0  0  0  0  0  0  0  0
  142.3995  135.4533  153.9422 C   0  0  0  0  0  0  0  0  0  0  0  0
  141.5775  136.4586  154.2010 N   0  0  0  0  0  0  0  0  0  0  0  0
  141.8612  137.3960  153.2622 N   0  0  0  0  0  0  0  0  0  0  0  0
  141.1328  138.6526  153.2567 C   0  0  0  0  0  0  0  0  0  0  0  0
  139.6237  138.4194  153.1650 C   0  0  0  0  0  0  0  0  0  0  0  0
  138.9646  139.0609  152.1963 N   0  0  0  0  0  0  0  0  0  0  0  0
  139.0593  137.6723  153.9609 O   0  0  0  0  0  0  0  0  0  0  0  0
  142.8624  136.9871  152.4026 C   0  0  0  0  0  0  0  0  0  0  0  0
  145.1604  131.7192  150.7073 C   0  0  0  0  0  0  0  0  0  0  0  0
  145.6671  130.6777  151.7215 C   0  0  0  0  0  0  0  0  0  0  0  0
  146.9047  130.0464  154.1197 H   0  0  0  0  0  0  0  0  0  0  0  0
  148.5446  130.3123  153.5146 H   0  0  0  0  0  0  0  0  0  0  0  0
  147.5348  129.0617  152.7934 H   0  0  0  0  0  0  0  0  0  0  0  0
  146.5085  132.5228  153.6706 H   0  0  0  0  0  0  0  0  0  0  0  0
  148.1146  132.6892  152.9872 H   0  0  0  0  0  0  0  0  0  0  0  0
  146.6117  134.4535  152.1018 H   0  0  0  0  0  0  0  0  0  0  0  0
  147.1611  133.4298  150.8139 H   0  0  0  0  0  0  0  0  0  0  0  0
  145.1645  135.1799  152.3809 H   0  0  0  0  0  0  0  0  0  0  0  0
  142.3696  134.5693  154.5621 H   0  0  0  0  0  0  0  0  0  0  0  0
  141.3705  139.1969  154.1716 H   0  0  0  0  0  0  0  0  0  0  0  0
  141.4671  139.2694  152.4207 H   0  0  0  0  0  0  0  0  0  0  0  0
  137.9660  138.9430  152.1036 H   0  0  0  0  0  0  0  0  0  0  0  0
  139.4672  139.6682  151.5653 H   0  0  0  0  0  0  0  0  0  0  0  0
  143.2124  137.6128  151.5950 H   0  0  0  0  0  0  0  0  0  0  0  0
  144.1754  131.4324  150.3357 H   0  0  0  0  0  0  0  0  0  0  0  0
  145.8102  131.7349  149.8310 H   0  0  0  0  0  0  0  0  0  0  0  0
  145.7149  129.6951  151.2506 H   0  0  0  0  0  0  0  0  0  0  0  0
  144.9643  130.5990  152.5527 H   0  0  0  0  0  0  0  0  0  0  0  0
  147.6328  131.0051  151.4480 H   0  0  0  0  0  0  0  0  0  0  0  0
  1  2  1  0  0  0  0
  1 20  1  0  0  0  0
  1 21  1  0  0  0  0
  1 22  1  0  0  0  0
  2 19  1  0  0  0  0
  2  3  1  0  0  0  0
  2 38  1  0  0  0  0
  3  4  1  0  0  0  0
  3 23  1  0  0  0  0
  3 24  1  0  0  0  0
  4  5  1  0  0  0  0
  4 25  1  0  0  0  0
  4 26  1  0  0  0  0
  5  6  1  0  0  0  0
  5 18  1  0  0  0  0
  6  7  2  0  0  0  0
  6  8  1  0  0  0  0
  8  9  1  0  0  0  0
  8 27  1  0  0  0  0
  9 17  2  0  0  0  0
  9 10  1  0  0  0  0
 10 11  2  0  0  0  0
 10 28  1  0  0  0  0
 11 12  1  0  0  0  0
 12 13  1  0  0  0  0
 12 17  1  0  0  0  0
 13 14  1  0  0  0  0
 13 29  1  0  0  0  0
 13 30  1  0  0  0  0
 14 15  1  0  0  0  0
 14 16  2  0  0  0  0
 15 31  1  0  0  0  0
 15 32  1  0  0  0  0
 17 33  1  0  0  0  0
 18 19  1  0  0  0  0
 18 34  1  0  0  0  0
 18 35  1  0  0  0  0
 19 36  1  0  0  0  0
 19 37  1  0  0  0  0
M  CHG  1   2   1
M  END
> <s_m_source_file>
AV-unprocessed.smi

> <i_m_source_file_index>
1498

> <i_lp_mmshare_version>
43012

> <i_f3d_flags>
0

> <s_epik_input>
W0NIM11OMVtDSDJdW0NIMl1OKFtDSDJdW0NIMl0xKUMoPU8pW05IXWMyW2NIXW5uKFtjSF0yKVtDSDJdQyg9TylbTkgyXQ==

> <s_epik_cmdline>
J2VwaWtfcHl0aG9uJywgJy1waCcsICc3LjAnLCAnLXRuJywgJzgnLCAnLW1hJywgJzIwMCcsICctbWV0YWxfYmluZGluZycsICctaW1hZScsICc8aW5maWxlLm1hZT4nLCAnLW9tYWUnLCAnPG91dGZpbGUubWFlPic=

> <r_lp_tautomer_probability>
1

> <r_epik_Ionization_Penalty>
0.25453

> <r_epik_Ionization_Penalty_Charging>
0.254506

> <r_epik_Ionization_Penalty_Neutral>
2.46477e-05

> <r_epik_State_Penalty>
0.245983

> <r_epik_Charging_Adjusted_Penalty>
0.500488

> <i_epik_Tot_Q>
1

> <i_epik_Tot_abs_Q>
1

> <r_epik_Metal_State_Penalty>
0.245984

> <b_epik_Metal_Only>
0

> <s_lp_Force_Field>
OPLS_2005

> <r_lp_Energy>
51.0402

> <b_lp_Chiralities_Consistent>
1

> <s_lp_Variant>
AV-unprocessed.smi:1498-1

> <Gold.Version>
5.8.1

> <Gold.Id.Protein>
6NUR|6NUR_protein|mol2

> <Gold.PLP.Fitness>
43.8853

> <Gold.PLP.PLP>
-31.8027

> <Gold.PLP.part.hbond>
-2.1236

> <Gold.PLP.part.metal>
0.0000

> <Gold.PLP.part.buried>
-8.8671

> <Gold.PLP.part.nonpolar>
-23.4796

> <Gold.PLP.part.repulsive>
2.0723

> <Gold.PLP.ligand.clash>
0.0000

> <Gold.PLP.ligand.torsion>
0.7077

> <Gold.PLP.Chemscore.Hbond>
2.0000

> <Gold.PLP.Chemscore.CHOScore>
2.4824

> <Gold.PLP.Chemscore.Metal>
0.0000

> <Gold.Chemscore.Hbonds>
donor molecule, donor type, donor heavy atom, donor atom, acceptor molecule, acceptor atom, score
      L1  H     2    38       P1 10747  1.00
      L1  H    15    32       P1 10160  0.83
      L1  C    10    28       P1 10957  0.28
      L1  C    17    33       P1 10171  1.00

> <Gold.PLP.Chemscore.Internal.Correction>
0.0509

> <Gold.Rescore>
     Score         DG    S(hbond)    S(metal)    S(lipo)     H(rot)  DE(clash)    DE(int)     intcor
     12.53     -14.84       2.00        0.00      56.86       1.55       0.31       1.99       ----

> <Gold.Chemscore.Fitness>
12.5343

> <Gold.Chemscore.DG>
-14.8423

> <Gold.Chemscore.ZeroCoef>
-5.4800

> <Gold.Chemscore.Hbond>
1.9990

> <Gold.Chemscore.Metal>
0.0000

> <Gold.Chemscore.Lipo>
56.8559

> <Gold.Chemscore.Internal_Hbond>
0.0000

> <Gold.Chemscore.DEClash>
0.3145

> <Gold.Chemscore.DEInternal>
1.9935

> <Gold.Chemscore.Rot>
1.5494

> <Gold.Chemscore.Internal.Correction>
   9.000000E+99

> <Gold.Chemscore.Hbonds>
donor molecule, donor type, donor heavy atom, donor atom, acceptor molecule, acceptor atom, score
      L1  H     2    38       P1 10747  1.00
      L1  H    15    32       P1 10160  0.82

> <Gold.Chemscore.Hbond.Weighted>
-6.6767

> <Gold.Chemscore.Metal.Weighted>
-0.0000

> <Gold.Chemscore.Lipo.Weighted>
-6.6521

> <Gold.Chemscore.Internal_Hbond.Weighted>
0.0000

> <Gold.Chemscore.DEClash.Weighted>
0.3145

> <Gold.Chemscore.DEInternal.Weighted>
1.9935

> <Gold.Chemscore.Rot.Weighted>
3.9665

> <Gold.Chemscore.Internal.Correction.Weighted>
   9.000000E+99

> <Gold.Protein.RotatedTorsions>
[ 6907 6896 6895 6894 ] final -137.97 input  -60.11 | X-H torsion
[ 7974 7965 7964 7962 ] final   -7.36 input  175.53 | X-H torsion
[ 8008 7997 7996 7995 ] final   17.88 input   59.86 | X-H torsion
[ 10167 10162 10161 10158 ] final    9.91 input  -65.29 | X-H torsion
[ 10718 10713 10712 10709 ] final  -50.39 input   66.30 | X-H torsion
[ 10763 10752 10751 10750 ] final  -33.67 input  -60.55 | X-H torsion
[ 11005 11000 10999 10996 ] final  118.64 input  -57.11 | X-H torsion

> <Gold.Protein.ActiveResidues>
 VAL166  LYS551  ARG553  GLY616  TRP617  ASP618  TYR619  PRO620  LYS621  CYS622 
 ASP623  PHE694  ASN695  SER759  ASP760  ASP761  ALA762  ILE779  LEU786  VAL792 
 PHE793  MET794  SER795  GLU796  ALA797  LYS798  CYS799  TRP800  GLU811  SER814 

> <Gold.Protein.RotatedAtoms>
  151.0291  133.5806  159.2662 H   0  0  0  0  0  0  0  0  0  0  0  0  # atno 6907 bound_to 6896
  151.2895  135.0737  159.9208 H   0  0  0  0  0  0  0  0  0  0  0  0  # atno 6908 bound_to 6896
  152.5340  133.9992  159.7941 H   0  0  0  0  0  0  0  0  0  0  0  0  # atno 6909 bound_to 6896
  146.2309  140.2307  142.8340 H   0  0  0  0  0  0  0  0  0  0  0  0  # atno 7974 bound_to 7965
  154.8978  140.2996  155.5334 H   0  0  0  0  0  0  0  0  0  0  0  0  # atno 8008 bound_to 7997
  156.3019  140.2412  156.3937 H   0  0  0  0  0  0  0  0  0  0  0  0  # atno 8009 bound_to 7997
  154.8552  140.0407  157.1618 H   0  0  0  0  0  0  0  0  0  0  0  0  # atno 8010 bound_to 7997
  140.6227  143.8170  150.7194 H   0  0  0  0  0  0  0  0  0  0  0  0  # atno 10167 bound_to 10162
  156.1805  130.4150  149.9513 H   0  0  0  0  0  0  0  0  0  0  0  0  # atno 10718 bound_to 10713
  153.8341  135.6863  153.4811 H   0  0  0  0  0  0  0  0  0  0  0  0  # atno 10763 bound_to 10752
  153.1493  135.4624  154.9611 H   0  0  0  0  0  0  0  0  0  0  0  0  # atno 10764 bound_to 10752
  154.7874  135.3289  154.7801 H   0  0  0  0  0  0  0  0  0  0  0  0  # atno 10765 bound_to 10752
  139.9117  134.9622  156.7534 H   0  0  0  0  0  0  0  0  0  0  0  0  # atno 11005 bound_to 11000
  144.9560  140.8227  143.5543 LP  0  0  0  0  0  0  0  0  0  0  0  0  # atno 17320 bound_to 7965
  145.2273  139.2131  143.5061 LP  0  0  0  0  0  0  0  0  0  0  0  0  # atno 17321 bound_to 7965
  140.1764  143.4152  152.1965 LP  0  0  0  0  0  0  0  0  0  0  0  0  # atno 17342 bound_to 10162
  139.5452  144.7292  151.4605 LP  0  0  0  0  0  0  0  0  0  0  0  0  # atno 17343 bound_to 10162
  156.7285  130.9034  151.3624 LP  0  0  0  0  0  0  0  0  0  0  0  0  # atno 17370 bound_to 10713
  157.6865  130.9191  150.0400 LP  0  0  0  0  0  0  0  0  0  0  0  0  # atno 17371 bound_to 10713
  140.6755  133.9521  155.7880 LP  0  0  0  0  0  0  0  0  0  0  0  0  # atno 17394 bound_to 11000
  141.0547  134.0433  157.3737 LP  0  0  0  0  0  0  0  0  0  0  0  0  # atno 17395 bound_to 11000

$$$$
