AV-unprocessed.smi:2937|AV-procd|sdf|11259|dock4
  -GOLD-   2272016153D 1   1.00000     0.00000
 Structure written by MMmdl.
 33 34  0  0  0  0  0  0  0  0  1 V2000
  150.7029  134.8441  155.8767 C   0  0  0  0  0  0  0  0  0  0  0  0
  150.5201  135.8961  156.8175 O   0  0  0  0  0  0  0  0  0  0  0  0
  151.2159  137.0739  156.6281 C   0  0  0  0  0  0  0  0  0  0  0  0
  152.0534  137.1751  155.5664 N   0  0  0  0  0  0  0  0  0  0  0  0
  152.7095  138.3246  155.4218 C   0  0  0  0  0  0  0  0  0  0  0  0
  153.5592  138.4169  154.3469 N   0  0  0  0  0  0  0  0  0  0  0  0
  152.6274  139.3948  156.2105 N   0  0  0  0  0  0  0  0  0  0  0  0
  151.7938  139.3242  157.2771 C   0  0  0  0  0  0  0  0  0  0  0  0
  151.6789  140.4620  158.0977 N   0  0  0  0  0  0  0  0  0  0  0  0
  151.0887  141.6073  157.4158 C   0  0  0  0  0  0  0  0  0  0  0  0
  150.7753  142.7194  158.4316 C   0  0  0  0  0  0  0  0  0  0  0  0
  151.9570  143.0606  159.1516 O   0  0  0  0  0  0  0  0  0  0  0  0
  152.4834  141.9514  159.8746 C   0  0  0  0  0  0  0  0  0  0  0  0
  152.8476  140.8242  158.8936 C   0  0  0  0  0  0  0  0  0  0  0  0
  151.0464  138.1438  157.5389 C   0  0  0  0  0  0  0  0  0  0  0  0
  150.1210  137.9933  158.7397 C   0  0  0  0  0  0  0  0  0  0  0  0
  150.5780  137.0252  159.6597 O   0  0  0  0  0  0  0  0  0  0  0  0
  150.0871  133.9922  156.1647 H   0  0  0  0  0  0  0  0  0  0  0  0
  151.7403  134.5081  155.8487 H   0  0  0  0  0  0  0  0  0  0  0  0
  150.3978  135.1489  154.8746 H   0  0  0  0  0  0  0  0  0  0  0  0
  153.6652  137.6396  153.7114 H   0  0  0  0  0  0  0  0  0  0  0  0
  154.0951  139.2580  154.1899 H   0  0  0  0  0  0  0  0  0  0  0  0
  151.7881  141.9743  156.6633 H   0  0  0  0  0  0  0  0  0  0  0  0
  150.1792  141.3197  156.8893 H   0  0  0  0  0  0  0  0  0  0  0  0
  150.4046  143.6055  157.9164 H   0  0  0  0  0  0  0  0  0  0  0  0
  149.9939  142.4026  159.1243 H   0  0  0  0  0  0  0  0  0  0  0  0
  153.3685  142.2728  160.4237 H   0  0  0  0  0  0  0  0  0  0  0  0
  151.7573  141.6066  160.6125 H   0  0  0  0  0  0  0  0  0  0  0  0
  153.2097  139.9527  159.4407 H   0  0  0  0  0  0  0  0  0  0  0  0
  153.6538  141.1560  158.2376 H   0  0  0  0  0  0  0  0  0  0  0  0
  150.0433  138.9516  159.2544 H   0  0  0  0  0  0  0  0  0  0  0  0
  149.1084  137.7373  158.4292 H   0  0  0  0  0  0  0  0  0  0  0  0
  150.4448  137.3561  160.5350 H   0  0  0  0  0  0  0  0  0  0  0  0
  1  2  1  0  0  0  0
  1 18  1  0  0  0  0
  1 19  1  0  0  0  0
  1 20  1  0  0  0  0
  2  3  1  0  0  0  0
  3 15  1  0  0  0  0
  3  4  2  0  0  0  0
  4  5  1  0  0  0  0
  5  6  1  0  0  0  0
  5  7  2  0  0  0  0
  6 21  1  0  0  0  0
  6 22  1  0  0  0  0
  7  8  1  0  0  0  0
  8  9  1  0  0  0  0
  8 15  2  0  0  0  0
  9 14  1  0  0  0  0
  9 10  1  0  0  0  0
 10 11  1  0  0  0  0
 10 23  1  0  0  0  0
 10 24  1  0  0  0  0
 11 12  1  0  0  0  0
 11 25  1  0  0  0  0
 11 26  1  0  0  0  0
 12 13  1  0  0  0  0
 13 14  1  0  0  0  0
 13 27  1  0  0  0  0
 13 28  1  0  0  0  0
 14 29  1  0  0  0  0
 14 30  1  0  0  0  0
 15 16  1  0  0  0  0
 16 17  1  0  0  0  0
 16 31  1  0  0  0  0
 16 32  1  0  0  0  0
 17 33  1  0  0  0  0
M  END
> <s_m_source_file>
AV-unprocessed.smi

> <i_m_source_file_index>
2937

> <i_lp_mmshare_version>
43012

> <i_f3d_flags>
0

> <s_epik_input>
W0NIM11PYzFuYyhbTkgyXSluYyhjMVtDSDJdW09IXSlOMltDSDJdW0NIMl1PW0NIMl1bQ0gyXTI=

> <s_epik_cmdline>
J2VwaWtfcHl0aG9uJywgJy1waCcsICc3LjAnLCAnLXRuJywgJzgnLCAnLW1hJywgJzIwMCcsICctbWV0YWxfYmluZGluZycsICctaW1hZScsICc8aW5maWxlLm1hZT4nLCAnLW9tYWUnLCAnPG91dGZpbGUubWFlPic=

> <r_lp_tautomer_probability>
1

> <r_epik_Ionization_Penalty>
0.000679252

> <r_epik_Ionization_Penalty_Charging>
0

> <r_epik_Ionization_Penalty_Neutral>
0.000679252

> <r_epik_State_Penalty>
0.00040271

> <r_epik_Charging_Adjusted_Penalty>
0.00040271

> <i_epik_Tot_Q>
0

> <i_epik_Tot_abs_Q>
0

> <r_epik_Metal_State_Penalty>
-0

> <b_epik_Metal_Only>
0

> <s_lp_Force_Field>
OPLS_2005

> <r_lp_Energy>
14.7013

> <b_lp_Chiralities_Consistent>
1

> <s_lp_Variant>
AV-unprocessed.smi:2937-1

> <Gold.Version>
5.8.1

> <Gold.Id.Protein>
6NUR|6NUR_protein|mol2

> <Gold.PLP.Fitness>
30.8915

> <Gold.PLP.PLP>
-22.2298

> <Gold.PLP.part.hbond>
-3.1841

> <Gold.PLP.part.metal>
0.0000

> <Gold.PLP.part.buried>
-5.3782

> <Gold.PLP.part.nonpolar>
-14.7271

> <Gold.PLP.part.repulsive>
0.2791

> <Gold.PLP.ligand.clash>
0.0000

> <Gold.PLP.ligand.torsion>
0.1276

> <Gold.PLP.Chemscore.Hbond>
2.9120

> <Gold.PLP.Chemscore.CHOScore>
0.0000

> <Gold.PLP.Chemscore.Metal>
0.0000

> <Gold.Chemscore.Hbonds>
donor molecule, donor type, donor heavy atom, donor atom, acceptor molecule, acceptor atom, score
      P1  H  6896  6908       L1    17  1.00
      P1  H  7997  8009       L1     7  1.00
      P1  H 10752 10763       L1     4  0.93

> <Gold.PLP.Chemscore.Internal.Correction>
0.1809

> <Gold.Rescore>
     Score         DG    S(hbond)    S(metal)    S(lipo)     H(rot)  DE(clash)    DE(int)     intcor
     12.90     -13.08       2.48        0.00      44.61       2.31       0.03       0.15       ----

> <Gold.Chemscore.Fitness>
12.8968

> <Gold.Chemscore.DG>
-13.0788

> <Gold.Chemscore.ZeroCoef>
-5.4800

> <Gold.Chemscore.Hbond>
2.4843

> <Gold.Chemscore.Metal>
0.0000

> <Gold.Chemscore.Lipo>
44.6090

> <Gold.Chemscore.Internal_Hbond>
0.0000

> <Gold.Chemscore.DEClash>
0.0297

> <Gold.Chemscore.DEInternal>
0.1523

> <Gold.Chemscore.Rot>
2.3118

> <Gold.Chemscore.Internal.Correction>
   9.000000E+99

> <Gold.Chemscore.Hbonds>
donor molecule, donor type, donor heavy atom, donor atom, acceptor molecule, acceptor atom, score
      P1  H  6896  6908       L1    17  0.52
      P1  H  7997  8009       L1     7  0.60
      P1  H 10752 10763       L1     4  0.73

> <Gold.Chemscore.Hbond.Weighted>
-8.2977

> <Gold.Chemscore.Metal.Weighted>
-0.0000

> <Gold.Chemscore.Lipo.Weighted>
-5.2193

> <Gold.Chemscore.Internal_Hbond.Weighted>
0.0000

> <Gold.Chemscore.DEClash.Weighted>
0.0297

> <Gold.Chemscore.DEInternal.Weighted>
0.1523

> <Gold.Chemscore.Rot.Weighted>
5.9181

> <Gold.Chemscore.Internal.Correction.Weighted>
   9.000000E+99

> <Gold.Protein.RotatedTorsions>
[ 6907 6896 6895 6894 ] final -146.36 input  -60.11 | X-H torsion
[ 7974 7965 7964 7962 ] final   87.25 input  175.53 | X-H torsion
[ 8008 7997 7996 7995 ] final -161.60 input   59.86 | X-H torsion
[ 10167 10162 10161 10158 ] final   70.08 input  -65.29 | X-H torsion
[ 10718 10713 10712 10709 ] final  -74.06 input   66.30 | X-H torsion
[ 10763 10752 10751 10750 ] final   72.53 input  -60.55 | X-H torsion
[ 11005 11000 10999 10996 ] final  133.66 input  -57.11 | X-H torsion

> <Gold.Protein.ActiveResidues>
 VAL166  LYS551  ARG553  GLY616  TRP617  ASP618  TYR619  PRO620  LYS621  CYS622 
 ASP623  PHE694  ASN695  SER759  ASP760  ASP761  ALA762  ILE779  LEU786  VAL792 
 PHE793  MET794  SER795  GLU796  ALA797  LYS798  CYS799  TRP800  GLU811  SER814 

> <Gold.Protein.RotatedAtoms>
  151.1406  133.4974  159.2596 H   0  0  0  0  0  0  0  0  0  0  0  0  # atno 6907 bound_to 6896
  151.1659  135.0295  159.8740 H   0  0  0  0  0  0  0  0  0  0  0  0  # atno 6908 bound_to 6896
  152.5462  134.1274  159.8478 H   0  0  0  0  0  0  0  0  0  0  0  0  # atno 6909 bound_to 6896
  145.5614  139.2304  143.2457 H   0  0  0  0  0  0  0  0  0  0  0  0  # atno 7974 bound_to 7965
  155.7946  140.0883  157.1990 H   0  0  0  0  0  0  0  0  0  0  0  0  # atno 8008 bound_to 7997
  154.3984  140.1483  156.3262 H   0  0  0  0  0  0  0  0  0  0  0  0  # atno 8009 bound_to 7997
  155.8524  140.3434  155.5704 H   0  0  0  0  0  0  0  0  0  0  0  0  # atno 8010 bound_to 7997
  140.0608  144.5234  150.7296 H   0  0  0  0  0  0  0  0  0  0  0  0  # atno 10167 bound_to 10162
  156.0257  130.4408  150.2835 H   0  0  0  0  0  0  0  0  0  0  0  0  # atno 10718 bound_to 10713
  153.0465  135.5096  154.7758 H   0  0  0  0  0  0  0  0  0  0  0  0  # atno 10763 bound_to 10752
  154.6654  135.2945  154.9814 H   0  0  0  0  0  0  0  0  0  0  0  0  # atno 10764 bound_to 10752
  154.0650  135.6685  153.4869 H   0  0  0  0  0  0  0  0  0  0  0  0  # atno 10765 bound_to 10752
  139.9865  134.9530  156.9756 H   0  0  0  0  0  0  0  0  0  0  0  0  # atno 11005 bound_to 11000
  146.1848  140.6439  142.9172 LP  0  0  0  0  0  0  0  0  0  0  0  0  # atno 17320 bound_to 7965
  144.7481  140.5120  143.6821 LP  0  0  0  0  0  0  0  0  0  0  0  0  # atno 17321 bound_to 7965
  140.7173  143.2556  151.4394 LP  0  0  0  0  0  0  0  0  0  0  0  0  # atno 17342 bound_to 10162
  139.5895  144.1530  152.2071 LP  0  0  0  0  0  0  0  0  0  0  0  0  # atno 17343 bound_to 10162
  157.0939  131.0177  151.3111 LP  0  0  0  0  0  0  0  0  0  0  0  0  # atno 17370 bound_to 10713
  157.4833  130.7778  149.7435 LP  0  0  0  0  0  0  0  0  0  0  0  0  # atno 17371 bound_to 10713
  140.4992  134.1115  155.7247 LP  0  0  0  0  0  0  0  0  0  0  0  0  # atno 17394 bound_to 11000
  141.1529  133.8935  157.2051 LP  0  0  0  0  0  0  0  0  0  0  0  0  # atno 17395 bound_to 11000

$$$$
