AV-unprocessed.smi:592|AV-procd|sdf|3012|dock1
  -GOLD-   2262023523D 1   1.00000     0.00000
 Structure written by MMmdl.
 27 28  0  0  0  0  0  0  0  0  1 V2000
  151.4095  140.3807  159.3110 O   0  0  0  0  0  0  0  0  0  0  0  0
  152.4923  140.2789  158.7280 C   0  0  0  0  0  0  0  0  0  0  0  0
  153.7243  140.9441  159.3534 C   0  0  0  0  0  0  0  0  0  0  0  0
  153.3539  141.8106  160.4835 N   0  0  0  0  0  0  0  0  0  0  0  0
  152.3910  142.8076  160.2285 C   0  0  0  0  0  0  0  0  0  0  0  0
  151.9836  143.6628  161.1795 C   0  0  0  0  0  0  0  0  0  0  0  0
  152.5599  143.5422  162.4974 C   0  0  0  0  0  0  0  0  0  0  0  0
  153.4809  142.5918  162.7531 C   0  0  0  0  0  0  0  0  0  0  0  0
  153.9282  141.6539  161.7166 C   0  0  0  0  0  0  0  0  0  0  0  0
  154.7688  140.7841  161.9454 O   0  0  0  0  0  0  0  0  0  0  0  0
  152.7921  139.6334  157.5332 N   0  0  0  0  0  0  0  0  0  0  0  0
  151.8985  139.4789  156.6035 C   0  0  0  0  0  0  0  0  0  0  0  0
  150.5676  139.8858  156.5966 N   0  0  0  0  0  0  0  0  0  0  0  0
  149.8834  139.9131  155.3170 C   0  0  0  0  0  0  0  0  0  0  0  0
  150.4908  138.8120  154.4524 C   0  0  0  0  0  0  0  0  0  0  0  0
  152.1959  138.6600  155.0139 S   0  0  0  0  0  0  0  0  0  0  0  0
  154.4093  140.1659  159.6940 H   0  0  0  0  0  0  0  0  0  0  0  0
  154.2812  141.4900  158.5891 H   0  0  0  0  0  0  0  0  0  0  0  0
  152.0148  142.8327  159.2159 H   0  0  0  0  0  0  0  0  0  0  0  0
  151.2467  144.4224  160.9635 H   0  0  0  0  0  0  0  0  0  0  0  0
  152.2525  144.2182  163.2818 H   0  0  0  0  0  0  0  0  0  0  0  0
  153.9024  142.5178  163.7448 H   0  0  0  0  0  0  0  0  0  0  0  0
  148.8098  139.7744  155.4458 H   0  0  0  0  0  0  0  0  0  0  0  0
  150.0415  140.8905  154.8597 H   0  0  0  0  0  0  0  0  0  0  0  0
  149.9842  137.8638  154.6337 H   0  0  0  0  0  0  0  0  0  0  0  0
  150.4324  139.0352  153.3870 H   0  0  0  0  0  0  0  0  0  0  0  0
  150.1356  140.3892  157.3585 H   0  0  0  0  0  0  0  0  0  0  0  0
  1  2  2  0  0  0  0
  2  3  1  0  0  0  0
  2 11  1  0  0  0  0
  3  4  1  0  0  0  0
  3 17  1  0  0  0  0
  3 18  1  0  0  0  0
  4  9  1  0  0  0  0
  4  5  1  0  0  0  0
  5  6  2  0  0  0  0
  5 19  1  0  0  0  0
  6  7  1  0  0  0  0
  6 20  1  0  0  0  0
  7  8  2  0  0  0  0
  7 21  1  0  0  0  0
  8  9  1  0  0  0  0
  8 22  1  0  0  0  0
  9 10  2  0  0  0  0
 11 12  2  0  0  0  0
 12 16  1  0  0  0  0
 12 13  1  0  0  0  0
 13 14  1  0  0  0  0
 13 27  1  0  0  0  0
 14 15  1  0  0  0  0
 14 23  1  0  0  0  0
 14 24  1  0  0  0  0
 15 16  1  0  0  0  0
 15 25  1  0  0  0  0
 15 26  1  0  0  0  0
M  END
> <s_m_source_file>
AV-unprocessed.smi

> <i_m_source_file_index>
592

> <i_lp_mmshare_version>
43012

> <i_f3d_flags>
0

> <s_epik_input>
UzFbQ0gyXVtDSDJdTj1DMVtOSF1DKD1PKVtDSDJdbjJbY0hdW2NIXVtjSF1bY0hdYzI9Tw==

> <s_epik_cmdline>
J2VwaWtfcHl0aG9uJywgJy1waCcsICc3LjAnLCAnLXRuJywgJzgnLCAnLW1hJywgJzIwMCcsICctbWV0YWxfYmluZGluZycsICctaW1hZScsICc8aW5maWxlLm1hZT4nLCAnLW9tYWUnLCAnPG91dGZpbGUubWFlPic=

> <r_lp_tautomer_probability>
1

> <r_epik_Ionization_Penalty>
2.71369

> <r_epik_Ionization_Penalty_Charging>
3.63323e-07

> <r_epik_Ionization_Penalty_Neutral>
2.71369

> <r_epik_State_Penalty>
1.599

> <r_epik_Charging_Adjusted_Penalty>
1.599

> <i_epik_Tot_Q>
0

> <i_epik_Tot_abs_Q>
0

> <r_epik_Metal_State_Penalty>
1.59596

> <b_epik_Metal_Only>
1

> <s_epik_Chemistry_Notes>
This compound has an imine and may undergo hydrolysis.

> <s_lp_Force_Field>
OPLS_2005

> <r_lp_Energy>
29.0057

> <b_lp_Chiralities_Consistent>
1

> <s_lp_Variant>
AV-unprocessed.smi:592-3

> <Gold.Version>
5.8.1

> <Gold.Id.Protein>
6NUR|6NUR_protein|mol2

> <Gold.PLP.Fitness>
42.5492

> <Gold.PLP.PLP>
-40.0751

> <Gold.PLP.part.hbond>
-1.2595

> <Gold.PLP.part.metal>
0.0000

> <Gold.PLP.part.buried>
-3.3988

> <Gold.PLP.part.nonpolar>
-34.5845

> <Gold.PLP.part.repulsive>
0.0688

> <Gold.PLP.ligand.clash>
0.0000

> <Gold.PLP.ligand.torsion>
0.2776

> <Gold.PLP.Chemscore.Hbond>
1.0000

> <Gold.PLP.Chemscore.CHOScore>
0.0000

> <Gold.PLP.Chemscore.Metal>
0.0000

> <Gold.Chemscore.Hbonds>
donor molecule, donor type, donor heavy atom, donor atom, acceptor molecule, acceptor atom, score
      P1  H  7997  8008       L1    11  1.00

> <Gold.PLP.Chemscore.Internal.Correction>
0.0293

> <Gold.Rescore>
     Score         DG    S(hbond)    S(metal)    S(lipo)     H(rot)  DE(clash)    DE(int)     intcor
     12.29     -13.90       0.74        0.00      79.86       1.33       0.05       1.56       ----

> <Gold.Chemscore.Fitness>
12.2904

> <Gold.Chemscore.DG>
-13.9020

> <Gold.Chemscore.ZeroCoef>
-5.4800

> <Gold.Chemscore.Hbond>
0.7441

> <Gold.Chemscore.Metal>
0.0000

> <Gold.Chemscore.Lipo>
79.8611

> <Gold.Chemscore.Internal_Hbond>
0.0000

> <Gold.Chemscore.DEClash>
0.0531

> <Gold.Chemscore.DEInternal>
1.5586

> <Gold.Chemscore.Rot>
1.3309

> <Gold.Chemscore.Internal.Correction>
   9.000000E+99

> <Gold.Chemscore.Hbonds>
donor molecule, donor type, donor heavy atom, donor atom, acceptor molecule, acceptor atom, score
      P1  H  7997  8008       L1    11  0.65

> <Gold.Chemscore.Hbond.Weighted>
-2.4853

> <Gold.Chemscore.Metal.Weighted>
-0.0000

> <Gold.Chemscore.Lipo.Weighted>
-9.3438

> <Gold.Chemscore.Internal_Hbond.Weighted>
0.0000

> <Gold.Chemscore.DEClash.Weighted>
0.0531

> <Gold.Chemscore.DEInternal.Weighted>
1.5586

> <Gold.Chemscore.Rot.Weighted>
3.4071

> <Gold.Chemscore.Internal.Correction.Weighted>
   9.000000E+99

> <Gold.Protein.RotatedTorsions>
[ 6907 6896 6895 6894 ] final   69.77 input  -60.11 | X-H torsion
[ 7974 7965 7964 7962 ] final  174.07 input  175.53 | X-H torsion
[ 8008 7997 7996 7995 ] final  -65.92 input   59.86 | X-H torsion
[ 10167 10162 10161 10158 ] final  -55.96 input  -65.29 | X-H torsion
[ 10718 10713 10712 10709 ] final  128.56 input   66.30 | X-H torsion
[ 10763 10752 10751 10750 ] final -104.65 input  -60.55 | X-H torsion
[ 11005 11000 10999 10996 ] final -128.78 input  -57.11 | X-H torsion

> <Gold.Protein.ActiveResidues>
 VAL166  LYS551  ARG553  GLY616  TRP617  ASP618  TYR619  PRO620  LYS621  CYS622 
 ASP623  PHE694  ASN695  SER759  ASP760  ASP761  ALA762  ILE779  LEU786  VAL792 
 PHE793  MET794  SER795  GLU796  ALA797  LYS798  CYS799  TRP800  GLU811  SER814 

> <Gold.Protein.RotatedAtoms>
  152.4707  134.4967  159.9711 H   0  0  0  0  0  0  0  0  0  0  0  0  # atno 6907 bound_to 6896
  151.4994  133.3501  159.2874 H   0  0  0  0  0  0  0  0  0  0  0  0  # atno 6908 bound_to 6896
  150.8715  134.8118  159.7220 H   0  0  0  0  0  0  0  0  0  0  0  0  # atno 6909 bound_to 6896
  144.7229  139.9742  143.6437 H   0  0  0  0  0  0  0  0  0  0  0  0  # atno 7974 bound_to 7965
  154.4702  140.0923  156.7124 H   0  0  0  0  0  0  0  0  0  0  0  0  # atno 8008 bound_to 7997
  155.4746  140.3465  155.4312 H   0  0  0  0  0  0  0  0  0  0  0  0  # atno 8009 bound_to 7997
  156.1025  140.1426  156.9436 H   0  0  0  0  0  0  0  0  0  0  0  0  # atno 8010 bound_to 7997
  140.6344  143.2475  151.5156 H   0  0  0  0  0  0  0  0  0  0  0  0  # atno 10167 bound_to 10162
  157.5233  131.1098  150.9120 H   0  0  0  0  0  0  0  0  0  0  0  0  # atno 10718 bound_to 10713
  154.7893  135.4778  154.0016 H   0  0  0  0  0  0  0  0  0  0  0  0  # atno 10763 bound_to 10752
  153.1606  135.6808  153.8754 H   0  0  0  0  0  0  0  0  0  0  0  0  # atno 10764 bound_to 10752
  153.8369  135.3184  155.3401 H   0  0  0  0  0  0  0  0  0  0  0  0  # atno 10765 bound_to 10752
  140.9487  134.1094  157.4082 H   0  0  0  0  0  0  0  0  0  0  0  0  # atno 11005 bound_to 11000
  146.0538  139.3537  143.0623 LP  0  0  0  0  0  0  0  0  0  0  0  0  # atno 17320 bound_to 7965
  145.8180  140.9693  143.0913 LP  0  0  0  0  0  0  0  0  0  0  0  0  # atno 17321 bound_to 7965
  139.5556  144.2285  152.1606 LP  0  0  0  0  0  0  0  0  0  0  0  0  # atno 17342 bound_to 10162
  140.1537  144.5090  150.6672 LP  0  0  0  0  0  0  0  0  0  0  0  0  # atno 17343 bound_to 10162
  156.9724  130.5496  149.5291 LP  0  0  0  0  0  0  0  0  0  0  0  0  # atno 17370 bound_to 10713
  156.0369  130.5456  150.8676 LP  0  0  0  0  0  0  0  0  0  0  0  0  # atno 17371 bound_to 10713
  139.8841  135.0059  156.6346 LP  0  0  0  0  0  0  0  0  0  0  0  0  # atno 17394 bound_to 11000
  140.7632  133.8800  155.8434 LP  0  0  0  0  0  0  0  0  0  0  0  0  # atno 17395 bound_to 11000

$$$$
