#       Name:                AV-unprocessed.smi:252
#       Creating user name   scv26
#       Creation time:       Thu Mar 26 21:06:28 2020


#       File generated by GOLD software.
#

@<TRIPOS>MOLECULE
AV-unprocessed.smi:252
    66    69     1
SMALL
NO_CHARGES


@<TRIPOS>ATOM
      1 ****        -4.8567   6.2392   0.9552 C.3            1 S1                 0.0000
      2 ****        -4.8471   5.2894  -0.2531 C.3            1 S1                 0.0000
      3 ****        -4.2151   3.9249   0.0413 C.2            1 S1                 0.0000
      4 ****        -3.6752   3.6954   1.1242 O.2            1 S1                 0.0000
      5 ****        -4.2916   3.0211  -0.9475 N.am           1 S1                 0.0000
      6 ****        -3.7704   1.6594  -0.8865 C.3            1 S1                 0.0000
      7 ****        -4.4692   0.7888  -1.9479 C.3            1 S1                 0.0000
      8 ****        -3.8676  -0.6254  -1.9704 C.3            1 S1                 0.0000
      9 ****        -2.3439  -0.5686  -2.1610 C.3            1 S1                 0.0000
     10 ****        -1.7342   0.2803  -1.1418 N.3            1 S1                 0.0000
     11 ****        -0.3877   0.2012  -1.1051 C.ar           1 S1                 0.0000
     12 ****         0.3492   0.6647  -2.1485 N.ar           1 S1                 0.0000
     13 ****         1.6830   0.5838  -2.1072 C.ar           1 S1                 0.0000
     14 ****         2.4605   0.0851  -1.1428 N.ar           1 S1                 0.0000
     15 ****         1.7185  -0.3834  -0.0980 C.ar           1 S1                 0.0000
     16 ****         0.2999  -0.3582   0.0025 C.ar           1 S1                 0.0000
     17 ****        -0.1053  -0.9078   1.2117 N.2            1 S1                 0.0000
     18 ****         1.0137  -1.2398   1.7958 C.2            1 S1                 0.0000
     19 ****         2.1568  -0.9760   1.0736 N.pl3          1 S1                 0.0000
     20 ****         3.5265  -1.2482   1.4821 C.3            1 S1                 0.0000
     21 ****         4.0809  -2.6148   0.9954 C.3            1 S1                 0.0000
     22 ****         4.0925  -2.6151  -0.4214 O.3            1 S1                 0.0000
     23 ****         3.2782  -3.8187   1.4783 C.3            1 S1                 0.0000
     24 ****         3.8856  -4.0816   2.8467 C.3            1 S1                 0.0000
     25 ****         5.2731  -3.8648   2.6399 O.3            1 S1                 0.0000
     26 ****         5.4774  -2.8972   1.6089 C.3            1 S1                 0.0000
     27 ****         6.5257  -3.4866   0.6497 C.3            1 S1                 0.0000
     28 ****        -2.2422   1.6486  -1.1003 C.3            1 S1                 0.0000
     29 ****        -5.3374   7.1832   0.6986 H              1 S1                 0.0000
     30 ****        -3.8441   6.4667   1.2909 H              1 S1                 0.0000
     31 ****        -5.4029   5.8091   1.7955 H              1 S1                 0.0000
     32 ****        -5.8701   5.1326  -0.5974 H              1 S1                 0.0000
     33 ****        -4.3057   5.7534  -1.0782 H              1 S1                 0.0000
     34 ****        -4.7513   3.2943  -1.8038 H              1 S1                 0.0000
     35 ****        -3.9919   1.2396   0.0970 H              1 S1                 0.0000
     36 ****        -5.5399   0.7341  -1.7480 H              1 S1                 0.0000
     37 ****        -4.3573   1.2432  -2.9335 H              1 S1                 0.0000
     38 ****        -4.0980  -1.1352  -1.0339 H              1 S1                 0.0000
     39 ****        -4.3229  -1.2155  -2.7661 H              1 S1                 0.0000
     40 ****        -1.9246  -1.5744  -2.1069 H              1 S1                 0.0000
     41 ****        -2.1086  -0.1758  -3.1514 H              1 S1                 0.0000
     42 ****         2.2024   0.9743  -2.9698 H              1 S1                 0.0000
     43 ****         1.0364  -1.6994   2.7735 H              1 S1                 0.0000
     44 ****         4.1571  -0.4379   1.1130 H              1 S1                 0.0000
     45 ****         3.5688  -1.1865   2.5702 H              1 S1                 0.0000
     46 ****         4.4631  -3.4322  -0.7178 H              1 S1                 0.0000
     47 ****         2.2001  -3.6687   1.5083 H              1 S1                 0.0000
     48 ****         3.4668  -4.6831   0.8393 H              1 S1                 0.0000
     49 ****         3.5092  -3.3727   3.5851 H              1 S1                 0.0000
     50 ****         3.6883  -5.0906   3.2089 H              1 S1                 0.0000
     51 ****         5.8877  -1.9916   2.0582 H              1 S1                 0.0000
     52 ****         6.7697  -2.7879  -0.1509 H              1 S1                 0.0000
     53 ****         6.1739  -4.4138   0.1961 H              1 S1                 0.0000
     54 ****         7.4518  -3.7097   1.1802 H              1 S1                 0.0000
     55 ****        -1.9922   2.1550  -2.0341 H              1 S1                 0.0000
     56 ****        -1.7464   2.1964  -0.2975 H              1 S1                 0.0000
     57 ****        -3.6444   4.4051   1.8279 LP             1 S1                 0.0000
     58 ****        -3.2676   2.7992   1.2997 LP             1 S1                 0.0000
     59 ****        -2.0460  -0.1184  -0.2793 LP             1 S1                 0.0000
     60 ****        -0.1046   1.0649  -2.9446 LP             1 S1                 0.0000
     61 ****         3.4594   0.0584  -1.1814 LP             1 S1                 0.0000
     62 ****        -1.0374  -1.0226   1.5551 LP             1 S1                 0.0000
     63 ****         4.6472  -1.8526  -0.7544 LP             1 S1                 0.0000
     64 ****         3.1585  -2.5235  -0.7664 LP             1 S1                 0.0000
     65 ****         5.7052  -4.7265   2.3736 LP             1 S1                 0.0000
     66 ****         5.6851  -3.5338   3.4889 LP             1 S1                 0.0000
@<TRIPOS>BOND
    1    1    2 1     
    2    1   29 1     
    3    1   30 1     
    4    1   31 1     
    5    2    3 1     
    6    2   32 1     
    7    2   33 1     
    8    3    4 2     
    9    3    5 am    
   10    5    6 1     
   11    5   34 1     
   12    6   28 1     
   13    6    7 1     
   14    6   35 1     
   15    7    8 1     
   16    7   36 1     
   17    7   37 1     
   18    8    9 1     
   19    8   38 1     
   20    8   39 1     
   21    9   10 1     
   22    9   40 1     
   23    9   41 1     
   24   10   11 1     
   25   10   28 1     
   26   11   16 ar    
   27   11   12 ar    
   28   12   13 ar    
   29   13   14 ar    
   30   13   42 1     
   31   14   15 ar    
   32   15   19 1     
   33   15   16 ar    
   34   16   17 1     
   35   17   18 2     
   36   18   19 1     
   37   18   43 1     
   38   19   20 1     
   39   20   21 1     
   40   20   44 1     
   41   20   45 1     
   42   21   26 1     
   43   21   22 1     
   44   21   23 1     
   45   22   46 1     
   46   23   24 1     
   47   23   47 1     
   48   23   48 1     
   49   24   25 1     
   50   24   49 1     
   51   24   50 1     
   52   25   26 1     
   53   26   27 1     
   54   26   51 1     
   55   27   52 1     
   56   27   53 1     
   57   27   54 1     
   58   28   55 1     
   59   28   56 1     
   60    4   57 1     
   61    4   58 1     
   62   10   59 1     
   63   12   60 1     
   64   14   61 1     
   65   17   62 1     
   66   22   63 1     
   67   22   64 1     
   68   25   65 1     
   69   25   66 1     
@<TRIPOS>SUBSTRUCTURE
      1 S1             1
@<TRIPOS>SET
LONE_PAIRS      STATIC     ATOMS    <user>   **** ""
10 57 58 59 60 61 62 63 64 65 66
DONOR_HYDROGENS      STATIC     ATOMS    <user>   **** ""
2 34 46
ATOM$BLUE        STATIC     ATOMS    COLORGROUP SYSTEM
10 57 58 59 60 61 62 63 64 65 66
ATOM$RED        STATIC     ATOMS    COLORGROUP SYSTEM
2 34 46
