AV-unprocessed.smi:189|AV-procd|sdf|1485|dock4
  -GOLD-   2262019303D 1   1.00000     0.00000
 Structure written by MMmdl.
 53 57  0  0  0  0  0  0  0  0  1 V2000
  152.2788  138.6480  159.4629 C   0  0  0  0  0  0  0  0  0  0  0  0
  153.1949  139.8851  159.3574 C   0  0  2  0  0  0  0  0  0  0  0  0
  153.2892  140.6177  160.7185 C   0  0  0  0  0  0  0  0  0  0  0  0
  153.1440  142.0899  160.3460 C   0  0  2  0  0  0  0  0  0  0  0  0
  152.6107  143.0683  161.3994 C   0  0  0  0  0  0  0  0  0  0  0  0
  152.4792  144.4683  160.7637 C   0  0  0  0  0  0  0  0  0  0  0  0
  151.6498  144.4476  159.4591 C   0  0  0  0  0  0  0  0  0  0  0  0
  152.1528  143.3890  158.4547 C   0  0  0  0  0  0  0  0  0  0  0  0
  152.2012  142.0178  159.1544 C   0  0  1  0  0  0  0  0  0  0  0  0
  152.7356  140.8976  158.3951 N   0  0  0  0  0  0  0  0  0  0  0  0
  152.1946  140.4954  157.2174 C   0  0  0  0  0  0  0  0  0  0  0  0
  152.7992  139.5191  156.4912 N   0  0  0  0  0  0  0  0  0  0  0  0
  152.2819  139.1304  155.3224 C   0  0  0  0  0  0  0  0  0  0  0  0
  151.1881  139.5792  154.7034 N   0  0  0  0  0  0  0  0  0  0  0  0
  150.5766  140.5595  155.4279 C   0  0  0  0  0  0  0  0  0  0  0  0
  151.0102  141.0739  156.6824 C   0  0  0  0  0  0  0  0  0  0  0  0
  150.1372  142.0644  157.1159 N   0  0  0  0  0  0  0  0  0  0  0  0
  149.2411  142.1343  156.1697 C   0  0  0  0  0  0  0  0  0  0  0  0
  149.4243  141.2619  155.1206 N   0  0  0  0  0  0  0  0  0  0  0  0
  148.5803  141.1288  153.9430 C   0  0  0  0  0  0  0  0  0  0  0  0
  148.0442  139.6939  153.7302 C   0  0  2  0  0  0  0  0  0  0  0  0
  149.1308  138.8342  153.4307 O   0  0  0  0  0  0  0  0  0  0  0  0
  147.0082  139.5743  152.6160 C   0  0  0  0  0  0  0  0  0  0  0  0
  146.1109  138.4466  153.1060 C   0  0  0  0  0  0  0  0  0  0  0  0
  146.0249  138.7038  154.4972 O   0  0  0  0  0  0  0  0  0  0  0  0
  147.3031  139.1297  154.9589 C   0  0  0  0  0  0  0  0  0  0  0  0
  152.6220  137.9797  160.2528 H   0  0  0  0  0  0  0  0  0  0  0  0
  152.2672  138.0699  158.5391 H   0  0  0  0  0  0  0  0  0  0  0  0
  151.2512  138.9326  159.6925 H   0  0  0  0  0  0  0  0  0  0  0  0
  154.1952  139.5728  159.0564 H   0  0  0  0  0  0  0  0  0  0  0  0
  152.4691  140.3243  161.3759 H   0  0  0  0  0  0  0  0  0  0  0  0
  154.2234  140.4103  161.2411 H   0  0  0  0  0  0  0  0  0  0  0  0
  154.1207  142.4423  160.0071 H   0  0  0  0  0  0  0  0  0  0  0  0
  151.6406  142.7332  161.7687 H   0  0  0  0  0  0  0  0  0  0  0  0
  153.2814  143.1045  162.2582 H   0  0  0  0  0  0  0  0  0  0  0  0
  152.0310  145.1597  161.4776 H   0  0  0  0  0  0  0  0  0  0  0  0
  153.4748  144.8571  160.5461 H   0  0  0  0  0  0  0  0  0  0  0  0
  150.6073  144.2394  159.7032 H   0  0  0  0  0  0  0  0  0  0  0  0
  151.6637  145.4345  158.9957 H   0  0  0  0  0  0  0  0  0  0  0  0
  151.4949  143.3706  157.5866 H   0  0  0  0  0  0  0  0  0  0  0  0
  153.1438  143.6612  158.0896 H   0  0  0  0  0  0  0  0  0  0  0  0
  151.1982  141.7496  159.4923 H   0  0  0  0  0  0  0  0  0  0  0  0
  152.8227  138.3488  154.8095 H   0  0  0  0  0  0  0  0  0  0  0  0
  148.4121  142.8259  156.2134 H   0  0  0  0  0  0  0  0  0  0  0  0
  147.7521  141.8329  154.0328 H   0  0  0  0  0  0  0  0  0  0  0  0
  149.1565  141.4464  153.0729 H   0  0  0  0  0  0  0  0  0  0  0  0
  149.4355  139.0300  152.5578 H   0  0  0  0  0  0  0  0  0  0  0  0
  146.4146  140.4870  152.5533 H   0  0  0  0  0  0  0  0  0  0  0  0
  147.4375  139.3892  151.6305 H   0  0  0  0  0  0  0  0  0  0  0  0
  145.1286  138.4519  152.6333 H   0  0  0  0  0  0  0  0  0  0  0  0
  146.5733  137.4728  152.9371 H   0  0  0  0  0  0  0  0  0  0  0  0
  147.8305  138.2849  155.4049 H   0  0  0  0  0  0  0  0  0  0  0  0
  147.1674  139.8772  155.7414 H   0  0  0  0  0  0  0  0  0  0  0  0
  1  2  1  0  0  0  0
  1 27  1  0  0  0  0
  1 28  1  0  0  0  0
  1 29  1  0  0  0  0
  2 10  1  0  0  0  0
  2  3  1  0  0  0  0
  2 30  1  0  0  0  0
  3  4  1  0  0  0  0
  3 31  1  0  0  0  0
  3 32  1  0  0  0  0
  4  9  1  0  0  0  0
  4  5  1  0  0  0  0
  4 33  1  0  0  0  0
  5  6  1  0  0  0  0
  5 34  1  0  0  0  0
  5 35  1  0  0  0  0
  6  7  1  0  0  0  0
  6 36  1  0  0  0  0
  6 37  1  0  0  0  0
  7  8  1  0  0  0  0
  7 38  1  0  0  0  0
  7 39  1  0  0  0  0
  8  9  1  0  0  0  0
  8 40  1  0  0  0  0
  8 41  1  0  0  0  0
  9 10  1  0  0  0  0
  9 42  1  0  0  0  0
 10 11  1  0  0  0  0
 11 16  1  0  0  0  0
 11 12  2  0  0  0  0
 12 13  1  0  0  0  0
 13 14  2  0  0  0  0
 13 43  1  0  0  0  0
 14 15  1  0  0  0  0
 15 19  1  0  0  0  0
 15 16  2  0  0  0  0
 16 17  1  0  0  0  0
 17 18  2  0  0  0  0
 18 19  1  0  0  0  0
 18 44  1  0  0  0  0
 19 20  1  0  0  0  0
 20 21  1  0  0  0  0
 20 45  1  0  0  0  0
 20 46  1  0  0  0  0
 21 26  1  0  0  0  0
 21 22  1  0  0  0  0
 21 23  1  0  0  0  0
 22 47  1  0  0  0  0
 23 24  1  0  0  0  0
 23 48  1  0  0  0  0
 23 49  1  0  0  0  0
 24 25  1  0  0  0  0
 24 50  1  0  0  0  0
 24 51  1  0  0  0  0
 25 26  1  0  0  0  0
 26 52  1  0  0  0  0
 26 53  1  0  0  0  0
M  END
> <s_m_source_file>
AV-unprocessed.smi

> <i_m_source_file_index>
189

> <i_lp_mmshare_version>
43012

> <i_f3d_flags>
0

> <s_epik_input>
W0NIMl0xW0NIMl1bQ0gyXVtDSDJdW0NASF0oW0NASF0xMilOKFtDQEhdKFtDSDNdKVtDSDJdMiljKG5bY0hdbjMpYyhjMzQpbltjSF1uNFtDSDJdW0NAQF01KFtPSF0pW0NIMl1bQ0gyXU9bQ0gyXTU=

> <s_epik_cmdline>
J2VwaWtfcHl0aG9uJywgJy1waCcsICc3LjAnLCAnLXRuJywgJzgnLCAnLW1hJywgJzIwMCcsICctbWV0YWxfYmluZGluZycsICctaW1hZScsICc8aW5maWxlLm1hZT4nLCAnLW9tYWUnLCAnPG91dGZpbGUubWFlPic=

> <r_lp_tautomer_probability>
1

> <r_epik_Ionization_Penalty>
0.00594261

> <r_epik_Ionization_Penalty_Charging>
0

> <r_epik_Ionization_Penalty_Neutral>
0.00594261

> <r_epik_State_Penalty>
0.00429776

> <r_epik_Charging_Adjusted_Penalty>
0.00429776

> <i_epik_Tot_Q>
0

> <i_epik_Tot_abs_Q>
0

> <r_epik_Metal_State_Penalty>
-0

> <b_epik_Metal_Only>
0

> <s_lp_Force_Field>
OPLS_2005

> <r_lp_Energy>
58.6518

> <b_lp_Chiralities_Consistent>
1

> <s_lp_Variant>
AV-unprocessed.smi:189-11

> <Gold.Version>
5.8.1

> <Gold.Id.Protein>
6NUR|6NUR_protein|mol2

> <Gold.PLP.Fitness>
59.8188

> <Gold.PLP.PLP>
-50.4213

> <Gold.PLP.part.hbond>
-4.3774

> <Gold.PLP.part.metal>
0.0000

> <Gold.PLP.part.buried>
-2.9263

> <Gold.PLP.part.nonpolar>
-42.3454

> <Gold.PLP.part.repulsive>
0.2554

> <Gold.PLP.ligand.clash>
0.0000

> <Gold.PLP.ligand.torsion>
0.2587

> <Gold.PLP.Chemscore.Hbond>
2.7000

> <Gold.PLP.Chemscore.CHOScore>
0.4793

> <Gold.PLP.Chemscore.Metal>
0.0000

> <Gold.Chemscore.Hbonds>
donor molecule, donor type, donor heavy atom, donor atom, acceptor molecule, acceptor atom, score
      L1  H    22    47       P1  7957  1.00
      P1  H  7989  7998       L1    14  0.40
      P1  H  7997  8009       L1    12  1.00
      L1  C    18    44       P1  8028  0.68

> <Gold.PLP.Chemscore.Internal.Correction>
0.3772

> <Gold.Rescore>
     Score         DG    S(hbond)    S(metal)    S(lipo)     H(rot)  DE(clash)    DE(int)     intcor
     17.28     -20.07       1.66        0.00     121.78       2.03       1.21       1.57       ----

> <Gold.Chemscore.Fitness>
17.2792

> <Gold.Chemscore.DG>
-20.0651

> <Gold.Chemscore.ZeroCoef>
-5.4800

> <Gold.Chemscore.Hbond>
1.6566

> <Gold.Chemscore.Metal>
0.0000

> <Gold.Chemscore.Lipo>
121.7787

> <Gold.Chemscore.Internal_Hbond>
0.0000

> <Gold.Chemscore.DEClash>
1.2143

> <Gold.Chemscore.DEInternal>
1.5717

> <Gold.Chemscore.Rot>
2.0297

> <Gold.Chemscore.Internal.Correction>
   9.000000E+99

> <Gold.Chemscore.Hbonds>
donor molecule, donor type, donor heavy atom, donor atom, acceptor molecule, acceptor atom, score
      L1  H    22    47       P1  7957  0.94
      P1  H  7989  7998       L1    14  0.01
      P1  H  7997  8009       L1    12  0.29

> <Gold.Chemscore.Hbond.Weighted>
-5.5330

> <Gold.Chemscore.Metal.Weighted>
-0.0000

> <Gold.Chemscore.Lipo.Weighted>
-14.2481

> <Gold.Chemscore.Internal_Hbond.Weighted>
0.0000

> <Gold.Chemscore.DEClash.Weighted>
1.2143

> <Gold.Chemscore.DEInternal.Weighted>
1.5717

> <Gold.Chemscore.Rot.Weighted>
5.1960

> <Gold.Chemscore.Internal.Correction.Weighted>
   9.000000E+99

> <Gold.Protein.RotatedTorsions>
[ 6907 6896 6895 6894 ] final -118.46 input  -60.11 | X-H torsion
[ 7974 7965 7964 7962 ] final -123.69 input  175.53 | X-H torsion
[ 8008 7997 7996 7995 ] final -155.95 input   59.86 | X-H torsion
[ 10167 10162 10161 10158 ] final    4.60 input  -65.29 | X-H torsion
[ 10718 10713 10712 10709 ] final   12.46 input   66.30 | X-H torsion
[ 10763 10752 10751 10750 ] final -157.23 input  -60.55 | X-H torsion
[ 11005 11000 10999 10996 ] final  143.73 input  -57.11 | X-H torsion

> <Gold.Protein.ActiveResidues>
 VAL166  LYS551  ARG553  GLY616  TRP617  ASP618  TYR619  PRO620  LYS621  CYS622 
 ASP623  PHE694  ASN695  SER759  ASP760  ASP761  ALA762  ILE779  LEU786  VAL792 
 PHE793  MET794  SER795  GLU796  ALA797  LYS798  CYS799  TRP800  GLU811  SER814 

> <Gold.Protein.RotatedAtoms>
  150.8221  133.8234  159.3134 H   0  0  0  0  0  0  0  0  0  0  0  0  # atno 6907 bound_to 6896
  151.5989  135.1047  160.0065 H   0  0  0  0  0  0  0  0  0  0  0  0  # atno 6908 bound_to 6896
  152.4310  133.7236  159.6604 H   0  0  0  0  0  0  0  0  0  0  0  0  # atno 6909 bound_to 6896
  145.0160  140.7947  143.4409 H   0  0  0  0  0  0  0  0  0  0  0  0  # atno 7974 bound_to 7965
  155.7097  140.0777  157.2376 H   0  0  0  0  0  0  0  0  0  0  0  0  # atno 8008 bound_to 7997
  154.4060  140.1632  156.2336 H   0  0  0  0  0  0  0  0  0  0  0  0  # atno 8009 bound_to 7997
  155.9293  140.3392  155.6239 H   0  0  0  0  0  0  0  0  0  0  0  0  # atno 8010 bound_to 7997
  140.6526  143.7506  150.7600 H   0  0  0  0  0  0  0  0  0  0  0  0  # atno 10167 bound_to 10162
  157.0104  130.6115  149.5707 H   0  0  0  0  0  0  0  0  0  0  0  0  # atno 10718 bound_to 10713
  154.7652  135.3129  154.8300 H   0  0  0  0  0  0  0  0  0  0  0  0  # atno 10763 bound_to 10752
  153.9050  135.6812  153.4757 H   0  0  0  0  0  0  0  0  0  0  0  0  # atno 10764 bound_to 10752
  153.1257  135.4802  154.9202 H   0  0  0  0  0  0  0  0  0  0  0  0  # atno 10765 bound_to 10752
  140.0576  134.9222  157.1128 H   0  0  0  0  0  0  0  0  0  0  0  0  # atno 11005 bound_to 11000
  145.1959  139.2277  143.5218 LP  0  0  0  0  0  0  0  0  0  0  0  0  # atno 17320 bound_to 7965
  146.3478  140.1765  142.8589 LP  0  0  0  0  0  0  0  0  0  0  0  0  # atno 17321 bound_to 7965
  140.1160  143.4655  152.2342 LP  0  0  0  0  0  0  0  0  0  0  0  0  # atno 17342 bound_to 10162
  139.5744  144.7479  151.3805 LP  0  0  0  0  0  0  0  0  0  0  0  0  # atno 17343 bound_to 10162
  156.0138  130.5231  150.8072 LP  0  0  0  0  0  0  0  0  0  0  0  0  # atno 17370 bound_to 10713
  157.5324  131.0937  150.9937 LP  0  0  0  0  0  0  0  0  0  0  0  0  # atno 17371 bound_to 10713
  140.3819  134.2277  155.7170 LP  0  0  0  0  0  0  0  0  0  0  0  0  # atno 17394 bound_to 11000
  141.1959  133.8095  157.0695 LP  0  0  0  0  0  0  0  0  0  0  0  0  # atno 17395 bound_to 11000

$$$$
