AV-unprocessed.smi:1564|AV-procd|sdf|6296|dock10
  -GOLD-   22720 6493D 1   1.00000     0.00000
 Structure written by MMmdl.
 43 44  0  0  0  0  0  0  0  0  2 V2000
  135.4653  138.0250  154.6252 C   0  0  0  0  0  0  0  0  0  0  0  0
  136.4376  139.0620  154.6969 O   0  0  0  0  0  0  0  0  0  0  0  0
  137.7286  138.7770  154.3019 C   0  0  0  0  0  0  0  0  0  0  0  0
  138.1273  137.4284  154.2205 C   0  0  0  0  0  0  0  0  0  0  0  0
  139.4448  137.1341  153.8226 C   0  0  0  0  0  0  0  0  0  0  0  0
  140.3279  138.1914  153.5236 C   0  0  0  0  0  0  0  0  0  0  0  0
  141.6476  137.8569  153.1136 N   0  0  0  0  0  0  0  0  0  0  0  0
  142.2110  136.6422  152.9935 C   0  0  0  0  0  0  0  0  0  0  0  0
  141.6533  135.5686  153.2179 O   0  0  0  0  0  0  0  0  0  0  0  0
  143.4804  136.7366  152.5742 N   0  0  0  0  0  0  0  0  0  0  0  0
  144.3660  135.6001  152.3438 C   0  0  1  0  0  0  0  0  0  0  0  0
  144.9044  135.4767  150.9239 C   0  0  0  0  0  0  0  0  0  0  0  0
  146.1007  134.5496  151.1367 C   0  0  0  0  0  0  0  0  0  0  0  0
  146.6848  134.9235  152.4495 N   0  3  2  0  0  0  0  0  0  0  0  0
  147.3357  133.8177  153.2091 C   0  0  0  0  0  0  0  0  0  0  0  0
  148.4204  133.1261  152.3603 C   0  0  0  0  0  0  0  0  0  0  0  0
  146.3129  132.7609  153.6733 C   0  0  0  0  0  0  0  0  0  0  0  0
  145.6413  135.6827  153.1873 C   0  0  0  0  0  0  0  0  0  0  0  0
  139.8271  139.5130  153.6222 C   0  0  0  0  0  0  0  0  0  0  0  0
  138.5647  139.8017  154.0033 N   0  0  0  0  0  0  0  0  0  0  0  0
  134.5046  138.4071  154.9699 H   0  0  0  0  0  0  0  0  0  0  0  0
  135.7329  137.1809  155.2624 H   0  0  0  0  0  0  0  0  0  0  0  0
  135.3334  137.6731  153.6010 H   0  0  0  0  0  0  0  0  0  0  0  0
  137.4352  136.6347  154.4606 H   0  0  0  0  0  0  0  0  0  0  0  0
  139.7715  136.1065  153.7529 H   0  0  0  0  0  0  0  0  0  0  0  0
  142.2194  138.6393  152.8308 H   0  0  0  0  0  0  0  0  0  0  0  0
  143.8605  137.6574  152.4095 H   0  0  0  0  0  0  0  0  0  0  0  0
  143.8385  134.6793  152.6028 H   0  0  0  0  0  0  0  0  0  0  0  0
  144.1750  135.0702  150.2224 H   0  0  0  0  0  0  0  0  0  0  0  0
  145.2368  136.4467  150.5508 H   0  0  0  0  0  0  0  0  0  0  0  0
  145.7399  133.5201  151.1714 H   0  0  0  0  0  0  0  0  0  0  0  0
  146.8339  134.6241  150.3331 H   0  0  0  0  0  0  0  0  0  0  0  0
  147.8073  134.2464  154.0949 H   0  0  0  0  0  0  0  0  0  0  0  0
  148.8869  132.3112  152.9146 H   0  0  0  0  0  0  0  0  0  0  0  0
  149.2210  133.8046  152.0685 H   0  0  0  0  0  0  0  0  0  0  0  0
  147.9970  132.7022  151.4493 H   0  0  0  0  0  0  0  0  0  0  0  0
  146.8107  131.9294  154.1736 H   0  0  0  0  0  0  0  0  0  0  0  0
  145.7566  132.3504  152.8298 H   0  0  0  0  0  0  0  0  0  0  0  0
  145.5929  133.1653  154.3843 H   0  0  0  0  0  0  0  0  0  0  0  0
  145.9828  136.7143  153.2852 H   0  0  0  0  0  0  0  0  0  0  0  0
  145.4547  135.2985  154.1903 H   0  0  0  0  0  0  0  0  0  0  0  0
  140.4265  140.3757  153.3783 H   0  0  0  0  0  0  0  0  0  0  0  0
  147.4140  135.5920  152.2446 H   0  0  0  0  0  0  0  0  0  0  0  0
  1  2  1  0  0  0  0
  1 21  1  0  0  0  0
  1 22  1  0  0  0  0
  1 23  1  0  0  0  0
  2  3  1  0  0  0  0
  3 20  1  0  0  0  0
  3  4  2  0  0  0  0
  4  5  1  0  0  0  0
  4 24  1  0  0  0  0
  5  6  2  0  0  0  0
  5 25  1  0  0  0  0
  6  7  1  0  0  0  0
  6 19  1  0  0  0  0
  7  8  1  0  0  0  0
  7 26  1  0  0  0  0
  8  9  2  0  0  0  0
  8 10  1  0  0  0  0
 10 11  1  0  0  0  0
 10 27  1  0  0  0  0
 11 18  1  0  0  0  0
 11 12  1  0  0  0  0
 11 28  1  0  0  0  0
 12 13  1  0  0  0  0
 12 29  1  0  0  0  0
 12 30  1  0  0  0  0
 13 14  1  0  0  0  0
 13 31  1  0  0  0  0
 13 32  1  0  0  0  0
 14 15  1  0  0  0  0
 14 18  1  0  0  0  0
 14 43  1  0  0  0  0
 15 16  1  0  0  0  0
 15 17  1  0  0  0  0
 15 33  1  0  0  0  0
 16 34  1  0  0  0  0
 16 35  1  0  0  0  0
 16 36  1  0  0  0  0
 17 37  1  0  0  0  0
 17 38  1  0  0  0  0
 17 39  1  0  0  0  0
 18 40  1  0  0  0  0
 18 41  1  0  0  0  0
 19 20  2  0  0  0  0
 19 42  1  0  0  0  0
M  CHG  1  14   1
M  END
> <s_m_source_file>
AV-unprocessed.smi

> <i_m_source_file_index>
1564

> <i_lp_mmshare_version>
43012

> <i_f3d_flags>
0

> <s_epik_input>
W0NIM11PYzFbY0hdW2NIXWMoW2NIXW4xKVtOSF1DKD1PKVtOSF1bQ0BASF0yW0NIMl1bQ0gyXU4oW0NIMl0yKVtDSF0oW0NIM10pW0NIM10=

> <s_epik_cmdline>
J2VwaWtfcHl0aG9uJywgJy1waCcsICc3LjAnLCAnLXRuJywgJzgnLCAnLW1hJywgJzIwMCcsICctbWV0YWxfYmluZGluZycsICctaW1hZScsICc8aW5maWxlLm1hZT4nLCAnLW9tYWUnLCAnPG91dGZpbGUubWFlPic=

> <r_lp_tautomer_probability>
1

> <r_epik_Ionization_Penalty>
0.000679474

> <r_epik_Ionization_Penalty_Charging>
0.000606352

> <r_epik_Ionization_Penalty_Neutral>
7.31222e-05

> <r_epik_State_Penalty>
0.000382168

> <r_epik_Charging_Adjusted_Penalty>
0.00098852

> <i_epik_Tot_Q>
1

> <i_epik_Tot_abs_Q>
1

> <r_epik_Metal_State_Penalty>
-0

> <b_epik_Metal_Only>
0

> <s_lp_Force_Field>
OPLS_2005

> <r_lp_Energy>
33.6805

> <b_lp_Chiralities_Consistent>
1

> <s_lp_Variant>
AV-unprocessed.smi:1564-4

> <Gold.Version>
5.8.1

> <Gold.Id.Protein>
6NUR|6NUR_protein|mol2

> <Gold.PLP.Fitness>
37.7126

> <Gold.PLP.PLP>
-29.5222

> <Gold.PLP.part.hbond>
-1.0771

> <Gold.PLP.part.metal>
0.0000

> <Gold.PLP.part.buried>
-3.7007

> <Gold.PLP.part.nonpolar>
-24.1752

> <Gold.PLP.part.repulsive>
0.2714

> <Gold.PLP.ligand.clash>
0.0000

> <Gold.PLP.ligand.torsion>
0.2698

> <Gold.PLP.Chemscore.Hbond>
2.3250

> <Gold.PLP.Chemscore.CHOScore>
0.5750

> <Gold.PLP.Chemscore.Metal>
0.0000

> <Gold.Chemscore.Hbonds>
donor molecule, donor type, donor heavy atom, donor atom, acceptor molecule, acceptor atom, score
      L1  H     7    26       P1 10175  0.34
      L1  H    14    43       P1  7948  2.00
      L1  C    19    42       P1 10160  0.53

> <Gold.PLP.Chemscore.Internal.Correction>
0.0298

> <Gold.Rescore>
     Score         DG    S(hbond)    S(metal)    S(lipo)     H(rot)  DE(clash)    DE(int)     intcor
     13.96     -15.90       2.00        0.00      63.71       1.44       0.14       1.81       ----

> <Gold.Chemscore.Fitness>
13.9553

> <Gold.Chemscore.DG>
-15.9043

> <Gold.Chemscore.ZeroCoef>
-5.4800

> <Gold.Chemscore.Hbond>
1.9965

> <Gold.Chemscore.Metal>
0.0000

> <Gold.Chemscore.Lipo>
63.7096

> <Gold.Chemscore.Internal_Hbond>
0.0000

> <Gold.Chemscore.DEClash>
0.1405

> <Gold.Chemscore.DEInternal>
1.8085

> <Gold.Chemscore.Rot>
1.4445

> <Gold.Chemscore.Internal.Correction>
   9.000000E+99

> <Gold.Chemscore.Hbonds>
donor molecule, donor type, donor heavy atom, donor atom, acceptor molecule, acceptor atom, score
      L1  H     7    26       P1 10175  0.33
      L1  H    14    43       P1  7948  0.99

> <Gold.Chemscore.Hbond.Weighted>
-6.6682

> <Gold.Chemscore.Metal.Weighted>
-0.0000

> <Gold.Chemscore.Lipo.Weighted>
-7.4540

> <Gold.Chemscore.Internal_Hbond.Weighted>
0.0000

> <Gold.Chemscore.DEClash.Weighted>
0.1405

> <Gold.Chemscore.DEInternal.Weighted>
1.8085

> <Gold.Chemscore.Rot.Weighted>
3.6979

> <Gold.Chemscore.Internal.Correction.Weighted>
   9.000000E+99

> <Gold.Protein.RotatedTorsions>
[ 6907 6896 6895 6894 ] final    9.39 input  -60.11 | X-H torsion
[ 7974 7965 7964 7962 ] final   57.53 input  175.53 | X-H torsion
[ 8008 7997 7996 7995 ] final  117.79 input   59.86 | X-H torsion
[ 10167 10162 10161 10158 ] final -169.77 input  -65.29 | X-H torsion
[ 10718 10713 10712 10709 ] final  -74.95 input   66.30 | X-H torsion
[ 10763 10752 10751 10750 ] final    8.08 input  -60.55 | X-H torsion
[ 11005 11000 10999 10996 ] final   13.39 input  -57.11 | X-H torsion

> <Gold.Protein.ActiveResidues>
 VAL166  LYS551  ARG553  GLY616  TRP617  ASP618  TYR619  PRO620  LYS621  CYS622 
 ASP623  PHE694  ASN695  SER759  ASP760  ASP761  ALA762  ILE779  LEU786  VAL792 
 PHE793  MET794  SER795  GLU796  ALA797  LYS798  CYS799  TRP800  GLU811  SER814 

> <Gold.Protein.RotatedAtoms>
  151.7214  135.0893  160.0284 H   0  0  0  0  0  0  0  0  0  0  0  0  # atno 6907 bound_to 6896
  152.3599  133.6280  159.6016 H   0  0  0  0  0  0  0  0  0  0  0  0  # atno 6908 bound_to 6896
  150.7597  133.9356  159.3482 H   0  0  0  0  0  0  0  0  0  0  0  0  # atno 6909 bound_to 6896
  145.9280  139.3784  143.0438 H   0  0  0  0  0  0  0  0  0  0  0  0  # atno 7974 bound_to 7965
  156.2512  140.2889  156.0733 H   0  0  0  0  0  0  0  0  0  0  0  0  # atno 8008 bound_to 7997
  155.1647  140.0400  157.2867 H   0  0  0  0  0  0  0  0  0  0  0  0  # atno 8009 bound_to 7997
  154.6368  140.2512  155.7375 H   0  0  0  0  0  0  0  0  0  0  0  0  # atno 8010 bound_to 7997
  139.5902  144.1230  152.1625 H   0  0  0  0  0  0  0  0  0  0  0  0  # atno 10167 bound_to 10162
  156.0224  130.4429  150.2969 H   0  0  0  0  0  0  0  0  0  0  0  0  # atno 10718 bound_to 10713
  153.2290  135.6890  153.7911 H   0  0  0  0  0  0  0  0  0  0  0  0  # atno 10763 bound_to 10752
  153.7082  135.3286  155.3241 H   0  0  0  0  0  0  0  0  0  0  0  0  # atno 10764 bound_to 10752
  154.8305  135.4584  154.1168 H   0  0  0  0  0  0  0  0  0  0  0  0  # atno 10765 bound_to 10752
  140.4813  134.0933  155.7751 H   0  0  0  0  0  0  0  0  0  0  0  0  # atno 11005 bound_to 11000
  145.8463  140.9553  143.0773 LP  0  0  0  0  0  0  0  0  0  0  0  0  # atno 17320 bound_to 7965
  144.6761  140.0349  143.7482 LP  0  0  0  0  0  0  0  0  0  0  0  0  # atno 17321 bound_to 7965
  140.0803  144.5706  150.7127 LP  0  0  0  0  0  0  0  0  0  0  0  0  # atno 17342 bound_to 10162
  140.7166  143.2550  151.4413 LP  0  0  0  0  0  0  0  0  0  0  0  0  # atno 17343 bound_to 10162
  157.1072  131.0211  151.3062 LP  0  0  0  0  0  0  0  0  0  0  0  0  # atno 17370 bound_to 10713
  157.4733  130.7722  149.7344 LP  0  0  0  0  0  0  0  0  0  0  0  0  # atno 17371 bound_to 10713
  141.1530  133.8935  157.2050 LP  0  0  0  0  0  0  0  0  0  0  0  0  # atno 17394 bound_to 11000
  139.9825  135.0093  156.9783 LP  0  0  0  0  0  0  0  0  0  0  0  0  # atno 17395 bound_to 11000

$$$$
