AV-unprocessed.smi:3220|AV-procd|sdf|12299|dock4
  -GOLD-   2272018143D 1   1.00000     0.00000
 Structure written by MMmdl.
 33 34  0  0  0  0  0  0  0  0  1 V2000
  151.8096  139.3366  157.2439 C   0  0  0  0  0  0  0  0  0  0  0  0
  151.2793  140.7703  157.1084 C   0  0  2  0  0  0  0  0  0  0  0  0
  150.9093  141.3646  158.4845 C   0  0  0  0  0  0  0  0  0  0  0  0
  151.5301  142.6551  158.7256 N   0  0  0  0  0  0  0  0  0  0  0  0
  151.4217  143.8116  157.9819 C   0  0  0  0  0  0  0  0  0  0  0  0
  152.1965  144.7583  158.5883 C   0  0  0  0  0  0  0  0  0  0  0  0
  152.7422  144.0783  159.7128 C   0  0  0  0  0  0  0  0  0  0  0  0
  152.3380  142.8211  159.7948 N   0  0  0  0  0  0  0  0  0  0  0  0
  150.1202  140.7643  156.2166 N   0  0  0  0  0  0  0  0  0  0  0  0
  150.0777  140.2273  154.9869 C   0  0  0  0  0  0  0  0  0  0  0  0
  151.0289  139.6428  154.4674 O   0  0  0  0  0  0  0  0  0  0  0  0
  148.7571  140.3785  154.2254 C   0  0  1  0  0  0  0  0  0  0  0  0
  147.5177  139.9997  155.0575 C   0  0  0  0  0  0  0  0  0  0  0  0
  146.8101  141.3231  155.2748 C   0  0  0  0  0  0  0  0  0  0  0  0
  147.2278  142.1084  154.0401 C   0  0  0  0  0  0  0  0  0  0  0  0
  148.5925  141.7539  153.8858 O   0  0  0  0  0  0  0  0  0  0  0  0
  152.6888  139.3031  157.8879 H   0  0  0  0  0  0  0  0  0  0  0  0
  152.0987  138.9320  156.2733 H   0  0  0  0  0  0  0  0  0  0  0  0
  151.0580  138.6725  157.6724 H   0  0  0  0  0  0  0  0  0  0  0  0
  152.0815  141.3682  156.6718 H   0  0  0  0  0  0  0  0  0  0  0  0
  149.8277  141.4736  158.5770 H   0  0  0  0  0  0  0  0  0  0  0  0
  151.2216  140.6878  159.2813 H   0  0  0  0  0  0  0  0  0  0  0  0
  150.8158  143.8612  157.0893 H   0  0  0  0  0  0  0  0  0  0  0  0
  152.3518  145.7802  158.2757 H   0  0  0  0  0  0  0  0  0  0  0  0
  153.4148  144.4583  160.4675 H   0  0  0  0  0  0  0  0  0  0  0  0
  149.2846  141.2167  156.5582 H   0  0  0  0  0  0  0  0  0  0  0  0
  148.7780  139.7870  153.3084 H   0  0  0  0  0  0  0  0  0  0  0  0
  146.8817  139.3265  154.4816 H   0  0  0  0  0  0  0  0  0  0  0  0
  147.7485  139.5014  156.0004 H   0  0  0  0  0  0  0  0  0  0  0  0
  145.7289  141.2208  155.3718 H   0  0  0  0  0  0  0  0  0  0  0  0
  147.1918  141.8097  156.1735 H   0  0  0  0  0  0  0  0  0  0  0  0
  146.6639  141.7871  153.1632 H   0  0  0  0  0  0  0  0  0  0  0  0
  147.1024  143.1847  154.1596 H   0  0  0  0  0  0  0  0  0  0  0  0
  1  2  1  0  0  0  0
  1 17  1  0  0  0  0
  1 18  1  0  0  0  0
  1 19  1  0  0  0  0
  2  3  1  0  0  0  0
  2  9  1  0  0  0  0
  2 20  1  0  0  0  0
  3  4  1  0  0  0  0
  3 21  1  0  0  0  0
  3 22  1  0  0  0  0
  4  8  1  0  0  0  0
  4  5  1  0  0  0  0
  5  6  2  0  0  0  0
  5 23  1  0  0  0  0
  6  7  1  0  0  0  0
  6 24  1  0  0  0  0
  7  8  2  0  0  0  0
  7 25  1  0  0  0  0
  9 10  1  0  0  0  0
  9 26  1  0  0  0  0
 10 11  2  0  0  0  0
 10 12  1  0  0  0  0
 12 16  1  0  0  0  0
 12 13  1  0  0  0  0
 12 27  1  0  0  0  0
 13 14  1  0  0  0  0
 13 28  1  0  0  0  0
 13 29  1  0  0  0  0
 14 15  1  0  0  0  0
 14 30  1  0  0  0  0
 14 31  1  0  0  0  0
 15 16  1  0  0  0  0
 15 32  1  0  0  0  0
 15 33  1  0  0  0  0
M  END
> <s_m_source_file>
AV-unprocessed.smi

> <i_m_source_file_index>
3220

> <i_lp_mmshare_version>
43012

> <i_f3d_flags>
0

> <s_epik_input>
bjFbY0hdW2NIXVtjSF1uMVtDSDJdW0NAQEhdKFtDSDNdKVtOSF1DKD1PKVtDQEBIXTJbQ0gyXVtDSDJdW0NIMl1PMg==

> <s_epik_cmdline>
J2VwaWtfcHl0aG9uJywgJy1waCcsICc3LjAnLCAnLXRuJywgJzgnLCAnLW1hJywgJzIwMCcsICctbWV0YWxfYmluZGluZycsICctaW1hZScsICc8aW5maWxlLm1hZT4nLCAnLW9tYWUnLCAnPG91dGZpbGUubWFlPic=

> <r_lp_tautomer_probability>
1

> <r_epik_Ionization_Penalty>
0.00033363

> <r_epik_Ionization_Penalty_Charging>
0

> <r_epik_Ionization_Penalty_Neutral>
0.00033363

> <r_epik_State_Penalty>
-0

> <r_epik_Charging_Adjusted_Penalty>
0

> <i_epik_Tot_Q>
0

> <i_epik_Tot_abs_Q>
0

> <r_epik_Metal_State_Penalty>
-0

> <b_epik_Metal_Only>
0

> <s_lp_Force_Field>
OPLS_2005

> <r_lp_Energy>
17.4241

> <b_lp_Chiralities_Consistent>
1

> <s_lp_Variant>
AV-unprocessed.smi:3220-3

> <Gold.Version>
5.8.1

> <Gold.Id.Protein>
6NUR|6NUR_protein|mol2

> <Gold.PLP.Fitness>
38.3336

> <Gold.PLP.PLP>
-32.5700

> <Gold.PLP.part.hbond>
-2.0000

> <Gold.PLP.part.metal>
0.0000

> <Gold.PLP.part.buried>
-4.8464

> <Gold.PLP.part.nonpolar>
-25.7896

> <Gold.PLP.part.repulsive>
0.3591

> <Gold.PLP.ligand.clash>
0.0000

> <Gold.PLP.ligand.torsion>
0.9694

> <Gold.PLP.Chemscore.Hbond>
1.5600

> <Gold.PLP.Chemscore.CHOScore>
1.0000

> <Gold.PLP.Chemscore.Metal>
0.0000

> <Gold.Chemscore.Hbonds>
donor molecule, donor type, donor heavy atom, donor atom, acceptor molecule, acceptor atom, score
      P1  H  7989  7998       L1    11  1.00
      P1  H  8011  8017       L1    16  0.51
      L1  C     5    23       P1  8028  1.00

> <Gold.PLP.Chemscore.Internal.Correction>
0.0223

> <Gold.Rescore>
     Score         DG    S(hbond)    S(metal)    S(lipo)     H(rot)  DE(clash)    DE(int)     intcor
     11.40     -13.61       0.93        0.00      78.37       1.62       0.01       2.20       ----

> <Gold.Chemscore.Fitness>
11.4007

> <Gold.Chemscore.DG>
-13.6077

> <Gold.Chemscore.ZeroCoef>
-5.4800

> <Gold.Chemscore.Hbond>
0.9311

> <Gold.Chemscore.Metal>
0.0000

> <Gold.Chemscore.Lipo>
78.3737

> <Gold.Chemscore.Internal_Hbond>
0.0000

> <Gold.Chemscore.DEClash>
0.0072

> <Gold.Chemscore.DEInternal>
2.1998

> <Gold.Chemscore.Rot>
1.6219

> <Gold.Chemscore.Internal.Correction>
   9.000000E+99

> <Gold.Chemscore.Hbonds>
donor molecule, donor type, donor heavy atom, donor atom, acceptor molecule, acceptor atom, score
      P1  H  7989  7998       L1    11  0.30
      P1  H  8011  8017       L1    16  0.45

> <Gold.Chemscore.Hbond.Weighted>
-3.1099

> <Gold.Chemscore.Metal.Weighted>
-0.0000

> <Gold.Chemscore.Lipo.Weighted>
-9.1697

> <Gold.Chemscore.Internal_Hbond.Weighted>
0.0000

> <Gold.Chemscore.DEClash.Weighted>
0.0072

> <Gold.Chemscore.DEInternal.Weighted>
2.1998

> <Gold.Chemscore.Rot.Weighted>
4.1520

> <Gold.Chemscore.Internal.Correction.Weighted>
   9.000000E+99

> <Gold.Protein.RotatedTorsions>
[ 6907 6896 6895 6894 ] final -156.39 input  -60.11 | X-H torsion
[ 7974 7965 7964 7962 ] final    9.22 input  175.53 | X-H torsion
[ 8008 7997 7996 7995 ] final  159.35 input   59.86 | X-H torsion
[ 10167 10162 10161 10158 ] final   42.45 input  -65.29 | X-H torsion
[ 10718 10713 10712 10709 ] final  -57.14 input   66.30 | X-H torsion
[ 10763 10752 10751 10750 ] final  -12.35 input  -60.55 | X-H torsion
[ 11005 11000 10999 10996 ] final  104.77 input  -57.11 | X-H torsion

> <Gold.Protein.ActiveResidues>
 VAL166  LYS551  ARG553  GLY616  TRP617  ASP618  TYR619  PRO620  LYS621  CYS622 
 ASP623  PHE694  ASN695  SER759  ASP760  ASP761  ALA762  ILE779  LEU786  VAL792 
 PHE793  MET794  SER795  GLU796  ALA797  LYS798  CYS799  TRP800  GLU811  SER814 

> <Gold.Protein.RotatedAtoms>
  151.2869  133.4183  159.2630 H   0  0  0  0  0  0  0  0  0  0  0  0  # atno 6907 bound_to 6896
  151.0312  134.9541  159.8122 H   0  0  0  0  0  0  0  0  0  0  0  0  # atno 6908 bound_to 6896
  152.5346  134.2829  159.9067 H   0  0  0  0  0  0  0  0  0  0  0  0  # atno 6909 bound_to 6896
  146.2406  139.9815  142.8435 H   0  0  0  0  0  0  0  0  0  0  0  0  # atno 7974 bound_to 7965
  156.2244  140.1833  156.7398 H   0  0  0  0  0  0  0  0  0  0  0  0  # atno 8008 bound_to 7997
  154.5918  140.0649  156.9277 H   0  0  0  0  0  0  0  0  0  0  0  0  # atno 8009 bound_to 7997
  155.2324  140.3316  155.4304 H   0  0  0  0  0  0  0  0  0  0  0  0  # atno 8010 bound_to 7997
  140.3542  144.2311  150.6143 H   0  0  0  0  0  0  0  0  0  0  0  0  # atno 10167 bound_to 10162
  156.1234  130.4164  150.0400 H   0  0  0  0  0  0  0  0  0  0  0  0  # atno 10718 bound_to 10713
  153.4971  135.7017  153.5852 H   0  0  0  0  0  0  0  0  0  0  0  0  # atno 10763 bound_to 10752
  153.3999  135.3874  155.1981 H   0  0  0  0  0  0  0  0  0  0  0  0  # atno 10764 bound_to 10752
  154.8713  135.3879  154.4438 H   0  0  0  0  0  0  0  0  0  0  0  0  # atno 10765 bound_to 10752
  139.8795  134.9312  156.5412 H   0  0  0  0  0  0  0  0  0  0  0  0  # atno 11005 bound_to 11000
  145.1587  140.9661  143.4390 LP  0  0  0  0  0  0  0  0  0  0  0  0  # atno 17320 bound_to 7965
  145.0137  139.3487  143.6107 LP  0  0  0  0  0  0  0  0  0  0  0  0  # atno 17321 bound_to 7965
  140.5189  143.2271  151.8419 LP  0  0  0  0  0  0  0  0  0  0  0  0  # atno 17342 bound_to 10162
  139.4822  144.4860  151.9246 LP  0  0  0  0  0  0  0  0  0  0  0  0  # atno 17343 bound_to 10162
  156.8332  130.9400  151.3636 LP  0  0  0  0  0  0  0  0  0  0  0  0  # atno 17370 bound_to 10713
  157.6416  130.8810  149.9460 LP  0  0  0  0  0  0  0  0  0  0  0  0  # atno 17371 bound_to 10713
  140.8309  133.8280  155.8983 LP  0  0  0  0  0  0  0  0  0  0  0  0  # atno 17394 bound_to 11000
  140.9330  134.1998  157.4851 LP  0  0  0  0  0  0  0  0  0  0  0  0  # atno 17395 bound_to 11000

$$$$
