AV-unprocessed.smi:215|AV-procd|sdf|1650|dock4
  -GOLD-   2262020 33D 1   1.00000     0.00000
 Structure written by MMmdl.
 59 62  0  0  0  0  0  0  0  0  2 V2000
  148.0721  138.5019  156.9861 C   0  0  0  0  0  0  0  0  0  0  0  0
  148.2585  138.9401  155.5179 C   0  0  2  0  0  0  0  0  0  0  0  0
  149.1993  140.1385  155.2396 C   0  0  2  0  0  0  0  0  0  0  0  0
  149.5689  140.9507  156.4392 N   0  3  2  0  0  0  0  0  0  0  0  0
  148.4223  141.5769  157.1496 C   0  0  0  0  0  0  0  0  0  0  0  0
  150.6744  141.9078  156.1664 C   0  0  0  0  0  0  0  0  0  0  0  0
  151.1773  142.6248  157.4317 C   0  0  0  0  0  0  0  0  0  0  0  0
  150.4132  143.7885  157.6668 O   0  0  0  0  0  0  0  0  0  0  0  0
  148.5272  140.9206  154.0915 C   0  0  0  0  0  0  0  0  0  0  0  0
  147.4262  139.9766  153.6113 C   0  0  0  0  0  0  0  0  0  0  0  0
  147.0230  139.2443  154.8038 N   0  0  0  0  0  0  0  0  0  0  0  0
  146.1743  138.2049  154.6248 C   0  0  0  0  0  0  0  0  0  0  0  0
  145.5102  137.6664  155.6814 N   0  0  0  0  0  0  0  0  0  0  0  0
  144.6592  136.6538  155.4893 C   0  0  0  0  0  0  0  0  0  0  0  0
  144.3329  136.0427  154.3481 N   0  0  0  0  0  0  0  0  0  0  0  0
  145.0012  136.5790  153.2865 C   0  0  0  0  0  0  0  0  0  0  0  0
  145.9270  137.6577  153.3381 C   0  0  0  0  0  0  0  0  0  0  0  0
  146.3925  137.9490  152.0634 N   0  0  0  0  0  0  0  0  0  0  0  0
  145.7686  137.0956  151.2979 C   0  0  0  0  0  0  0  0  0  0  0  0
  144.9376  136.2110  151.9527 N   0  0  0  0  0  0  0  0  0  0  0  0
  144.1076  135.1927  151.3655 C   0  0  0  0  0  0  0  0  0  0  0  0
  144.1967  133.7443  151.8619 C   0  0  0  0  0  0  0  0  0  0  0  0
  145.0326  133.3618  150.6224 C   0  0  0  0  0  0  0  0  0  0  0  0
  146.5608  133.4190  150.8226 C   0  0  0  0  0  0  0  0  0  0  0  0
  147.0250  132.3184  151.5786 O   0  0  0  0  0  0  0  0  0  0  0  0
  144.6607  132.0216  149.9662 C   0  0  0  0  0  0  0  0  0  0  0  0
  143.2976  131.9929  149.5934 O   0  0  0  0  0  0  0  0  0  0  0  0
  144.4057  134.6157  149.9749 C   0  0  0  0  0  0  0  0  0  0  0  0
  148.6963  138.0819  155.0038 H   0  0  0  0  0  0  0  0  0  0  0  0
  150.1166  139.6929  154.8519 H   0  0  0  0  0  0  0  0  0  0  0  0
  149.0354  138.3510  157.4736 H   0  0  0  0  0  0  0  0  0  0  0  0
  147.5353  137.5548  157.0454 H   0  0  0  0  0  0  0  0  0  0  0  0
  147.5079  139.2267  157.5707 H   0  0  0  0  0  0  0  0  0  0  0  0
  148.1514  142.5354  156.7059 H   0  0  0  0  0  0  0  0  0  0  0  0
  148.6733  141.7534  158.1952 H   0  0  0  0  0  0  0  0  0  0  0  0
  147.5353  140.9445  157.1351 H   0  0  0  0  0  0  0  0  0  0  0  0
  151.5193  141.3851  155.7162 H   0  0  0  0  0  0  0  0  0  0  0  0
  150.3407  142.6401  155.4297 H   0  0  0  0  0  0  0  0  0  0  0  0
  151.0683  141.9666  158.2942 H   0  0  0  0  0  0  0  0  0  0  0  0
  152.2345  142.8805  157.3676 H   0  0  0  0  0  0  0  0  0  0  0  0
  149.8988  143.9734  156.8950 H   0  0  0  0  0  0  0  0  0  0  0  0
  148.0684  141.8502  154.4232 H   0  0  0  0  0  0  0  0  0  0  0  0
  149.2271  141.1745  153.2950 H   0  0  0  0  0  0  0  0  0  0  0  0
  146.5883  140.5212  153.1746 H   0  0  0  0  0  0  0  0  0  0  0  0
  147.8251  139.2999  152.8541 H   0  0  0  0  0  0  0  0  0  0  0  0
  144.1700  136.2790  156.3761 H   0  0  0  0  0  0  0  0  0  0  0  0
  145.9095  137.0926  150.2273 H   0  0  0  0  0  0  0  0  0  0  0  0
  143.0867  135.5718  151.4270 H   0  0  0  0  0  0  0  0  0  0  0  0
  144.7169  133.6062  152.8100 H   0  0  0  0  0  0  0  0  0  0  0  0
  143.2208  133.2555  151.8833 H   0  0  0  0  0  0  0  0  0  0  0  0
  147.0854  133.4097  149.8675 H   0  0  0  0  0  0  0  0  0  0  0  0
  146.8642  134.3399  151.3210 H   0  0  0  0  0  0  0  0  0  0  0  0
  147.5803  131.7889  151.0270 H   0  0  0  0  0  0  0  0  0  0  0  0
  145.2537  131.8530  149.0668 H   0  0  0  0  0  0  0  0  0  0  0  0
  144.8654  131.1799  150.6281 H   0  0  0  0  0  0  0  0  0  0  0  0
  142.9019  132.8151  149.8392 H   0  0  0  0  0  0  0  0  0  0  0  0
  143.4910  134.3933  149.4223 H   0  0  0  0  0  0  0  0  0  0  0  0
  145.0890  135.1944  149.3547 H   0  0  0  0  0  0  0  0  0  0  0  0
  149.9605  140.2796  157.0851 H   0  0  0  0  0  0  0  0  0  0  0  0
  1  2  1  0  0  0  0
  1 31  1  0  0  0  0
  1 32  1  0  0  0  0
  1 33  1  0  0  0  0
  2 29  1  0  0  0  0
  2 11  1  0  0  0  0
  2  3  1  0  0  0  0
  3 30  1  0  0  0  0
  3  4  1  0  0  0  0
  3  9  1  0  0  0  0
  4  5  1  0  0  0  0
  4  6  1  0  0  0  0
  4 59  1  0  0  0  0
  5 34  1  0  0  0  0
  5 35  1  0  0  0  0
  5 36  1  0  0  0  0
  6  7  1  0  0  0  0
  6 37  1  0  0  0  0
  6 38  1  0  0  0  0
  7  8  1  0  0  0  0
  7 39  1  0  0  0  0
  7 40  1  0  0  0  0
  8 41  1  0  0  0  0
  9 10  1  0  0  0  0
  9 42  1  0  0  0  0
  9 43  1  0  0  0  0
 10 11  1  0  0  0  0
 10 44  1  0  0  0  0
 10 45  1  0  0  0  0
 11 12  1  0  0  0  0
 12 17  1  0  0  0  0
 12 13  2  0  0  0  0
 13 14  1  0  0  0  0
 14 15  2  0  0  0  0
 14 46  1  0  0  0  0
 15 16  1  0  0  0  0
 16 20  1  0  0  0  0
 16 17  2  0  0  0  0
 17 18  1  0  0  0  0
 18 19  2  0  0  0  0
 19 20  1  0  0  0  0
 19 47  1  0  0  0  0
 20 21  1  0  0  0  0
 21 28  1  0  0  0  0
 21 22  1  0  0  0  0
 21 48  1  0  0  0  0
 22 23  1  0  0  0  0
 22 49  1  0  0  0  0
 22 50  1  0  0  0  0
 23 24  1  0  0  0  0
 23 26  1  0  0  0  0
 23 28  1  0  0  0  0
 24 25  1  0  0  0  0
 24 51  1  0  0  0  0
 24 52  1  0  0  0  0
 25 53  1  0  0  0  0
 26 27  1  0  0  0  0
 26 54  1  0  0  0  0
 26 55  1  0  0  0  0
 27 56  1  0  0  0  0
 28 57  1  0  0  0  0
 28 58  1  0  0  0  0
M  CHG  1   4   1
M  END
> <s_m_source_file>
AV-unprocessed.smi

> <i_m_source_file_index>
215

> <i_lp_mmshare_version>
43012

> <i_f3d_flags>
0

> <s_epik_input>
W09IXVtDSDJdW0NIMl1OKFtDSDNdKVtDQEBIXShbQ0BIXTFbQ0gzXSlbQ0gyXVtDSDJdTjFjKG5bY0hdbjIpYyhjMjMpbltjSF1uM1tDSF0oW0NIMl00KVtDSDJdQzQoW0NIMl1bT0hdKVtDSDJdW09IXQ==

> <s_epik_cmdline>
J2VwaWtfcHl0aG9uJywgJy1waCcsICc3LjAnLCAnLXRuJywgJzgnLCAnLW1hJywgJzIwMCcsICctbWV0YWxfYmluZGluZycsICctaW1hZScsICc8aW5maWxlLm1hZT4nLCAnLW9tYWUnLCAnPG91dGZpbGUubWFlPic=

> <r_lp_tautomer_probability>
1

> <r_epik_Ionization_Penalty>
0.0036237

> <r_epik_Ionization_Penalty_Charging>
0.0032725

> <r_epik_Ionization_Penalty_Neutral>
0.000351196

> <r_epik_State_Penalty>
-0

> <r_epik_Charging_Adjusted_Penalty>
0.0032725

> <i_epik_Tot_Q>
1

> <i_epik_Tot_abs_Q>
1

> <r_epik_Metal_State_Penalty>
-0

> <b_epik_Metal_Only>
0

> <s_lp_Force_Field>
OPLS_2005

> <r_lp_Energy>
76.3744

> <b_lp_Chiralities_Consistent>
1

> <s_lp_Variant>
AV-unprocessed.smi:215-1

> <Gold.Version>
5.8.1

> <Gold.Id.Protein>
6NUR|6NUR_protein|mol2

> <Gold.PLP.Fitness>
46.5822

> <Gold.PLP.PLP>
-37.8959

> <Gold.PLP.part.hbond>
-4.0534

> <Gold.PLP.part.metal>
0.0000

> <Gold.PLP.part.buried>
-4.8360

> <Gold.PLP.part.nonpolar>
-30.7050

> <Gold.PLP.part.repulsive>
0.7245

> <Gold.PLP.ligand.clash>
0.0000

> <Gold.PLP.ligand.torsion>
0.9915

> <Gold.PLP.Chemscore.Hbond>
2.9913

> <Gold.PLP.Chemscore.CHOScore>
0.3022

> <Gold.PLP.Chemscore.Metal>
0.0000

> <Gold.Chemscore.Hbonds>
donor molecule, donor type, donor heavy atom, donor atom, acceptor molecule, acceptor atom, score
      L1  H     8    41       P1  8028  1.00
      L1  H    25    53       P1 10747  1.00
      P1  H 10785 10796       L1    27  0.98
      L1  C    19    47       P1 10171  0.27

> <Gold.PLP.Chemscore.Internal.Correction>
0.7891

> <Gold.Rescore>
     Score         DG    S(hbond)    S(metal)    S(lipo)     H(rot)  DE(clash)    DE(int)     intcor
      6.68     -11.63       2.45        0.00      87.75       4.81       1.37       3.57       ----

> <Gold.Chemscore.Fitness>
6.6844

> <Gold.Chemscore.DG>
-11.6264

> <Gold.Chemscore.ZeroCoef>
-5.4800

> <Gold.Chemscore.Hbond>
2.4529

> <Gold.Chemscore.Metal>
0.0000

> <Gold.Chemscore.Lipo>
87.7497

> <Gold.Chemscore.Internal_Hbond>
0.0000

> <Gold.Chemscore.DEClash>
1.3727

> <Gold.Chemscore.DEInternal>
3.5694

> <Gold.Chemscore.Rot>
4.8098

> <Gold.Chemscore.Internal.Correction>
   9.000000E+99

> <Gold.Chemscore.Hbonds>
donor molecule, donor type, donor heavy atom, donor atom, acceptor molecule, acceptor atom, score
      L1  H     8    41       P1  8028  0.96
      L1  H    25    53       P1 10747  1.00
      L1  H    27    56       P1 10186  0.02
      P1  H 10785 10796       L1    27  0.23

> <Gold.Chemscore.Hbond.Weighted>
-8.1928

> <Gold.Chemscore.Metal.Weighted>
-0.0000

> <Gold.Chemscore.Lipo.Weighted>
-10.2667

> <Gold.Chemscore.Internal_Hbond.Weighted>
0.0000

> <Gold.Chemscore.DEClash.Weighted>
1.3727

> <Gold.Chemscore.DEInternal.Weighted>
3.5694

> <Gold.Chemscore.Rot.Weighted>
12.3130

> <Gold.Chemscore.Internal.Correction.Weighted>
   9.000000E+99

> <Gold.Protein.RotatedTorsions>
[ 6907 6896 6895 6894 ] final  168.54 input  -60.11 | X-H torsion
[ 7974 7965 7964 7962 ] final  -49.04 input  175.53 | X-H torsion
[ 8008 7997 7996 7995 ] final  155.23 input   59.86 | X-H torsion
[ 10167 10162 10161 10158 ] final -112.67 input  -65.29 | X-H torsion
[ 10718 10713 10712 10709 ] final   21.16 input   66.30 | X-H torsion
[ 10763 10752 10751 10750 ] final  166.79 input  -60.55 | X-H torsion
[ 11005 11000 10999 10996 ] final   67.94 input  -57.11 | X-H torsion

> <Gold.Protein.ActiveResidues>
 VAL166  LYS551  ARG553  GLY616  TRP617  ASP618  TYR619  PRO620  LYS621  CYS622 
 ASP623  PHE694  ASN695  SER759  ASP760  ASP761  ALA762  ILE779  LEU786  VAL792 
 PHE793  MET794  SER795  GLU796  ALA797  LYS798  CYS799  TRP800  GLU811  SER814 

> <Gold.Protein.RotatedAtoms>
  151.8460  133.3431  159.3657 H   0  0  0  0  0  0  0  0  0  0  0  0  # atno 6907 bound_to 6896
  150.7220  134.5345  159.5726 H   0  0  0  0  0  0  0  0  0  0  0  0  # atno 6908 bound_to 6896
  152.2829  134.7809  160.0444 H   0  0  0  0  0  0  0  0  0  0  0  0  # atno 6909 bound_to 6896
  145.9448  140.7629  142.9534 H   0  0  0  0  0  0  0  0  0  0  0  0  # atno 7974 bound_to 7965
  156.2489  140.1945  156.6769 H   0  0  0  0  0  0  0  0  0  0  0  0  # atno 8008 bound_to 7997
  154.6350  140.0591  156.9804 H   0  0  0  0  0  0  0  0  0  0  0  0  # atno 8009 bound_to 7997
  155.1650  140.3263  155.4406 H   0  0  0  0  0  0  0  0  0  0  0  0  # atno 8010 bound_to 7997
  140.1202  143.4450  152.1696 H   0  0  0  0  0  0  0  0  0  0  0  0  # atno 10167 bound_to 10162
  157.1345  130.6605  149.5962 H   0  0  0  0  0  0  0  0  0  0  0  0  # atno 10718 bound_to 10713
  154.3442  135.2753  155.2406 H   0  0  0  0  0  0  0  0  0  0  0  0  # atno 10763 bound_to 10752
  154.4664  135.5894  153.6294 H   0  0  0  0  0  0  0  0  0  0  0  0  # atno 10764 bound_to 10752
  152.9855  135.6077  154.3646 H   0  0  0  0  0  0  0  0  0  0  0  0  # atno 10765 bound_to 10752
  139.9741  134.6852  156.0389 H   0  0  0  0  0  0  0  0  0  0  0  0  # atno 11005 bound_to 11000
  144.6785  140.2338  143.7352 LP  0  0  0  0  0  0  0  0  0  0  0  0  # atno 17320 bound_to 7965
  145.8252  139.2061  143.1915 LP  0  0  0  0  0  0  0  0  0  0  0  0  # atno 17321 bound_to 7965
  139.5572  144.7381  151.4258 LP  0  0  0  0  0  0  0  0  0  0  0  0  # atno 17342 bound_to 10162
  140.6876  143.7937  150.7208 LP  0  0  0  0  0  0  0  0  0  0  0  0  # atno 17343 bound_to 10162
  155.9801  130.4799  150.6753 LP  0  0  0  0  0  0  0  0  0  0  0  0  # atno 17370 bound_to 10713
  157.4362  131.0855  151.0989 LP  0  0  0  0  0  0  0  0  0  0  0  0  # atno 17371 bound_to 10713
  141.1419  133.6563  156.3754 LP  0  0  0  0  0  0  0  0  0  0  0  0  # atno 17394 bound_to 11000
  140.5232  134.6284  157.5325 LP  0  0  0  0  0  0  0  0  0  0  0  0  # atno 17395 bound_to 11000

$$$$
