AV-unprocessed.smi:3116|AV-procd|sdf|11873|dock8
  -GOLD-   2272017253D 1   1.00000     0.00000
 Structure written by MMmdl.
 33 33  0  0  0  0  0  0  0  0  1 V2000
  147.2835  142.3564  156.9551 C   0  0  0  0  0  0  0  0  0  0  0  0
  148.0004  142.5742  158.3036 C   0  0  1  0  0  0  0  0  0  0  0  0
  149.1832  143.4346  158.1450 N   0  0  0  0  0  0  0  0  0  0  0  0
  150.4458  142.7721  158.4703 C   0  0  1  0  0  0  0  0  0  0  0  0
  151.0201  142.2381  157.1466 C   0  0  0  0  0  0  0  0  0  0  0  0
  151.3855  143.7848  159.1806 C   0  0  2  0  0  0  0  0  0  0  0  0
  152.2406  144.6066  158.1970 C   0  0  0  0  0  0  0  0  0  0  0  0
  152.2465  143.1261  160.1582 N   0  0  0  0  0  0  0  0  0  0  0  0
  152.2863  143.3199  161.5237 C   0  0  0  0  0  0  0  0  0  0  0  0
  153.2292  142.4725  162.0307 C   0  0  0  0  0  0  0  0  0  0  0  0
  153.7207  141.7895  160.8839 C   0  0  0  0  0  0  0  0  0  0  0  0
  153.1309  142.1803  159.7665 N   0  0  0  0  0  0  0  0  0  0  0  0
  147.0651  143.1723  159.3631 C   0  0  0  0  0  0  0  0  0  0  0  0
  146.5568  144.3787  159.0985 N   0  0  0  0  0  0  0  0  0  0  0  0
  146.7898  142.5623  160.3953 O   0  0  0  0  0  0  0  0  0  0  0  0
  146.3817  141.7553  157.0793 H   0  0  0  0  0  0  0  0  0  0  0  0
  147.9204  141.8304  156.2440 H   0  0  0  0  0  0  0  0  0  0  0  0
  146.9926  143.3027  156.4971 H   0  0  0  0  0  0  0  0  0  0  0  0
  148.3134  141.6025  158.6898 H   0  0  0  0  0  0  0  0  0  0  0  0
  149.2310  143.8341  157.2188 H   0  0  0  0  0  0  0  0  0  0  0  0
  150.2820  141.9206  159.1330 H   0  0  0  0  0  0  0  0  0  0  0  0
  151.9181  141.6433  157.3117 H   0  0  0  0  0  0  0  0  0  0  0  0
  151.2775  143.0502  156.4655 H   0  0  0  0  0  0  0  0  0  0  0  0
  150.3035  141.5922  156.6379 H   0  0  0  0  0  0  0  0  0  0  0  0
  150.7652  144.4918  159.7343 H   0  0  0  0  0  0  0  0  0  0  0  0
  151.6247  145.2525  157.5722 H   0  0  0  0  0  0  0  0  0  0  0  0
  152.8239  143.9629  157.5382 H   0  0  0  0  0  0  0  0  0  0  0  0
  152.9376  145.2527  158.7318 H   0  0  0  0  0  0  0  0  0  0  0  0
  151.6433  144.0343  162.0165 H   0  0  0  0  0  0  0  0  0  0  0  0
  153.5222  142.3574  163.0636 H   0  0  0  0  0  0  0  0  0  0  0  0
  154.4823  141.0256  160.8308 H   0  0  0  0  0  0  0  0  0  0  0  0
  145.9391  144.8184  159.7657 H   0  0  0  0  0  0  0  0  0  0  0  0
  146.7958  144.8464  158.2363 H   0  0  0  0  0  0  0  0  0  0  0  0
  1  2  1  0  0  0  0
  1 16  1  0  0  0  0
  1 17  1  0  0  0  0
  1 18  1  0  0  0  0
  2  3  1  0  0  0  0
  2 13  1  0  0  0  0
  2 19  1  0  0  0  0
  3  4  1  0  0  0  0
  3 20  1  0  0  0  0
  4  5  1  0  0  0  0
  4  6  1  0  0  0  0
  4 21  1  0  0  0  0
  5 22  1  0  0  0  0
  5 23  1  0  0  0  0
  5 24  1  0  0  0  0
  6  7  1  0  0  0  0
  6  8  1  0  0  0  0
  6 25  1  0  0  0  0
  7 26  1  0  0  0  0
  7 27  1  0  0  0  0
  7 28  1  0  0  0  0
  8 12  1  0  0  0  0
  8  9  1  0  0  0  0
  9 10  2  0  0  0  0
  9 29  1  0  0  0  0
 10 11  1  0  0  0  0
 10 30  1  0  0  0  0
 11 12  2  0  0  0  0
 11 31  1  0  0  0  0
 13 14  1  0  0  0  0
 13 15  2  0  0  0  0
 14 32  1  0  0  0  0
 14 33  1  0  0  0  0
M  END
> <s_m_source_file>
AV-unprocessed.smi

> <i_m_source_file_index>
3116

> <i_lp_mmshare_version>
43012

> <i_f3d_flags>
0

> <s_epik_input>
W05IMl1DKD1PKVtDQEhdKFtDSDNdKVtOSF1bQ0BIXShbQ0gzXSlbQ0BIXShbQ0gzXSluMVtjSF1bY0hdW2NIXW4x

> <s_epik_cmdline>
J2VwaWtfcHl0aG9uJywgJy1waCcsICc3LjAnLCAnLXRuJywgJzgnLCAnLW1hJywgJzIwMCcsICctbWV0YWxfYmluZGluZycsICctaW1hZScsICc8aW5maWxlLm1hZT4nLCAnLW9tYWUnLCAnPG91dGZpbGUubWFlPic=

> <r_lp_tautomer_probability>
1

> <r_epik_Ionization_Penalty>
0.865977

> <r_epik_Ionization_Penalty_Charging>
0

> <r_epik_Ionization_Penalty_Neutral>
0.865977

> <r_epik_State_Penalty>
0.901888

> <r_epik_Charging_Adjusted_Penalty>
0.901888

> <i_epik_Tot_Q>
0

> <i_epik_Tot_abs_Q>
0

> <r_epik_Metal_State_Penalty>
0.901181

> <b_epik_Metal_Only>
0

> <s_lp_Force_Field>
OPLS_2005

> <r_lp_Energy>
8.51746

> <b_lp_Chiralities_Consistent>
1

> <s_lp_Variant>
AV-unprocessed.smi:3116-12

> <Gold.Version>
5.8.1

> <Gold.Id.Protein>
6NUR|6NUR_protein|mol2

> <Gold.PLP.Fitness>
45.4614

> <Gold.PLP.PLP>
-37.8983

> <Gold.PLP.part.hbond>
-5.0000

> <Gold.PLP.part.metal>
0.0000

> <Gold.PLP.part.buried>
-4.0535

> <Gold.PLP.part.nonpolar>
-28.6911

> <Gold.PLP.part.repulsive>
0.0425

> <Gold.PLP.ligand.clash>
0.0000

> <Gold.PLP.ligand.torsion>
2.0535

> <Gold.PLP.Chemscore.Hbond>
3.8560

> <Gold.PLP.Chemscore.CHOScore>
0.0000

> <Gold.PLP.Chemscore.Metal>
0.0000

> <Gold.Chemscore.Hbonds>
donor molecule, donor type, donor heavy atom, donor atom, acceptor molecule, acceptor atom, score
      L1  H     3    20       P1  8028  1.00
      L1  H    14    33       P1  8029  1.00
      P1  H  6933  6944       L1    15  0.74
      P1  H  6934  6946       L1    15  0.96

> <Gold.PLP.Chemscore.Internal.Correction>
0.1021

> <Gold.Rescore>
     Score         DG    S(hbond)    S(metal)    S(lipo)     H(rot)  DE(clash)    DE(int)     intcor
     16.69     -18.49       2.96        0.00      78.90       2.38       0.02       1.78       ----

> <Gold.Chemscore.Fitness>
16.6854

> <Gold.Chemscore.DG>
-18.4884

> <Gold.Chemscore.ZeroCoef>
-5.4800

> <Gold.Chemscore.Hbond>
2.9580

> <Gold.Chemscore.Metal>
0.0000

> <Gold.Chemscore.Lipo>
78.8954

> <Gold.Chemscore.Internal_Hbond>
0.0000

> <Gold.Chemscore.DEClash>
0.0222

> <Gold.Chemscore.DEInternal>
1.7808

> <Gold.Chemscore.Rot>
2.3836

> <Gold.Chemscore.Internal.Correction>
   9.000000E+99

> <Gold.Chemscore.Hbonds>
donor molecule, donor type, donor heavy atom, donor atom, acceptor molecule, acceptor atom, score
      L1  H     3    20       P1  8028  0.40
      L1  H    14    33       P1  8029  0.89
      P1  H  6933  6944       L1    15  0.46
      P1  H  6934  6946       L1    15  0.92

> <Gold.Chemscore.Hbond.Weighted>
-9.8796

> <Gold.Chemscore.Metal.Weighted>
-0.0000

> <Gold.Chemscore.Lipo.Weighted>
-9.2308

> <Gold.Chemscore.Internal_Hbond.Weighted>
0.0000

> <Gold.Chemscore.DEClash.Weighted>
0.0222

> <Gold.Chemscore.DEInternal.Weighted>
1.7808

> <Gold.Chemscore.Rot.Weighted>
6.1020

> <Gold.Chemscore.Internal.Correction.Weighted>
   9.000000E+99

> <Gold.Protein.RotatedTorsions>
[ 6907 6896 6895 6894 ] final  111.34 input  -60.11 | X-H torsion
[ 7974 7965 7964 7962 ] final  128.87 input  175.53 | X-H torsion
[ 8008 7997 7996 7995 ] final -156.54 input   59.86 | X-H torsion
[ 10167 10162 10161 10158 ] final  -86.11 input  -65.29 | X-H torsion
[ 10718 10713 10712 10709 ] final   72.09 input   66.30 | X-H torsion
[ 10763 10752 10751 10750 ] final -179.49 input  -60.55 | X-H torsion
[ 11005 11000 10999 10996 ] final    4.96 input  -57.11 | X-H torsion

> <Gold.Protein.ActiveResidues>
 VAL166  LYS551  ARG553  GLY616  TRP617  ASP618  TYR619  PRO620  LYS621  CYS622 
 ASP623  PHE694  ASN695  SER759  ASP760  ASP761  ALA762  ILE779  LEU786  VAL792 
 PHE793  MET794  SER795  GLU796  ALA797  LYS798  CYS799  TRP800  GLU811  SER814 

> <Gold.Protein.RotatedAtoms>
  152.4974  133.8671  159.7279 H   0  0  0  0  0  0  0  0  0  0  0  0  # atno 6907 bound_to 6896
  150.9167  133.6921  159.2848 H   0  0  0  0  0  0  0  0  0  0  0  0  # atno 6908 bound_to 6896
  151.4312  135.1014  159.9695 H   0  0  0  0  0  0  0  0  0  0  0  0  # atno 6909 bound_to 6896
  145.0348  139.4014  143.5132 H   0  0  0  0  0  0  0  0  0  0  0  0  # atno 7974 bound_to 7965
  155.7187  140.0787  157.2340 H   0  0  0  0  0  0  0  0  0  0  0  0  # atno 8008 bound_to 7997
  154.4048  140.1616  156.2432 H   0  0  0  0  0  0  0  0  0  0  0  0  # atno 8009 bound_to 7997
  155.9216  140.3397  155.6180 H   0  0  0  0  0  0  0  0  0  0  0  0  # atno 8010 bound_to 7997
  140.3973  143.2678  151.9188 H   0  0  0  0  0  0  0  0  0  0  0  0  # atno 10167 bound_to 10162
  157.6484  130.9561  150.0880 H   0  0  0  0  0  0  0  0  0  0  0  0  # atno 10718 bound_to 10713
  154.5343  135.2802  155.1152 H   0  0  0  0  0  0  0  0  0  0  0  0  # atno 10763 bound_to 10752
  154.2659  135.6313  153.5296 H   0  0  0  0  0  0  0  0  0  0  0  0  # atno 10764 bound_to 10752
  152.9964  135.5617  154.5866 H   0  0  0  0  0  0  0  0  0  0  0  0  # atno 10765 bound_to 10752
  140.5760  134.0057  155.8028 H   0  0  0  0  0  0  0  0  0  0  0  0  # atno 11005 bound_to 11000
  146.3503  139.9917  142.8685 LP  0  0  0  0  0  0  0  0  0  0  0  0  # atno 17320 bound_to 7965
  145.1724  140.9727  143.4314 LP  0  0  0  0  0  0  0  0  0  0  0  0  # atno 17321 bound_to 7965
  139.4786  144.5669  151.8151 LP  0  0  0  0  0  0  0  0  0  0  0  0  # atno 17342 bound_to 10162
  140.4777  144.1495  150.5927 LP  0  0  0  0  0  0  0  0  0  0  0  0  # atno 17343 bound_to 10162
  156.1837  130.3651  149.9001 LP  0  0  0  0  0  0  0  0  0  0  0  0  # atno 17370 bound_to 10713
  156.6947  130.8909  151.3592 LP  0  0  0  0  0  0  0  0  0  0  0  0  # atno 17371 bound_to 10713
  141.1026  133.9744  157.3052 LP  0  0  0  0  0  0  0  0  0  0  0  0  # atno 17394 bound_to 11000
  139.9339  135.0198  156.8492 LP  0  0  0  0  0  0  0  0  0  0  0  0  # atno 17395 bound_to 11000

$$$$
