AV-unprocessed.smi:1809|AV-procd|sdf|7328|dock1
  -GOLD-   22720 8583D 1   1.00000     0.00000
 Structure written by MMmdl.
 39 41  0  0  0  0  0  0  0  0  3 V2000
  148.2184  140.8629  154.4288 C   0  0  0  0  0  0  0  0  0  0  0  0
  149.2436  139.7828  154.4857 C   0  0  0  0  0  0  0  0  0  0  0  0
  150.5536  140.0254  154.3977 N   0  0  0  0  0  0  0  0  0  0  0  0
  151.3072  138.8631  154.4788 N   0  0  0  0  0  0  0  0  0  0  0  0
  150.5595  137.7619  154.6388 C   0  0  0  0  0  0  0  0  0  0  0  0
  151.0960  136.5343  154.7403 N   0  5  0  0  0  0  0  0  0  0  0  0
  150.3566  135.5139  155.2304 C   0  0  0  0  0  0  0  0  0  0  0  0
  150.4981  134.9665  156.3263 O   0  0  0  0  0  0  0  0  0  0  0  0
  149.3902  135.1018  154.4007 N   0  0  0  0  0  0  0  0  0  0  0  0
  148.4507  134.0248  154.6814 C   0  0  0  0  0  0  0  0  0  0  0  0
  148.0457  133.3055  153.3880 C   0  0  1  0  0  0  0  0  0  0  0  0
  147.3852  131.9369  153.6775 C   0  0  0  0  0  0  0  0  0  0  0  0
  146.9151  131.3696  152.4008 N   0  3  1  0  0  0  0  0  0  0  0  0
  146.2628  130.0489  152.4199 C   0  0  0  0  0  0  0  0  0  0  0  0
  145.3737  130.0289  151.1598 C   0  0  0  0  0  0  0  0  0  0  0  0
  145.4717  131.4422  150.5567 C   0  0  0  0  0  0  0  0  0  0  0  0
  145.9832  132.2763  151.7265 C   0  0  2  0  0  0  0  0  0  0  0  0
  146.7033  133.5956  151.4213 C   0  0  0  0  0  0  0  0  0  0  0  0
  147.1346  134.1448  152.6674 O   0  0  0  0  0  0  0  0  0  0  0  0
  148.8270  138.0883  154.6785 S   0  0  0  0  0  0  0  0  0  0  0  0
  148.2116  141.4197  155.3658 H   0  0  0  0  0  0  0  0  0  0  0  0
  147.2280  140.4371  154.2668 H   0  0  0  0  0  0  0  0  0  0  0  0
  148.4400  141.5501  153.6120 H   0  0  0  0  0  0  0  0  0  0  0  0
  149.3018  135.5756  153.5138 H   0  0  0  0  0  0  0  0  0  0  0  0
  148.9219  133.3207  155.3688 H   0  0  0  0  0  0  0  0  0  0  0  0
  147.5671  134.4235  155.1827 H   0  0  0  0  0  0  0  0  0  0  0  0
  148.9360  133.1488  152.7759 H   0  0  0  0  0  0  0  0  0  0  0  0
  148.0994  131.2557  154.1415 H   0  0  0  0  0  0  0  0  0  0  0  0
  146.5462  132.0504  154.3660 H   0  0  0  0  0  0  0  0  0  0  0  0
  147.0035  129.2488  152.4226 H   0  0  0  0  0  0  0  0  0  0  0  0
  145.6479  129.9475  153.3156 H   0  0  0  0  0  0  0  0  0  0  0  0
  145.7019  129.2746  150.4437 H   0  0  0  0  0  0  0  0  0  0  0  0
  144.3438  129.7959  151.4331 H   0  0  0  0  0  0  0  0  0  0  0  0
  146.1982  131.4487  149.7429 H   0  0  0  0  0  0  0  0  0  0  0  0
  144.5208  131.8030  150.1635 H   0  0  0  0  0  0  0  0  0  0  0  0
  145.1439  132.4776  152.3963 H   0  0  0  0  0  0  0  0  0  0  0  0
  147.5550  133.4449  150.7561 H   0  0  0  0  0  0  0  0  0  0  0  0
  146.0273  134.2982  150.9337 H   0  0  0  0  0  0  0  0  0  0  0  0
  147.7188  131.2841  151.7950 H   0  0  0  0  0  0  0  0  0  0  0  0
  1  2  1  0  0  0  0
  1 21  1  0  0  0  0
  1 22  1  0  0  0  0
  1 23  1  0  0  0  0
  2 20  1  0  0  0  0
  2  3  2  0  0  0  0
  3  4  1  0  0  0  0
  4  5  2  0  0  0  0
  5  6  1  0  0  0  0
  5 20  1  0  0  0  0
  6  7  1  0  0  0  0
  7  8  2  0  0  0  0
  7  9  1  0  0  0  0
  9 10  1  0  0  0  0
  9 24  1  0  0  0  0
 10 11  1  0  0  0  0
 10 25  1  0  0  0  0
 10 26  1  0  0  0  0
 11 19  1  0  0  0  0
 11 12  1  0  0  0  0
 11 27  1  0  0  0  0
 12 13  1  0  0  0  0
 12 28  1  0  0  0  0
 12 29  1  0  0  0  0
 13 17  1  0  0  0  0
 13 14  1  0  0  0  0
 13 39  1  0  0  0  0
 14 15  1  0  0  0  0
 14 30  1  0  0  0  0
 14 31  1  0  0  0  0
 15 16  1  0  0  0  0
 15 32  1  0  0  0  0
 15 33  1  0  0  0  0
 16 17  1  0  0  0  0
 16 34  1  0  0  0  0
 16 35  1  0  0  0  0
 17 18  1  0  0  0  0
 17 36  1  0  0  0  0
 18 19  1  0  0  0  0
 18 37  1  0  0  0  0
 18 38  1  0  0  0  0
M  CHG  1   6  -1
M  CHG  1  13   1
M  END
> <s_m_source_file>
AV-unprocessed.smi

> <i_m_source_file_index>
1809

> <i_lp_mmshare_version>
43012

> <i_f3d_flags>
0

> <s_epik_input>
W0NIM11jMW5uYyhzMSlbTkhdQyg9TylbTkhdW0NIMl1bQ0BIXShbQ0gyXTIpT1tDSDJdW0NAQEhdKE4yMylbQ0gyXVtDSDJdW0NIMl0z

> <s_epik_cmdline>
J2VwaWtfcHl0aG9uJywgJy1waCcsICc3LjAnLCAnLXRuJywgJzgnLCAnLW1hJywgJzIwMCcsICctbWV0YWxfYmluZGluZycsICctaW1hZScsICc8aW5maWxlLm1hZT4nLCAnLW9tYWUnLCAnPG91dGZpbGUubWFlPic=

> <r_lp_tautomer_probability>
1

> <r_epik_Ionization_Penalty>
3.2601

> <r_epik_Ionization_Penalty_Charging>
3.1406

> <r_epik_Ionization_Penalty_Neutral>
0.119497

> <r_epik_State_Penalty>
3.08894

> <r_epik_Charging_Adjusted_Penalty>
6.22954

> <i_epik_Tot_Q>
0

> <i_epik_Tot_abs_Q>
2

> <r_epik_Metal_State_Penalty>
0.510807

> <b_epik_Metal_Only>
1

> <s_lp_Force_Field>
OPLS_2005

> <r_lp_Energy>
29.8237

> <b_lp_Chiralities_Consistent>
1

> <s_lp_Variant>
AV-unprocessed.smi:1809-20

> <Gold.Version>
5.8.1

> <Gold.Id.Protein>
6NUR|6NUR_protein|mol2

> <Gold.PLP.Fitness>
45.1389

> <Gold.PLP.PLP>
-32.3824

> <Gold.PLP.part.hbond>
-4.1942

> <Gold.PLP.part.metal>
0.0000

> <Gold.PLP.part.buried>
-6.9906

> <Gold.PLP.part.nonpolar>
-24.3200

> <Gold.PLP.part.repulsive>
2.7667

> <Gold.PLP.ligand.clash>
0.0000

> <Gold.PLP.ligand.torsion>
1.0399

> <Gold.PLP.Chemscore.Hbond>
4.9000

> <Gold.PLP.Chemscore.CHOScore>
0.0000

> <Gold.PLP.Chemscore.Metal>
0.0000

> <Gold.Chemscore.Hbonds>
donor molecule, donor type, donor heavy atom, donor atom, acceptor molecule, acceptor atom, score
      L1  H     9    24       P1  7948  1.00
      L1  H    13    39       P1 10747  1.00
      P1  H  7989  7998       L1     3  0.80
      P1  H 10752 10764       L1     6  1.85

> <Gold.PLP.Chemscore.Internal.Correction>
0.1364

> <Gold.Rescore>
     Score         DG    S(hbond)    S(metal)    S(lipo)     H(rot)  DE(clash)    DE(int)     intcor
     16.70     -21.25       2.95        0.00      79.67       1.32       3.56       0.98       ----

> <Gold.Chemscore.Fitness>
16.7005

> <Gold.Chemscore.DG>
-21.2472

> <Gold.Chemscore.ZeroCoef>
-5.4800

> <Gold.Chemscore.Hbond>
2.9452

> <Gold.Chemscore.Metal>
0.0000

> <Gold.Chemscore.Lipo>
79.6699

> <Gold.Chemscore.Internal_Hbond>
0.0000

> <Gold.Chemscore.DEClash>
3.5636

> <Gold.Chemscore.DEInternal>
0.9831

> <Gold.Chemscore.Rot>
1.3246

> <Gold.Chemscore.Internal.Correction>
   9.000000E+99

> <Gold.Chemscore.Hbonds>
donor molecule, donor type, donor heavy atom, donor atom, acceptor molecule, acceptor atom, score
      L1  H     9    24       P1  7948  0.40
      L1  H    13    39       P1 10747  0.94
      P1  H  7989  7998       L1     3  0.12
      P1  H 10752 10764       L1     6  0.31

> <Gold.Chemscore.Hbond.Weighted>
-9.8368

> <Gold.Chemscore.Metal.Weighted>
-0.0000

> <Gold.Chemscore.Lipo.Weighted>
-9.3214

> <Gold.Chemscore.Internal_Hbond.Weighted>
0.0000

> <Gold.Chemscore.DEClash.Weighted>
3.5636

> <Gold.Chemscore.DEInternal.Weighted>
0.9831

> <Gold.Chemscore.Rot.Weighted>
3.3910

> <Gold.Chemscore.Internal.Correction.Weighted>
   9.000000E+99

> <Gold.Protein.RotatedTorsions>
[ 6907 6896 6895 6894 ] final -143.93 input  -60.11 | X-H torsion
[ 7974 7965 7964 7962 ] final   53.37 input  175.53 | X-H torsion
[ 8008 7997 7996 7995 ] final -178.06 input   59.86 | X-H torsion
[ 10167 10162 10161 10158 ] final  -48.33 input  -65.29 | X-H torsion
[ 10718 10713 10712 10709 ] final   -0.76 input   66.30 | X-H torsion
[ 10763 10752 10751 10750 ] final  -69.14 input  -60.55 | X-H torsion
[ 11005 11000 10999 10996 ] final   12.79 input  -57.11 | X-H torsion

> <Gold.Protein.ActiveResidues>
 VAL166  LYS551  ARG553  GLY616  TRP617  ASP618  TYR619  PRO620  LYS621  CYS622 
 ASP623  PHE694  ASN695  SER759  ASP760  ASP761  ALA762  ILE779  LEU786  VAL792 
 PHE793  MET794  SER795  GLU796  ALA797  LYS798  CYS799  TRP800  GLU811  SER814 

> <Gold.Protein.RotatedAtoms>
  151.1071  133.5200  159.2607 H   0  0  0  0  0  0  0  0  0  0  0  0  # atno 6907 bound_to 6896
  151.2009  135.0441  159.8881 H   0  0  0  0  0  0  0  0  0  0  0  0  # atno 6908 bound_to 6896
  152.5447  134.0899  159.8326 H   0  0  0  0  0  0  0  0  0  0  0  0  # atno 6909 bound_to 6896
  145.9718  139.4157  143.0185 H   0  0  0  0  0  0  0  0  0  0  0  0  # atno 7974 bound_to 7965
  156.0143  140.1247  157.0422 H   0  0  0  0  0  0  0  0  0  0  0  0  # atno 8008 bound_to 7997
  154.4287  140.1081  156.5943 H   0  0  0  0  0  0  0  0  0  0  0  0  # atno 8009 bound_to 7997
  155.6035  140.3471  155.4603 H   0  0  0  0  0  0  0  0  0  0  0  0  # atno 8010 bound_to 7997
  140.6735  143.2745  151.4056 H   0  0  0  0  0  0  0  0  0  0  0  0  # atno 10167 bound_to 10162
  156.8157  130.5439  149.5703 H   0  0  0  0  0  0  0  0  0  0  0  0  # atno 10718 bound_to 10713
  154.3991  135.6035  153.5887 H   0  0  0  0  0  0  0  0  0  0  0  0  # atno 10763 bound_to 10752
  152.9788  135.5902  154.4205 H   0  0  0  0  0  0  0  0  0  0  0  0  # atno 10764 bound_to 10752
  154.4001  135.2843  155.2080 H   0  0  0  0  0  0  0  0  0  0  0  0  # atno 10765 bound_to 10752
  140.4881  134.0868  155.7765 H   0  0  0  0  0  0  0  0  0  0  0  0  # atno 11005 bound_to 11000
  145.7894  140.9821  143.1057 LP  0  0  0  0  0  0  0  0  0  0  0  0  # atno 17320 bound_to 7965
  144.6839  139.9664  143.7481 LP  0  0  0  0  0  0  0  0  0  0  0  0  # atno 17321 bound_to 7965
  139.6016  144.1284  152.2204 LP  0  0  0  0  0  0  0  0  0  0  0  0  # atno 17342 bound_to 10162
  140.0670  144.5810  150.7220 LP  0  0  0  0  0  0  0  0  0  0  0  0  # atno 17343 bound_to 10162
  156.1018  130.5975  150.9906 LP  0  0  0  0  0  0  0  0  0  0  0  0  # atno 17370 bound_to 10713
  157.6483  131.0901  150.8106 LP  0  0  0  0  0  0  0  0  0  0  0  0  # atno 17371 bound_to 10713
  141.1498  133.8990  157.2126 LP  0  0  0  0  0  0  0  0  0  0  0  0  # atno 17394 bound_to 11000
  139.9786  135.0106  156.9693 LP  0  0  0  0  0  0  0  0  0  0  0  0  # atno 17395 bound_to 11000

$$$$
