#       Name:                AV-unprocessed.smi:1153
#       Creating user name   scv26
#       Creation time:       Fri Mar 27 03:47:25 2020


#       File generated by GOLD software.
#

@<TRIPOS>MOLECULE
AV-unprocessed.smi:1153
    29    30     1
SMALL
NO_CHARGES


@<TRIPOS>ATOM
      1 ****        -1.2817   0.2797   0.7285 O.2            1 S1                 0.0000
      2 ****        -0.5887  -0.6169   0.2454 C.2            1 S1                 0.0000
      3 ****         0.9362  -0.4759   0.1690 C.3            1 S1                 0.0000
      4 ****         1.3610   0.9103   0.0592 N.pl3          1 S1                 0.0000
      5 ****         1.2798   1.7492  -1.0319 C.2            1 S1                 0.0000
      6 ****         1.8059   2.9524  -0.6590 C.2            1 S1                 0.0000
      7 ****         2.1938   2.7557   0.6984 C.2            1 S1                 0.0000
      8 ****         2.8372   3.7406   1.6388 C.3            1 S1                 0.0000
      9 ****         4.0217   3.2791   2.0397 F              1 S1                 0.0000
     10 ****         3.0181   4.9122   1.0293 F              1 S1                 0.0000
     11 ****         2.0595   3.9275   2.7052 F              1 S1                 0.0000
     12 ****         1.9262   1.5267   1.1194 N.2            1 S1                 0.0000
     13 ****        -1.0952  -1.7619  -0.2357 N.am           1 S1                 0.0000
     14 ****        -2.4792  -2.1087  -0.2668 C.3            1 S1                 0.0000
     15 ****        -2.8441  -3.5627  -0.0586 C.3            1 S1                 0.0000
     16 ****        -2.9661  -2.9505  -1.4265 C.3            1 S1                 0.0000
     17 ****         1.3826  -0.9254   1.0572 H              1 S1                 0.0000
     18 ****         1.3207  -1.0198  -0.6949 H              1 S1                 0.0000
     19 ****         0.8562   1.4242  -1.9708 H              1 S1                 0.0000
     20 ****         1.8998   3.8415  -1.2647 H              1 S1                 0.0000
     21 ****        -0.4494  -2.4426  -0.6086 H              1 S1                 0.0000
     22 ****        -3.1871  -1.3784   0.1226 H              1 S1                 0.0000
     23 ****        -2.0355  -4.2731   0.1033 H              1 S1                 0.0000
     24 ****        -3.7651  -3.7758   0.4804 H              1 S1                 0.0000
     25 ****        -3.9687  -2.7549  -1.8015 H              1 S1                 0.0000
     26 ****        -2.2390  -3.2525  -2.1781 H              1 S1                 0.0000
     27 ****        -0.8507   1.1121   1.0768 LP             1 S1                 0.0000
     28 ****        -2.2752   0.1751   0.7724 LP             1 S1                 0.0000
     29 ****         2.1042   1.1407   2.0246 LP             1 S1                 0.0000
@<TRIPOS>BOND
    1    1    2 2     
    2    2    3 1     
    3    2   13 am    
    4    3    4 1     
    5    3   17 1     
    6    3   18 1     
    7    4   12 1     
    8    4    5 1     
    9    5    6 2     
   10    5   19 1     
   11    6    7 1     
   12    6   20 1     
   13    7    8 1     
   14    7   12 2     
   15    8    9 1     
   16    8   10 1     
   17    8   11 1     
   18   13   14 1     
   19   13   21 1     
   20   14   16 1     
   21   14   15 1     
   22   14   22 1     
   23   15   16 1     
   24   15   23 1     
   25   15   24 1     
   26   16   25 1     
   27   16   26 1     
   28    1   27 1     
   29    1   28 1     
   30   12   29 1     
@<TRIPOS>SUBSTRUCTURE
      1 S1             1
@<TRIPOS>SET
LONE_PAIRS      STATIC     ATOMS    <user>   **** ""
3 27 28 29
DONOR_HYDROGENS      STATIC     ATOMS    <user>   **** ""
1 21
ATOM$BLUE        STATIC     ATOMS    COLORGROUP SYSTEM
3 27 28 29
ATOM$RED        STATIC     ATOMS    COLORGROUP SYSTEM
1 21
