AV-unprocessed.smi:3142|AV-procd|sdf|11970|dock7
  -GOLD-   2272017373D 1   1.00000     0.00000
 Structure written by MMmdl.
 36 38  0  0  0  0  0  0  0  0  1 V2000
  148.8013  141.2323  155.3642 C   0  0  0  0  0  0  0  0  0  0  0  0
  149.8054  140.6508  156.3780 C   0  0  2  0  0  0  0  0  0  0  0  0
  150.7190  141.7179  157.0027 C   0  0  0  0  0  0  0  0  0  0  0  0
  151.5509  142.3148  156.3184 O   0  0  0  0  0  0  0  0  0  0  0  0
  150.5483  141.9418  158.3153 N   0  0  0  0  0  0  0  0  0  0  0  0
  151.3124  142.8802  159.1292 C   0  0  0  0  0  0  0  0  0  0  0  0
  151.1805  144.2989  158.6070 C   0  0  0  0  0  0  0  0  0  0  0  0
  152.3481  145.0198  157.9758 C   0  0  0  0  0  0  0  0  0  0  0  0
  151.8297  145.4553  159.3283 C   0  0  0  0  0  0  0  0  0  0  0  0
  152.7767  142.4913  159.2445 C   0  0  0  0  0  0  0  0  0  0  0  0
  153.2061  141.2667  160.0175 C   0  0  0  0  0  0  0  0  0  0  0  0
  153.5318  142.6455  160.5438 C   0  0  0  0  0  0  0  0  0  0  0  0
  150.6021  139.5861  155.7839 N   0  0  0  0  0  0  0  0  0  0  0  0
  150.5150  139.1102  154.4811 C   0  0  0  0  0  0  0  0  0  0  0  0
  151.4385  138.0959  154.3673 C   0  0  0  0  0  0  0  0  0  0  0  0
  152.0985  137.9244  155.5811 N   0  0  0  0  0  0  0  0  0  0  0  0
  151.5503  138.8387  156.3708 C   0  0  0  0  0  0  0  0  0  0  0  0
  148.1810  142.0040  155.8213 H   0  0  0  0  0  0  0  0  0  0  0  0
  148.1325  140.4558  154.9917 H   0  0  0  0  0  0  0  0  0  0  0  0
  149.3028  141.6757  154.5031 H   0  0  0  0  0  0  0  0  0  0  0  0
  149.2273  140.2111  157.1925 H   0  0  0  0  0  0  0  0  0  0  0  0
  149.8412  141.4028  158.7940 H   0  0  0  0  0  0  0  0  0  0  0  0
  150.8927  142.8777  160.1374 H   0  0  0  0  0  0  0  0  0  0  0  0
  150.2067  144.5087  158.1680 H   0  0  0  0  0  0  0  0  0  0  0  0
  153.3105  144.5126  157.9510 H   0  0  0  0  0  0  0  0  0  0  0  0
  152.1388  145.6643  157.1246 H   0  0  0  0  0  0  0  0  0  0  0  0
  151.2747  146.3899  159.3789 H   0  0  0  0  0  0  0  0  0  0  0  0
  152.4426  145.2291  160.1985 H   0  0  0  0  0  0  0  0  0  0  0  0
  153.3510  142.7052  158.3447 H   0  0  0  0  0  0  0  0  0  0  0  0
  152.4394  140.7000  160.5419 H   0  0  0  0  0  0  0  0  0  0  0  0
  154.0233  140.6768  159.6082 H   0  0  0  0  0  0  0  0  0  0  0  0
  154.5673  142.9749  160.4861 H   0  0  0  0  0  0  0  0  0  0  0  0
  152.9820  142.9871  161.4181 H   0  0  0  0  0  0  0  0  0  0  0  0
  149.8219  139.5205  153.7616 H   0  0  0  0  0  0  0  0  0  0  0  0
  151.6737  137.4787  153.5128 H   0  0  0  0  0  0  0  0  0  0  0  0
  151.8426  138.9651  157.4032 H   0  0  0  0  0  0  0  0  0  0  0  0
  1  2  1  0  0  0  0
  1 18  1  0  0  0  0
  1 19  1  0  0  0  0
  1 20  1  0  0  0  0
  2  3  1  0  0  0  0
  2 13  1  0  0  0  0
  2 21  1  0  0  0  0
  3  4  2  0  0  0  0
  3  5  1  0  0  0  0
  5  6  1  0  0  0  0
  5 22  1  0  0  0  0
  6  7  1  0  0  0  0
  6 10  1  0  0  0  0
  6 23  1  0  0  0  0
  7  9  1  0  0  0  0
  7  8  1  0  0  0  0
  7 24  1  0  0  0  0
  8  9  1  0  0  0  0
  8 25  1  0  0  0  0
  8 26  1  0  0  0  0
  9 27  1  0  0  0  0
  9 28  1  0  0  0  0
 10 12  1  0  0  0  0
 10 11  1  0  0  0  0
 10 29  1  0  0  0  0
 11 12  1  0  0  0  0
 11 30  1  0  0  0  0
 11 31  1  0  0  0  0
 12 32  1  0  0  0  0
 12 33  1  0  0  0  0
 13 17  1  0  0  0  0
 13 14  1  0  0  0  0
 14 15  2  0  0  0  0
 14 34  1  0  0  0  0
 15 16  1  0  0  0  0
 15 35  1  0  0  0  0
 16 17  2  0  0  0  0
 17 36  1  0  0  0  0
M  END
> <s_m_source_file>
AV-unprocessed.smi

> <i_m_source_file_index>
3142

> <i_lp_mmshare_version>
43012

> <i_f3d_flags>
0

> <s_epik_input>
W2NIXTFuW2NIXVtjSF1uMVtDQEhdKFtDSDNdKUMoPU8pW05IXVtDSF0oW0NIXTJbQ0gyXVtDSDJdMilbQ0hdM1tDSDJdW0NIMl0z

> <s_epik_cmdline>
J2VwaWtfcHl0aG9uJywgJy1waCcsICc3LjAnLCAnLXRuJywgJzgnLCAnLW1hJywgJzIwMCcsICctbWV0YWxfYmluZGluZycsICctaW1hZScsICc8aW5maWxlLm1hZT4nLCAnLW9tYWUnLCAnPG91dGZpbGUubWFlPic=

> <r_lp_tautomer_probability>
1

> <r_epik_Ionization_Penalty>
0.32285

> <r_epik_Ionization_Penalty_Charging>
0.32285

> <r_epik_Ionization_Penalty_Neutral>
3.37967e-08

> <r_epik_State_Penalty>
0.317502

> <r_epik_Charging_Adjusted_Penalty>
0.640352

> <i_epik_Tot_Q>
0

> <i_epik_Tot_abs_Q>
0

> <r_epik_Metal_State_Penalty>
0.20415

> <b_epik_Metal_Only>
0

> <s_lp_Force_Field>
OPLS_2005

> <r_lp_Energy>
29.0844

> <b_lp_Chiralities_Consistent>
1

> <s_lp_Variant>
AV-unprocessed.smi:3142-1

> <Gold.Version>
5.8.1

> <Gold.Id.Protein>
6NUR|6NUR_protein|mol2

> <Gold.PLP.Fitness>
41.8198

> <Gold.PLP.PLP>
-36.3242

> <Gold.PLP.part.hbond>
0.0000

> <Gold.PLP.part.metal>
0.0000

> <Gold.PLP.part.buried>
-0.6587

> <Gold.PLP.part.nonpolar>
-35.9489

> <Gold.PLP.part.repulsive>
0.2081

> <Gold.PLP.ligand.clash>
0.0000

> <Gold.PLP.ligand.torsion>
1.3555

> <Gold.PLP.Chemscore.Hbond>
0.0000

> <Gold.PLP.Chemscore.CHOScore>
2.0000

> <Gold.PLP.Chemscore.Metal>
0.0000

> <Gold.Chemscore.Hbonds>
donor molecule, donor type, donor heavy atom, donor atom, acceptor molecule, acceptor atom, score
      L1  C    14    34       P1  7957  0.68
      L1  C    15    35       P1  7949  0.93

> <Gold.PLP.Chemscore.Internal.Correction>
2.2067

> <Gold.Rescore>
     Score         DG    S(hbond)    S(metal)    S(lipo)     H(rot)  DE(clash)    DE(int)     intcor
     10.83     -12.72       0.00        0.00     102.39       1.85       0.58       1.31       ----

> <Gold.Chemscore.Fitness>
10.8263

> <Gold.Chemscore.DG>
-12.7226

> <Gold.Chemscore.ZeroCoef>
-5.4800

> <Gold.Chemscore.Hbond>
0.0000

> <Gold.Chemscore.Metal>
0.0000

> <Gold.Chemscore.Lipo>
102.3924

> <Gold.Chemscore.Internal_Hbond>
0.0000

> <Gold.Chemscore.DEClash>
0.5840

> <Gold.Chemscore.DEInternal>
1.3123

> <Gold.Chemscore.Rot>
1.8505

> <Gold.Chemscore.Internal.Correction>
   9.000000E+99

> <Gold.Chemscore.Hbond.Weighted>
-0.0000

> <Gold.Chemscore.Metal.Weighted>
-0.0000

> <Gold.Chemscore.Lipo.Weighted>
-11.9799

> <Gold.Chemscore.Internal_Hbond.Weighted>
0.0000

> <Gold.Chemscore.DEClash.Weighted>
0.5840

> <Gold.Chemscore.DEInternal.Weighted>
1.3123

> <Gold.Chemscore.Rot.Weighted>
4.7373

> <Gold.Chemscore.Internal.Correction.Weighted>
   9.000000E+99

> <Gold.Protein.RotatedTorsions>
[ 6907 6896 6895 6894 ] final  -15.45 input  -60.11 | X-H torsion
[ 7974 7965 7964 7962 ] final  145.92 input  175.53 | X-H torsion
[ 8008 7997 7996 7995 ] final  -22.26 input   59.86 | X-H torsion
[ 10167 10162 10161 10158 ] final   24.31 input  -65.29 | X-H torsion
[ 10718 10713 10712 10709 ] final   13.27 input   66.30 | X-H torsion
[ 10763 10752 10751 10750 ] final   72.27 input  -60.55 | X-H torsion
[ 11005 11000 10999 10996 ] final   12.72 input  -57.11 | X-H torsion

> <Gold.Protein.ActiveResidues>
 VAL166  LYS551  ARG553  GLY616  TRP617  ASP618  TYR619  PRO620  LYS621  CYS622 
 ASP623  PHE694  ASN695  SER759  ASP760  ASP761  ALA762  ILE779  LEU786  VAL792 
 PHE793  MET794  SER795  GLU796  ALA797  LYS798  CYS799  TRP800  GLU811  SER814 

> <Gold.Protein.RotatedAtoms>
  151.3238  135.0825  159.9314 H   0  0  0  0  0  0  0  0  0  0  0  0  # atno 6907 bound_to 6896
  152.5250  133.9612  159.7728 H   0  0  0  0  0  0  0  0  0  0  0  0  # atno 6908 bound_to 6896
  150.9938  133.6071  159.2734 H   0  0  0  0  0  0  0  0  0  0  0  0  # atno 6909 bound_to 6896
  144.8713  139.5842  143.5885 H   0  0  0  0  0  0  0  0  0  0  0  0  # atno 7974 bound_to 7965
  154.4655  140.2012  156.0131 H   0  0  0  0  0  0  0  0  0  0  0  0  # atno 8008 bound_to 7997
  156.0918  140.3257  155.7797 H   0  0  0  0  0  0  0  0  0  0  0  0  # atno 8009 bound_to 7997
  155.4943  140.0548  157.2939 H   0  0  0  0  0  0  0  0  0  0  0  0  # atno 8010 bound_to 7997
  140.5199  144.0020  150.6412 H   0  0  0  0  0  0  0  0  0  0  0  0  # atno 10167 bound_to 10162
  157.0222  130.6159  149.5723 H   0  0  0  0  0  0  0  0  0  0  0  0  # atno 10718 bound_to 10713
  153.0448  135.5106  154.7718 H   0  0  0  0  0  0  0  0  0  0  0  0  # atno 10763 bound_to 10752
  154.6626  135.2941  154.9848 H   0  0  0  0  0  0  0  0  0  0  0  0  # atno 10764 bound_to 10752
  154.0694  135.6679  153.4875 H   0  0  0  0  0  0  0  0  0  0  0  0  # atno 10765 bound_to 10752
  140.4888  134.0861  155.7767 H   0  0  0  0  0  0  0  0  0  0  0  0  # atno 11005 bound_to 11000
  146.2932  139.7200  142.9146 LP  0  0  0  0  0  0  0  0  0  0  0  0  # atno 17320 bound_to 7965
  145.4125  141.0398  143.3009 LP  0  0  0  0  0  0  0  0  0  0  0  0  # atno 17321 bound_to 7965
  140.3366  143.3045  152.0632 LP  0  0  0  0  0  0  0  0  0  0  0  0  # atno 17342 bound_to 10162
  139.4920  144.6472  151.6753 LP  0  0  0  0  0  0  0  0  0  0  0  0  # atno 17343 bound_to 10162
  156.0098  130.5189  150.7952 LP  0  0  0  0  0  0  0  0  0  0  0  0  # atno 17370 bound_to 10713
  157.5241  131.0933  151.0041 LP  0  0  0  0  0  0  0  0  0  0  0  0  # atno 17371 bound_to 10713
  141.1494  133.8996  157.2135 LP  0  0  0  0  0  0  0  0  0  0  0  0  # atno 17394 bound_to 11000
  139.9781  135.0107  156.9683 LP  0  0  0  0  0  0  0  0  0  0  0  0  # atno 17395 bound_to 11000

$$$$
