AV-unprocessed.smi:36|AV-procd|sdf|280|dock5
  -GOLD-   2262016 53D 1   1.00000     0.00000
 Structure written by MMmdl.
 64 67  0  0  0  0  0  0  0  0  1 V2000
  146.2254  135.0252  162.7619 C   0  0  0  0  0  0  0  0  0  0  0  0
  146.6977  133.9562  161.7621 C   0  0  0  0  0  0  0  0  0  0  0  0
  147.9756  133.2850  162.2934 C   0  0  0  0  0  0  0  0  0  0  0  0
  145.5968  132.8991  161.5758 C   0  0  0  0  0  0  0  0  0  0  0  0
  147.0564  134.7917  160.0770 Si  0  0  0  0  0  0  0  0  0  0  0  0
  145.5107  135.6976  159.4450 C   0  0  0  0  0  0  0  0  0  0  0  0
  148.5060  136.0147  160.2211 C   0  0  0  0  0  0  0  0  0  0  0  0
  147.4552  133.6028  158.9383 O   0  0  0  0  0  0  0  0  0  0  0  0
  148.7827  133.2048  158.6629 C   0  0  0  0  0  0  0  0  0  0  0  0
  148.9803  132.9971  157.1494 C   0  0  1  0  0  0  0  0  0  0  0  0
  148.8854  134.2788  156.5267 O   0  0  0  0  0  0  0  0  0  0  0  0
  150.1393  134.7007  156.0759 C   0  0  1  0  0  0  0  0  0  0  0  0
  150.3820  136.0816  156.5835 N   0  0  0  0  0  0  0  0  0  0  0  0
  150.3141  136.5511  157.8776 C   0  0  0  0  0  0  0  0  0  0  0  0
  150.5769  137.8222  158.0244 N   0  0  0  0  0  0  0  0  0  0  0  0
  150.8503  138.2597  156.7346 C   0  0  0  0  0  0  0  0  0  0  0  0
  151.2018  139.5156  156.1764 C   0  0  0  0  0  0  0  0  0  0  0  0
  151.3195  140.6024  156.9742 N   0  0  0  0  0  0  0  0  0  0  0  0
  152.2925  140.8431  158.0250 C   0  0  0  0  0  0  0  0  0  0  0  0
  153.0990  139.9835  158.3814 O   0  0  0  0  0  0  0  0  0  0  0  0
  152.2028  142.1744  158.7125 C   0  0  0  0  0  0  0  0  0  0  0  0
  151.4948  143.2371  158.1073 C   0  0  0  0  0  0  0  0  0  0  0  0
  151.3861  144.4824  158.7564 C   0  0  0  0  0  0  0  0  0  0  0  0
  151.9774  144.6731  160.0195 C   0  0  0  0  0  0  0  0  0  0  0  0
  152.6751  143.6167  160.6346 C   0  0  0  0  0  0  0  0  0  0  0  0
  152.7859  142.3714  159.9859 C   0  0  0  0  0  0  0  0  0  0  0  0
  151.4001  139.5694  154.8326 N   0  0  0  0  0  0  0  0  0  0  0  0
  151.2645  138.4679  154.0876 C   0  0  0  0  0  0  0  0  0  0  0  0
  150.9388  137.2327  154.4757 N   0  0  0  0  0  0  0  0  0  0  0  0
  150.7357  137.1740  155.8233 C   0  0  0  0  0  0  0  0  0  0  0  0
  151.1761  133.7350  156.6432 C   0  0  0  0  0  0  0  0  0  0  0  0
  150.3567  132.4663  156.7186 C   0  0  1  0  0  0  0  0  0  0  0  0
  150.9252  131.5210  157.6007 O   0  0  0  0  0  0  0  0  0  0  0  0
  145.9997  134.5860  163.7342 H   0  0  0  0  0  0  0  0  0  0  0  0
  145.3227  135.5265  162.4123 H   0  0  0  0  0  0  0  0  0  0  0  0
  146.9878  135.7891  162.9166 H   0  0  0  0  0  0  0  0  0  0  0  0
  148.7863  134.0046  162.4082 H   0  0  0  0  0  0  0  0  0  0  0  0
  148.3228  132.4996  161.6235 H   0  0  0  0  0  0  0  0  0  0  0  0
  147.8042  132.8250  163.2672 H   0  0  0  0  0  0  0  0  0  0  0  0
  145.3763  132.3866  162.5128 H   0  0  0  0  0  0  0  0  0  0  0  0
  145.8915  132.1428  160.8485 H   0  0  0  0  0  0  0  0  0  0  0  0
  144.6685  133.3492  161.2235 H   0  0  0  0  0  0  0  0  0  0  0  0
  145.1846  136.4700  160.1411 H   0  0  0  0  0  0  0  0  0  0  0  0
  144.6741  135.0141  159.3020 H   0  0  0  0  0  0  0  0  0  0  0  0
  145.6988  136.1831  158.4877 H   0  0  0  0  0  0  0  0  0  0  0  0
  148.2866  136.8135  160.9291 H   0  0  0  0  0  0  0  0  0  0  0  0
  148.7277  136.4843  159.2630 H   0  0  0  0  0  0  0  0  0  0  0  0
  149.4175  135.5228  160.5600 H   0  0  0  0  0  0  0  0  0  0  0  0
  149.4419  134.0021  159.0076 H   0  0  0  0  0  0  0  0  0  0  0  0
  149.0446  132.3123  159.2299 H   0  0  0  0  0  0  0  0  0  0  0  0
  148.1819  132.3600  156.7674 H   0  0  0  0  0  0  0  0  0  0  0  0
  150.1470  134.7681  154.9873 H   0  0  0  0  0  0  0  0  0  0  0  0
  150.0588  135.9206  158.7160 H   0  0  0  0  0  0  0  0  0  0  0  0
  150.6682  141.3527  156.7944 H   0  0  0  0  0  0  0  0  0  0  0  0
  151.0328  143.1059  157.1392 H   0  0  0  0  0  0  0  0  0  0  0  0
  150.8465  145.2907  158.2853 H   0  0  0  0  0  0  0  0  0  0  0  0
  151.8920  145.6272  160.5181 H   0  0  0  0  0  0  0  0  0  0  0  0
  153.1233  143.7598  161.6070 H   0  0  0  0  0  0  0  0  0  0  0  0
  153.3181  141.5718  160.4803 H   0  0  0  0  0  0  0  0  0  0  0  0
  151.4399  138.5956  153.0297 H   0  0  0  0  0  0  0  0  0  0  0  0
  152.0494  133.6643  155.9941 H   0  0  0  0  0  0  0  0  0  0  0  0
  151.4906  134.0626  157.6358 H   0  0  0  0  0  0  0  0  0  0  0  0
  150.2818  132.0242  155.7240 H   0  0  0  0  0  0  0  0  0  0  0  0
  151.8595  131.5008  157.4579 H   0  0  0  0  0  0  0  0  0  0  0  0
  1  2  1  0  0  0  0
  1 34  1  0  0  0  0
  1 35  1  0  0  0  0
  1 36  1  0  0  0  0
  2  3  1  0  0  0  0
  2  4  1  0  0  0  0
  2  5  1  0  0  0  0
  3 37  1  0  0  0  0
  3 38  1  0  0  0  0
  3 39  1  0  0  0  0
  4 40  1  0  0  0  0
  4 41  1  0  0  0  0
  4 42  1  0  0  0  0
  5  6  1  0  0  0  0
  5  7  1  0  0  0  0
  5  8  1  0  0  0  0
  6 43  1  0  0  0  0
  6 44  1  0  0  0  0
  6 45  1  0  0  0  0
  7 46  1  0  0  0  0
  7 47  1  0  0  0  0
  7 48  1  0  0  0  0
  8  9  1  0  0  0  0
  9 10  1  0  0  0  0
  9 49  1  0  0  0  0
  9 50  1  0  0  0  0
 10 32  1  0  0  0  0
 10 11  1  0  0  0  0
 10 51  1  0  0  0  0
 11 12  1  0  0  0  0
 12 13  1  0  0  0  0
 12 31  1  0  0  0  0
 12 52  1  0  0  0  0
 13 30  1  0  0  0  0
 13 14  1  0  0  0  0
 14 15  2  0  0  0  0
 14 53  1  0  0  0  0
 15 16  1  0  0  0  0
 16 30  2  0  0  0  0
 16 17  1  0  0  0  0
 17 18  1  0  0  0  0
 17 27  2  0  0  0  0
 18 19  1  0  0  0  0
 18 54  1  0  0  0  0
 19 20  2  0  0  0  0
 19 21  1  0  0  0  0
 21 26  1  0  0  0  0
 21 22  2  0  0  0  0
 22 23  1  0  0  0  0
 22 55  1  0  0  0  0
 23 24  2  0  0  0  0
 23 56  1  0  0  0  0
 24 25  1  0  0  0  0
 24 57  1  0  0  0  0
 25 26  2  0  0  0  0
 25 58  1  0  0  0  0
 26 59  1  0  0  0  0
 27 28  1  0  0  0  0
 28 29  2  0  0  0  0
 28 60  1  0  0  0  0
 29 30  1  0  0  0  0
 31 32  1  0  0  0  0
 31 61  1  0  0  0  0
 31 62  1  0  0  0  0
 32 33  1  0  0  0  0
 32 63  1  0  0  0  0
 33 64  1  0  0  0  0
M  END
> <s_m_source_file>
AV-unprocessed.smi

> <i_m_source_file_index>
36

> <i_lp_mmshare_version>
43012

> <i_f3d_flags>
0

> <s_epik_input>
W0NIM11DKFtDSDNdKShbQ0gzXSlbU2ldKFtDSDNdKShbQ0gzXSlPW0NIMl1bQ0BASF0xT1tDQEhdKFtDSDJdW0NASF0xW09IXSluKFtjSF1uMiljKGMyMyluW2NIXW5jM1tOSF1DKD1PKWM0W2NIXVtjSF1bY0hdW2NIXVtjSF00

> <s_epik_cmdline>
J2VwaWtfcHl0aG9uJywgJy1waCcsICc3LjAnLCAnLXRuJywgJzgnLCAnLW1hJywgJzIwMCcsICctbWV0YWxfYmluZGluZycsICctaW1hZScsICc8aW5maWxlLm1hZT4nLCAnLW9tYWUnLCAnPG91dGZpbGUubWFlPic=

> <r_lp_tautomer_probability>
1

> <r_epik_Ionization_Penalty>
0.00150433

> <r_epik_Ionization_Penalty_Charging>
0

> <r_epik_Ionization_Penalty_Neutral>
0.00150433

> <r_epik_State_Penalty>
0.00724046

> <r_epik_Charging_Adjusted_Penalty>
0.00724046

> <i_epik_Tot_Q>
0

> <i_epik_Tot_abs_Q>
0

> <r_epik_Metal_State_Penalty>
0.323355

> <b_epik_Metal_Only>
0

> <s_epik_Chemistry_Notes>
This compound contains an acetal/aminal-like group ( X-CH(R)-Y where X, Y are N, S, or O) that may be acid/base labile, releasing an aldehyde.

> <s_lp_Force_Field>
OPLS_2005

> <r_lp_Energy>
33.9603

> <b_lp_Chiralities_Consistent>
1

> <s_lp_Variant>
AV-unprocessed.smi:36-2

> <Gold.Version>
5.8.1

> <Gold.Id.Protein>
6NUR|6NUR_protein|mol2

> <Gold.PLP.Fitness>
52.9299

> <Gold.PLP.PLP>
-48.0561

> <Gold.PLP.part.hbond>
-2.0000

> <Gold.PLP.part.metal>
0.0000

> <Gold.PLP.part.buried>
-8.9075

> <Gold.PLP.part.nonpolar>
-38.6730

> <Gold.PLP.part.repulsive>
0.4833

> <Gold.PLP.ligand.clash>
0.0000

> <Gold.PLP.ligand.torsion>
1.8022

> <Gold.PLP.Chemscore.Hbond>
1.9760

> <Gold.PLP.Chemscore.CHOScore>
0.7756

> <Gold.PLP.Chemscore.Metal>
0.0000

> <Gold.Chemscore.Hbonds>
donor molecule, donor type, donor heavy atom, donor atom, acceptor molecule, acceptor atom, score
      P1  H  7989  7998       L1    27  1.00
      P1  H  7997  8010       L1    20  1.00

> <Gold.PLP.Chemscore.Internal.Correction>
0.2235

> <Gold.Rescore>
     Score         DG    S(hbond)    S(metal)    S(lipo)     H(rot)  DE(clash)    DE(int)     intcor
     16.80     -19.01       1.78        0.00     123.86       2.70       0.19       2.02       ----

> <Gold.Chemscore.Fitness>
16.7970

> <Gold.Chemscore.DG>
-19.0102

> <Gold.Chemscore.ZeroCoef>
-5.4800

> <Gold.Chemscore.Hbond>
1.7846

> <Gold.Chemscore.Metal>
0.0000

> <Gold.Chemscore.Lipo>
123.8633

> <Gold.Chemscore.Internal_Hbond>
0.0000

> <Gold.Chemscore.DEClash>
0.1917

> <Gold.Chemscore.DEInternal>
2.0215

> <Gold.Chemscore.Rot>
2.7041

> <Gold.Chemscore.Internal.Correction>
   9.000000E+99

> <Gold.Chemscore.Hbonds>
donor molecule, donor type, donor heavy atom, donor atom, acceptor molecule, acceptor atom, score
      P1  H  7989  7998       L1    27  0.30
      P1  H  7997  8010       L1    20  0.59

> <Gold.Chemscore.Hbond.Weighted>
-5.9607

> <Gold.Chemscore.Metal.Weighted>
-0.0000

> <Gold.Chemscore.Lipo.Weighted>
-14.4920

> <Gold.Chemscore.Internal_Hbond.Weighted>
0.0000

> <Gold.Chemscore.DEClash.Weighted>
0.1917

> <Gold.Chemscore.DEInternal.Weighted>
2.0215

> <Gold.Chemscore.Rot.Weighted>
6.9225

> <Gold.Chemscore.Internal.Correction.Weighted>
   9.000000E+99

> <Gold.Protein.RotatedTorsions>
[ 6907 6896 6895 6894 ] final  160.02 input  -60.11 | X-H torsion
[ 7974 7965 7964 7962 ] final   -4.42 input  175.53 | X-H torsion
[ 8008 7997 7996 7995 ] final   26.82 input   59.86 | X-H torsion
[ 10167 10162 10161 10158 ] final  160.45 input  -65.29 | X-H torsion
[ 10718 10713 10712 10709 ] final  -94.56 input   66.30 | X-H torsion
[ 10763 10752 10751 10750 ] final  -84.19 input  -60.55 | X-H torsion
[ 11005 11000 10999 10996 ] final  -79.80 input  -57.11 | X-H torsion

> <Gold.Protein.ActiveResidues>
 VAL166  LYS551  ARG553  GLY616  TRP617  ASP618  TYR619  PRO620  LYS621  CYS622 
 ASP623  PHE694  ASN695  SER759  ASP760  ASP761  ALA762  ILE779  LEU786  VAL792 
 PHE793  MET794  SER795  GLU796  ALA797  LYS798  CYS799  TRP800  GLU811  SER814 

> <Gold.Protein.RotatedAtoms>
  151.9769  133.3744  159.4092 H   0  0  0  0  0  0  0  0  0  0  0  0  # atno 6907 bound_to 6896
  150.6940  134.4081  159.5158 H   0  0  0  0  0  0  0  0  0  0  0  0  # atno 6908 bound_to 6896
  152.1793  134.8767  160.0578 H   0  0  0  0  0  0  0  0  0  0  0  0  # atno 6909 bound_to 6896
  146.2372  140.1869  142.8332 H   0  0  0  0  0  0  0  0  0  0  0  0  # atno 7974 bound_to 7965
  155.0333  140.3161  155.4750 H   0  0  0  0  0  0  0  0  0  0  0  0  # atno 8008 bound_to 7997
  156.2869  140.2176  156.5398 H   0  0  0  0  0  0  0  0  0  0  0  0  # atno 8009 bound_to 7997
  154.7352  140.0478  157.0750 H   0  0  0  0  0  0  0  0  0  0  0  0  # atno 8010 bound_to 7997
  139.4840  144.4632  151.8676 H   0  0  0  0  0  0  0  0  0  0  0  0  # atno 10167 bound_to 10162
  156.0029  130.5072  150.5944 H   0  0  0  0  0  0  0  0  0  0  0  0  # atno 10718 bound_to 10713
  154.5966  135.5529  153.7331 H   0  0  0  0  0  0  0  0  0  0  0  0  # atno 10763 bound_to 10752
  153.0137  135.6356  154.1774 H   0  0  0  0  0  0  0  0  0  0  0  0  # atno 10764 bound_to 10752
  154.1715  135.2892  155.3059 H   0  0  0  0  0  0  0  0  0  0  0  0  # atno 10765 bound_to 10752
  141.1667  133.7122  156.8177 H   0  0  0  0  0  0  0  0  0  0  0  0  # atno 11005 bound_to 11000
  144.9889  140.8529  143.5351 LP  0  0  0  0  0  0  0  0  0  0  0  0  # atno 17320 bound_to 7965
  145.1872  139.2320  143.5261 LP  0  0  0  0  0  0  0  0  0  0  0  0  # atno 17321 bound_to 7965
  140.4096  144.2386  150.5889 LP  0  0  0  0  0  0  0  0  0  0  0  0  # atno 17342 bound_to 10162
  140.4979  143.2327  151.8722 LP  0  0  0  0  0  0  0  0  0  0  0  0  # atno 17343 bound_to 10162
  157.3804  131.0780  151.1482 LP  0  0  0  0  0  0  0  0  0  0  0  0  # atno 17370 bound_to 10713
  157.2206  130.6479  149.5810 LP  0  0  0  0  0  0  0  0  0  0  0  0  # atno 17371 bound_to 10713
  140.2142  134.8805  157.3307 LP  0  0  0  0  0  0  0  0  0  0  0  0  # atno 17394 bound_to 11000
  140.2055  134.4202  155.7640 LP  0  0  0  0  0  0  0  0  0  0  0  0  # atno 17395 bound_to 11000

$$$$
