AV-unprocessed.smi:189|AV-procd|sdf|1490|dock1
  -GOLD-   2262019313D 1   1.00000     0.00000
 Structure written by MMmdl.
 53 57  0  0  0  0  0  0  0  0  1 V2000
  151.8099  143.0842  158.4164 C   0  0  0  0  0  0  0  0  0  0  0  0
  150.9707  141.8002  158.5273 C   0  0  1  0  0  0  0  0  0  0  0  0
  149.5610  141.9731  157.9432 C   0  0  0  0  0  0  0  0  0  0  0  0
  149.7018  141.5662  156.4694 C   0  0  2  0  0  0  0  0  0  0  0  0
  148.5478  140.6975  155.9381 C   0  0  0  0  0  0  0  0  0  0  0  0
  148.7996  140.2196  154.4923 C   0  0  0  0  0  0  0  0  0  0  0  0
  150.2740  139.8565  154.2047 C   0  0  0  0  0  0  0  0  0  0  0  0
  151.0706  139.5898  155.4899 C   0  0  0  0  0  0  0  0  0  0  0  0
  151.0708  140.8562  156.3851 C   0  0  2  0  0  0  0  0  0  0  0  0
  151.5645  140.7085  157.7585 N   0  0  0  0  0  0  0  0  0  0  0  0
  151.5213  139.4720  158.3150 C   0  0  0  0  0  0  0  0  0  0  0  0
  152.6621  138.8431  158.7050 N   0  0  0  0  0  0  0  0  0  0  0  0
  152.6003  137.6372  159.2774 C   0  0  0  0  0  0  0  0  0  0  0  0
  151.5238  136.8966  159.5502 N   0  0  0  0  0  0  0  0  0  0  0  0
  150.3780  137.5249  159.1588 C   0  0  0  0  0  0  0  0  0  0  0  0
  150.2890  138.8035  158.5414 C   0  0  0  0  0  0  0  0  0  0  0  0
  148.9602  139.1236  158.2942 N   0  0  0  0  0  0  0  0  0  0  0  0
  148.2993  138.0907  158.7407 C   0  0  0  0  0  0  0  0  0  0  0  0
  149.0722  137.0803  159.2687 N   0  0  0  0  0  0  0  0  0  0  0  0
  148.6008  135.8233  159.8282 C   0  0  0  0  0  0  0  0  0  0  0  0
  147.7986  135.9960  161.1391 C   0  0  2  0  0  0  0  0  0  0  0  0
  148.5051  136.8680  162.0043 O   0  0  0  0  0  0  0  0  0  0  0  0
  147.5300  134.6903  161.8837 C   0  0  0  0  0  0  0  0  0  0  0  0
  146.1759  134.9406  162.5325 C   0  0  0  0  0  0  0  0  0  0  0  0
  145.4803  135.6540  161.5248 O   0  0  0  0  0  0  0  0  0  0  0  0
  146.3850  136.5693  160.9153 C   0  0  0  0  0  0  0  0  0  0  0  0
  151.3657  143.8900  159.0008 H   0  0  0  0  0  0  0  0  0  0  0  0
  151.8928  143.4317  157.3862 H   0  0  0  0  0  0  0  0  0  0  0  0
  152.8195  142.9222  158.7951 H   0  0  0  0  0  0  0  0  0  0  0  0
  150.9019  141.5409  159.5851 H   0  0  0  0  0  0  0  0  0  0  0  0
  148.8711  141.3012  158.4551 H   0  0  0  0  0  0  0  0  0  0  0  0
  149.1708  142.9842  158.0643 H   0  0  0  0  0  0  0  0  0  0  0  0
  149.7556  142.4705  155.8616 H   0  0  0  0  0  0  0  0  0  0  0  0
  148.4338  139.8254  156.5840 H   0  0  0  0  0  0  0  0  0  0  0  0
  147.6039  141.2405  155.9933 H   0  0  0  0  0  0  0  0  0  0  0  0
  148.1623  139.3569  154.2950 H   0  0  0  0  0  0  0  0  0  0  0  0
  148.4836  140.9912  153.7894 H   0  0  0  0  0  0  0  0  0  0  0  0
  150.3216  138.9925  153.5412 H   0  0  0  0  0  0  0  0  0  0  0  0
  150.7477  140.6777  153.6651 H   0  0  0  0  0  0  0  0  0  0  0  0
  150.6135  138.7383  155.9954 H   0  0  0  0  0  0  0  0  0  0  0  0
  152.0935  139.2987  155.2502 H   0  0  0  0  0  0  0  0  0  0  0  0
  151.7602  141.5570  155.9119 H   0  0  0  0  0  0  0  0  0  0  0  0
  153.5491  137.2052  159.5590 H   0  0  0  0  0  0  0  0  0  0  0  0
  147.2215  138.0363  158.6930 H   0  0  0  0  0  0  0  0  0  0  0  0
  147.9941  135.3156  159.0771 H   0  0  0  0  0  0  0  0  0  0  0  0
  149.4684  135.1853  160.0015 H   0  0  0  0  0  0  0  0  0  0  0  0
  149.2034  136.3823  162.4159 H   0  0  0  0  0  0  0  0  0  0  0  0
  147.4295  133.8659  161.1767 H   0  0  0  0  0  0  0  0  0  0  0  0
  148.3080  134.4210  162.5993 H   0  0  0  0  0  0  0  0  0  0  0  0
  145.6602  134.0194  162.8040 H   0  0  0  0  0  0  0  0  0  0  0  0
  146.2742  135.5608  163.4247 H   0  0  0  0  0  0  0  0  0  0  0  0
  146.2654  137.5555  161.3665 H   0  0  0  0  0  0  0  0  0  0  0  0
  146.1371  136.6646  159.8577 H   0  0  0  0  0  0  0  0  0  0  0  0
  1  2  1  0  0  0  0
  1 27  1  0  0  0  0
  1 28  1  0  0  0  0
  1 29  1  0  0  0  0
  2 10  1  0  0  0  0
  2  3  1  0  0  0  0
  2 30  1  0  0  0  0
  3  4  1  0  0  0  0
  3 31  1  0  0  0  0
  3 32  1  0  0  0  0
  4  9  1  0  0  0  0
  4  5  1  0  0  0  0
  4 33  1  0  0  0  0
  5  6  1  0  0  0  0
  5 34  1  0  0  0  0
  5 35  1  0  0  0  0
  6  7  1  0  0  0  0
  6 36  1  0  0  0  0
  6 37  1  0  0  0  0
  7  8  1  0  0  0  0
  7 38  1  0  0  0  0
  7 39  1  0  0  0  0
  8  9  1  0  0  0  0
  8 40  1  0  0  0  0
  8 41  1  0  0  0  0
  9 10  1  0  0  0  0
  9 42  1  0  0  0  0
 10 11  1  0  0  0  0
 11 16  1  0  0  0  0
 11 12  2  0  0  0  0
 12 13  1  0  0  0  0
 13 14  2  0  0  0  0
 13 43  1  0  0  0  0
 14 15  1  0  0  0  0
 15 19  1  0  0  0  0
 15 16  2  0  0  0  0
 16 17  1  0  0  0  0
 17 18  2  0  0  0  0
 18 19  1  0  0  0  0
 18 44  1  0  0  0  0
 19 20  1  0  0  0  0
 20 21  1  0  0  0  0
 20 45  1  0  0  0  0
 20 46  1  0  0  0  0
 21 26  1  0  0  0  0
 21 22  1  0  0  0  0
 21 23  1  0  0  0  0
 22 47  1  0  0  0  0
 23 24  1  0  0  0  0
 23 48  1  0  0  0  0
 23 49  1  0  0  0  0
 24 25  1  0  0  0  0
 24 50  1  0  0  0  0
 24 51  1  0  0  0  0
 25 26  1  0  0  0  0
 26 52  1  0  0  0  0
 26 53  1  0  0  0  0
M  END
> <s_m_source_file>
AV-unprocessed.smi

> <i_m_source_file_index>
189

> <i_lp_mmshare_version>
43012

> <i_f3d_flags>
0

> <s_epik_input>
W0NIMl0xW0NIMl1bQ0gyXVtDSDJdW0NASF0oW0NASF0xMilOKFtDQEhdKFtDSDNdKVtDSDJdMiljKG5bY0hdbjMpYyhjMzQpbltjSF1uNFtDSDJdW0NAQF01KFtPSF0pW0NIMl1bQ0gyXU9bQ0gyXTU=

> <s_epik_cmdline>
J2VwaWtfcHl0aG9uJywgJy1waCcsICc3LjAnLCAnLXRuJywgJzgnLCAnLW1hJywgJzIwMCcsICctbWV0YWxfYmluZGluZycsICctaW1hZScsICc8aW5maWxlLm1hZT4nLCAnLW9tYWUnLCAnPG91dGZpbGUubWFlPic=

> <r_lp_tautomer_probability>
1

> <r_epik_Ionization_Penalty>
0.00594261

> <r_epik_Ionization_Penalty_Charging>
0

> <r_epik_Ionization_Penalty_Neutral>
0.00594261

> <r_epik_State_Penalty>
0.00429776

> <r_epik_Charging_Adjusted_Penalty>
0.00429776

> <i_epik_Tot_Q>
0

> <i_epik_Tot_abs_Q>
0

> <r_epik_Metal_State_Penalty>
-0

> <b_epik_Metal_Only>
0

> <s_lp_Force_Field>
OPLS_2005

> <r_lp_Energy>
66.7565

> <b_lp_Chiralities_Consistent>
1

> <s_lp_Variant>
AV-unprocessed.smi:189-16

> <Gold.Version>
5.8.1

> <Gold.Id.Protein>
6NUR|6NUR_protein|mol2

> <Gold.PLP.Fitness>
43.8353

> <Gold.PLP.PLP>
-38.1953

> <Gold.PLP.part.hbond>
-2.2539

> <Gold.PLP.part.metal>
0.0000

> <Gold.PLP.part.buried>
-2.0394

> <Gold.PLP.part.nonpolar>
-34.7172

> <Gold.PLP.part.repulsive>
0.0000

> <Gold.PLP.ligand.clash>
0.0000

> <Gold.PLP.ligand.torsion>
0.2114

> <Gold.PLP.Chemscore.Hbond>
1.9913

> <Gold.PLP.Chemscore.CHOScore>
0.0000

> <Gold.PLP.Chemscore.Metal>
0.0000

> <Gold.Chemscore.Hbonds>
donor molecule, donor type, donor heavy atom, donor atom, acceptor molecule, acceptor atom, score
      P1  H  6896  6907       L1    14  1.00
      P1  H  6931  6943       L1    22  0.86

> <Gold.PLP.Chemscore.Internal.Correction>
0.0892

> <Gold.Rescore>
     Score         DG    S(hbond)    S(metal)    S(lipo)     H(rot)  DE(clash)    DE(int)     intcor
     13.27     -16.12       1.92        0.00      80.51       2.03       0.19       2.67       ----

> <Gold.Chemscore.Fitness>
13.2659

> <Gold.Chemscore.DG>
-16.1218

> <Gold.Chemscore.ZeroCoef>
-5.4800

> <Gold.Chemscore.Hbond>
1.9217

> <Gold.Chemscore.Metal>
0.0000

> <Gold.Chemscore.Lipo>
80.5056

> <Gold.Chemscore.Internal_Hbond>
0.0000

> <Gold.Chemscore.DEClash>
0.1900

> <Gold.Chemscore.DEInternal>
2.6660

> <Gold.Chemscore.Rot>
2.0297

> <Gold.Chemscore.Internal.Correction>
   9.000000E+99

> <Gold.Chemscore.Hbonds>
donor molecule, donor type, donor heavy atom, donor atom, acceptor molecule, acceptor atom, score
      P1  H  6896  6907       L1    14  0.74
      P1  H  6931  6943       L1    22  0.33

> <Gold.Chemscore.Hbond.Weighted>
-6.4186

> <Gold.Chemscore.Metal.Weighted>
-0.0000

> <Gold.Chemscore.Lipo.Weighted>
-9.4192

> <Gold.Chemscore.Internal_Hbond.Weighted>
0.0000

> <Gold.Chemscore.DEClash.Weighted>
0.1900

> <Gold.Chemscore.DEInternal.Weighted>
2.6660

> <Gold.Chemscore.Rot.Weighted>
5.1960

> <Gold.Chemscore.Internal.Correction.Weighted>
   9.000000E+99

> <Gold.Protein.RotatedTorsions>
[ 6907 6896 6895 6894 ] final  -23.22 input  -60.11 | X-H torsion
[ 7974 7965 7964 7962 ] final   35.16 input  175.53 | X-H torsion
[ 8008 7997 7996 7995 ] final  -82.36 input   59.86 | X-H torsion
[ 10167 10162 10161 10158 ] final  -62.46 input  -65.29 | X-H torsion
[ 10718 10713 10712 10709 ] final -160.66 input   66.30 | X-H torsion
[ 10763 10752 10751 10750 ] final  149.38 input  -60.55 | X-H torsion
[ 11005 11000 10999 10996 ] final  -98.25 input  -57.11 | X-H torsion

> <Gold.Protein.ActiveResidues>
 VAL166  LYS551  ARG553  GLY616  TRP617  ASP618  TYR619  PRO620  LYS621  CYS622 
 ASP623  PHE694  ASN695  SER759  ASP760  ASP761  ALA762  ILE779  LEU786  VAL792 
 PHE793  MET794  SER795  GLU796  ALA797  LYS798  CYS799  TRP800  GLU811  SER814 

> <Gold.Protein.RotatedAtoms>
  151.2072  135.0466  159.8895 H   0  0  0  0  0  0  0  0  0  0  0  0  # atno 6907 bound_to 6896
  152.5428  134.0785  159.8235 H   0  0  0  0  0  0  0  0  0  0  0  0  # atno 6908 bound_to 6896
  151.0933  133.5251  159.2645 H   0  0  0  0  0  0  0  0  0  0  0  0  # atno 6909 bound_to 6896
  146.1303  139.6178  142.9231 H   0  0  0  0  0  0  0  0  0  0  0  0  # atno 7974 bound_to 7965
  154.6078  140.0634  156.9454 H   0  0  0  0  0  0  0  0  0  0  0  0  # atno 8008 bound_to 7997
  155.2024  140.3316  155.4323 H   0  0  0  0  0  0  0  0  0  0  0  0  # atno 8009 bound_to 7997
  156.2358  140.1862  156.7106 H   0  0  0  0  0  0  0  0  0  0  0  0  # atno 8010 bound_to 7997
  140.5937  143.2346  151.6082 H   0  0  0  0  0  0  0  0  0  0  0  0  # atno 10167 bound_to 10162
  156.5853  130.8747  151.2875 H   0  0  0  0  0  0  0  0  0  0  0  0  # atno 10718 bound_to 10713
  154.0702  135.2867  155.3309 H   0  0  0  0  0  0  0  0  0  0  0  0  # atno 10763 bound_to 10752
  154.6751  135.5284  153.8192 H   0  0  0  0  0  0  0  0  0  0  0  0  # atno 10764 bound_to 10752
  153.0488  135.6567  154.0884 H   0  0  0  0  0  0  0  0  0  0  0  0  # atno 10765 bound_to 10752
  141.1351  133.8231  157.0814 H   0  0  0  0  0  0  0  0  0  0  0  0  # atno 11005 bound_to 11000
  145.5276  141.0429  143.2401 LP  0  0  0  0  0  0  0  0  0  0  0  0  # atno 17320 bound_to 7965
  144.7683  139.6793  143.7205 LP  0  0  0  0  0  0  0  0  0  0  0  0  # atno 17321 bound_to 7965
  139.5244  144.3104  152.0998 LP  0  0  0  0  0  0  0  0  0  0  0  0  # atno 17342 bound_to 10162
  140.2273  144.4405  150.6315 LP  0  0  0  0  0  0  0  0  0  0  0  0  # atno 17343 bound_to 10162
  157.7317  130.9704  150.1892 LP  0  0  0  0  0  0  0  0  0  0  0  0  # atno 17370 bound_to 10713
  156.2596  130.3709  149.8144 LP  0  0  0  0  0  0  0  0  0  0  0  0  # atno 17371 bound_to 10713
  140.0449  134.9835  157.1030 LP  0  0  0  0  0  0  0  0  0  0  0  0  # atno 17394 bound_to 11000
  140.4078  134.2013  155.7163 LP  0  0  0  0  0  0  0  0  0  0  0  0  # atno 17395 bound_to 11000

$$$$
