AV-unprocessed.smi:3116|AV-procd|sdf|11871|dock3
  -GOLD-   2272017253D 1   1.00000     0.00000
 Structure written by MMmdl.
 33 33  0  0  0  0  0  0  0  0  1 V2000
  153.2835  138.6109  155.1497 C   0  0  0  0  0  0  0  0  0  0  0  0
  152.0273  138.0090  155.8159 C   0  0  1  0  0  0  0  0  0  0  0  0
  151.1687  139.0609  156.3845 N   0  0  0  0  0  0  0  0  0  0  0  0
  151.8894  140.0781  157.1479 C   0  0  2  0  0  0  0  0  0  0  0  0
  152.5073  139.4018  158.3899 C   0  0  0  0  0  0  0  0  0  0  0  0
  150.8950  141.2183  157.4971 C   0  0  2  0  0  0  0  0  0  0  0  0
  150.1497  141.7475  156.2557 C   0  0  0  0  0  0  0  0  0  0  0  0
  151.5434  142.3205  158.1977 N   0  0  0  0  0  0  0  0  0  0  0  0
  151.5882  143.6514  157.8364 C   0  0  0  0  0  0  0  0  0  0  0  0
  152.3040  144.3116  158.7936 C   0  0  0  0  0  0  0  0  0  0  0  0
  152.6622  143.2876  159.7137 C   0  0  0  0  0  0  0  0  0  0  0  0
  152.2069  142.0985  159.3554 N   0  0  0  0  0  0  0  0  0  0  0  0
  151.2135  137.1652  154.8242 C   0  0  0  0  0  0  0  0  0  0  0  0
  150.6874  137.8109  153.7799 N   0  0  0  0  0  0  0  0  0  0  0  0
  151.0667  135.9539  154.9789 O   0  0  0  0  0  0  0  0  0  0  0  0
  153.8729  137.8413  154.6499 H   0  0  0  0  0  0  0  0  0  0  0  0
  153.9420  139.0871  155.8752 H   0  0  0  0  0  0  0  0  0  0  0  0
  153.0194  139.3633  154.4054 H   0  0  0  0  0  0  0  0  0  0  0  0
  152.3490  137.3319  156.6085 H   0  0  0  0  0  0  0  0  0  0  0  0
  150.4437  138.6721  156.9702 H   0  0  0  0  0  0  0  0  0  0  0  0
  152.6969  140.5059  156.5538 H   0  0  0  0  0  0  0  0  0  0  0  0
  153.1168  140.0993  158.9647 H   0  0  0  0  0  0  0  0  0  0  0  0
  153.1585  138.5713  158.1180 H   0  0  0  0  0  0  0  0  0  0  0  0
  151.7352  139.0126  159.0544 H   0  0  0  0  0  0  0  0  0  0  0  0
  150.1469  140.8175  158.1837 H   0  0  0  0  0  0  0  0  0  0  0  0
  149.5545  140.9654  155.7840 H   0  0  0  0  0  0  0  0  0  0  0  0
  150.8424  142.1298  155.5053 H   0  0  0  0  0  0  0  0  0  0  0  0
  149.4687  142.5562  156.5221 H   0  0  0  0  0  0  0  0  0  0  0  0
  151.1115  144.0148  156.9381 H   0  0  0  0  0  0  0  0  0  0  0  0
  152.5362  145.3654  158.8309 H   0  0  0  0  0  0  0  0  0  0  0  0
  153.2357  143.3720  160.6249 H   0  0  0  0  0  0  0  0  0  0  0  0
  150.1475  137.3043  153.0934 H   0  0  0  0  0  0  0  0  0  0  0  0
  150.8374  138.8043  153.6790 H   0  0  0  0  0  0  0  0  0  0  0  0
  1  2  1  0  0  0  0
  1 16  1  0  0  0  0
  1 17  1  0  0  0  0
  1 18  1  0  0  0  0
  2  3  1  0  0  0  0
  2 13  1  0  0  0  0
  2 19  1  0  0  0  0
  3  4  1  0  0  0  0
  3 20  1  0  0  0  0
  4  5  1  0  0  0  0
  4  6  1  0  0  0  0
  4 21  1  0  0  0  0
  5 22  1  0  0  0  0
  5 23  1  0  0  0  0
  5 24  1  0  0  0  0
  6  7  1  0  0  0  0
  6  8  1  0  0  0  0
  6 25  1  0  0  0  0
  7 26  1  0  0  0  0
  7 27  1  0  0  0  0
  7 28  1  0  0  0  0
  8 12  1  0  0  0  0
  8  9  1  0  0  0  0
  9 10  2  0  0  0  0
  9 29  1  0  0  0  0
 10 11  1  0  0  0  0
 10 30  1  0  0  0  0
 11 12  2  0  0  0  0
 11 31  1  0  0  0  0
 13 14  1  0  0  0  0
 13 15  2  0  0  0  0
 14 32  1  0  0  0  0
 14 33  1  0  0  0  0
M  END
> <s_m_source_file>
AV-unprocessed.smi

> <i_m_source_file_index>
3116

> <i_lp_mmshare_version>
43012

> <i_f3d_flags>
0

> <s_epik_input>
W05IMl1DKD1PKVtDQEhdKFtDSDNdKVtOSF1bQ0BIXShbQ0gzXSlbQ0BIXShbQ0gzXSluMVtjSF1bY0hdW2NIXW4x

> <s_epik_cmdline>
J2VwaWtfcHl0aG9uJywgJy1waCcsICc3LjAnLCAnLXRuJywgJzgnLCAnLW1hJywgJzIwMCcsICctbWV0YWxfYmluZGluZycsICctaW1hZScsICc8aW5maWxlLm1hZT4nLCAnLW9tYWUnLCAnPG91dGZpbGUubWFlPic=

> <r_lp_tautomer_probability>
1

> <r_epik_Ionization_Penalty>
0.865977

> <r_epik_Ionization_Penalty_Charging>
0

> <r_epik_Ionization_Penalty_Neutral>
0.865977

> <r_epik_State_Penalty>
0.901888

> <r_epik_Charging_Adjusted_Penalty>
0.901888

> <i_epik_Tot_Q>
0

> <i_epik_Tot_abs_Q>
0

> <r_epik_Metal_State_Penalty>
0.901181

> <b_epik_Metal_Only>
0

> <s_lp_Force_Field>
OPLS_2005

> <r_lp_Energy>
9.31489

> <b_lp_Chiralities_Consistent>
1

> <s_lp_Variant>
AV-unprocessed.smi:3116-10

> <Gold.Version>
5.8.1

> <Gold.Id.Protein>
6NUR|6NUR_protein|mol2

> <Gold.PLP.Fitness>
40.5619

> <Gold.PLP.PLP>
-31.8099

> <Gold.PLP.part.hbond>
-2.9998

> <Gold.PLP.part.metal>
0.0000

> <Gold.PLP.part.buried>
-1.9324

> <Gold.PLP.part.nonpolar>
-27.6410

> <Gold.PLP.part.repulsive>
0.2270

> <Gold.PLP.ligand.clash>
0.0000

> <Gold.PLP.ligand.torsion>
0.1768

> <Gold.PLP.Chemscore.Hbond>
2.0000

> <Gold.PLP.Chemscore.CHOScore>
1.0000

> <Gold.PLP.Chemscore.Metal>
0.0000

> <Gold.Chemscore.Hbonds>
donor molecule, donor type, donor heavy atom, donor atom, acceptor molecule, acceptor atom, score
      L1  H    14    32       P1  7948  0.75
      P1  H 10752 10764       L1    15  0.70
      L1  C     9    29       P1  8028  0.73

> <Gold.PLP.Chemscore.Internal.Correction>
0.1056

> <Gold.Rescore>
     Score         DG    S(hbond)    S(metal)    S(lipo)     H(rot)  DE(clash)    DE(int)     intcor
     11.96     -13.54       1.76        0.00      70.83       2.38       0.05       1.53       ----

> <Gold.Chemscore.Fitness>
11.9560

> <Gold.Chemscore.DG>
-13.5408

> <Gold.Chemscore.ZeroCoef>
-5.4800

> <Gold.Chemscore.Hbond>
1.7593

> <Gold.Chemscore.Metal>
0.0000

> <Gold.Chemscore.Lipo>
70.8264

> <Gold.Chemscore.Internal_Hbond>
0.0000

> <Gold.Chemscore.DEClash>
0.0525

> <Gold.Chemscore.DEInternal>
1.5323

> <Gold.Chemscore.Rot>
2.3836

> <Gold.Chemscore.Internal.Correction>
   9.000000E+99

> <Gold.Chemscore.Hbonds>
donor molecule, donor type, donor heavy atom, donor atom, acceptor molecule, acceptor atom, score
      L1  H    14    32       P1  7948  0.09
      P1  H 10752 10764       L1    15  0.07

> <Gold.Chemscore.Hbond.Weighted>
-5.8761

> <Gold.Chemscore.Metal.Weighted>
-0.0000

> <Gold.Chemscore.Lipo.Weighted>
-8.2867

> <Gold.Chemscore.Internal_Hbond.Weighted>
0.0000

> <Gold.Chemscore.DEClash.Weighted>
0.0525

> <Gold.Chemscore.DEInternal.Weighted>
1.5323

> <Gold.Chemscore.Rot.Weighted>
6.1020

> <Gold.Chemscore.Internal.Correction.Weighted>
   9.000000E+99

> <Gold.Protein.RotatedTorsions>
[ 6907 6896 6895 6894 ] final   36.99 input  -60.11 | X-H torsion
[ 7974 7965 7964 7962 ] final  173.87 input  175.53 | X-H torsion
[ 8008 7997 7996 7995 ] final  158.36 input   59.86 | X-H torsion
[ 10167 10162 10161 10158 ] final  -21.57 input  -65.29 | X-H torsion
[ 10718 10713 10712 10709 ] final -160.82 input   66.30 | X-H torsion
[ 10763 10752 10751 10750 ] final  -52.78 input  -60.55 | X-H torsion
[ 11005 11000 10999 10996 ] final -118.04 input  -57.11 | X-H torsion

> <Gold.Protein.ActiveResidues>
 VAL166  LYS551  ARG553  GLY616  TRP617  ASP618  TYR619  PRO620  LYS621  CYS622 
 ASP623  PHE694  ASN695  SER759  ASP760  ASP761  ALA762  ILE779  LEU786  VAL792 
 PHE793  MET794  SER795  GLU796  ALA797  LYS798  CYS799  TRP800  GLU811  SER814 

> <Gold.Protein.RotatedAtoms>
  152.1371  134.9091  160.0555 H   0  0  0  0  0  0  0  0  0  0  0  0  # atno 6907 bound_to 6896
  152.0173  133.3879  159.4252 H   0  0  0  0  0  0  0  0  0  0  0  0  # atno 6908 bound_to 6896
  150.6861  134.3587  159.4984 H   0  0  0  0  0  0  0  0  0  0  0  0  # atno 6909 bound_to 6896
  144.7234  139.9712  143.6437 H   0  0  0  0  0  0  0  0  0  0  0  0  # atno 7974 bound_to 7965
  156.2308  140.1860  156.7248 H   0  0  0  0  0  0  0  0  0  0  0  0  # atno 8008 bound_to 7997
  154.6018  140.0635  156.9407 H   0  0  0  0  0  0  0  0  0  0  0  0  # atno 8009 bound_to 7997
  155.2161  140.3304  155.4324 H   0  0  0  0  0  0  0  0  0  0  0  0  # atno 8010 bound_to 7997
  140.7282  143.4616  151.0372 H   0  0  0  0  0  0  0  0  0  0  0  0  # atno 10167 bound_to 10162
  156.5875  130.8756  151.2881 H   0  0  0  0  0  0  0  0  0  0  0  0  # atno 10718 bound_to 10713
  154.1483  135.6494  153.4957 H   0  0  0  0  0  0  0  0  0  0  0  0  # atno 10763 bound_to 10752
  153.0145  135.5332  154.6835 H   0  0  0  0  0  0  0  0  0  0  0  0  # atno 10764 bound_to 10752
  154.6115  135.2954  155.0398 H   0  0  0  0  0  0  0  0  0  0  0  0  # atno 10765 bound_to 10752
  141.0313  133.9977  157.3138 H   0  0  0  0  0  0  0  0  0  0  0  0  # atno 11005 bound_to 11000
  146.0561  139.3558  143.0610 LP  0  0  0  0  0  0  0  0  0  0  0  0  # atno 17320 bound_to 7965
  145.8152  140.9706  143.0927 LP  0  0  0  0  0  0  0  0  0  0  0  0  # atno 17321 bound_to 7965
  139.8301  143.7703  152.3179 LP  0  0  0  0  0  0  0  0  0  0  0  0  # atno 17342 bound_to 10162
  139.7815  144.7442  151.0081 LP  0  0  0  0  0  0  0  0  0  0  0  0  # atno 17343 bound_to 10162
  157.7312  130.9696  150.1867 LP  0  0  0  0  0  0  0  0  0  0  0  0  # atno 17370 bound_to 10713
  156.2578  130.3707  149.8163 LP  0  0  0  0  0  0  0  0  0  0  0  0  # atno 17371 bound_to 10713
  139.9210  135.0200  156.8063 LP  0  0  0  0  0  0  0  0  0  0  0  0  # atno 17394 bound_to 11000
  140.6401  133.9826  155.7703 LP  0  0  0  0  0  0  0  0  0  0  0  0  # atno 17395 bound_to 11000

$$$$
