AV-unprocessed.smi:415|AV-procd|sdf|2524|dock2
  -GOLD-   2262022483D 1   1.00000     0.00000
 Structure written by MMmdl.
 53 54  0  0  0  0  0  0  0  0  1 V2000
  149.3226  132.1682  153.6085 C   0  0  0  0  0  0  0  0  0  0  0  0
  148.2236  132.9022  154.1250 O   0  0  0  0  0  0  0  0  0  0  0  0
  148.5801  134.1588  154.6847 C   0  0  0  0  0  0  0  0  0  0  0  0
  149.8558  134.0817  155.5482 C   0  0  0  0  0  0  0  0  0  0  0  0
  149.8734  135.0611  156.6187 N   0  0  0  0  0  0  0  0  0  0  0  0
  148.9233  135.0872  157.6361 C   0  0  0  0  0  0  0  0  0  0  0  0
  147.8927  134.1641  157.6330 N   0  0  0  0  0  0  0  0  0  0  0  0
  148.9890  135.9899  158.6396 C   0  0  0  0  0  0  0  0  0  0  0  0
  150.0556  136.9779  158.7170 C   0  0  0  0  0  0  0  0  0  0  0  0
  150.1390  137.8006  159.6293 O   0  0  0  0  0  0  0  0  0  0  0  0
  151.0119  136.9310  157.6771 N   0  0  0  0  0  0  0  0  0  0  0  0
  152.1490  137.8770  157.7099 C   0  0  0  0  0  0  0  0  0  0  0  0
  151.7100  139.3489  157.7271 C   0  0  0  0  0  0  0  0  0  0  0  0
  151.1667  139.8604  156.7468 O   0  0  0  0  0  0  0  0  0  0  0  0
  151.9587  140.0195  158.8615 N   0  0  0  0  0  0  0  0  0  0  0  0
  151.5955  141.4112  159.1172 C   0  0  2  0  0  0  0  0  0  0  0  0
  151.8934  142.2649  157.8695 C   0  0  0  0  0  0  0  0  0  0  0  0
  151.4992  143.7327  158.0911 C   0  0  0  0  0  0  0  0  0  0  0  0
  152.1706  144.3143  159.3453 C   0  0  0  0  0  0  0  0  0  0  0  0
  151.8738  143.4567  160.5921 C   0  0  2  0  0  0  0  0  0  0  0  0
  152.4521  144.0869  161.8699 C   0  0  0  0  0  0  0  0  0  0  0  0
  152.2968  141.9781  160.3831 C   0  0  2  0  0  0  0  0  0  0  0  0
  153.8295  141.7682  160.3767 C   0  0  0  0  0  0  0  0  0  0  0  0
  150.9514  135.9835  156.6295 C   0  0  0  0  0  0  0  0  0  0  0  0
  151.8264  135.9668  155.7594 O   0  0  0  0  0  0  0  0  0  0  0  0
  148.9692  131.2145  153.2168 H   0  0  0  0  0  0  0  0  0  0  0  0
  150.0691  131.9574  154.3739 H   0  0  0  0  0  0  0  0  0  0  0  0
  149.8044  132.7071  152.7919 H   0  0  0  0  0  0  0  0  0  0  0  0
  148.6951  134.9064  153.8985 H   0  0  0  0  0  0  0  0  0  0  0  0
  147.7465  134.4968  155.3009 H   0  0  0  0  0  0  0  0  0  0  0  0
  150.0335  133.0904  155.9659 H   0  0  0  0  0  0  0  0  0  0  0  0
  150.7396  134.2829  154.9431 H   0  0  0  0  0  0  0  0  0  0  0  0
  147.8071  133.4653  156.9088 H   0  0  0  0  0  0  0  0  0  0  0  0
  147.1392  134.2058  158.3040 H   0  0  0  0  0  0  0  0  0  0  0  0
  148.2367  135.9825  159.4155 H   0  0  0  0  0  0  0  0  0  0  0  0
  152.7791  137.6827  158.5799 H   0  0  0  0  0  0  0  0  0  0  0  0
  152.8199  137.7327  156.8620 H   0  0  0  0  0  0  0  0  0  0  0  0
  152.4142  139.5238  159.6138 H   0  0  0  0  0  0  0  0  0  0  0  0
  150.5165  141.4495  159.2811 H   0  0  0  0  0  0  0  0  0  0  0  0
  152.9517  142.2045  157.6134 H   0  0  0  0  0  0  0  0  0  0  0  0
  151.3487  141.8704  157.0108 H   0  0  0  0  0  0  0  0  0  0  0  0
  151.7663  144.3259  157.2163 H   0  0  0  0  0  0  0  0  0  0  0  0
  150.4155  143.8052  158.1928 H   0  0  0  0  0  0  0  0  0  0  0  0
  153.2466  144.3891  159.1861 H   0  0  0  0  0  0  0  0  0  0  0  0
  151.8157  145.3333  159.5029 H   0  0  0  0  0  0  0  0  0  0  0  0
  150.7904  143.4554  160.7230 H   0  0  0  0  0  0  0  0  0  0  0  0
  153.5306  144.2285  161.8009 H   0  0  0  0  0  0  0  0  0  0  0  0
  152.2484  143.4653  162.7423 H   0  0  0  0  0  0  0  0  0  0  0  0
  152.0082  145.0656  162.0542 H   0  0  0  0  0  0  0  0  0  0  0  0
  151.9183  141.4175  161.2393 H   0  0  0  0  0  0  0  0  0  0  0  0
  154.3151  142.3159  159.5699 H   0  0  0  0  0  0  0  0  0  0  0  0
  154.0906  140.7163  160.2618 H   0  0  0  0  0  0  0  0  0  0  0  0
  154.2805  142.0918  161.3141 H   0  0  0  0  0  0  0  0  0  0  0  0
  1  2  1  0  0  0  0
  1 26  1  0  0  0  0
  1 27  1  0  0  0  0
  1 28  1  0  0  0  0
  2  3  1  0  0  0  0
  3  4  1  0  0  0  0
  3 29  1  0  0  0  0
  3 30  1  0  0  0  0
  4  5  1  0  0  0  0
  4 31  1  0  0  0  0
  4 32  1  0  0  0  0
  5 24  1  0  0  0  0
  5  6  1  0  0  0  0
  6  7  1  0  0  0  0
  6  8  2  0  0  0  0
  7 33  1  0  0  0  0
  7 34  1  0  0  0  0
  8  9  1  0  0  0  0
  8 35  1  0  0  0  0
  9 10  2  0  0  0  0
  9 11  1  0  0  0  0
 11 12  1  0  0  0  0
 11 24  1  0  0  0  0
 12 13  1  0  0  0  0
 12 36  1  0  0  0  0
 12 37  1  0  0  0  0
 13 14  2  0  0  0  0
 13 15  1  0  0  0  0
 15 16  1  0  0  0  0
 15 38  1  0  0  0  0
 16 22  1  0  0  0  0
 16 17  1  0  0  0  0
 16 39  1  0  0  0  0
 17 18  1  0  0  0  0
 17 40  1  0  0  0  0
 17 41  1  0  0  0  0
 18 19  1  0  0  0  0
 18 42  1  0  0  0  0
 18 43  1  0  0  0  0
 19 20  1  0  0  0  0
 19 44  1  0  0  0  0
 19 45  1  0  0  0  0
 20 21  1  0  0  0  0
 20 22  1  0  0  0  0
 20 46  1  0  0  0  0
 21 47  1  0  0  0  0
 21 48  1  0  0  0  0
 21 49  1  0  0  0  0
 22 23  1  0  0  0  0
 22 50  1  0  0  0  0
 23 51  1  0  0  0  0
 23 52  1  0  0  0  0
 23 53  1  0  0  0  0
 24 25  2  0  0  0  0
M  END
> <s_m_source_file>
AV-unprocessed.smi

> <i_m_source_file_index>
415

> <i_lp_mmshare_version>
43012

> <i_f3d_flags>
0

> <s_epik_input>
W0NIM11PW0NIMl1bQ0gyXW4xYyhbTkgyXSlbY0hdYyg9TyluKGMxPU8pW0NIMl1DKD1PKVtOSF1bQ0BASF0yW0NIMl1bQ0gyXVtDSDJdW0NAQEhdKFtDSDNdKVtDQEhdMltDSDNd

> <s_epik_cmdline>
J2VwaWtfcHl0aG9uJywgJy1waCcsICc3LjAnLCAnLXRuJywgJzgnLCAnLW1hJywgJzIwMCcsICctbWV0YWxfYmluZGluZycsICctaW1hZScsICc8aW5maWxlLm1hZT4nLCAnLW9tYWUnLCAnPG91dGZpbGUubWFlPic=

> <r_lp_tautomer_probability>
1

> <r_epik_Ionization_Penalty>
8.6647e-06

> <r_epik_Ionization_Penalty_Charging>
1.81162e-08

> <r_epik_Ionization_Penalty_Neutral>
8.64658e-06

> <r_epik_State_Penalty>
-0

> <r_epik_Charging_Adjusted_Penalty>
1.81162e-08

> <i_epik_Tot_Q>
0

> <i_epik_Tot_abs_Q>
0

> <r_epik_Metal_State_Penalty>
-0

> <b_epik_Metal_Only>
0

> <s_lp_Force_Field>
OPLS_2005

> <r_lp_Energy>
23.9123

> <b_lp_Chiralities_Consistent>
1

> <s_lp_Variant>
AV-unprocessed.smi:415-7

> <Gold.Version>
5.8.1

> <Gold.Id.Protein>
6NUR|6NUR_protein|mol2

> <Gold.PLP.Fitness>
42.1902

> <Gold.PLP.PLP>
-40.0875

> <Gold.PLP.part.hbond>
-2.0000

> <Gold.PLP.part.metal>
0.0000

> <Gold.PLP.part.buried>
-7.2348

> <Gold.PLP.part.nonpolar>
-31.1601

> <Gold.PLP.part.repulsive>
0.3017

> <Gold.PLP.ligand.clash>
0.0000

> <Gold.PLP.ligand.torsion>
0.5191

> <Gold.PLP.Chemscore.Hbond>
1.0000

> <Gold.PLP.Chemscore.CHOScore>
0.0000

> <Gold.PLP.Chemscore.Metal>
0.0000

> <Gold.Chemscore.Hbonds>
donor molecule, donor type, donor heavy atom, donor atom, acceptor molecule, acceptor atom, score
      P1  H 10752 10763       L1    25  1.00

> <Gold.PLP.Chemscore.Internal.Correction>
0.1410

> <Gold.Rescore>
     Score         DG    S(hbond)    S(metal)    S(lipo)     H(rot)  DE(clash)    DE(int)     intcor
     11.48     -15.32       1.00        0.00     105.16       2.26       0.01       3.83       ----

> <Gold.Chemscore.Fitness>
11.4801

> <Gold.Chemscore.DG>
-15.3205

> <Gold.Chemscore.ZeroCoef>
-5.4800

> <Gold.Chemscore.Hbond>
0.9983

> <Gold.Chemscore.Metal>
0.0000

> <Gold.Chemscore.Lipo>
105.1571

> <Gold.Chemscore.Internal_Hbond>
0.0000

> <Gold.Chemscore.DEClash>
0.0097

> <Gold.Chemscore.DEInternal>
3.8307

> <Gold.Chemscore.Rot>
2.2645

> <Gold.Chemscore.Internal.Correction>
   9.000000E+99

> <Gold.Chemscore.Hbonds>
donor molecule, donor type, donor heavy atom, donor atom, acceptor molecule, acceptor atom, score
      P1  H 10752 10763       L1    25  0.97

> <Gold.Chemscore.Hbond.Weighted>
-3.3342

> <Gold.Chemscore.Metal.Weighted>
-0.0000

> <Gold.Chemscore.Lipo.Weighted>
-12.3034

> <Gold.Chemscore.Internal_Hbond.Weighted>
0.0000

> <Gold.Chemscore.DEClash.Weighted>
0.0097

> <Gold.Chemscore.DEInternal.Weighted>
3.8307

> <Gold.Chemscore.Rot.Weighted>
5.7972

> <Gold.Chemscore.Internal.Correction.Weighted>
   9.000000E+99

> <Gold.Protein.RotatedTorsions>
[ 6907 6896 6895 6894 ] final -177.52 input  -60.11 | X-H torsion
[ 7974 7965 7964 7962 ] final -157.94 input  175.53 | X-H torsion
[ 8008 7997 7996 7995 ] final  122.49 input   59.86 | X-H torsion
[ 10167 10162 10161 10158 ] final   61.19 input  -65.29 | X-H torsion
[ 10718 10713 10712 10709 ] final -113.60 input   66.30 | X-H torsion
[ 10763 10752 10751 10750 ] final   71.56 input  -60.55 | X-H torsion
[ 11005 11000 10999 10996 ] final  -91.01 input  -57.11 | X-H torsion

> <Gold.Protein.ActiveResidues>
 VAL166  LYS551  ARG553  GLY616  TRP617  ASP618  TYR619  PRO620  LYS621  CYS622 
 ASP623  PHE694  ASN695  SER759  ASP760  ASP761  ALA762  ILE779  LEU786  VAL792 
 PHE793  MET794  SER795  GLU796  ALA797  LYS798  CYS799  TRP800  GLU811  SER814 

> <Gold.Protein.RotatedAtoms>
  151.6223  133.3338  159.3090 H   0  0  0  0  0  0  0  0  0  0  0  0  # atno 6907 bound_to 6896
  150.8099  134.7252  159.6690 H   0  0  0  0  0  0  0  0  0  0  0  0  # atno 6908 bound_to 6896
  152.4196  134.5984  160.0045 H   0  0  0  0  0  0  0  0  0  0  0  0  # atno 6909 bound_to 6896
  144.7527  140.3898  143.6036 H   0  0  0  0  0  0  0  0  0  0  0  0  # atno 7974 bound_to 7965
  156.2729  140.2784  156.1476 H   0  0  0  0  0  0  0  0  0  0  0  0  # atno 8008 bound_to 7997
  155.0887  140.0388  157.2679 H   0  0  0  0  0  0  0  0  0  0  0  0  # atno 8009 bound_to 7997
  154.6906  140.2628  155.6822 H   0  0  0  0  0  0  0  0  0  0  0  0  # atno 8010 bound_to 7997
  140.1575  144.4403  150.6726 H   0  0  0  0  0  0  0  0  0  0  0  0  # atno 10167 bound_to 10162
  156.0777  130.5982  150.8664 H   0  0  0  0  0  0  0  0  0  0  0  0  # atno 10718 bound_to 10713
  153.0406  135.5132  154.7612 H   0  0  0  0  0  0  0  0  0  0  0  0  # atno 10763 bound_to 10752
  154.6552  135.2931  154.9938 H   0  0  0  0  0  0  0  0  0  0  0  0  # atno 10764 bound_to 10752
  154.0808  135.6664  153.4890 H   0  0  0  0  0  0  0  0  0  0  0  0  # atno 10765 bound_to 10752
  141.1554  133.7728  156.9819 H   0  0  0  0  0  0  0  0  0  0  0  0  # atno 11005 bound_to 11000
  145.6888  139.1634  143.2659 LP  0  0  0  0  0  0  0  0  0  0  0  0  # atno 17320 bound_to 7965
  146.1498  140.6942  142.9327 LP  0  0  0  0  0  0  0  0  0  0  0  0  # atno 17321 bound_to 7965
  140.6664  143.2269  151.5733 LP  0  0  0  0  0  0  0  0  0  0  0  0  # atno 17342 bound_to 10162
  139.5397  144.2683  152.1324 LP  0  0  0  0  0  0  0  0  0  0  0  0  # atno 17343 bound_to 10162
  157.5880  131.0945  150.9165 LP  0  0  0  0  0  0  0  0  0  0  0  0  # atno 17370 bound_to 10713
  156.9347  130.5362  149.5279 LP  0  0  0  0  0  0  0  0  0  0  0  0  # atno 17371 bound_to 10713
  140.1060  134.9506  157.1995 LP  0  0  0  0  0  0  0  0  0  0  0  0  # atno 17394 bound_to 11000
  140.3255  134.2868  155.7238 LP  0  0  0  0  0  0  0  0  0  0  0  0  # atno 17395 bound_to 11000

$$$$
