AV-unprocessed.smi:102|AV-procd|sdf|969|dock3
  -GOLD-   2262017513D 1   1.00000     0.00000
 Structure written by MMmdl.
 43 44  0  0  0  0  0  0  0  0  2 V2000
  147.4551  135.6901  162.5411 C   0  0  0  0  0  0  0  0  0  0  0  0
  147.1986  134.3986  161.7758 C   0  0  0  0  0  0  0  0  0  0  0  0
  146.4741  133.5136  162.2318 O   0  0  0  0  0  0  0  0  0  0  0  0
  147.8439  134.3630  160.6005 O   0  0  0  0  0  0  0  0  0  0  0  0
  147.9494  133.1362  159.8975 C   0  0  0  0  0  0  0  0  0  0  0  0
  148.4726  133.3991  158.4770 C   0  0  2  0  0  0  0  0  0  0  0  0
  149.3651  134.5121  158.4706 O   0  0  0  0  0  0  0  0  0  0  0  0
  148.8172  135.5698  157.7439 C   0  0  1  0  0  0  0  0  0  0  0  0
  149.9268  136.4961  157.2659 N   0  0  0  0  0  0  0  0  0  0  0  0
  150.0417  136.8610  155.9321 C   0  0  0  0  0  0  0  0  0  0  0  0
  151.0004  137.7106  155.5112 C   0  0  0  0  0  0  0  0  0  0  0  0
  151.0793  138.0392  154.2102 F   0  0  0  0  0  0  0  0  0  0  0  0
  151.9315  138.2841  156.4785 C   0  0  0  0  0  0  0  0  0  0  0  0
  152.8323  139.0237  156.0850 O   0  0  0  0  0  0  0  0  0  0  0  0
  151.7483  137.9765  157.7942 N   0  5  0  0  0  0  0  0  0  0  0  0
  150.7630  137.1354  158.2266 C   0  0  0  0  0  0  0  0  0  0  0  0
  150.5572  136.9142  159.4198 O   0  0  0  0  0  0  0  0  0  0  0  0
  148.0148  134.8618  156.6394 C   0  0  1  0  0  0  0  0  0  0  0  0
  148.8633  134.3256  155.6263 O   0  0  0  0  0  0  0  0  0  0  0  0
  148.3395  133.6588  154.5840 C   0  0  0  0  0  0  0  0  0  0  0  0
  149.4054  133.1913  153.6024 C   0  0  0  0  0  0  0  0  0  0  0  0
  147.1451  133.4277  154.3968 O   0  0  0  0  0  0  0  0  0  0  0  0
  147.3897  133.7222  157.4313 C   0  0  2  0  0  0  0  0  0  0  0  0
  146.1735  134.1645  158.0286 O   0  0  0  0  0  0  0  0  0  0  0  0
  145.1143  134.4840  157.2645 C   0  0  0  0  0  0  0  0  0  0  0  0
  143.9111  134.9131  158.0934 C   0  0  0  0  0  0  0  0  0  0  0  0
  145.0705  134.4549  156.0348 O   0  0  0  0  0  0  0  0  0  0  0  0
  147.3345  136.5522  161.8850 H   0  0  0  0  0  0  0  0  0  0  0  0
  148.4695  135.6964  162.9401 H   0  0  0  0  0  0  0  0  0  0  0  0
  146.7561  135.7881  163.3721 H   0  0  0  0  0  0  0  0  0  0  0  0
  148.6444  132.4885  160.4339 H   0  0  0  0  0  0  0  0  0  0  0  0
  146.9846  132.6281  159.8621 H   0  0  0  0  0  0  0  0  0  0  0  0
  149.0357  132.5312  158.1309 H   0  0  0  0  0  0  0  0  0  0  0  0
  148.1905  136.1888  158.3884 H   0  0  0  0  0  0  0  0  0  0  0  0
  149.3460  136.4853  155.1986 H   0  0  0  0  0  0  0  0  0  0  0  0
  147.2806  135.5504  156.2177 H   0  0  0  0  0  0  0  0  0  0  0  0
  149.9708  134.0434  153.2243 H   0  0  0  0  0  0  0  0  0  0  0  0
  148.9489  132.6772  152.7563 H   0  0  0  0  0  0  0  0  0  0  0  0
  150.0968  132.5054  154.0920 H   0  0  0  0  0  0  0  0  0  0  0  0
  147.1965  132.8475  156.8078 H   0  0  0  0  0  0  0  0  0  0  0  0
  143.7076  134.1815  158.8754 H   0  0  0  0  0  0  0  0  0  0  0  0
  143.0250  135.0027  157.4647 H   0  0  0  0  0  0  0  0  0  0  0  0
  144.1016  135.8786  158.5624 H   0  0  0  0  0  0  0  0  0  0  0  0
  1  2  1  0  0  0  0
  1 28  1  0  0  0  0
  1 29  1  0  0  0  0
  1 30  1  0  0  0  0
  2  3  2  0  0  0  0
  2  4  1  0  0  0  0
  4  5  1  0  0  0  0
  5  6  1  0  0  0  0
  5 31  1  0  0  0  0
  5 32  1  0  0  0  0
  6 23  1  0  0  0  0
  6  7  1  0  0  0  0
  6 33  1  0  0  0  0
  7  8  1  0  0  0  0
  8  9  1  0  0  0  0
  8 18  1  0  0  0  0
  8 34  1  0  0  0  0
  9 16  1  0  0  0  0
  9 10  1  0  0  0  0
 10 11  2  0  0  0  0
 10 35  1  0  0  0  0
 11 12  1  0  0  0  0
 11 13  1  0  0  0  0
 13 14  2  0  0  0  0
 13 15  1  0  0  0  0
 15 16  1  0  0  0  0
 16 17  2  0  0  0  0
 18 19  1  0  0  0  0
 18 23  1  0  0  0  0
 18 36  1  0  0  0  0
 19 20  1  0  0  0  0
 20 21  1  0  0  0  0
 20 22  2  0  0  0  0
 21 37  1  0  0  0  0
 21 38  1  0  0  0  0
 21 39  1  0  0  0  0
 23 24  1  0  0  0  0
 23 40  1  0  0  0  0
 24 25  1  0  0  0  0
 25 26  1  0  0  0  0
 25 27  2  0  0  0  0
 26 41  1  0  0  0  0
 26 42  1  0  0  0  0
 26 43  1  0  0  0  0
M  CHG  1  15  -1
M  END
> <s_m_source_file>
AV-unprocessed.smi

> <i_m_source_file_index>
102

> <i_lp_mmshare_version>
43012

> <i_f3d_flags>
0

> <s_epik_input>
W0NIM11DKD1PKU9bQ0gyXVtDQEBIXTFPW0NASF0oW0NAQEhdKE9DKD1PKVtDSDNdKVtDQEhdMU9DKD1PKVtDSDNdKW4yW2NIXWMoRiljKD1PKVtuSF1jMj1P

> <s_epik_cmdline>
J2VwaWtfcHl0aG9uJywgJy1waCcsICc3LjAnLCAnLXRuJywgJzgnLCAnLW1hJywgJzIwMCcsICctbWV0YWxfYmluZGluZycsICctaW1hZScsICc8aW5maWxlLm1hZT4nLCAnLW9tYWUnLCAnPG91dGZpbGUubWFlPic=

> <r_epik_Ionization_Penalty>
1.40304

> <r_epik_Ionization_Penalty_Charging>
1.43915e-08

> <r_epik_Ionization_Penalty_Neutral>
1.40304

> <r_epik_State_Penalty>
1.48536

> <r_epik_Charging_Adjusted_Penalty>
1.48536

> <i_epik_Tot_Q>
-1

> <i_epik_Tot_abs_Q>
1

> <r_epik_Metal_State_Penalty>
0.00663881

> <b_epik_Metal_Only>
0

> <s_epik_Chemistry_Notes>
This compound has an ester and may undergo hydrolysis at high or low pH. This compound contains an acetal/aminal-like group ( X-CH(R)-Y where X, Y are N, S, or O) that may be acid/base labile, releasing an aldehyde.

> <s_lp_Force_Field>
OPLS_2005

> <r_lp_Energy>
30.6684

> <b_lp_Chiralities_Consistent>
1

> <s_lp_Variant>
AV-unprocessed.smi:102-25

> <Gold.Version>
5.8.1

> <Gold.Id.Protein>
6NUR|6NUR_protein|mol2

> <Gold.PLP.Fitness>
35.0234

> <Gold.PLP.PLP>
-28.0120

> <Gold.PLP.part.hbond>
-3.0000

> <Gold.PLP.part.metal>
0.0000

> <Gold.PLP.part.buried>
-6.5232

> <Gold.PLP.part.nonpolar>
-19.4331

> <Gold.PLP.part.repulsive>
0.1693

> <Gold.PLP.ligand.clash>
0.0000

> <Gold.PLP.ligand.torsion>
0.6316

> <Gold.PLP.Chemscore.Hbond>
2.6800

> <Gold.PLP.Chemscore.CHOScore>
0.0000

> <Gold.PLP.Chemscore.Metal>
0.0000

> <Gold.Chemscore.Hbonds>
donor molecule, donor type, donor heavy atom, donor atom, acceptor molecule, acceptor atom, score
      P1  H  6896  6907       L1    17  0.92
      P1  H  6896  6909       L1     7  0.69
      P1  H  7997  8008       L1    14  1.00

> <Gold.PLP.Chemscore.Internal.Correction>
0.2346

> <Gold.Rescore>
     Score         DG    S(hbond)    S(metal)    S(lipo)     H(rot)  DE(clash)    DE(int)     intcor
      2.71      -7.49       2.46        0.00      34.49       4.00       0.00       4.78       ----

> <Gold.Chemscore.Fitness>
2.7099

> <Gold.Chemscore.DG>
-7.4908

> <Gold.Chemscore.ZeroCoef>
-5.4800

> <Gold.Chemscore.Hbond>
2.4561

> <Gold.Chemscore.Metal>
0.0000

> <Gold.Chemscore.Lipo>
34.4857

> <Gold.Chemscore.Internal_Hbond>
0.0000

> <Gold.Chemscore.DEClash>
0.0038

> <Gold.Chemscore.DEInternal>
4.7771

> <Gold.Chemscore.Rot>
3.9951

> <Gold.Chemscore.Internal.Correction>
   9.000000E+99

> <Gold.Chemscore.Hbonds>
donor molecule, donor type, donor heavy atom, donor atom, acceptor molecule, acceptor atom, score
      P1  H  6896  6907       L1    17  0.62
      P1  H  6896  6909       L1     7  0.21
      P1  H  7997  8008       L1    14  0.96

> <Gold.Chemscore.Hbond.Weighted>
-8.2034

> <Gold.Chemscore.Metal.Weighted>
-0.0000

> <Gold.Chemscore.Lipo.Weighted>
-4.0348

> <Gold.Chemscore.Internal_Hbond.Weighted>
0.0000

> <Gold.Chemscore.DEClash.Weighted>
0.0038

> <Gold.Chemscore.DEInternal.Weighted>
4.7771

> <Gold.Chemscore.Rot.Weighted>
10.2274

> <Gold.Chemscore.Internal.Correction.Weighted>
   9.000000E+99

> <Gold.Protein.RotatedTorsions>
[ 6907 6896 6895 6894 ] final   -2.93 input  -60.11 | X-H torsion
[ 7974 7965 7964 7962 ] final   86.06 input  175.53 | X-H torsion
[ 8008 7997 7996 7995 ] final  -24.85 input   59.86 | X-H torsion
[ 10167 10162 10161 10158 ] final   78.22 input  -65.29 | X-H torsion
[ 10718 10713 10712 10709 ] final  -21.12 input   66.30 | X-H torsion
[ 10763 10752 10751 10750 ] final -141.25 input  -60.55 | X-H torsion
[ 11005 11000 10999 10996 ] final -172.41 input  -57.11 | X-H torsion

> <Gold.Protein.ActiveResidues>
 VAL166  LYS551  ARG553  GLY616  TRP617  ASP618  TYR619  PRO620  LYS621  CYS622 
 ASP623  PHE694  ASN695  SER759  ASP760  ASP761  ALA762  ILE779  LEU786  VAL792 
 PHE793  MET794  SER795  GLU796  ALA797  LYS798  CYS799  TRP800  GLU811  SER814 

> <Gold.Protein.RotatedAtoms>
  151.5219  135.1067  159.9880 H   0  0  0  0  0  0  0  0  0  0  0  0  # atno 6907 bound_to 6896
  152.4617  133.7831  159.6872 H   0  0  0  0  0  0  0  0  0  0  0  0  # atno 6908 bound_to 6896
  150.8582  133.7619  159.3027 H   0  0  0  0  0  0  0  0  0  0  0  0  # atno 6909 bound_to 6896
  145.5773  139.2321  143.2372 H   0  0  0  0  0  0  0  0  0  0  0  0  # atno 7974 bound_to 7965
  154.4507  140.1942  156.0529 H   0  0  0  0  0  0  0  0  0  0  0  0  # atno 8008 bound_to 7997
  156.0641  140.3293  155.7469 H   0  0  0  0  0  0  0  0  0  0  0  0  # atno 8009 bound_to 7997
  155.5366  140.0582  157.2869 H   0  0  0  0  0  0  0  0  0  0  0  0  # atno 8010 bound_to 7997
  139.9732  144.5879  150.7966 H   0  0  0  0  0  0  0  0  0  0  0  0  # atno 10167 bound_to 10162
  156.5224  130.4635  149.6589 H   0  0  0  0  0  0  0  0  0  0  0  0  # atno 10718 bound_to 10713
  154.8551  135.3530  154.5838 H   0  0  0  0  0  0  0  0  0  0  0  0  # atno 10763 bound_to 10752
  153.6449  135.6996  153.5233 H   0  0  0  0  0  0  0  0  0  0  0  0  # atno 10764 bound_to 10752
  153.2941  135.4226  155.1152 H   0  0  0  0  0  0  0  0  0  0  0  0  # atno 10765 bound_to 10752
  140.4973  134.5927  157.4976 H   0  0  0  0  0  0  0  0  0  0  0  0  # atno 11005 bound_to 11000
  146.1741  140.6599  142.9219 LP  0  0  0  0  0  0  0  0  0  0  0  0  # atno 17320 bound_to 7965
  144.7410  140.4942  143.6869 LP  0  0  0  0  0  0  0  0  0  0  0  0  # atno 17321 bound_to 7965
  140.7515  143.2973  151.3171 LP  0  0  0  0  0  0  0  0  0  0  0  0  # atno 17342 bound_to 10162
  139.6465  144.0441  152.2594 LP  0  0  0  0  0  0  0  0  0  0  0  0  # atno 17343 bound_to 10162
  156.3136  130.7242  151.2140 LP  0  0  0  0  0  0  0  0  0  0  0  0  # atno 17370 bound_to 10713
  157.7434  131.0474  150.4944 LP  0  0  0  0  0  0  0  0  0  0  0  0  # atno 17371 bound_to 10713
  139.9734  134.7256  155.9997 LP  0  0  0  0  0  0  0  0  0  0  0  0  # atno 17394 bound_to 11000
  141.1453  133.6557  156.3850 LP  0  0  0  0  0  0  0  0  0  0  0  0  # atno 17395 bound_to 11000

$$$$
