AV-unprocessed.smi:1999|AV-procd|sdf|8095|dock3
  -GOLD-   2272010313D 1   1.00000     0.00000
 Structure written by MMmdl.
 39 40  0  0  0  0  0  0  0  0  2 V2000
  137.0089  137.5911  154.2243 C   0  0  0  0  0  0  0  0  0  0  0  0
  138.4876  137.4858  154.0680 C   0  0  0  0  0  0  0  0  0  0  0  0
  139.2132  136.5503  154.6926 N   0  0  0  0  0  0  0  0  0  0  0  0
  140.5655  136.6494  154.3972 N   0  0  0  0  0  0  0  0  0  0  0  0
  140.8200  137.6594  153.5541 C   0  0  0  0  0  0  0  0  0  0  0  0
  142.1212  137.9922  153.0926 N   0  0  0  0  0  0  0  0  0  0  0  0
  143.1582  137.1676  152.8650 C   0  0  0  0  0  0  0  0  0  0  0  0
  143.1326  135.9425  152.9829 O   0  0  0  0  0  0  0  0  0  0  0  0
  144.2521  137.8510  152.4956 N   0  0  0  0  0  0  0  0  0  0  0  0
  145.5506  137.2734  152.1443 C   0  0  1  0  0  0  0  0  0  0  0  0
  146.5349  138.4114  151.8422 C   0  0  0  0  0  0  0  0  0  0  0  0
  146.0878  136.3546  153.2671 C   0  0  0  0  0  0  0  0  0  0  0  0
  146.7611  135.1347  152.7535 N   0  3  0  0  0  0  0  0  0  0  0  0
  147.1167  134.1621  153.8154 C   0  0  0  0  0  0  0  0  0  0  0  0
  147.8829  132.9745  153.2101 C   0  0  0  0  0  0  0  0  0  0  0  0
  147.0887  132.3636  152.2002 O   0  0  0  0  0  0  0  0  0  0  0  0
  146.7981  133.2602  151.1347 C   0  0  0  0  0  0  0  0  0  0  0  0
  146.0042  134.4641  151.6710 C   0  0  0  0  0  0  0  0  0  0  0  0
  139.4151  138.5847  153.0534 S   0  0  0  0  0  0  0  0  0  0  0  0
  136.5426  136.6205  154.0540 H   0  0  0  0  0  0  0  0  0  0  0  0
  136.6007  138.3039  153.5074 H   0  0  0  0  0  0  0  0  0  0  0  0
  136.7633  137.9280  155.2315 H   0  0  0  0  0  0  0  0  0  0  0  0
  142.2823  138.9751  152.9283 H   0  0  0  0  0  0  0  0  0  0  0  0
  144.1757  138.8554  152.4261 H   0  0  0  0  0  0  0  0  0  0  0  0
  145.4454  136.6966  151.2244 H   0  0  0  0  0  0  0  0  0  0  0  0
  147.5061  138.0196  151.5384 H   0  0  0  0  0  0  0  0  0  0  0  0
  146.6915  139.0465  152.7149 H   0  0  0  0  0  0  0  0  0  0  0  0
  146.1692  139.0429  151.0316 H   0  0  0  0  0  0  0  0  0  0  0  0
  146.7726  136.9000  153.9185 H   0  0  0  0  0  0  0  0  0  0  0  0
  145.2453  136.0600  153.8948 H   0  0  0  0  0  0  0  0  0  0  0  0
  147.7313  134.6378  154.5789 H   0  0  0  0  0  0  0  0  0  0  0  0
  146.2106  133.8085  154.3097 H   0  0  0  0  0  0  0  0  0  0  0  0
  148.8392  133.2974  152.7950 H   0  0  0  0  0  0  0  0  0  0  0  0
  148.1033  132.2368  153.9819 H   0  0  0  0  0  0  0  0  0  0  0  0
  147.7232  133.5864  150.6561 H   0  0  0  0  0  0  0  0  0  0  0  0
  146.2168  132.7331  150.3780 H   0  0  0  0  0  0  0  0  0  0  0  0
  145.0338  134.1380  152.0488 H   0  0  0  0  0  0  0  0  0  0  0  0
  145.8151  135.1671  150.8590 H   0  0  0  0  0  0  0  0  0  0  0  0
  147.6296  135.4435  152.3393 H   0  0  0  0  0  0  0  0  0  0  0  0
  1  2  1  0  0  0  0
  1 20  1  0  0  0  0
  1 21  1  0  0  0  0
  1 22  1  0  0  0  0
  2 19  1  0  0  0  0
  2  3  2  0  0  0  0
  3  4  1  0  0  0  0
  4  5  2  0  0  0  0
  5  6  1  0  0  0  0
  5 19  1  0  0  0  0
  6  7  1  0  0  0  0
  6 23  1  0  0  0  0
  7  8  2  0  0  0  0
  7  9  1  0  0  0  0
  9 10  1  0  0  0  0
  9 24  1  0  0  0  0
 10 11  1  0  0  0  0
 10 12  1  0  0  0  0
 10 25  1  0  0  0  0
 11 26  1  0  0  0  0
 11 27  1  0  0  0  0
 11 28  1  0  0  0  0
 12 13  1  0  0  0  0
 12 29  1  0  0  0  0
 12 30  1  0  0  0  0
 13 18  1  0  0  0  0
 13 14  1  0  0  0  0
 13 39  1  0  0  0  0
 14 15  1  0  0  0  0
 14 31  1  0  0  0  0
 14 32  1  0  0  0  0
 15 16  1  0  0  0  0
 15 33  1  0  0  0  0
 15 34  1  0  0  0  0
 16 17  1  0  0  0  0
 17 18  1  0  0  0  0
 17 35  1  0  0  0  0
 17 36  1  0  0  0  0
 18 37  1  0  0  0  0
 18 38  1  0  0  0  0
M  CHG  1  13   1
M  END
> <s_m_source_file>
AV-unprocessed.smi

> <i_m_source_file_index>
1999

> <i_lp_mmshare_version>
43012

> <i_f3d_flags>
0

> <s_epik_input>
W0NIM11jMW5uYyhzMSlbTkhdQyg9TylbTkhdW0NASF0oW0NIM10pW0NIMl1OMltDSDJdW0NIMl1PW0NIMl1bQ0gyXTI=

> <s_epik_cmdline>
J2VwaWtfcHl0aG9uJywgJy1waCcsICc3LjAnLCAnLXRuJywgJzgnLCAnLW1hJywgJzIwMCcsICctbWV0YWxfYmluZGluZycsICctaW1hZScsICc8aW5maWxlLm1hZT4nLCAnLW9tYWUnLCAnPG91dGZpbGUubWFlPic=

> <r_lp_tautomer_probability>
1

> <r_epik_Ionization_Penalty>
0.701298

> <r_epik_Ionization_Penalty_Charging>
0.695697

> <r_epik_Ionization_Penalty_Neutral>
0.00560124

> <r_epik_State_Penalty>
0.717972

> <r_epik_Charging_Adjusted_Penalty>
1.41367

> <i_epik_Tot_Q>
1

> <i_epik_Tot_abs_Q>
1

> <r_epik_Metal_State_Penalty>
1.07748

> <b_epik_Metal_Only>
0

> <s_lp_Force_Field>
OPLS_2005

> <r_lp_Energy>
20.3005

> <b_lp_Chiralities_Consistent>
1

> <s_lp_Variant>
AV-unprocessed.smi:1999-4

> <Gold.Version>
5.8.1

> <Gold.Id.Protein>
6NUR|6NUR_protein|mol2

> <Gold.PLP.Fitness>
44.5447

> <Gold.PLP.PLP>
-33.7699

> <Gold.PLP.part.hbond>
-4.7202

> <Gold.PLP.part.metal>
0.0000

> <Gold.PLP.part.buried>
-3.4280

> <Gold.PLP.part.nonpolar>
-26.1806

> <Gold.PLP.part.repulsive>
0.6870

> <Gold.PLP.ligand.clash>
0.0000

> <Gold.PLP.ligand.torsion>
0.8256

> <Gold.PLP.Chemscore.Hbond>
4.1258

> <Gold.PLP.Chemscore.CHOScore>
0.0000

> <Gold.PLP.Chemscore.Metal>
0.0000

> <Gold.Chemscore.Hbonds>
donor molecule, donor type, donor heavy atom, donor atom, acceptor molecule, acceptor atom, score
      L1  H     6    23       P1 10175  0.96
      L1  H     9    24       P1 10175  1.00
      L1  H    13    39       P1  7948  2.00
      P1  H 11000 11005       L1     3  0.03

> <Gold.PLP.Chemscore.Internal.Correction>
0.0489

> <Gold.Rescore>
     Score         DG    S(hbond)    S(metal)    S(lipo)     H(rot)  DE(clash)    DE(int)     intcor
     16.02     -18.23       2.93        0.00      61.11       1.63       0.27       1.94       ----

> <Gold.Chemscore.Fitness>
16.0192

> <Gold.Chemscore.DG>
-18.2299

> <Gold.Chemscore.ZeroCoef>
-5.4800

> <Gold.Chemscore.Hbond>
2.9272

> <Gold.Chemscore.Metal>
0.0000

> <Gold.Chemscore.Lipo>
61.1148

> <Gold.Chemscore.Internal_Hbond>
0.0000

> <Gold.Chemscore.DEClash>
0.2741

> <Gold.Chemscore.DEInternal>
1.9366

> <Gold.Chemscore.Rot>
1.6317

> <Gold.Chemscore.Internal.Correction>
   9.000000E+99

> <Gold.Chemscore.Hbonds>
donor molecule, donor type, donor heavy atom, donor atom, acceptor molecule, acceptor atom, score
      L1  H     6    23       P1 10175  0.86
      L1  H     9    24       P1 10175  1.00
      L1  H    13    39       P1  7948  0.98

> <Gold.Chemscore.Hbond.Weighted>
-9.7767

> <Gold.Chemscore.Metal.Weighted>
-0.0000

> <Gold.Chemscore.Lipo.Weighted>
-7.1504

> <Gold.Chemscore.Internal_Hbond.Weighted>
0.0000

> <Gold.Chemscore.DEClash.Weighted>
0.2741

> <Gold.Chemscore.DEInternal.Weighted>
1.9366

> <Gold.Chemscore.Rot.Weighted>
4.1773

> <Gold.Chemscore.Internal.Correction.Weighted>
   9.000000E+99

> <Gold.Protein.RotatedTorsions>
[ 6907 6896 6895 6894 ] final  111.40 input  -60.11 | X-H torsion
[ 7974 7965 7964 7962 ] final  -21.84 input  175.53 | X-H torsion
[ 8008 7997 7996 7995 ] final  -97.45 input   59.86 | X-H torsion
[ 10167 10162 10161 10158 ] final  128.52 input  -65.29 | X-H torsion
[ 10718 10713 10712 10709 ] final   43.69 input   66.30 | X-H torsion
[ 10763 10752 10751 10750 ] final -139.21 input  -60.55 | X-H torsion
[ 11005 11000 10999 10996 ] final   74.70 input  -57.11 | X-H torsion

> <Gold.Protein.ActiveResidues>
 VAL166  LYS551  ARG553  GLY616  TRP617  ASP618  TYR619  PRO620  LYS621  CYS622 
 ASP623  PHE694  ASN695  SER759  ASP760  ASP761  ALA762  ILE779  LEU786  VAL792 
 PHE793  MET794  SER795  GLU796  ALA797  LYS798  CYS799  TRP800  GLU811  SER814 

> <Gold.Protein.RotatedAtoms>
  152.4971  133.8663  159.7275 H   0  0  0  0  0  0  0  0  0  0  0  0  # atno 6907 bound_to 6896
  150.9161  133.6928  159.2849 H   0  0  0  0  0  0  0  0  0  0  0  0  # atno 6908 bound_to 6896
  151.4321  135.1015  159.9698 H   0  0  0  0  0  0  0  0  0  0  0  0  # atno 6909 bound_to 6896
  146.1710  140.4397  142.8532 H   0  0  0  0  0  0  0  0  0  0  0  0  # atno 7974 bound_to 7965
  154.7879  140.0463  157.1178 H   0  0  0  0  0  0  0  0  0  0  0  0  # atno 8008 bound_to 7997
  154.9626  140.3079  155.5004 H   0  0  0  0  0  0  0  0  0  0  0  0  # atno 8009 bound_to 7997
  156.2946  140.2268  156.4712 H   0  0  0  0  0  0  0  0  0  0  0  0  # atno 8010 bound_to 7997
  139.5523  144.6822  151.4286 H   0  0  0  0  0  0  0  0  0  0  0  0  # atno 10167 bound_to 10162
  157.4187  130.7956  149.7495 H   0  0  0  0  0  0  0  0  0  0  0  0  # atno 10718 bound_to 10713
  154.8615  135.3589  154.5510 H   0  0  0  0  0  0  0  0  0  0  0  0  # atno 10763 bound_to 10752
  153.6128  135.7009  153.5345 H   0  0  0  0  0  0  0  0  0  0  0  0  # atno 10764 bound_to 10752
  153.3195  135.4155  155.1365 H   0  0  0  0  0  0  0  0  0  0  0  0  # atno 10765 bound_to 10752
  139.9378  134.7455  156.1180 H   0  0  0  0  0  0  0  0  0  0  0  0  # atno 11005 bound_to 11000
  144.8163  140.6473  143.6382 LP  0  0  0  0  0  0  0  0  0  0  0  0  # atno 17320 bound_to 7965
  145.4341  139.1545  143.4006 LP  0  0  0  0  0  0  0  0  0  0  0  0  # atno 17321 bound_to 7965
  140.6788  143.8128  150.7094 LP  0  0  0  0  0  0  0  0  0  0  0  0  # atno 17342 bound_to 10162
  140.1575  143.4304  152.2089 LP  0  0  0  0  0  0  0  0  0  0  0  0  # atno 17343 bound_to 10162
  155.9873  130.3967  150.3170 LP  0  0  0  0  0  0  0  0  0  0  0  0  # atno 17370 bound_to 10713
  157.1315  131.0273  151.2967 LP  0  0  0  0  0  0  0  0  0  0  0  0  # atno 17371 bound_to 10713
  141.1000  133.6681  156.2733 LP  0  0  0  0  0  0  0  0  0  0  0  0  # atno 17394 bound_to 11000
  140.6029  134.5536  157.5520 LP  0  0  0  0  0  0  0  0  0  0  0  0  # atno 17395 bound_to 11000

$$$$
