AV-unprocessed.smi:2406|AV-procd|sdf|9517|dock5
  -GOLD-   2272013153D 1   1.00000     0.00000
 Structure written by MMmdl.
 36 37  0  0  0  0  0  0  0  0  1 V2000
  150.7313  141.8598  156.0867 C   0  0  0  0  0  0  0  0  0  0  0  0
  150.5561  140.7751  155.1821 O   0  0  0  0  0  0  0  0  0  0  0  0
  149.3001  140.5664  154.6512 C   0  0  0  0  0  0  0  0  0  0  0  0
  149.0136  139.3410  154.0152 C   0  0  0  0  0  0  0  0  0  0  0  0
  147.7129  139.1651  153.4918 C   0  0  0  0  0  0  0  0  0  0  0  0
  147.4626  137.9138  152.8692 N   0  0  0  0  0  0  0  0  0  0  0  0
  146.2758  137.3277  152.6333 C   0  0  0  0  0  0  0  0  0  0  0  0
  145.1763  137.8184  152.8911 O   0  0  0  0  0  0  0  0  0  0  0  0
  146.4389  136.1171  152.0795 N   0  0  0  0  0  0  0  0  0  0  0  0
  145.3713  135.1762  151.7451 C   0  0  1  0  0  0  0  0  0  0  0  0
  144.5497  135.7276  150.5712 C   0  0  0  0  0  0  0  0  0  0  0  0
  145.9668  133.7921  151.4258 C   0  0  0  0  0  0  0  0  0  0  0  0
  144.9175  132.7004  151.3038 C   0  0  0  0  0  0  0  0  0  0  0  0
  145.2472  131.3544  150.7001 C   0  0  0  0  0  0  0  0  0  0  0  0
  144.3532  132.3186  149.9561 C   0  0  0  0  0  0  0  0  0  0  0  0
  146.7973  140.1586  153.6072 N   0  0  0  0  0  0  0  0  0  0  0  0
  147.1679  141.2820  154.2243 C   0  0  0  0  0  0  0  0  0  0  0  0
  148.3646  141.5412  154.7527 N   0  0  0  0  0  0  0  0  0  0  0  0
  151.7679  141.8859  156.4219 H   0  0  0  0  0  0  0  0  0  0  0  0
  150.1010  141.7477  156.9700 H   0  0  0  0  0  0  0  0  0  0  0  0
  150.5130  142.8166  155.6105 H   0  0  0  0  0  0  0  0  0  0  0  0
  149.7647  138.5682  153.9390 H   0  0  0  0  0  0  0  0  0  0  0  0
  148.2827  137.3918  152.5982 H   0  0  0  0  0  0  0  0  0  0  0  0
  147.3821  135.8044  151.9015 H   0  0  0  0  0  0  0  0  0  0  0  0
  144.6974  135.0570  152.5954 H   0  0  0  0  0  0  0  0  0  0  0  0
  143.7344  135.0518  150.3117 H   0  0  0  0  0  0  0  0  0  0  0  0
  145.1665  135.8615  149.6820 H   0  0  0  0  0  0  0  0  0  0  0  0
  144.1085  136.6932  150.8202 H   0  0  0  0  0  0  0  0  0  0  0  0
  146.5132  133.8384  150.4833 H   0  0  0  0  0  0  0  0  0  0  0  0
  146.6930  133.5092  152.1894 H   0  0  0  0  0  0  0  0  0  0  0  0
  144.2082  132.6874  152.1294 H   0  0  0  0  0  0  0  0  0  0  0  0
  146.2535  131.2033  150.3142 H   0  0  0  0  0  0  0  0  0  0  0  0
  144.7832  130.4780  151.1479 H   0  0  0  0  0  0  0  0  0  0  0  0
  143.2922  132.0831  149.9050 H   0  0  0  0  0  0  0  0  0  0  0  0
  144.7661  132.8056  149.0747 H   0  0  0  0  0  0  0  0  0  0  0  0
  146.4230  142.0597  154.3051 H   0  0  0  0  0  0  0  0  0  0  0  0
  1  2  1  0  0  0  0
  1 19  1  0  0  0  0
  1 20  1  0  0  0  0
  1 21  1  0  0  0  0
  2  3  1  0  0  0  0
  3 18  1  0  0  0  0
  3  4  2  0  0  0  0
  4  5  1  0  0  0  0
  4 22  1  0  0  0  0
  5  6  1  0  0  0  0
  5 16  2  0  0  0  0
  6  7  1  0  0  0  0
  6 23  1  0  0  0  0
  7  8  2  0  0  0  0
  7  9  1  0  0  0  0
  9 10  1  0  0  0  0
  9 24  1  0  0  0  0
 10 11  1  0  0  0  0
 10 12  1  0  0  0  0
 10 25  1  0  0  0  0
 11 26  1  0  0  0  0
 11 27  1  0  0  0  0
 11 28  1  0  0  0  0
 12 13  1  0  0  0  0
 12 29  1  0  0  0  0
 12 30  1  0  0  0  0
 13 15  1  0  0  0  0
 13 14  1  0  0  0  0
 13 31  1  0  0  0  0
 14 15  1  0  0  0  0
 14 32  1  0  0  0  0
 14 33  1  0  0  0  0
 15 34  1  0  0  0  0
 15 35  1  0  0  0  0
 16 17  1  0  0  0  0
 17 18  2  0  0  0  0
 17 36  1  0  0  0  0
M  END
> <s_m_source_file>
AV-unprocessed.smi

> <i_m_source_file_index>
2406

> <i_lp_mmshare_version>
43012

> <i_f3d_flags>
0

> <s_epik_input>
W0NIM11PYzFbY0hdYyhuW2NIXW4xKVtOSF1DKD1PKVtOSF1bQ0BIXShbQ0gzXSlbQ0gyXVtDSF0yW0NIMl1bQ0gyXTI=

> <s_epik_cmdline>
J2VwaWtfcHl0aG9uJywgJy1waCcsICc3LjAnLCAnLXRuJywgJzgnLCAnLW1hJywgJzIwMCcsICctbWV0YWxfYmluZGluZycsICctaW1hZScsICc8aW5maWxlLm1hZT4nLCAnLW9tYWUnLCAnPG91dGZpbGUubWFlPic=

> <r_lp_tautomer_probability>
1

> <r_epik_Ionization_Penalty>
2.82876e-05

> <r_epik_Ionization_Penalty_Charging>
0

> <r_epik_Ionization_Penalty_Neutral>
2.82876e-05

> <r_epik_State_Penalty>
-0

> <r_epik_Charging_Adjusted_Penalty>
0

> <i_epik_Tot_Q>
0

> <i_epik_Tot_abs_Q>
0

> <r_epik_Metal_State_Penalty>
-0

> <b_epik_Metal_Only>
0

> <s_lp_Force_Field>
OPLS_2005

> <r_lp_Energy>
10.7025

> <b_lp_Chiralities_Consistent>
1

> <s_lp_Variant>
AV-unprocessed.smi:2406-2

> <Gold.Version>
5.8.1

> <Gold.Id.Protein>
6NUR|6NUR_protein|mol2

> <Gold.PLP.Fitness>
37.6157

> <Gold.PLP.PLP>
-30.1054

> <Gold.PLP.part.hbond>
-2.6627

> <Gold.PLP.part.metal>
0.0000

> <Gold.PLP.part.buried>
-1.7194

> <Gold.PLP.part.nonpolar>
-26.0490

> <Gold.PLP.part.repulsive>
1.0534

> <Gold.PLP.ligand.clash>
0.0000

> <Gold.PLP.ligand.torsion>
0.7093

> <Gold.PLP.Chemscore.Hbond>
2.7833

> <Gold.PLP.Chemscore.CHOScore>
0.0000

> <Gold.PLP.Chemscore.Metal>
0.0000

> <Gold.Chemscore.Hbonds>
donor molecule, donor type, donor heavy atom, donor atom, acceptor molecule, acceptor atom, score
      L1  H     6    23       P1  7948  0.96
      L1  H     9    24       P1  7948  0.94
      P1  H  7989  7998       L1     2  0.85

> <Gold.PLP.Chemscore.Internal.Correction>
0.5792

> <Gold.Rescore>
     Score         DG    S(hbond)    S(metal)    S(lipo)     H(rot)  DE(clash)    DE(int)     intcor
     13.85     -15.66       2.47        0.00      57.01       1.85       0.01       1.80       ----

> <Gold.Chemscore.Fitness>
13.8455

> <Gold.Chemscore.DG>
-15.6596

> <Gold.Chemscore.ZeroCoef>
-5.4800

> <Gold.Chemscore.Hbond>
2.4656

> <Gold.Chemscore.Metal>
0.0000

> <Gold.Chemscore.Lipo>
57.0076

> <Gold.Chemscore.Internal_Hbond>
0.0000

> <Gold.Chemscore.DEClash>
0.0092

> <Gold.Chemscore.DEInternal>
1.8050

> <Gold.Chemscore.Rot>
1.8458

> <Gold.Chemscore.Internal.Correction>
   9.000000E+99

> <Gold.Chemscore.Hbonds>
donor molecule, donor type, donor heavy atom, donor atom, acceptor molecule, acceptor atom, score
      L1  H     6    23       P1  7948  0.88
      L1  H     9    24       P1  7948  0.90
      P1  H  7989  7998       L1     2  0.19

> <Gold.Chemscore.Hbond.Weighted>
-8.2351

> <Gold.Chemscore.Metal.Weighted>
-0.0000

> <Gold.Chemscore.Lipo.Weighted>
-6.6699

> <Gold.Chemscore.Internal_Hbond.Weighted>
0.0000

> <Gold.Chemscore.DEClash.Weighted>
0.0092

> <Gold.Chemscore.DEInternal.Weighted>
1.8050

> <Gold.Chemscore.Rot.Weighted>
4.7254

> <Gold.Chemscore.Internal.Correction.Weighted>
   9.000000E+99

> <Gold.Protein.RotatedTorsions>
[ 6907 6896 6895 6894 ] final   56.28 input  -60.11 | X-H torsion
[ 7974 7965 7964 7962 ] final    1.11 input  175.53 | X-H torsion
[ 8008 7997 7996 7995 ] final   25.97 input   59.86 | X-H torsion
[ 10167 10162 10161 10158 ] final   58.67 input  -65.29 | X-H torsion
[ 10718 10713 10712 10709 ] final  155.97 input   66.30 | X-H torsion
[ 10763 10752 10751 10750 ] final  -83.26 input  -60.55 | X-H torsion
[ 11005 11000 10999 10996 ] final  -24.20 input  -57.11 | X-H torsion

> <Gold.Protein.ActiveResidues>
 VAL166  LYS551  ARG553  GLY616  TRP617  ASP618  TYR619  PRO620  LYS621  CYS622 
 ASP623  PHE694  ASN695  SER759  ASP760  ASP761  ALA762  ILE779  LEU786  VAL792 
 PHE793  MET794  SER795  GLU796  ALA797  LYS798  CYS799  TRP800  GLU811  SER814 

> <Gold.Protein.RotatedAtoms>
  152.3621  134.6857  160.0203 H   0  0  0  0  0  0  0  0  0  0  0  0  # atno 6907 bound_to 6896
  151.7177  133.3308  159.3315 H   0  0  0  0  0  0  0  0  0  0  0  0  # atno 6908 bound_to 6896
  150.7612  134.6410  159.6282 H   0  0  0  0  0  0  0  0  0  0  0  0  # atno 6909 bound_to 6896
  146.2438  140.1037  142.8346 H   0  0  0  0  0  0  0  0  0  0  0  0  # atno 7974 bound_to 7965
  155.0200  140.3146  155.4797 H   0  0  0  0  0  0  0  0  0  0  0  0  # atno 8008 bound_to 7997
  156.2894  140.2199  156.5260 H   0  0  0  0  0  0  0  0  0  0  0  0  # atno 8009 bound_to 7997
  154.7460  140.0470  157.0840 H   0  0  0  0  0  0  0  0  0  0  0  0  # atno 8010 bound_to 7997
  140.1847  144.4146  150.6599 H   0  0  0  0  0  0  0  0  0  0  0  0  # atno 10167 bound_to 10162
  157.2112  131.0698  151.1968 H   0  0  0  0  0  0  0  0  0  0  0  0  # atno 10718 bound_to 10713
  154.5856  135.5562  153.7228 H   0  0  0  0  0  0  0  0  0  0  0  0  # atno 10763 bound_to 10752
  153.0097  135.6331  154.1921 H   0  0  0  0  0  0  0  0  0  0  0  0  # atno 10764 bound_to 10752
  154.1862  135.2884  155.3016 H   0  0  0  0  0  0  0  0  0  0  0  0  # atno 10765 bound_to 10752
  140.8823  133.7645  156.0317 H   0  0  0  0  0  0  0  0  0  0  0  0  # atno 11005 bound_to 11000
  145.0547  140.9043  143.4974 LP  0  0  0  0  0  0  0  0  0  0  0  0  # atno 17320 bound_to 7965
  145.1141  139.2737  143.5622 LP  0  0  0  0  0  0  0  0  0  0  0  0  # atno 17321 bound_to 7965
  140.6496  143.2221  151.6108 LP  0  0  0  0  0  0  0  0  0  0  0  0  # atno 17342 bound_to 10162
  139.5281  144.2998  152.1083 LP  0  0  0  0  0  0  0  0  0  0  0  0  # atno 17343 bound_to 10162
  157.3670  130.7161  149.6539 LP  0  0  0  0  0  0  0  0  0  0  0  0  # atno 17370 bound_to 10713
  155.9690  130.4209  150.4446 LP  0  0  0  0  0  0  0  0  0  0  0  0  # atno 17371 bound_to 10713
  140.8446  134.3026  157.5300 LP  0  0  0  0  0  0  0  0  0  0  0  0  # atno 17394 bound_to 11000
  139.8721  134.9435  156.3854 LP  0  0  0  0  0  0  0  0  0  0  0  0  # atno 17395 bound_to 11000

$$$$
