#       Name:                AV-unprocessed.smi:2238
#       Creating user name   scv26
#       Creation time:       Fri Mar 27 12:26:10 2020


#       File generated by GOLD software.
#

@<TRIPOS>MOLECULE
AV-unprocessed.smi:2238
    45    46     1
SMALL
NO_CHARGES


@<TRIPOS>ATOM
      1 ****        -4.7926  -0.4008  -0.3131 C.3            1 S1                 0.0000
      2 ****        -3.9425   0.7601   0.1611 C.ar           1 S1                 0.0000
      3 ****        -4.4710   2.0655   0.1861 C.ar           1 S1                 0.0000
      4 ****        -3.6730   3.1375   0.6250 C.ar           1 S1                 0.0000
      5 ****        -2.3464   2.9093   1.0396 C.ar           1 S1                 0.0000
      6 ****        -1.3886   4.2442   1.5740 Cl             1 S1                 0.0000
      7 ****        -1.8010   1.6061   1.0209 C.ar           1 S1                 0.0000
      8 ****        -0.4954   1.4588   1.4417 O.3            1 S1                 0.0000
      9 ****         0.0723   0.1561   1.4447 C.3            1 S1                 0.0000
     10 ****         1.5233   0.2514   1.9484 C.3            1 S1                 0.0000
     11 ****         1.4934   0.3716   3.3556 O.3            1 S1                 0.0000
     12 ****         2.3815  -0.9921   1.6179 C.3            1 S1                 0.0000
     13 ****         2.6354  -1.1566   0.1752 N.am           1 S1                 0.0000
     14 ****         1.9208  -2.1783  -0.4826 C.2            1 S1                 0.0000
     15 ****         2.0692  -2.4097  -1.7483 N.2            1 S1                 0.0000
     16 ****         2.9627  -1.6336  -2.4925 C.2            1 S1                 0.0000
     17 ****         3.0911  -1.9395  -3.9704 C.3            1 S1                 0.0000
     18 ****         3.6797  -0.6467  -1.9077 C.2            1 S1                 0.0000
     19 ****         3.5381  -0.3677  -0.4784 C.2            1 S1                 0.0000
     20 ****         4.1841   0.5121   0.0914 O.2            1 S1                 0.0000
     21 ****        -2.6143   0.5324   0.5758 C.ar           1 S1                 0.0000
     22 ****        -5.8354  -0.1061  -0.4350 H              1 S1                 0.0000
     23 ****        -4.7539  -1.2198   0.4058 H              1 S1                 0.0000
     24 ****        -4.4268  -0.7678  -1.2723 H              1 S1                 0.0000
     25 ****        -5.4872   2.2503  -0.1305 H              1 S1                 0.0000
     26 ****        -4.0808   4.1376   0.6433 H              1 S1                 0.0000
     27 ****        -0.5057  -0.5363   2.0592 H              1 S1                 0.0000
     28 ****         0.0596  -0.2146   0.4198 H              1 S1                 0.0000
     29 ****         1.9972   1.1448   1.5406 H              1 S1                 0.0000
     30 ****         1.0143   1.1559   3.5776 H              1 S1                 0.0000
     31 ****         3.3433  -0.9149   2.1288 H              1 S1                 0.0000
     32 ****         1.9145  -1.8808   2.0477 H              1 S1                 0.0000
     33 ****         1.2353  -2.7515   0.1437 H              1 S1                 0.0000
     34 ****         4.1411  -2.0041  -4.2573 H              1 S1                 0.0000
     35 ****         2.6211  -1.1520  -4.5599 H              1 S1                 0.0000
     36 ****         2.6126  -2.8869  -4.2214 H              1 S1                 0.0000
     37 ****         4.3650  -0.0549  -2.4974 H              1 S1                 0.0000
     38 ****        -2.2397  -0.4795   0.5426 H              1 S1                 0.0000
     39 ****        -0.4463   1.8046   2.3788 LP             1 S1                 0.0000
     40 ****         0.0726   2.0272   0.8465 LP             1 S1                 0.0000
     41 ****         2.4266   0.4344   3.7092 LP             1 S1                 0.0000
     42 ****         1.0392  -0.4256   3.7532 LP             1 S1                 0.0000
     43 ****         1.5477  -3.1394  -2.1906 LP             1 S1                 0.0000
     44 ****         4.0573   0.6707   1.0706 LP             1 S1                 0.0000
     45 ****         4.8355   1.0679  -0.4250 LP             1 S1                 0.0000
@<TRIPOS>BOND
    1    1    2 1     
    2    1   22 1     
    3    1   23 1     
    4    1   24 1     
    5    2   21 ar    
    6    2    3 ar    
    7    3    4 ar    
    8    3   25 1     
    9    4    5 ar    
   10    4   26 1     
   11    5    6 1     
   12    5    7 ar    
   13    7    8 1     
   14    7   21 ar    
   15    8    9 1     
   16    9   10 1     
   17    9   27 1     
   18    9   28 1     
   19   10   11 1     
   20   10   12 1     
   21   10   29 1     
   22   11   30 1     
   23   12   13 1     
   24   12   31 1     
   25   12   32 1     
   26   13   19 am    
   27   13   14 1     
   28   14   15 2     
   29   14   33 1     
   30   15   16 1     
   31   16   17 1     
   32   16   18 2     
   33   17   34 1     
   34   17   35 1     
   35   17   36 1     
   36   18   19 1     
   37   18   37 1     
   38   19   20 2     
   39   21   38 1     
   40    8   39 1     
   41    8   40 1     
   42   11   41 1     
   43   11   42 1     
   44   15   43 1     
   45   20   44 1     
   46   20   45 1     
@<TRIPOS>SUBSTRUCTURE
      1 S1             1
@<TRIPOS>SET
LONE_PAIRS      STATIC     ATOMS    <user>   **** ""
7 39 40 41 42 43 44 45
DONOR_HYDROGENS      STATIC     ATOMS    <user>   **** ""
1 30
ATOM$BLUE        STATIC     ATOMS    COLORGROUP SYSTEM
7 39 40 41 42 43 44 45
ATOM$RED        STATIC     ATOMS    COLORGROUP SYSTEM
1 30
