AV-unprocessed.smi:2171|AV-procd|sdf|8831|dock2
  -GOLD-   2272012 23D 1   1.00000     0.00000
 Structure written by MMmdl.
 39 41  0  0  0  0  0  0  0  0  2 V2000
  150.1646  139.6816  157.8602 O   0  0  0  0  0  0  0  0  0  0  0  0
  151.1350  140.4178  157.6847 C   0  0  0  0  0  0  0  0  0  0  0  0
  151.8263  141.0704  158.8818 C   0  0  0  0  0  0  0  0  0  0  0  0
  151.8937  142.5113  158.7155 N   0  0  0  0  0  0  0  0  0  0  0  0
  152.5369  143.4383  159.5100 C   0  0  0  0  0  0  0  0  0  0  0  0
  152.3147  144.6687  158.9614 C   0  0  0  0  0  0  0  0  0  0  0  0
  151.5163  144.3891  157.8173 C   0  0  0  0  0  0  0  0  0  0  0  0
  151.2657  143.0979  157.6735 N   0  0  0  0  0  0  0  0  0  0  0  0
  151.6547  140.6805  156.4755 N   0  0  0  0  0  0  0  0  0  0  0  0
  151.1797  140.1133  155.2173 C   0  0  1  0  0  0  0  0  0  0  0  0
  151.3356  138.5840  155.1485 C   0  0  0  0  0  0  0  0  0  0  0  0
  150.0874  138.0806  154.3959 C   0  0  0  0  0  0  0  0  0  0  0  0
  149.3441  139.2961  154.0114 N   0  3  1  0  0  0  0  0  0  0  0  0
  147.8884  139.1552  153.7895 C   0  0  0  0  0  0  0  0  0  0  0  0
  147.3132  140.5057  153.3172 C   0  0  0  0  0  0  0  0  0  0  0  0
  147.6819  141.6526  154.2803 C   0  0  0  0  0  0  0  0  0  0  0  0
  149.1992  141.6913  154.5452 C   0  0  0  0  0  0  0  0  0  0  0  0
  149.6738  140.3093  155.0251 C   0  0  2  0  0  0  0  0  0  0  0  0
  151.2893  140.8473  159.8049 H   0  0  0  0  0  0  0  0  0  0  0  0
  152.8342  140.6663  158.9914 H   0  0  0  0  0  0  0  0  0  0  0  0
  153.0903  143.1486  160.3909 H   0  0  0  0  0  0  0  0  0  0  0  0
  152.6685  145.6231  159.3220 H   0  0  0  0  0  0  0  0  0  0  0  0
  151.1134  145.0810  157.0925 H   0  0  0  0  0  0  0  0  0  0  0  0
  152.4481  141.3033  156.4267 H   0  0  0  0  0  0  0  0  0  0  0  0
  151.7147  140.5499  154.3711 H   0  0  0  0  0  0  0  0  0  0  0  0
  152.2588  138.3048  154.6392 H   0  0  0  0  0  0  0  0  0  0  0  0
  151.3659  138.1420  156.1456 H   0  0  0  0  0  0  0  0  0  0  0  0
  150.3427  137.4913  153.5145 H   0  0  0  0  0  0  0  0  0  0  0  0
  149.4787  137.4588  155.0544 H   0  0  0  0  0  0  0  0  0  0  0  0
  147.7045  138.3851  153.0397 H   0  0  0  0  0  0  0  0  0  0  0  0
  147.4007  138.8328  154.7109 H   0  0  0  0  0  0  0  0  0  0  0  0
  147.7006  140.7344  152.3235 H   0  0  0  0  0  0  0  0  0  0  0  0
  146.2298  140.4360  153.2154 H   0  0  0  0  0  0  0  0  0  0  0  0
  147.3472  142.6070  153.8731 H   0  0  0  0  0  0  0  0  0  0  0  0
  147.1520  141.5169  155.2240 H   0  0  0  0  0  0  0  0  0  0  0  0
  149.7292  141.9768  153.6356 H   0  0  0  0  0  0  0  0  0  0  0  0
  149.4254  142.4524  155.2924 H   0  0  0  0  0  0  0  0  0  0  0  0
  149.1585  140.0521  155.9536 H   0  0  0  0  0  0  0  0  0  0  0  0
  149.7502  139.6186  153.1447 H   0  0  0  0  0  0  0  0  0  0  0  0
  1  2  2  0  0  0  0
  2  3  1  0  0  0  0
  2  9  1  0  0  0  0
  3  4  1  0  0  0  0
  3 19  1  0  0  0  0
  3 20  1  0  0  0  0
  4  8  1  0  0  0  0
  4  5  1  0  0  0  0
  5  6  2  0  0  0  0
  5 21  1  0  0  0  0
  6  7  1  0  0  0  0
  6 22  1  0  0  0  0
  7  8  2  0  0  0  0
  7 23  1  0  0  0  0
  9 10  1  0  0  0  0
  9 24  1  0  0  0  0
 10 18  1  0  0  0  0
 10 11  1  0  0  0  0
 10 25  1  0  0  0  0
 11 12  1  0  0  0  0
 11 26  1  0  0  0  0
 11 27  1  0  0  0  0
 12 13  1  0  0  0  0
 12 28  1  0  0  0  0
 12 29  1  0  0  0  0
 13 18  1  0  0  0  0
 13 14  1  0  0  0  0
 13 39  1  0  0  0  0
 14 15  1  0  0  0  0
 14 30  1  0  0  0  0
 14 31  1  0  0  0  0
 15 16  1  0  0  0  0
 15 32  1  0  0  0  0
 15 33  1  0  0  0  0
 16 17  1  0  0  0  0
 16 34  1  0  0  0  0
 16 35  1  0  0  0  0
 17 18  1  0  0  0  0
 17 36  1  0  0  0  0
 17 37  1  0  0  0  0
 18 38  1  0  0  0  0
M  CHG  1  13   1
M  END
> <s_m_source_file>
AV-unprocessed.smi

> <i_m_source_file_index>
2171

> <i_lp_mmshare_version>
43012

> <i_f3d_flags>
0

> <s_epik_input>
bjFbY0hdW2NIXVtjSF1uMVtDSDJdQyg9TylbTkhdW0NASF0oW0NIMl1bQ0gyXTIpW0NAQEhdKE4yMylbQ0gyXVtDSDJdW0NIMl1bQ0gyXTM=

> <s_epik_cmdline>
J2VwaWtfcHl0aG9uJywgJy1waCcsICc3LjAnLCAnLXRuJywgJzgnLCAnLW1hJywgJzIwMCcsICctbWV0YWxfYmluZGluZycsICctaW1hZScsICc8aW5maWxlLm1hZT4nLCAnLW9tYWUnLCAnPG91dGZpbGUubWFlPic=

> <r_lp_tautomer_probability>
1

> <r_epik_Ionization_Penalty>
0.00204179

> <r_epik_Ionization_Penalty_Charging>
0.00203239

> <r_epik_Ionization_Penalty_Neutral>
9.40205e-06

> <r_epik_State_Penalty>
0.00138983

> <r_epik_Charging_Adjusted_Penalty>
0.00342221

> <i_epik_Tot_Q>
1

> <i_epik_Tot_abs_Q>
1

> <r_epik_Metal_State_Penalty>
-0

> <b_epik_Metal_Only>
0

> <s_lp_Force_Field>
OPLS_2005

> <r_lp_Energy>
34.4486

> <b_lp_Chiralities_Consistent>
1

> <s_lp_Variant>
AV-unprocessed.smi:2171-6

> <Gold.Version>
5.8.1

> <Gold.Id.Protein>
6NUR|6NUR_protein|mol2

> <Gold.PLP.Fitness>
44.2112

> <Gold.PLP.PLP>
-38.5213

> <Gold.PLP.part.hbond>
-1.0000

> <Gold.PLP.part.metal>
0.0000

> <Gold.PLP.part.buried>
-0.9882

> <Gold.PLP.part.nonpolar>
-37.4167

> <Gold.PLP.part.repulsive>
0.3444

> <Gold.PLP.ligand.clash>
0.0000

> <Gold.PLP.ligand.torsion>
0.0962

> <Gold.PLP.Chemscore.Hbond>
0.9913

> <Gold.PLP.Chemscore.CHOScore>
0.9653

> <Gold.PLP.Chemscore.Metal>
0.0000

> <Gold.Chemscore.Hbonds>
donor molecule, donor type, donor heavy atom, donor atom, acceptor molecule, acceptor atom, score
      L1  H    13    39       P1  7957  1.00
      L1  C     7    23       P1  8028  0.72

> <Gold.PLP.Chemscore.Internal.Correction>
0.0125

> <Gold.Rescore>
     Score         DG    S(hbond)    S(metal)    S(lipo)     H(rot)  DE(clash)    DE(int)     intcor
     14.93     -16.53       0.96        0.00      98.61       1.44       0.34       1.26       ----

> <Gold.Chemscore.Fitness>
14.9303

> <Gold.Chemscore.DG>
-16.5303

> <Gold.Chemscore.ZeroCoef>
-5.4800

> <Gold.Chemscore.Hbond>
0.9586

> <Gold.Chemscore.Metal>
0.0000

> <Gold.Chemscore.Lipo>
98.6103

> <Gold.Chemscore.Internal_Hbond>
0.0000

> <Gold.Chemscore.DEClash>
0.3387

> <Gold.Chemscore.DEInternal>
1.2613

> <Gold.Chemscore.Rot>
1.4410

> <Gold.Chemscore.Internal.Correction>
   9.000000E+99

> <Gold.Chemscore.Hbonds>
donor molecule, donor type, donor heavy atom, donor atom, acceptor molecule, acceptor atom, score
      L1  H    13    39       P1  7957  0.89

> <Gold.Chemscore.Hbond.Weighted>
-3.2018

> <Gold.Chemscore.Metal.Weighted>
-0.0000

> <Gold.Chemscore.Lipo.Weighted>
-11.5374

> <Gold.Chemscore.Internal_Hbond.Weighted>
0.0000

> <Gold.Chemscore.DEClash.Weighted>
0.3387

> <Gold.Chemscore.DEInternal.Weighted>
1.2613

> <Gold.Chemscore.Rot.Weighted>
3.6889

> <Gold.Chemscore.Internal.Correction.Weighted>
   9.000000E+99

> <Gold.Protein.RotatedTorsions>
[ 6907 6896 6895 6894 ] final  -93.86 input  -60.11 | X-H torsion
[ 7974 7965 7964 7962 ] final  -92.46 input  175.53 | X-H torsion
[ 8008 7997 7996 7995 ] final  143.01 input   59.86 | X-H torsion
[ 10167 10162 10161 10158 ] final   13.76 input  -65.29 | X-H torsion
[ 10718 10713 10712 10709 ] final  -86.12 input   66.30 | X-H torsion
[ 10763 10752 10751 10750 ] final  104.26 input  -60.55 | X-H torsion
[ 11005 11000 10999 10996 ] final   61.66 input  -57.11 | X-H torsion

> <Gold.Protein.ActiveResidues>
 VAL166  LYS551  ARG553  GLY616  TRP617  ASP618  TYR619  PRO620  LYS621  CYS622 
 ASP623  PHE694  ASN695  SER759  ASP760  ASP761  ALA762  ILE779  LEU786  VAL792 
 PHE793  MET794  SER795  GLU796  ALA797  LYS798  CYS799  TRP800  GLU811  SER814 

> <Gold.Protein.RotatedAtoms>
  150.6930  134.1902  159.4281 H   0  0  0  0  0  0  0  0  0  0  0  0  # atno 6907 bound_to 6896
  151.9873  134.9995  160.0569 H   0  0  0  0  0  0  0  0  0  0  0  0  # atno 6908 bound_to 6896
  152.1700  133.4602  159.4941 H   0  0  0  0  0  0  0  0  0  0  0  0  # atno 6909 bound_to 6896
  145.3995  140.9536  143.2295 H   0  0  0  0  0  0  0  0  0  0  0  0  # atno 7974 bound_to 7965
  156.2938  140.2274  156.4820 H   0  0  0  0  0  0  0  0  0  0  0  0  # atno 8008 bound_to 7997
  154.7844  140.0458  157.1174 H   0  0  0  0  0  0  0  0  0  0  0  0  # atno 8009 bound_to 7997
  154.9720  140.3067  155.4987 H   0  0  0  0  0  0  0  0  0  0  0  0  # atno 8010 bound_to 7997
  140.5981  143.8661  150.6937 H   0  0  0  0  0  0  0  0  0  0  0  0  # atno 10167 bound_to 10162
  155.9992  130.4754  150.4666 H   0  0  0  0  0  0  0  0  0  0  0  0  # atno 10718 bound_to 10713
  153.3635  135.3949  155.1736 H   0  0  0  0  0  0  0  0  0  0  0  0  # atno 10763 bound_to 10752
  154.8683  135.3685  154.5068 H   0  0  0  0  0  0  0  0  0  0  0  0  # atno 10764 bound_to 10752
  153.5530  135.7082  153.5643 H   0  0  0  0  0  0  0  0  0  0  0  0  # atno 10765 bound_to 10752
  140.0146  134.6245  155.9730 H   0  0  0  0  0  0  0  0  0  0  0  0  # atno 11005 bound_to 11000
  144.8384  139.5513  143.6912 LP  0  0  0  0  0  0  0  0  0  0  0  0  # atno 17320 bound_to 7965
  146.2758  139.6750  142.9264 LP  0  0  0  0  0  0  0  0  0  0  0  0  # atno 17321 bound_to 7965
  140.2200  143.3816  152.1650 LP  0  0  0  0  0  0  0  0  0  0  0  0  # atno 17342 bound_to 10162
  139.5272  144.7116  151.5187 LP  0  0  0  0  0  0  0  0  0  0  0  0  # atno 17343 bound_to 10162
  157.2685  131.0582  151.2275 LP  0  0  0  0  0  0  0  0  0  0  0  0  # atno 17370 bound_to 10713
  157.3364  130.7011  149.6355 LP  0  0  0  0  0  0  0  0  0  0  0  0  # atno 17371 bound_to 10713
  141.1734  133.6538  156.4736 LP  0  0  0  0  0  0  0  0  0  0  0  0  # atno 17394 bound_to 11000
  140.4494  134.6942  157.5032 LP  0  0  0  0  0  0  0  0  0  0  0  0  # atno 17395 bound_to 11000

$$$$
