AV-unprocessed.smi:2860|AV-procd|sdf|11006|dock2
  -GOLD-   2272015463D 1   1.00000     0.00000
 Structure written by MMmdl.
 45 46  0  0  0  0  0  0  0  0  1 V2000
  156.2940  141.5600  167.0911 C   0  0  0  0  0  0  0  0  0  0  0  0
  157.4280  140.9105  166.2868 C   0  0  0  0  0  0  0  0  0  0  0  0
  156.9152  139.9143  165.3544 N   0  0  0  0  0  0  0  0  0  0  0  0
  156.9980  139.9951  164.0170 C   0  0  0  0  0  0  0  0  0  0  0  0
  157.5535  140.9204  163.4257 O   0  0  0  0  0  0  0  0  0  0  0  0
  156.3455  138.8622  163.2238 C   0  0  0  0  0  0  0  0  0  0  0  0
  155.5224  139.3883  162.1497 N   0  0  0  0  0  0  0  0  0  0  0  0
  154.8016  138.6902  161.2002 C   0  0  0  0  0  0  0  0  0  0  0  0
  154.1702  139.6057  160.4072 C   0  0  0  0  0  0  0  0  0  0  0  0
  154.5768  140.8515  160.9590 C   0  0  0  0  0  0  0  0  0  0  0  0
  154.1156  142.0719  160.4042 N   0  0  0  0  0  0  0  0  0  0  0  0
  153.1390  142.2467  159.4954 C   0  0  0  0  0  0  0  0  0  0  0  0
  152.4076  141.3485  159.0786 O   0  0  0  0  0  0  0  0  0  0  0  0
  152.9450  143.6755  159.1010 C   0  0  0  0  0  0  0  0  0  0  0  0
  151.8157  144.4924  159.7279 C   0  0  0  0  0  0  0  0  0  0  0  0
  150.8227  143.9164  160.7377 C   0  0  0  0  0  0  0  0  0  0  0  0
  152.1116  145.9330  160.1240 C   0  0  0  0  0  0  0  0  0  0  0  0
  151.7422  144.0859  158.2556 C   0  0  0  0  0  0  0  0  0  0  0  0
  151.9618  145.1123  157.1523 C   0  0  0  0  0  0  0  0  0  0  0  0
  150.6907  143.0849  157.7754 C   0  0  0  0  0  0  0  0  0  0  0  0
  155.3857  140.7243  162.0017 N   0  0  0  0  0  0  0  0  0  0  0  0
  156.6899  142.2821  167.8051 H   0  0  0  0  0  0  0  0  0  0  0  0
  155.7304  140.8132  167.6509 H   0  0  0  0  0  0  0  0  0  0  0  0
  155.5964  142.0876  166.4397 H   0  0  0  0  0  0  0  0  0  0  0  0
  158.0011  141.6710  165.7538 H   0  0  0  0  0  0  0  0  0  0  0  0
  158.1234  140.4161  166.9651 H   0  0  0  0  0  0  0  0  0  0  0  0
  156.4454  139.1147  165.7537 H   0  0  0  0  0  0  0  0  0  0  0  0
  157.1127  138.2073  162.8072 H   0  0  0  0  0  0  0  0  0  0  0  0
  155.7234  138.2512  163.8791 H   0  0  0  0  0  0  0  0  0  0  0  0
  154.7948  137.6105  161.1723 H   0  0  0  0  0  0  0  0  0  0  0  0
  153.5195  139.4134  159.5670 H   0  0  0  0  0  0  0  0  0  0  0  0
  154.6027  142.9028  160.7059 H   0  0  0  0  0  0  0  0  0  0  0  0
  153.8771  144.2160  158.9456 H   0  0  0  0  0  0  0  0  0  0  0  0
  149.8851  144.4712  160.6992 H   0  0  0  0  0  0  0  0  0  0  0  0
  151.2249  143.9923  161.7484 H   0  0  0  0  0  0  0  0  0  0  0  0
  150.5980  142.8672  160.5568 H   0  0  0  0  0  0  0  0  0  0  0  0
  151.2268  146.5536  159.9806 H   0  0  0  0  0  0  0  0  0  0  0  0
  152.9261  146.3528  159.5351 H   0  0  0  0  0  0  0  0  0  0  0  0
  152.4070  145.9873  161.1723 H   0  0  0  0  0  0  0  0  0  0  0  0
  151.0685  145.7240  157.0229 H   0  0  0  0  0  0  0  0  0  0  0  0
  152.1813  144.6156  156.2065 H   0  0  0  0  0  0  0  0  0  0  0  0
  152.8010  145.7697  157.3762 H   0  0  0  0  0  0  0  0  0  0  0  0
  149.7309  143.5849  157.6426 H   0  0  0  0  0  0  0  0  0  0  0  0
  150.5469  142.2594  158.4701 H   0  0  0  0  0  0  0  0  0  0  0  0
  150.9872  142.6534  156.8190 H   0  0  0  0  0  0  0  0  0  0  0  0
  1  2  1  0  0  0  0
  1 22  1  0  0  0  0
  1 23  1  0  0  0  0
  1 24  1  0  0  0  0
  2  3  1  0  0  0  0
  2 25  1  0  0  0  0
  2 26  1  0  0  0  0
  3  4  1  0  0  0  0
  3 27  1  0  0  0  0
  4  5  2  0  0  0  0
  4  6  1  0  0  0  0
  6  7  1  0  0  0  0
  6 28  1  0  0  0  0
  6 29  1  0  0  0  0
  7 21  1  0  0  0  0
  7  8  1  0  0  0  0
  8  9  2  0  0  0  0
  8 30  1  0  0  0  0
  9 10  1  0  0  0  0
  9 31  1  0  0  0  0
 10 11  1  0  0  0  0
 10 21  2  0  0  0  0
 11 12  1  0  0  0  0
 11 32  1  0  0  0  0
 12 13  2  0  0  0  0
 12 14  1  0  0  0  0
 14 18  1  0  0  0  0
 14 15  1  0  0  0  0
 14 33  1  0  0  0  0
 15 16  1  0  0  0  0
 15 17  1  0  0  0  0
 15 18  1  0  0  0  0
 16 34  1  0  0  0  0
 16 35  1  0  0  0  0
 16 36  1  0  0  0  0
 17 37  1  0  0  0  0
 17 38  1  0  0  0  0
 17 39  1  0  0  0  0
 18 19  1  0  0  0  0
 18 20  1  0  0  0  0
 19 40  1  0  0  0  0
 19 41  1  0  0  0  0
 19 42  1  0  0  0  0
 20 43  1  0  0  0  0
 20 44  1  0  0  0  0
 20 45  1  0  0  0  0
M  END
> <s_m_source_file>
AV-unprocessed.smi

> <i_m_source_file_index>
2860

> <i_lp_mmshare_version>
43012

> <i_f3d_flags>
0

> <s_epik_input>
W0NIM11bQ0gyXVtOSF1DKD1PKVtDSDJdbjFbY0hdW2NIXWMobjEpW05IXUMoPU8pW0NIXShDMihbQ0gzXSlbQ0gzXSlDMihbQ0gzXSlbQ0gzXQ==

> <s_epik_cmdline>
J2VwaWtfcHl0aG9uJywgJy1waCcsICc3LjAnLCAnLXRuJywgJzgnLCAnLW1hJywgJzIwMCcsICctbWV0YWxfYmluZGluZycsICctaW1hZScsICc8aW5maWxlLm1hZT4nLCAnLW9tYWUnLCAnPG91dGZpbGUubWFlPic=

> <r_lp_tautomer_probability>
1

> <r_epik_Ionization_Penalty>
1.3586e-05

> <r_epik_Ionization_Penalty_Charging>
0

> <r_epik_Ionization_Penalty_Neutral>
1.3586e-05

> <r_epik_State_Penalty>
-0

> <r_epik_Charging_Adjusted_Penalty>
0

> <i_epik_Tot_Q>
0

> <i_epik_Tot_abs_Q>
0

> <r_epik_Metal_State_Penalty>
-0

> <b_epik_Metal_Only>
0

> <s_lp_Force_Field>
OPLS_2005

> <r_lp_Energy>
28.3378

> <b_lp_Chiralities_Consistent>
1

> <s_lp_Variant>
AV-unprocessed.smi:2860-1

> <Gold.Version>
5.8.1

> <Gold.Id.Protein>
6NUR|6NUR_protein|mol2

> <Gold.PLP.Fitness>
40.6262

> <Gold.PLP.PLP>
-41.4662

> <Gold.PLP.part.hbond>
-2.0352

> <Gold.PLP.part.metal>
0.0000

> <Gold.PLP.part.buried>
-3.2906

> <Gold.PLP.part.nonpolar>
-36.4656

> <Gold.PLP.part.repulsive>
0.1095

> <Gold.PLP.ligand.clash>
0.0000

> <Gold.PLP.ligand.torsion>
0.4942

> <Gold.PLP.Chemscore.Hbond>
0.0000

> <Gold.PLP.Chemscore.CHOScore>
0.0000

> <Gold.PLP.Chemscore.Metal>
0.0000

> <Gold.PLP.Chemscore.Internal.Correction>
0.1484

> <Gold.Rescore>
     Score         DG    S(hbond)    S(metal)    S(lipo)     H(rot)  DE(clash)    DE(int)     intcor
      8.91     -14.37       0.00        0.00     112.72       1.68       1.81       3.65       ----

> <Gold.Chemscore.Fitness>
8.9086

> <Gold.Chemscore.DG>
-14.3700

> <Gold.Chemscore.ZeroCoef>
-5.4800

> <Gold.Chemscore.Hbond>
0.0000

> <Gold.Chemscore.Metal>
0.0000

> <Gold.Chemscore.Lipo>
112.7189

> <Gold.Chemscore.Internal_Hbond>
0.0000

> <Gold.Chemscore.DEClash>
1.8117

> <Gold.Chemscore.DEInternal>
3.6497

> <Gold.Chemscore.Rot>
1.6789

> <Gold.Chemscore.Internal.Correction>
   9.000000E+99

> <Gold.Chemscore.Hbond.Weighted>
-0.0000

> <Gold.Chemscore.Metal.Weighted>
-0.0000

> <Gold.Chemscore.Lipo.Weighted>
-13.1881

> <Gold.Chemscore.Internal_Hbond.Weighted>
0.0000

> <Gold.Chemscore.DEClash.Weighted>
1.8117

> <Gold.Chemscore.DEInternal.Weighted>
3.6497

> <Gold.Chemscore.Rot.Weighted>
4.2981

> <Gold.Chemscore.Internal.Correction.Weighted>
   9.000000E+99

> <Gold.Protein.RotatedTorsions>
[ 6907 6896 6895 6894 ] final   49.32 input  -60.11 | X-H torsion
[ 7974 7965 7964 7962 ] final  106.16 input  175.53 | X-H torsion
[ 8008 7997 7996 7995 ] final   21.20 input   59.86 | X-H torsion
[ 10167 10162 10161 10158 ] final  -91.31 input  -65.29 | X-H torsion
[ 10718 10713 10712 10709 ] final   60.84 input   66.30 | X-H torsion
[ 10763 10752 10751 10750 ] final  -98.73 input  -60.55 | X-H torsion
[ 11005 11000 10999 10996 ] final  147.40 input  -57.11 | X-H torsion

> <Gold.Protein.ActiveResidues>
 VAL166  LYS551  ARG553  GLY616  TRP617  ASP618  TYR619  PRO620  LYS621  CYS622 
 ASP623  PHE694  ASN695  SER759  ASP760  ASP761  ALA762  ILE779  LEU786  VAL792 
 PHE793  MET794  SER795  GLU796  ALA797  LYS798  CYS799  TRP800  GLU811  SER814 

> <Gold.Protein.RotatedAtoms>
  152.2895  134.7738  160.0380 H   0  0  0  0  0  0  0  0  0  0  0  0  # atno 6907 bound_to 6896
  151.8289  133.3400  159.3615 H   0  0  0  0  0  0  0  0  0  0  0  0  # atno 6908 bound_to 6896
  150.7224  134.5431  159.5801 H   0  0  0  0  0  0  0  0  0  0  0  0  # atno 6909 bound_to 6896
  145.3102  139.2542  143.3767 H   0  0  0  0  0  0  0  0  0  0  0  0  # atno 7974 bound_to 7965
  154.9470  140.3060  155.5093 H   0  0  0  0  0  0  0  0  0  0  0  0  # atno 8008 bound_to 7997
  156.2991  140.2326  156.4482 H   0  0  0  0  0  0  0  0  0  0  0  0  # atno 8009 bound_to 7997
  154.8091  140.0429  157.1318 H   0  0  0  0  0  0  0  0  0  0  0  0  # atno 8010 bound_to 7997
  140.3462  143.2916  151.9779 H   0  0  0  0  0  0  0  0  0  0  0  0  # atno 10167 bound_to 10162
  157.5783  130.8961  149.9386 H   0  0  0  0  0  0  0  0  0  0  0  0  # atno 10718 bound_to 10713
  154.7439  135.4998  153.9169 H   0  0  0  0  0  0  0  0  0  0  0  0  # atno 10763 bound_to 10752
  153.1071  135.6700  153.9575 H   0  0  0  0  0  0  0  0  0  0  0  0  # atno 10764 bound_to 10752
  153.9344  135.3074  155.3424 H   0  0  0  0  0  0  0  0  0  0  0  0  # atno 10765 bound_to 10752
  140.0873  134.9062  157.1596 H   0  0  0  0  0  0  0  0  0  0  0  0  # atno 11005 bound_to 11000
  146.3120  140.3636  142.8667 LP  0  0  0  0  0  0  0  0  0  0  0  0  # atno 17320 bound_to 7965
  144.9022  140.7656  143.5860 LP  0  0  0  0  0  0  0  0  0  0  0  0  # atno 17321 bound_to 7965
  139.4833  144.6115  151.7424 LP  0  0  0  0  0  0  0  0  0  0  0  0  # atno 17342 bound_to 10162
  140.5263  144.0801  150.6038 LP  0  0  0  0  0  0  0  0  0  0  0  0  # atno 17343 bound_to 10162
  156.0828  130.3671  150.0546 LP  0  0  0  0  0  0  0  0  0  0  0  0  # atno 17370 bound_to 10713
  156.8689  130.9517  151.3611 LP  0  0  0  0  0  0  0  0  0  0  0  0  # atno 17371 bound_to 10713
  140.3402  134.2712  155.7213 LP  0  0  0  0  0  0  0  0  0  0  0  0  # atno 17394 bound_to 11000
  141.2066  133.7827  157.0164 LP  0  0  0  0  0  0  0  0  0  0  0  0  # atno 17395 bound_to 11000

$$$$
