AV-unprocessed.smi:2850|AV-procd|sdf|10969|dock10
  -GOLD-   2272015423D 1   1.00000     0.00000
 Structure written by MMmdl.
 44 45  0  0  0  0  0  0  0  0  1 V2000
  147.3627  134.3035  162.5370 C   0  0  0  0  0  0  0  0  0  0  0  0
  146.9656  136.0573  162.2934 S   0  0  0  0  0  0  0  0  0  0  0  0
  147.4354  136.4761  160.6418 C   0  0  0  0  0  0  0  0  0  0  0  0
  148.2250  135.5986  159.8772 C   0  0  0  0  0  0  0  0  0  0  0  0
  148.5544  136.0078  158.5734 C   0  0  0  0  0  0  0  0  0  0  0  0
  148.0693  137.2571  158.1363 C   0  0  0  0  0  0  0  0  0  0  0  0
  148.3836  137.6905  156.8416 N   0  0  0  0  0  0  0  0  0  0  0  0
  148.6926  139.0894  156.5811 C   0  0  0  0  0  0  0  0  0  0  0  0
  149.7122  139.6400  157.5868 C   0  0  2  0  0  0  0  0  0  0  0  0
  149.9752  141.1426  157.3661 C   0  0  0  0  0  0  0  0  0  0  0  0
  150.9990  141.6619  158.2668 N   0  0  0  0  0  0  0  0  0  0  0  0
  151.2135  143.0930  158.0428 C   0  0  0  0  0  0  0  0  0  0  0  0
  151.7060  143.9001  159.2635 C   0  0  0  0  0  0  0  0  0  0  0  0
  152.2044  145.2976  158.8602 C   0  0  0  0  0  0  0  0  0  0  0  0
  152.8085  143.1305  160.0054 C   0  0  0  0  0  0  0  0  0  0  0  0
  152.2181  140.8742  158.1002 C   0  0  0  0  0  0  0  0  0  0  0  0
  151.9611  139.3717  158.3040 C   0  0  0  0  0  0  0  0  0  0  0  0
  150.9403  138.9369  157.4126 O   0  0  0  0  0  0  0  0  0  0  0  0
  147.3111  138.0519  158.9340 N   0  0  0  0  0  0  0  0  0  0  0  0
  146.9953  137.6667  160.1757 N   0  0  0  0  0  0  0  0  0  0  0  0
  147.0894  133.9938  163.5456 H   0  0  0  0  0  0  0  0  0  0  0  0
  148.4303  134.1304  162.4011 H   0  0  0  0  0  0  0  0  0  0  0  0
  146.8139  133.6852  161.8264 H   0  0  0  0  0  0  0  0  0  0  0  0
  148.5645  134.6525  160.2725 H   0  0  0  0  0  0  0  0  0  0  0  0
  149.1586  135.3825  157.9326 H   0  0  0  0  0  0  0  0  0  0  0  0
  148.2740  137.0625  156.0588 H   0  0  0  0  0  0  0  0  0  0  0  0
  149.0695  139.2025  155.5638 H   0  0  0  0  0  0  0  0  0  0  0  0
  147.7682  139.6646  156.6491 H   0  0  0  0  0  0  0  0  0  0  0  0
  149.3424  139.4837  158.6021 H   0  0  0  0  0  0  0  0  0  0  0  0
  150.2762  141.3101  156.3305 H   0  0  0  0  0  0  0  0  0  0  0  0
  149.0452  141.6936  157.5116 H   0  0  0  0  0  0  0  0  0  0  0  0
  151.9161  143.2236  157.2182 H   0  0  0  0  0  0  0  0  0  0  0  0
  150.2782  143.5418  157.7051 H   0  0  0  0  0  0  0  0  0  0  0  0
  150.8852  144.0239  159.9691 H   0  0  0  0  0  0  0  0  0  0  0  0
  153.0304  145.2346  158.1513 H   0  0  0  0  0  0  0  0  0  0  0  0
  152.5528  145.8567  159.7290 H   0  0  0  0  0  0  0  0  0  0  0  0
  151.4108  145.8826  158.3946 H   0  0  0  0  0  0  0  0  0  0  0  0
  153.6805  142.9755  159.3694 H   0  0  0  0  0  0  0  0  0  0  0  0
  152.4544  142.1516  160.3294 H   0  0  0  0  0  0  0  0  0  0  0  0
  153.1365  143.6712  160.8937 H   0  0  0  0  0  0  0  0  0  0  0  0
  152.6313  141.0378  157.1036 H   0  0  0  0  0  0  0  0  0  0  0  0
  152.9782  141.1928  158.8120 H   0  0  0  0  0  0  0  0  0  0  0  0
  152.8700  138.8019  158.1104 H   0  0  0  0  0  0  0  0  0  0  0  0
  151.6663  139.1658  159.3341 H   0  0  0  0  0  0  0  0  0  0  0  0
  1  2  1  0  0  0  0
  1 21  1  0  0  0  0
  1 22  1  0  0  0  0
  1 23  1  0  0  0  0
  2  3  1  0  0  0  0
  3 20  1  0  0  0  0
  3  4  2  0  0  0  0
  4  5  1  0  0  0  0
  4 24  1  0  0  0  0
  5  6  2  0  0  0  0
  5 25  1  0  0  0  0
  6  7  1  0  0  0  0
  6 19  1  0  0  0  0
  7  8  1  0  0  0  0
  7 26  1  0  0  0  0
  8  9  1  0  0  0  0
  8 27  1  0  0  0  0
  8 28  1  0  0  0  0
  9 18  1  0  0  0  0
  9 10  1  0  0  0  0
  9 29  1  0  0  0  0
 10 11  1  0  0  0  0
 10 30  1  0  0  0  0
 10 31  1  0  0  0  0
 11 12  1  0  0  0  0
 11 16  1  0  0  0  0
 12 13  1  0  0  0  0
 12 32  1  0  0  0  0
 12 33  1  0  0  0  0
 13 14  1  0  0  0  0
 13 15  1  0  0  0  0
 13 34  1  0  0  0  0
 14 35  1  0  0  0  0
 14 36  1  0  0  0  0
 14 37  1  0  0  0  0
 15 38  1  0  0  0  0
 15 39  1  0  0  0  0
 15 40  1  0  0  0  0
 16 17  1  0  0  0  0
 16 41  1  0  0  0  0
 16 42  1  0  0  0  0
 17 18  1  0  0  0  0
 17 43  1  0  0  0  0
 17 44  1  0  0  0  0
 19 20  2  0  0  0  0
M  END
> <s_m_source_file>
AV-unprocessed.smi

> <i_m_source_file_index>
2850

> <i_lp_mmshare_version>
43012

> <i_f3d_flags>
0

> <s_epik_input>
W0NIM11TYzFbY0hdW2NIXWMobm4xKVtOSF1bQ0gyXVtDQEBIXTJbQ0gyXU4oW0NIMl1bQ0gyXU8yKVtDSDJdW0NIXShbQ0gzXSlbQ0gzXQ==

> <s_epik_cmdline>
J2VwaWtfcHl0aG9uJywgJy1waCcsICc3LjAnLCAnLXRuJywgJzgnLCAnLW1hJywgJzIwMCcsICctbWV0YWxfYmluZGluZycsICctaW1hZScsICc8aW5maWxlLm1hZT4nLCAnLW9tYWUnLCAnPG91dGZpbGUubWFlPic=

> <r_lp_tautomer_probability>
0.999978

> <r_epik_Ionization_Penalty>
1.20939

> <r_epik_Ionization_Penalty_Charging>
0

> <r_epik_Ionization_Penalty_Neutral>
1.20939

> <r_epik_State_Penalty>
1.27042

> <r_epik_Charging_Adjusted_Penalty>
1.27042

> <i_epik_Tot_Q>
0

> <i_epik_Tot_abs_Q>
0

> <r_epik_Metal_State_Penalty>
1.26998

> <b_epik_Metal_Only>
0

> <s_lp_Force_Field>
OPLS_2005

> <r_lp_Energy>
30.5151

> <b_lp_Chiralities_Consistent>
1

> <s_lp_Variant>
AV-unprocessed.smi:2850-5

> <Gold.Version>
5.8.1

> <Gold.Id.Protein>
6NUR|6NUR_protein|mol2

> <Gold.PLP.Fitness>
37.4077

> <Gold.PLP.PLP>
-36.3152

> <Gold.PLP.part.hbond>
-1.9533

> <Gold.PLP.part.metal>
0.0000

> <Gold.PLP.part.buried>
-5.3192

> <Gold.PLP.part.nonpolar>
-28.8338

> <Gold.PLP.part.repulsive>
0.0270

> <Gold.PLP.ligand.clash>
0.0000

> <Gold.PLP.ligand.torsion>
0.9146

> <Gold.PLP.Chemscore.Hbond>
0.9500

> <Gold.PLP.Chemscore.CHOScore>
0.0000

> <Gold.PLP.Chemscore.Metal>
0.0000

> <Gold.Chemscore.Hbonds>
donor molecule, donor type, donor heavy atom, donor atom, acceptor molecule, acceptor atom, score
      P1  H  6934  6947       L1    20  0.95

> <Gold.PLP.Chemscore.Internal.Correction>
0.0716

> <Gold.Rescore>
     Score         DG    S(hbond)    S(metal)    S(lipo)     H(rot)  DE(clash)    DE(int)     intcor
     13.64     -15.50       0.68        0.00     100.01       1.55       0.01       1.86       ----

> <Gold.Chemscore.Fitness>
13.6358

> <Gold.Chemscore.DG>
-15.4999

> <Gold.Chemscore.ZeroCoef>
-5.4800

> <Gold.Chemscore.Hbond>
0.6824

> <Gold.Chemscore.Metal>
0.0000

> <Gold.Chemscore.Lipo>
100.0143

> <Gold.Chemscore.Internal_Hbond>
0.0000

> <Gold.Chemscore.DEClash>
0.0073

> <Gold.Chemscore.DEInternal>
1.8568

> <Gold.Chemscore.Rot>
1.5473

> <Gold.Chemscore.Internal.Correction>
   9.000000E+99

> <Gold.Chemscore.Hbonds>
donor molecule, donor type, donor heavy atom, donor atom, acceptor molecule, acceptor atom, score
      P1  H  6934  6947       L1    20  0.20

> <Gold.Chemscore.Hbond.Weighted>
-2.2793

> <Gold.Chemscore.Metal.Weighted>
-0.0000

> <Gold.Chemscore.Lipo.Weighted>
-11.7017

> <Gold.Chemscore.Internal_Hbond.Weighted>
0.0000

> <Gold.Chemscore.DEClash.Weighted>
0.0073

> <Gold.Chemscore.DEInternal.Weighted>
1.8568

> <Gold.Chemscore.Rot.Weighted>
3.9610

> <Gold.Chemscore.Internal.Correction.Weighted>
   9.000000E+99

> <Gold.Protein.RotatedTorsions>
[ 6907 6896 6895 6894 ] final  177.71 input  -60.11 | X-H torsion
[ 7974 7965 7964 7962 ] final  140.32 input  175.53 | X-H torsion
[ 8008 7997 7996 7995 ] final   -1.79 input   59.86 | X-H torsion
[ 10167 10162 10161 10158 ] final -170.98 input  -65.29 | X-H torsion
[ 10718 10713 10712 10709 ] final  -43.63 input   66.30 | X-H torsion
[ 10763 10752 10751 10750 ] final  -76.50 input  -60.55 | X-H torsion
[ 11005 11000 10999 10996 ] final   76.06 input  -57.11 | X-H torsion

> <Gold.Protein.ActiveResidues>
 VAL166  LYS551  ARG553  GLY616  TRP617  ASP618  TYR619  PRO620  LYS621  CYS622 
 ASP623  PHE694  ASN695  SER759  ASP760  ASP761  ALA762  ILE779  LEU786  VAL792 
 PHE793  MET794  SER795  GLU796  ALA797  LYS798  CYS799  TRP800  GLU811  SER814 

> <Gold.Protein.RotatedAtoms>
  151.6996  133.3311  159.3262 H   0  0  0  0  0  0  0  0  0  0  0  0  # atno 6907 bound_to 6896
  150.7742  134.6627  159.6358 H   0  0  0  0  0  0  0  0  0  0  0  0  # atno 6908 bound_to 6896
  152.3778  134.6640  160.0206 H   0  0  0  0  0  0  0  0  0  0  0  0  # atno 6909 bound_to 6896
  144.9197  139.5184  143.5669 H   0  0  0  0  0  0  0  0  0  0  0  0  # atno 7974 bound_to 7965
  154.6429  140.2550  155.7301 H   0  0  0  0  0  0  0  0  0  0  0  0  # atno 8008 bound_to 7997
  156.2537  140.2884  156.0751 H   0  0  0  0  0  0  0  0  0  0  0  0  # atno 8009 bound_to 7997
  155.1569  140.0383  157.2824 H   0  0  0  0  0  0  0  0  0  0  0  0  # atno 8010 bound_to 7997
  139.5829  144.1382  152.1539 H   0  0  0  0  0  0  0  0  0  0  0  0  # atno 10167 bound_to 10162
  156.2470  130.4184  149.8694 H   0  0  0  0  0  0  0  0  0  0  0  0  # atno 10718 bound_to 10713
  154.5007  135.5795  153.6529 H   0  0  0  0  0  0  0  0  0  0  0  0  # atno 10763 bound_to 10752
  152.9878  135.6135  154.3006 H   0  0  0  0  0  0  0  0  0  0  0  0  # atno 10764 bound_to 10752
  154.2913  135.2848  155.2632 H   0  0  0  0  0  0  0  0  0  0  0  0  # atno 10765 bound_to 10752
  139.9315  134.7569  156.1348 H   0  0  0  0  0  0  0  0  0  0  0  0  # atno 11005 bound_to 11000
  146.3199  139.8067  142.8954 LP  0  0  0  0  0  0  0  0  0  0  0  0  # atno 17320 bound_to 7965
  145.3316  141.0268  143.3443 LP  0  0  0  0  0  0  0  0  0  0  0  0  # atno 17321 bound_to 7965
  140.0939  144.5597  150.7035 LP  0  0  0  0  0  0  0  0  0  0  0  0  # atno 17342 bound_to 10162
  140.7105  143.2501  151.4595 LP  0  0  0  0  0  0  0  0  0  0  0  0  # atno 17343 bound_to 10162
  156.6255  130.8644  151.3484 LP  0  0  0  0  0  0  0  0  0  0  0  0  # atno 17370 bound_to 10713
  157.7199  130.9545  150.1398 LP  0  0  0  0  0  0  0  0  0  0  0  0  # atno 17371 bound_to 10713
  141.0906  133.6716  156.2533 LP  0  0  0  0  0  0  0  0  0  0  0  0  # atno 17394 bound_to 11000
  140.6189  134.5382  157.5544 LP  0  0  0  0  0  0  0  0  0  0  0  0  # atno 17395 bound_to 11000

$$$$
