AV-unprocessed.smi:2159|AV-procd|sdf|8793|dock1
  -GOLD-   2272011573D 1   1.00000     0.00000
 Structure written by MMmdl.
 47 49  0  0  0  0  0  0  0  0  1 V2000
  153.8632  136.0094  160.1435 O   0  0  0  0  0  0  0  0  0  0  0  0
  153.6300  136.8521  161.0102 C   0  0  0  0  0  0  0  0  0  0  0  0
  153.0879  138.2270  160.6169 C   0  0  0  0  0  0  0  0  0  0  0  0
  154.0375  139.3626  161.0468 C   0  0  0  0  0  0  0  0  0  0  0  0
  153.5088  140.6742  160.6671 N   0  0  0  0  0  0  0  0  0  0  0  0
  153.1124  141.0015  159.4225 C   0  0  0  0  0  0  0  0  0  0  0  0
  153.2240  140.3224  158.4024 O   0  0  0  0  0  0  0  0  0  0  0  0
  152.3936  142.3416  159.4715 C   0  0  2  0  0  0  0  0  0  0  0  0
  152.4813  143.3656  158.3389 C   0  0  0  0  0  0  0  0  0  0  0  0
  151.6077  144.5772  158.7604 C   0  0  0  0  0  0  0  0  0  0  0  0
  151.9143  145.1137  160.1902 C   0  0  0  0  0  0  0  0  0  0  0  0
  152.0052  144.0065  161.2742 C   0  0  0  0  0  0  0  0  0  0  0  0
  152.9665  142.9439  160.7397 C   0  0  1  0  0  0  0  0  0  0  0  0
  153.3290  141.6942  161.5277 C   0  0  0  0  0  0  0  0  0  0  0  0
  153.4842  141.6746  162.7485 O   0  0  0  0  0  0  0  0  0  0  0  0
  153.8539  136.6503  162.3188 N   0  0  0  0  0  0  0  0  0  0  0  0
  154.4972  135.4717  162.8954 C   0  0  0  0  0  0  0  0  0  0  0  0
  154.1940  135.3109  164.3997 C   0  0  0  0  0  0  0  0  0  0  0  0
  154.2051  133.8688  164.8811 C   0  0  0  0  0  0  0  0  0  0  0  0
  153.3105  132.9240  164.3355 C   0  0  0  0  0  0  0  0  0  0  0  0
  153.3944  131.5890  164.7759 C   0  0  0  0  0  0  0  0  0  0  0  0
  154.3634  131.2517  165.7405 C   0  0  0  0  0  0  0  0  0  0  0  0
  155.2081  132.2695  166.2263 C   0  0  0  0  0  0  0  0  0  0  0  0
  155.1363  133.5520  165.8104 N   0  0  0  0  0  0  0  0  0  0  0  0
  152.9306  138.2532  159.5381 H   0  0  0  0  0  0  0  0  0  0  0  0
  152.1098  138.3694  161.0797 H   0  0  0  0  0  0  0  0  0  0  0  0
  154.1946  139.3356  162.1269 H   0  0  0  0  0  0  0  0  0  0  0  0
  155.0247  139.2155  160.6044 H   0  0  0  0  0  0  0  0  0  0  0  0
  151.3399  142.0926  159.6177 H   0  0  0  0  0  0  0  0  0  0  0  0
  153.5144  143.6736  158.1722 H   0  0  0  0  0  0  0  0  0  0  0  0
  152.1177  142.9410  157.4025 H   0  0  0  0  0  0  0  0  0  0  0  0
  151.7167  145.3819  158.0327 H   0  0  0  0  0  0  0  0  0  0  0  0
  150.5590  144.2798  158.7217 H   0  0  0  0  0  0  0  0  0  0  0  0
  152.8634  145.6506  160.1613 H   0  0  0  0  0  0  0  0  0  0  0  0
  151.1636  145.8507  160.4767 H   0  0  0  0  0  0  0  0  0  0  0  0
  152.3679  144.4222  162.2148 H   0  0  0  0  0  0  0  0  0  0  0  0
  151.0218  143.5774  161.4710 H   0  0  0  0  0  0  0  0  0  0  0  0
  153.9207  143.4311  160.5258 H   0  0  0  0  0  0  0  0  0  0  0  0
  153.6301  137.4015  162.9554 H   0  0  0  0  0  0  0  0  0  0  0  0
  154.1491  134.5907  162.3560 H   0  0  0  0  0  0  0  0  0  0  0  0
  155.5769  135.5111  162.7418 H   0  0  0  0  0  0  0  0  0  0  0  0
  154.9225  135.8799  164.9792 H   0  0  0  0  0  0  0  0  0  0  0  0
  153.2227  135.7519  164.6267 H   0  0  0  0  0  0  0  0  0  0  0  0
  152.5872  133.2115  163.5864 H   0  0  0  0  0  0  0  0  0  0  0  0
  152.7307  130.8363  164.3769 H   0  0  0  0  0  0  0  0  0  0  0  0
  154.4584  130.2374  166.0984 H   0  0  0  0  0  0  0  0  0  0  0  0
  155.9650  132.0474  166.9638 H   0  0  0  0  0  0  0  0  0  0  0  0
  1  2  2  0  0  0  0
  2  3  1  0  0  0  0
  2 16  1  0  0  0  0
  3  4  1  0  0  0  0
  3 25  1  0  0  0  0
  3 26  1  0  0  0  0
  4  5  1  0  0  0  0
  4 27  1  0  0  0  0
  4 28  1  0  0  0  0
  5 14  1  0  0  0  0
  5  6  1  0  0  0  0
  6  7  2  0  0  0  0
  6  8  1  0  0  0  0
  8 13  1  0  0  0  0
  8  9  1  0  0  0  0
  8 29  1  0  0  0  0
  9 10  1  0  0  0  0
  9 30  1  0  0  0  0
  9 31  1  0  0  0  0
 10 11  1  0  0  0  0
 10 32  1  0  0  0  0
 10 33  1  0  0  0  0
 11 12  1  0  0  0  0
 11 34  1  0  0  0  0
 11 35  1  0  0  0  0
 12 13  1  0  0  0  0
 12 36  1  0  0  0  0
 12 37  1  0  0  0  0
 13 14  1  0  0  0  0
 13 38  1  0  0  0  0
 14 15  2  0  0  0  0
 16 17  1  0  0  0  0
 16 39  1  0  0  0  0
 17 18  1  0  0  0  0
 17 40  1  0  0  0  0
 17 41  1  0  0  0  0
 18 19  1  0  0  0  0
 18 42  1  0  0  0  0
 18 43  1  0  0  0  0
 19 24  1  0  0  0  0
 19 20  2  0  0  0  0
 20 21  1  0  0  0  0
 20 44  1  0  0  0  0
 21 22  2  0  0  0  0
 21 45  1  0  0  0  0
 22 23  1  0  0  0  0
 22 46  1  0  0  0  0
 23 24  2  0  0  0  0
 23 47  1  0  0  0  0
M  END
> <s_m_source_file>
AV-unprocessed.smi

> <i_m_source_file_index>
2159

> <i_lp_mmshare_version>
43012

> <i_f3d_flags>
0

> <s_epik_input>
bjFbY0hdW2NIXVtjSF1bY0hdYzFbQ0gyXVtDSDJdW05IXUMoPU8pW0NIMl1bQ0gyXU4oQzI9TylDKD1PKVtDQEhdKFtDQEBIXTIzKVtDSDJdW0NIMl1bQ0gyXVtDSDJdMw==

> <s_epik_cmdline>
J2VwaWtfcHl0aG9uJywgJy1waCcsICc3LjAnLCAnLXRuJywgJzgnLCAnLW1hJywgJzIwMCcsICctbWV0YWxfYmluZGluZycsICctaW1hZScsICc8aW5maWxlLm1hZT4nLCAnLW9tYWUnLCAnPG91dGZpbGUubWFlPic=

> <r_lp_tautomer_probability>
1

> <r_epik_Ionization_Penalty>
0.026624

> <r_epik_Ionization_Penalty_Charging>
0

> <r_epik_Ionization_Penalty_Neutral>
0.026624

> <r_epik_State_Penalty>
0.0217444

> <r_epik_Charging_Adjusted_Penalty>
0.0217444

> <i_epik_Tot_Q>
0

> <i_epik_Tot_abs_Q>
0

> <r_epik_Metal_State_Penalty>
0.0208054

> <b_epik_Metal_Only>
0

> <s_lp_Force_Field>
OPLS_2005

> <r_lp_Energy>
32.1072

> <b_lp_Chiralities_Consistent>
1

> <s_lp_Variant>
AV-unprocessed.smi:2159-3

> <Gold.Version>
5.8.1

> <Gold.Id.Protein>
6NUR|6NUR_protein|mol2

> <Gold.PLP.Fitness>
57.2566

> <Gold.PLP.PLP>
-52.1517

> <Gold.PLP.part.hbond>
-2.3494

> <Gold.PLP.part.metal>
0.0000

> <Gold.PLP.part.buried>
-6.1160

> <Gold.PLP.part.nonpolar>
-44.5262

> <Gold.PLP.part.repulsive>
0.1505

> <Gold.PLP.ligand.clash>
0.0000

> <Gold.PLP.ligand.torsion>
0.3568

> <Gold.PLP.Chemscore.Hbond>
1.9033

> <Gold.PLP.Chemscore.CHOScore>
0.0000

> <Gold.PLP.Chemscore.Metal>
0.0000

> <Gold.Chemscore.Hbonds>
donor molecule, donor type, donor heavy atom, donor atom, acceptor molecule, acceptor atom, score
      P1  H  6896  6907       L1     1  1.00
      P1  H  7997  8009       L1     7  0.90

> <Gold.PLP.Chemscore.Internal.Correction>
0.1088

> <Gold.Rescore>
     Score         DG    S(hbond)    S(metal)    S(lipo)     H(rot)  DE(clash)    DE(int)     intcor
     21.76     -22.32       1.89        0.00     133.01       1.97       0.08       0.47       ----

> <Gold.Chemscore.Fitness>
21.7614

> <Gold.Chemscore.DG>
-22.3173

> <Gold.Chemscore.ZeroCoef>
-5.4800

> <Gold.Chemscore.Hbond>
1.8920

> <Gold.Chemscore.Metal>
0.0000

> <Gold.Chemscore.Lipo>
133.0101

> <Gold.Chemscore.Internal_Hbond>
0.0000

> <Gold.Chemscore.DEClash>
0.0846

> <Gold.Chemscore.DEInternal>
0.4713

> <Gold.Chemscore.Rot>
1.9704

> <Gold.Chemscore.Internal.Correction>
   9.000000E+99

> <Gold.Chemscore.Hbonds>
donor molecule, donor type, donor heavy atom, donor atom, acceptor molecule, acceptor atom, score
      P1  H  6896  6907       L1     1  0.60
      P1  H  7997  8009       L1     7  0.87

> <Gold.Chemscore.Hbond.Weighted>
-6.3194

> <Gold.Chemscore.Metal.Weighted>
-0.0000

> <Gold.Chemscore.Lipo.Weighted>
-15.5622

> <Gold.Chemscore.Internal_Hbond.Weighted>
0.0000

> <Gold.Chemscore.DEClash.Weighted>
0.0846

> <Gold.Chemscore.DEInternal.Weighted>
0.4713

> <Gold.Chemscore.Rot.Weighted>
5.0443

> <Gold.Chemscore.Internal.Correction.Weighted>
   9.000000E+99

> <Gold.Protein.RotatedTorsions>
[ 6907 6896 6895 6894 ] final   45.06 input  -60.11 | X-H torsion
[ 7974 7965 7964 7962 ] final  179.91 input  175.53 | X-H torsion
[ 8008 7997 7996 7995 ] final  154.28 input   59.86 | X-H torsion
[ 10167 10162 10161 10158 ] final  113.55 input  -65.29 | X-H torsion
[ 10718 10713 10712 10709 ] final -164.69 input   66.30 | X-H torsion
[ 10763 10752 10751 10750 ] final -173.75 input  -60.55 | X-H torsion
[ 11005 11000 10999 10996 ] final  100.27 input  -57.11 | X-H torsion

> <Gold.Protein.ActiveResidues>
 VAL166  LYS551  ARG553  GLY616  TRP617  ASP618  TYR619  PRO620  LYS621  CYS622 
 ASP623  PHE694  ASN695  SER759  ASP760  ASP761  ALA762  ILE779  LEU786  VAL792 
 PHE793  MET794  SER795  GLU796  ALA797  LYS798  CYS799  TRP800  GLU811  SER814 

> <Gold.Protein.RotatedAtoms>
  152.2401  134.8237  160.0461 H   0  0  0  0  0  0  0  0  0  0  0  0  # atno 6907 bound_to 6896
  151.8955  133.3520  159.3821 H   0  0  0  0  0  0  0  0  0  0  0  0  # atno 6908 bound_to 6896
  150.7051  134.4807  159.5513 H   0  0  0  0  0  0  0  0  0  0  0  0  # atno 6909 bound_to 6896
  144.7141  140.0620  143.6432 H   0  0  0  0  0  0  0  0  0  0  0  0  # atno 7974 bound_to 7965
  156.2539  140.1971  156.6621 H   0  0  0  0  0  0  0  0  0  0  0  0  # atno 8008 bound_to 7997
  154.6457  140.0578  156.9922 H   0  0  0  0  0  0  0  0  0  0  0  0  # atno 8009 bound_to 7997
  155.1495  140.3250  155.4437 H   0  0  0  0  0  0  0  0  0  0  0  0  # atno 8010 bound_to 7997
  139.6453  144.7126  151.2155 H   0  0  0  0  0  0  0  0  0  0  0  0  # atno 10167 bound_to 10162
  156.6427  130.8975  151.2999 H   0  0  0  0  0  0  0  0  0  0  0  0  # atno 10718 bound_to 10713
  154.6042  135.2857  155.0502 H   0  0  0  0  0  0  0  0  0  0  0  0  # atno 10763 bound_to 10752
  154.1756  135.6465  153.5024 H   0  0  0  0  0  0  0  0  0  0  0  0  # atno 10764 bound_to 10752
  153.0169  135.5411  154.6772 H   0  0  0  0  0  0  0  0  0  0  0  0  # atno 10765 bound_to 10752
  139.8771  134.9132  156.4730 H   0  0  0  0  0  0  0  0  0  0  0  0  # atno 11005 bound_to 11000
  145.9856  139.2975  143.1016 LP  0  0  0  0  0  0  0  0  0  0  0  0  # atno 17320 bound_to 7965
  145.8961  140.9273  143.0527 LP  0  0  0  0  0  0  0  0  0  0  0  0  # atno 17321 bound_to 7965
  140.7511  143.6241  150.8485 LP  0  0  0  0  0  0  0  0  0  0  0  0  # atno 17342 bound_to 10162
  139.9883  143.5875  152.2919 LP  0  0  0  0  0  0  0  0  0  0  0  0  # atno 17343 bound_to 10162
  157.7166  130.9505  150.1278 LP  0  0  0  0  0  0  0  0  0  0  0  0  # atno 17370 bound_to 10713
  156.2146  130.3669  149.8628 LP  0  0  0  0  0  0  0  0  0  0  0  0  # atno 17371 bound_to 10713
  140.8782  133.7937  155.9437 LP  0  0  0  0  0  0  0  0  0  0  0  0  # atno 17394 bound_to 11000
  140.8882  134.2528  157.5108 LP  0  0  0  0  0  0  0  0  0  0  0  0  # atno 17395 bound_to 11000

$$$$
