AV-unprocessed.smi:2426|AV-procd|sdf|9577|dock8
  -GOLD-   2272013213D 1   1.00000     0.00000
 Structure written by MMmdl.
 36 37  0  0  0  0  0  0  0  0  1 V2000
  150.8027  141.7838  155.8709 C   0  0  0  0  0  0  0  0  0  0  0  0
  150.5585  140.6439  155.0546 O   0  0  0  0  0  0  0  0  0  0  0  0
  149.2897  140.4695  154.5426 C   0  0  0  0  0  0  0  0  0  0  0  0
  148.9333  139.2221  153.9898 C   0  0  0  0  0  0  0  0  0  0  0  0
  147.6230  139.0845  153.4794 C   0  0  0  0  0  0  0  0  0  0  0  0
  147.3039  137.8129  152.9338 N   0  0  0  0  0  0  0  0  0  0  0  0
  146.0897  137.2523  152.7940 C   0  0  0  0  0  0  0  0  0  0  0  0
  145.0235  137.7758  153.1188 O   0  0  0  0  0  0  0  0  0  0  0  0
  146.1813  136.0269  152.2555 N   0  0  0  0  0  0  0  0  0  0  0  0
  145.0624  135.1245  151.9944 C   0  0  1  0  0  0  0  0  0  0  0  0
  144.4426  135.4702  150.6333 C   0  0  0  0  0  0  0  0  0  0  0  0
  145.5368  133.6711  152.0573 C   0  0  0  0  0  0  0  0  0  0  0  0
  146.5343  133.1417  151.0153 C   0  0  0  0  0  0  0  0  0  0  0  0
  145.8298  131.7846  151.0978 C   0  0  0  0  0  0  0  0  0  0  0  0
  144.6013  132.5305  151.6254 C   0  0  0  0  0  0  0  0  0  0  0  0
  146.7634  140.1319  153.5314 N   0  0  0  0  0  0  0  0  0  0  0  0
  147.1972  141.2711  154.0737 C   0  0  0  0  0  0  0  0  0  0  0  0
  148.4091  141.4987  154.5813 N   0  0  0  0  0  0  0  0  0  0  0  0
  151.8412  141.7756  156.2011 H   0  0  0  0  0  0  0  0  0  0  0  0
  150.1726  141.7795  156.7617 H   0  0  0  0  0  0  0  0  0  0  0  0
  150.6377  142.7111  155.3200 H   0  0  0  0  0  0  0  0  0  0  0  0
  149.6411  138.4064  153.9628 H   0  0  0  0  0  0  0  0  0  0  0  0
  148.0914  137.2616  152.6268 H   0  0  0  0  0  0  0  0  0  0  0  0
  147.1003  135.6819  152.0205 H   0  0  0  0  0  0  0  0  0  0  0  0
  144.2887  135.2825  152.7479 H   0  0  0  0  0  0  0  0  0  0  0  0
  143.5806  134.8368  150.4222 H   0  0  0  0  0  0  0  0  0  0  0  0
  145.1604  135.3354  149.8233 H   0  0  0  0  0  0  0  0  0  0  0  0
  144.1010  136.5056  150.6082 H   0  0  0  0  0  0  0  0  0  0  0  0
  145.9273  133.4384  153.0508 H   0  0  0  0  0  0  0  0  0  0  0  0
  146.4200  133.6163  150.0394 H   0  0  0  0  0  0  0  0  0  0  0  0
  147.5750  133.1378  151.3407 H   0  0  0  0  0  0  0  0  0  0  0  0
  145.6850  131.2850  150.1396 H   0  0  0  0  0  0  0  0  0  0  0  0
  146.2736  131.1202  151.8410 H   0  0  0  0  0  0  0  0  0  0  0  0
  144.0790  132.0349  152.4440 H   0  0  0  0  0  0  0  0  0  0  0  0
  143.9144  132.8228  150.8294 H   0  0  0  0  0  0  0  0  0  0  0  0
  146.4962  142.0918  154.1048 H   0  0  0  0  0  0  0  0  0  0  0  0
  1  2  1  0  0  0  0
  1 19  1  0  0  0  0
  1 20  1  0  0  0  0
  1 21  1  0  0  0  0
  2  3  1  0  0  0  0
  3 18  1  0  0  0  0
  3  4  2  0  0  0  0
  4  5  1  0  0  0  0
  4 22  1  0  0  0  0
  5  6  1  0  0  0  0
  5 16  2  0  0  0  0
  6  7  1  0  0  0  0
  6 23  1  0  0  0  0
  7  8  2  0  0  0  0
  7  9  1  0  0  0  0
  9 10  1  0  0  0  0
  9 24  1  0  0  0  0
 10 11  1  0  0  0  0
 10 12  1  0  0  0  0
 10 25  1  0  0  0  0
 11 26  1  0  0  0  0
 11 27  1  0  0  0  0
 11 28  1  0  0  0  0
 12 15  1  0  0  0  0
 12 13  1  0  0  0  0
 12 29  1  0  0  0  0
 13 14  1  0  0  0  0
 13 30  1  0  0  0  0
 13 31  1  0  0  0  0
 14 15  1  0  0  0  0
 14 32  1  0  0  0  0
 14 33  1  0  0  0  0
 15 34  1  0  0  0  0
 15 35  1  0  0  0  0
 16 17  1  0  0  0  0
 17 18  2  0  0  0  0
 17 36  1  0  0  0  0
M  END
> <s_m_source_file>
AV-unprocessed.smi

> <i_m_source_file_index>
2426

> <i_lp_mmshare_version>
43012

> <i_f3d_flags>
0

> <s_epik_input>
W0NIM11PYzFbY0hdYyhuW2NIXW4xKVtOSF1DKD1PKVtOSF1bQ0BIXShbQ0gzXSlbQ0hdMltDSDJdW0NIMl1bQ0gyXTI=

> <s_epik_cmdline>
J2VwaWtfcHl0aG9uJywgJy1waCcsICc3LjAnLCAnLXRuJywgJzgnLCAnLW1hJywgJzIwMCcsICctbWV0YWxfYmluZGluZycsICctaW1hZScsICc8aW5maWxlLm1hZT4nLCAnLW9tYWUnLCAnPG91dGZpbGUubWFlPic=

> <r_lp_tautomer_probability>
1

> <r_epik_Ionization_Penalty>
2.84534e-05

> <r_epik_Ionization_Penalty_Charging>
0

> <r_epik_Ionization_Penalty_Neutral>
2.84534e-05

> <r_epik_State_Penalty>
-0

> <r_epik_Charging_Adjusted_Penalty>
0

> <i_epik_Tot_Q>
0

> <i_epik_Tot_abs_Q>
0

> <r_epik_Metal_State_Penalty>
-0

> <b_epik_Metal_Only>
0

> <s_lp_Force_Field>
OPLS_2005

> <r_lp_Energy>
11.0753

> <b_lp_Chiralities_Consistent>
1

> <s_lp_Variant>
AV-unprocessed.smi:2426-2

> <Gold.Version>
5.8.1

> <Gold.Id.Protein>
6NUR|6NUR_protein|mol2

> <Gold.PLP.Fitness>
36.8918

> <Gold.PLP.PLP>
-29.5816

> <Gold.PLP.part.hbond>
-2.9434

> <Gold.PLP.part.metal>
0.0000

> <Gold.PLP.part.buried>
-3.3566

> <Gold.PLP.part.nonpolar>
-24.4523

> <Gold.PLP.part.repulsive>
1.1792

> <Gold.PLP.ligand.clash>
0.0000

> <Gold.PLP.ligand.torsion>
0.7109

> <Gold.PLP.Chemscore.Hbond>
2.8720

> <Gold.PLP.Chemscore.CHOScore>
0.0000

> <Gold.PLP.Chemscore.Metal>
0.0000

> <Gold.Chemscore.Hbonds>
donor molecule, donor type, donor heavy atom, donor atom, acceptor molecule, acceptor atom, score
      L1  H     6    23       P1  7948  1.00
      L1  H     9    24       P1  7948  0.86
      P1  H  7989  7998       L1     2  0.93

> <Gold.PLP.Chemscore.Internal.Correction>
0.1160

> <Gold.Rescore>
     Score         DG    S(hbond)    S(metal)    S(lipo)     H(rot)  DE(clash)    DE(int)     intcor
     13.98     -15.89       2.50        0.00      52.64       1.60       0.13       1.78       ----

> <Gold.Chemscore.Fitness>
13.9806

> <Gold.Chemscore.DG>
-15.8861

> <Gold.Chemscore.ZeroCoef>
-5.4800

> <Gold.Chemscore.Hbond>
2.4958

> <Gold.Chemscore.Metal>
0.0000

> <Gold.Chemscore.Lipo>
52.6370

> <Gold.Chemscore.Internal_Hbond>
0.0000

> <Gold.Chemscore.DEClash>
0.1258

> <Gold.Chemscore.DEInternal>
1.7797

> <Gold.Chemscore.Rot>
1.5971

> <Gold.Chemscore.Internal.Correction>
   9.000000E+99

> <Gold.Chemscore.Hbonds>
donor molecule, donor type, donor heavy atom, donor atom, acceptor molecule, acceptor atom, score
      L1  H     6    23       P1  7948  0.93
      L1  H     9    24       P1  7948  0.86
      P1  H  7989  7998       L1     2  0.18

> <Gold.Chemscore.Hbond.Weighted>
-8.3361

> <Gold.Chemscore.Metal.Weighted>
-0.0000

> <Gold.Chemscore.Lipo.Weighted>
-6.1585

> <Gold.Chemscore.Internal_Hbond.Weighted>
0.0000

> <Gold.Chemscore.DEClash.Weighted>
0.1258

> <Gold.Chemscore.DEInternal.Weighted>
1.7797

> <Gold.Chemscore.Rot.Weighted>
4.0886

> <Gold.Chemscore.Internal.Correction.Weighted>
   9.000000E+99

> <Gold.Protein.RotatedTorsions>
[ 6907 6896 6895 6894 ] final  -22.26 input  -60.11 | X-H torsion
[ 7974 7965 7964 7962 ] final   74.58 input  175.53 | X-H torsion
[ 8008 7997 7996 7995 ] final  168.13 input   59.86 | X-H torsion
[ 10167 10162 10161 10158 ] final -161.26 input  -65.29 | X-H torsion
[ 10718 10713 10712 10709 ] final   95.71 input   66.30 | X-H torsion
[ 10763 10752 10751 10750 ] final  118.75 input  -60.55 | X-H torsion
[ 11005 11000 10999 10996 ] final  -32.19 input  -57.11 | X-H torsion

> <Gold.Protein.ActiveResidues>
 VAL166  LYS551  ARG553  GLY616  TRP617  ASP618  TYR619  PRO620  LYS621  CYS622 
 ASP623  PHE694  ASN695  SER759  ASP760  ASP761  ALA762  ILE779  LEU786  VAL792 
 PHE793  MET794  SER795  GLU796  ALA797  LYS798  CYS799  TRP800  GLU811  SER814 

> <Gold.Protein.RotatedAtoms>
  151.2212  135.0519  159.8950 H   0  0  0  0  0  0  0  0  0  0  0  0  # atno 6907 bound_to 6896
  152.5415  134.0639  159.8174 H   0  0  0  0  0  0  0  0  0  0  0  0  # atno 6908 bound_to 6896
  151.0805  133.5345  159.2652 H   0  0  0  0  0  0  0  0  0  0  0  0  # atno 6909 bound_to 6896
  145.7265  139.2667  143.1566 H   0  0  0  0  0  0  0  0  0  0  0  0  # atno 7974 bound_to 7965
  156.1574  140.1598  156.8670 H   0  0  0  0  0  0  0  0  0  0  0  0  # atno 8008 bound_to 7997
  154.5127  140.0797  156.8058 H   0  0  0  0  0  0  0  0  0  0  0  0  # atno 8009 bound_to 7997
  155.3776  140.3403  155.4248 H   0  0  0  0  0  0  0  0  0  0  0  0  # atno 8010 bound_to 7997
  139.6478  144.0140  152.2140 H   0  0  0  0  0  0  0  0  0  0  0  0  # atno 10167 bound_to 10162
  157.6935  131.0554  150.4380 H   0  0  0  0  0  0  0  0  0  0  0  0  # atno 10718 bound_to 10713
  153.5724  135.3500  155.2843 H   0  0  0  0  0  0  0  0  0  0  0  0  # atno 10763 bound_to 10752
  154.8680  135.4162  154.2711 H   0  0  0  0  0  0  0  0  0  0  0  0  # atno 10764 bound_to 10752
  153.3479  135.7053  153.6882 H   0  0  0  0  0  0  0  0  0  0  0  0  # atno 10765 bound_to 10752
  140.9532  133.7208  156.1252 H   0  0  0  0  0  0  0  0  0  0  0  0  # atno 11005 bound_to 11000
  146.0577  140.8003  142.9750 LP  0  0  0  0  0  0  0  0  0  0  0  0  # atno 17320 bound_to 7965
  144.6903  140.3149  143.7242 LP  0  0  0  0  0  0  0  0  0  0  0  0  # atno 17321 bound_to 7965
  139.9846  144.6404  150.7869 LP  0  0  0  0  0  0  0  0  0  0  0  0  # atno 17342 bound_to 10162
  140.7523  143.2988  151.3135 LP  0  0  0  0  0  0  0  0  0  0  0  0  # atno 17343 bound_to 10162
  156.4741  130.4059  149.6500 LP  0  0  0  0  0  0  0  0  0  0  0  0  # atno 17370 bound_to 10713
  156.3570  130.7461  151.2429 LP  0  0  0  0  0  0  0  0  0  0  0  0  # atno 17371 bound_to 10713
  140.7573  134.3978  157.5531 LP  0  0  0  0  0  0  0  0  0  0  0  0  # atno 17394 bound_to 11000
  139.8854  134.8939  156.2646 LP  0  0  0  0  0  0  0  0  0  0  0  0  # atno 17395 bound_to 11000

$$$$
