#       Name:                AV-unprocessed.smi:1088
#       Creating user name   scv26
#       Creation time:       Fri Mar 27 03:26:08 2020


#       File generated by GOLD software.
#

@<TRIPOS>MOLECULE
AV-unprocessed.smi:1088
    56    57     1
SMALL
NO_CHARGES


@<TRIPOS>ATOM
      1 ****        -2.6479   5.9885   2.5672 C.3            1 S1                 0.0000
      2 ****        -1.8952   4.8036   2.3745 O.3            1 S1                 0.0000
      3 ****        -1.1812   4.8066   1.1497 C.3            1 S1                 0.0000
      4 ****        -0.3788   3.5005   1.0353 C.3            1 S1                 0.0000
      5 ****        -1.2518   2.2970   0.9704 N.4            1 S1                 1.0000
      6 ****        -2.1808   2.2808  -0.1854 C.3            1 S1                 0.0000
      7 ****        -2.4388   0.8115  -0.4988 C.3            1 S1                 0.0000
      8 ****        -1.0926   0.1777  -0.1901 C.3            1 S1                 0.0000
      9 ****        -0.5978   0.9533   1.0416 C.3            1 S1                 0.0000
     10 ****         0.9425   0.9412   1.2146 C.3            1 S1                 0.0000
     11 ****         1.4620  -0.4215   1.2878 N.am           1 S1                 0.0000
     12 ****         2.0331  -1.0912   0.2750 C.2            1 S1                 0.0000
     13 ****         2.2369  -0.5954  -0.8337 O.2            1 S1                 0.0000
     14 ****         2.4344  -2.5438   0.5627 C.3            1 S1                 0.0000
     15 ****         2.2694  -3.4160  -0.6076 N.am           1 S1                 0.0000
     16 ****         3.3775  -3.7906  -1.3456 C.2            1 S1                 0.0000
     17 ****         3.3099  -4.5694  -2.4472 C.2            1 S1                 0.0000
     18 ****         2.0303  -5.0734  -2.9300 C.2            1 S1                 0.0000
     19 ****         1.9172  -5.7644  -3.9433 O.2            1 S1                 0.0000
     20 ****         0.9151  -4.6919  -2.1473 N.am           1 S1                 0.0000
     21 ****        -0.3937  -5.1345  -2.5825 C.3            1 S1                 0.0000
     22 ****         0.9898  -3.8629  -1.0048 C.2            1 S1                 0.0000
     23 ****        -0.0143  -3.5234  -0.3735 O.2            1 S1                 0.0000
     24 ****        -3.1807   5.9342   3.5163 H              1 S1                 0.0000
     25 ****        -3.3859   6.1206   1.7748 H              1 S1                 0.0000
     26 ****        -2.0015   6.8668   2.5939 H              1 S1                 0.0000
     27 ****        -1.8603   4.9333   0.3055 H              1 S1                 0.0000
     28 ****        -0.4935   5.6536   1.1335 H              1 S1                 0.0000
     29 ****         0.2590   3.5387   0.1512 H              1 S1                 0.0000
     30 ****         0.2767   3.4395   1.9036 H              1 S1                 0.0000
     31 ****        -3.1015   2.8238   0.0306 H              1 S1                 0.0000
     32 ****        -1.7063   2.7521  -1.0479 H              1 S1                 0.0000
     33 ****        -3.2041   0.4109   0.1676 H              1 S1                 0.0000
     34 ****        -2.7610   0.6458  -1.5272 H              1 S1                 0.0000
     35 ****        -1.1629  -0.8963  -0.0153 H              1 S1                 0.0000
     36 ****        -0.4193   0.3366  -1.0338 H              1 S1                 0.0000
     37 ****        -1.0315   0.4755   1.9214 H              1 S1                 0.0000
     38 ****         1.4310   1.4938   0.4104 H              1 S1                 0.0000
     39 ****         1.2228   1.4313   2.1467 H              1 S1                 0.0000
     40 ****         1.3457  -0.9064   2.1660 H              1 S1                 0.0000
     41 ****         3.4731  -2.5505   0.8955 H              1 S1                 0.0000
     42 ****         1.8527  -2.9362   1.3990 H              1 S1                 0.0000
     43 ****         4.3493  -3.4378  -1.0322 H              1 S1                 0.0000
     44 ****         4.2146  -4.8189  -2.9819 H              1 S1                 0.0000
     45 ****        -1.0616  -5.2159  -1.7242 H              1 S1                 0.0000
     46 ****        -0.3086  -6.1235  -3.0352 H              1 S1                 0.0000
     47 ****        -0.7542  -4.3963  -3.2997 H              1 S1                 0.0000
     48 ****        -1.8361   2.3418   1.7933 H              1 S1                 0.0000
     49 ****        -2.5198   4.0227   2.3796 LP             1 S1                 0.0000
     50 ****        -1.2420   4.7129   3.1262 LP             1 S1                 0.0000
     51 ****         1.9728   0.3521  -1.0139 LP             1 S1                 0.0000
     52 ****         2.6665  -1.1403  -1.5538 LP             1 S1                 0.0000
     53 ****         2.7276  -6.0047  -4.4776 LP             1 S1                 0.0000
     54 ****         1.0150  -6.0851  -4.2317 LP             1 S1                 0.0000
     55 ****         0.0747  -2.9280   0.4250 LP             1 S1                 0.0000
     56 ****        -0.9172  -3.8435  -0.6603 LP             1 S1                 0.0000
@<TRIPOS>BOND
    1    1    2 1     
    2    1   24 1     
    3    1   25 1     
    4    1   26 1     
    5    2    3 1     
    6    3    4 1     
    7    3   27 1     
    8    3   28 1     
    9    4    5 1     
   10    4   29 1     
   11    4   30 1     
   12    5    9 1     
   13    5    6 1     
   14    5   48 1     
   15    6    7 1     
   16    6   31 1     
   17    6   32 1     
   18    7    8 1     
   19    7   33 1     
   20    7   34 1     
   21    8    9 1     
   22    8   35 1     
   23    8   36 1     
   24    9   10 1     
   25    9   37 1     
   26   10   11 1     
   27   10   38 1     
   28   10   39 1     
   29   11   12 am    
   30   11   40 1     
   31   12   13 2     
   32   12   14 1     
   33   14   15 1     
   34   14   41 1     
   35   14   42 1     
   36   15   22 am    
   37   15   16 1     
   38   16   17 2     
   39   16   43 1     
   40   17   18 1     
   41   17   44 1     
   42   18   19 2     
   43   18   20 am    
   44   20   21 1     
   45   20   22 am    
   46   21   45 1     
   47   21   46 1     
   48   21   47 1     
   49   22   23 2     
   50    2   49 1     
   51    2   50 1     
   52   13   51 1     
   53   13   52 1     
   54   19   53 1     
   55   19   54 1     
   56   23   55 1     
   57   23   56 1     
@<TRIPOS>SUBSTRUCTURE
      1 S1             1
@<TRIPOS>SET
LONE_PAIRS      STATIC     ATOMS    <user>   **** ""
8 49 50 51 52 53 54 55 56
DONOR_HYDROGENS      STATIC     ATOMS    <user>   **** ""
2 48 40
ATOM$BLUE        STATIC     ATOMS    COLORGROUP SYSTEM
8 49 50 51 52 53 54 55 56
ATOM$RED        STATIC     ATOMS    COLORGROUP SYSTEM
2 48 40
