AV-unprocessed.smi:2525|AV-procd|sdf|9932|dock4
  -GOLD-   2272013573D 1   1.00000     0.00000
 Structure written by MMmdl.
 44 45  0  0  0  0  0  0  0  0  1 V2000
  152.3012  144.3845  158.0078 C   0  0  0  0  0  0  0  0  0  0  0  0
  153.3722  143.6885  158.8688 C   0  0  0  0  0  0  0  0  0  0  0  0
  152.8664  142.6862  159.9454 C   0  0  0  0  0  0  0  0  0  0  0  0
  151.9063  143.4167  160.9093 C   0  0  0  0  0  0  0  0  0  0  0  0
  152.5992  144.2118  162.0281 C   0  0  0  0  0  0  0  0  0  0  0  0
  152.3825  141.2886  159.4665 C   0  0  1  0  0  0  0  0  0  0  0  0
  151.8876  141.2316  158.0966 N   0  0  0  0  0  0  0  0  0  0  0  0
  150.6229  140.9485  157.7508 C   0  0  0  0  0  0  0  0  0  0  0  0
  149.7275  140.7328  158.5669 O   0  0  0  0  0  0  0  0  0  0  0  0
  150.3167  140.9156  156.2524 C   0  0  0  0  0  0  0  0  0  0  0  0
  150.9290  139.7637  155.6129 N   0  0  0  0  0  0  0  0  0  0  0  0
  150.3155  138.7227  154.9467 C   0  0  0  0  0  0  0  0  0  0  0  0
  151.3597  137.9279  154.5687 C   0  0  0  0  0  0  0  0  0  0  0  0
  152.5465  138.5087  155.0121 N   0  0  0  0  0  0  0  0  0  0  0  0
  152.2754  139.6112  155.6369 N   0  0  0  0  0  0  0  0  0  0  0  0
  153.8171  140.7660  159.5847 C   0  0  2  0  0  0  0  0  0  0  0  0
  154.0582  139.3049  159.9441 C   0  0  0  0  0  0  0  0  0  0  0  0
  154.0162  141.8856  160.6228 C   0  0  2  0  0  0  0  0  0  0  0  0
  153.6777  141.4697  161.9420 O   0  0  0  0  0  0  0  0  0  0  0  0
  154.6793  140.6709  162.5479 C   0  0  0  0  0  0  0  0  0  0  0  0
  152.7724  144.9579  157.2094 H   0  0  0  0  0  0  0  0  0  0  0  0
  151.7048  145.0864  158.5897 H   0  0  0  0  0  0  0  0  0  0  0  0
  151.6213  143.6759  157.5391 H   0  0  0  0  0  0  0  0  0  0  0  0
  154.0575  143.1872  158.1859 H   0  0  0  0  0  0  0  0  0  0  0  0
  153.9815  144.4595  159.3409 H   0  0  0  0  0  0  0  0  0  0  0  0
  151.2292  144.0707  160.3612 H   0  0  0  0  0  0  0  0  0  0  0  0
  151.2425  142.6932  161.3835 H   0  0  0  0  0  0  0  0  0  0  0  0
  151.8610  144.6380  162.7076 H   0  0  0  0  0  0  0  0  0  0  0  0
  153.1907  145.0376  161.6340 H   0  0  0  0  0  0  0  0  0  0  0  0
  153.2600  143.5766  162.6181 H   0  0  0  0  0  0  0  0  0  0  0  0
  151.7288  140.8013  160.1944 H   0  0  0  0  0  0  0  0  0  0  0  0
  152.5574  141.4000  157.3599 H   0  0  0  0  0  0  0  0  0  0  0  0
  149.2389  140.8730  156.0907 H   0  0  0  0  0  0  0  0  0  0  0  0
  150.6764  141.8324  155.7820 H   0  0  0  0  0  0  0  0  0  0  0  0
  149.2468  138.6429  154.8126 H   0  0  0  0  0  0  0  0  0  0  0  0
  151.3568  136.9962  154.0224 H   0  0  0  0  0  0  0  0  0  0  0  0
  154.3822  141.0193  158.6858 H   0  0  0  0  0  0  0  0  0  0  0  0
  153.5104  139.0152  160.8411 H   0  0  0  0  0  0  0  0  0  0  0  0
  155.1159  139.1109  160.1220 H   0  0  0  0  0  0  0  0  0  0  0  0
  153.7346  138.6462  159.1378 H   0  0  0  0  0  0  0  0  0  0  0  0
  154.9819  142.3907  160.5608 H   0  0  0  0  0  0  0  0  0  0  0  0
  154.3452  140.3529  163.5354 H   0  0  0  0  0  0  0  0  0  0  0  0
  155.6043  141.2351  162.6724 H   0  0  0  0  0  0  0  0  0  0  0  0
  154.8927  139.7778  161.9606 H   0  0  0  0  0  0  0  0  0  0  0  0
  1  2  1  0  0  0  0
  1 21  1  0  0  0  0
  1 22  1  0  0  0  0
  1 23  1  0  0  0  0
  2  3  1  0  0  0  0
  2 24  1  0  0  0  0
  2 25  1  0  0  0  0
  3 18  1  0  0  0  0
  3  4  1  0  0  0  0
  3  6  1  0  0  0  0
  4  5  1  0  0  0  0
  4 26  1  0  0  0  0
  4 27  1  0  0  0  0
  5 28  1  0  0  0  0
  5 29  1  0  0  0  0
  5 30  1  0  0  0  0
  6  7  1  0  0  0  0
  6 16  1  0  0  0  0
  6 31  1  0  0  0  0
  7  8  1  0  0  0  0
  7 32  1  0  0  0  0
  8  9  2  0  0  0  0
  8 10  1  0  0  0  0
 10 11  1  0  0  0  0
 10 33  1  0  0  0  0
 10 34  1  0  0  0  0
 11 15  1  0  0  0  0
 11 12  1  0  0  0  0
 12 13  2  0  0  0  0
 12 35  1  0  0  0  0
 13 14  1  0  0  0  0
 13 36  1  0  0  0  0
 14 15  2  0  0  0  0
 16 17  1  0  0  0  0
 16 18  1  0  0  0  0
 16 37  1  0  0  0  0
 17 38  1  0  0  0  0
 17 39  1  0  0  0  0
 17 40  1  0  0  0  0
 18 19  1  0  0  0  0
 18 41  1  0  0  0  0
 19 20  1  0  0  0  0
 20 42  1  0  0  0  0
 20 43  1  0  0  0  0
 20 44  1  0  0  0  0
M  END
> <s_m_source_file>
AV-unprocessed.smi

> <i_m_source_file_index>
2525

> <i_lp_mmshare_version>
43012

> <i_f3d_flags>
0

> <s_epik_input>
W0NIM11PW0NAQEhdMVtDQEhdKFtDSDNdKVtDQEBIXShDMShbQ0gyXVtDSDNdKVtDSDJdW0NIM10pW05IXUMoPU8pW0NIMl1uMltjSF1bY0hdbm4y

> <s_epik_cmdline>
J2VwaWtfcHl0aG9uJywgJy1waCcsICc3LjAnLCAnLXRuJywgJzgnLCAnLW1hJywgJzIwMCcsICctbWV0YWxfYmluZGluZycsICctaW1hZScsICc8aW5maWxlLm1hZT4nLCAnLW9tYWUnLCAnPG91dGZpbGUubWFlPic=

> <r_lp_tautomer_probability>
1

> <r_epik_Ionization_Penalty>
1.18045e-06

> <r_epik_Ionization_Penalty_Charging>
0

> <r_epik_Ionization_Penalty_Neutral>
1.18045e-06

> <r_epik_State_Penalty>
-0

> <r_epik_Charging_Adjusted_Penalty>
0

> <i_epik_Tot_Q>
0

> <i_epik_Tot_abs_Q>
0

> <r_epik_Metal_State_Penalty>
-0

> <b_epik_Metal_Only>
0

> <s_lp_Force_Field>
OPLS_2005

> <r_lp_Energy>
28.9829

> <b_lp_Chiralities_Consistent>
1

> <s_lp_Variant>
AV-unprocessed.smi:2525-7

> <Gold.Version>
5.8.1

> <Gold.Id.Protein>
6NUR|6NUR_protein|mol2

> <Gold.PLP.Fitness>
48.4987

> <Gold.PLP.PLP>
-44.1984

> <Gold.PLP.part.hbond>
-1.8549

> <Gold.PLP.part.metal>
0.0000

> <Gold.PLP.part.buried>
-4.3179

> <Gold.PLP.part.nonpolar>
-36.5252

> <Gold.PLP.part.repulsive>
0.1097

> <Gold.PLP.ligand.clash>
0.0000

> <Gold.PLP.ligand.torsion>
0.8539

> <Gold.PLP.Chemscore.Hbond>
0.7735

> <Gold.PLP.Chemscore.CHOScore>
0.9977

> <Gold.PLP.Chemscore.Metal>
0.0000

> <Gold.Chemscore.Hbonds>
donor molecule, donor type, donor heavy atom, donor atom, acceptor molecule, acceptor atom, score
      P1  H  7997  8010       L1    15  0.48
      L1  C    13    36       P1  7949  0.50

> <Gold.PLP.Chemscore.Internal.Correction>
0.6945

> <Gold.Rescore>
     Score         DG    S(hbond)    S(metal)    S(lipo)     H(rot)  DE(clash)    DE(int)     intcor
     16.53     -17.45       0.54        0.00     130.19       1.98       0.07       0.85       ----

> <Gold.Chemscore.Fitness>
16.5332

> <Gold.Chemscore.DG>
-17.4513

> <Gold.Chemscore.ZeroCoef>
-5.4800

> <Gold.Chemscore.Hbond>
0.5427

> <Gold.Chemscore.Metal>
0.0000

> <Gold.Chemscore.Lipo>
130.1858

> <Gold.Chemscore.Internal_Hbond>
0.0000

> <Gold.Chemscore.DEClash>
0.0669

> <Gold.Chemscore.DEInternal>
0.8512

> <Gold.Chemscore.Rot>
1.9817

> <Gold.Chemscore.Internal.Correction>
   9.000000E+99

> <Gold.Chemscore.Hbonds>
donor molecule, donor type, donor heavy atom, donor atom, acceptor molecule, acceptor atom, score
      P1  H  7997  8010       L1    15  0.10

> <Gold.Chemscore.Hbond.Weighted>
-1.8126

> <Gold.Chemscore.Metal.Weighted>
-0.0000

> <Gold.Chemscore.Lipo.Weighted>
-15.2317

> <Gold.Chemscore.Internal_Hbond.Weighted>
0.0000

> <Gold.Chemscore.DEClash.Weighted>
0.0669

> <Gold.Chemscore.DEInternal.Weighted>
0.8512

> <Gold.Chemscore.Rot.Weighted>
5.0731

> <Gold.Chemscore.Internal.Correction.Weighted>
   9.000000E+99

> <Gold.Protein.RotatedTorsions>
[ 6907 6896 6895 6894 ] final  135.54 input  -60.11 | X-H torsion
[ 7974 7965 7964 7962 ] final  -24.84 input  175.53 | X-H torsion
[ 8008 7997 7996 7995 ] final   82.98 input   59.86 | X-H torsion
[ 10167 10162 10161 10158 ] final -103.12 input  -65.29 | X-H torsion
[ 10718 10713 10712 10709 ] final   77.84 input   66.30 | X-H torsion
[ 10763 10752 10751 10750 ] final  -30.27 input  -60.55 | X-H torsion
[ 11005 11000 10999 10996 ] final -126.15 input  -57.11 | X-H torsion

> <Gold.Protein.ActiveResidues>
 VAL166  LYS551  ARG553  GLY616  TRP617  ASP618  TYR619  PRO620  LYS621  CYS622 
 ASP623  PHE694  ASN695  SER759  ASP760  ASP761  ALA762  ILE779  LEU786  VAL792 
 PHE793  MET794  SER795  GLU796  ALA797  LYS798  CYS799  TRP800  GLU811  SER814 

> <Gold.Protein.RotatedAtoms>
  152.2993  133.5639  159.5607 H   0  0  0  0  0  0  0  0  0  0  0  0  # atno 6907 bound_to 6896
  150.7270  134.0315  159.3744 H   0  0  0  0  0  0  0  0  0  0  0  0  # atno 6908 bound_to 6896
  151.8216  135.0650  160.0476 H   0  0  0  0  0  0  0  0  0  0  0  0  # atno 6909 bound_to 6896
  146.1529  140.4806  142.8603 H   0  0  0  0  0  0  0  0  0  0  0  0  # atno 7974 bound_to 7965
  155.9179  140.3423  155.6149 H   0  0  0  0  0  0  0  0  0  0  0  0  # atno 8008 bound_to 7997
  155.7309  140.0795  157.2308 H   0  0  0  0  0  0  0  0  0  0  0  0  # atno 8009 bound_to 7997
  154.4065  140.1588  156.2495 H   0  0  0  0  0  0  0  0  0  0  0  0  # atno 8010 bound_to 7997
  140.2234  143.3659  152.0950 H   0  0  0  0  0  0  0  0  0  0  0  0  # atno 10167 bound_to 10162
  157.6724  130.9840  150.1700 H   0  0  0  0  0  0  0  0  0  0  0  0  # atno 10718 bound_to 10713
  153.7782  135.6907  153.4893 H   0  0  0  0  0  0  0  0  0  0  0  0  # atno 10763 bound_to 10752
  153.1829  135.4499  155.0050 H   0  0  0  0  0  0  0  0  0  0  0  0  # atno 10764 bound_to 10752
  154.8092  135.3370  154.7287 H   0  0  0  0  0  0  0  0  0  0  0  0  # atno 10765 bound_to 10752
  140.9705  134.0813  157.3875 H   0  0  0  0  0  0  0  0  0  0  0  0  # atno 11005 bound_to 11000
  144.7927  140.6062  143.6531 LP  0  0  0  0  0  0  0  0  0  0  0  0  # atno 17320 bound_to 7965
  145.4779  139.1498  143.3778 LP  0  0  0  0  0  0  0  0  0  0  0  0  # atno 17321 bound_to 7965
  139.5136  144.6935  151.5696 LP  0  0  0  0  0  0  0  0  0  0  0  0  # atno 17342 bound_to 10162
  140.6238  143.9207  150.6548 LP  0  0  0  0  0  0  0  0  0  0  0  0  # atno 17343 bound_to 10162
  156.2456  130.3695  149.8289 LP  0  0  0  0  0  0  0  0  0  0  0  0  # atno 17370 bound_to 10713
  156.6076  130.8573  151.3447 LP  0  0  0  0  0  0  0  0  0  0  0  0  # atno 17371 bound_to 10713
  139.8910  135.0116  156.6769 LP  0  0  0  0  0  0  0  0  0  0  0  0  # atno 17394 bound_to 11000
  140.7336  133.9037  155.8229 LP  0  0  0  0  0  0  0  0  0  0  0  0  # atno 17395 bound_to 11000

$$$$
