AV-unprocessed.smi:1268|AV-procd|sdf|5324|dock5
  -GOLD-   22720 4453D 1   1.00000     0.00000
 Structure written by MMmdl.
 40 41  0  0  0  0  0  0  0  0  2 V2000
  145.8960  138.8057  153.9304 O   0  0  0  0  0  0  0  0  0  0  0  0
  146.7565  138.1702  153.3210 C   0  0  0  0  0  0  0  0  0  0  0  0
  146.4757  137.1263  152.5272 N   0  0  0  0  0  0  0  0  0  0  0  0
  145.1376  136.5935  152.2905 C   0  0  0  0  0  0  0  0  0  0  0  0
  145.0989  135.6444  151.0749 C   0  0  1  0  0  0  0  0  0  0  0  0
  145.3417  136.4109  149.9113 O   0  0  0  0  0  0  0  0  0  0  0  0
  146.2006  134.5693  151.1640 C   0  0  0  0  0  0  0  0  0  0  0  0
  145.6826  133.2602  151.6379 N   0  3  0  0  0  0  0  0  0  0  0  0
  144.9897  132.5042  150.5625 C   0  0  0  0  0  0  0  0  0  0  0  0
  144.3293  131.2308  151.1167 C   0  0  0  0  0  0  0  0  0  0  0  0
  145.3576  130.3427  151.8293 C   0  0  0  0  0  0  0  0  0  0  0  0
  146.0916  131.1510  152.9073 C   0  0  0  0  0  0  0  0  0  0  0  0
  146.7134  132.4266  152.3138 C   0  0  0  0  0  0  0  0  0  0  0  0
  148.0750  138.4210  153.3502 N   0  0  0  0  0  0  0  0  0  0  0  0
  148.7493  139.4325  154.0781 C   0  0  0  0  0  0  0  0  0  0  0  0
  149.9040  139.1349  154.6766 N   0  0  0  0  0  0  0  0  0  0  0  0
  150.4410  140.2322  155.3564 C   0  0  0  0  0  0  0  0  0  0  0  0
  149.6755  141.3680  155.2635 C   0  0  0  0  0  0  0  0  0  0  0  0
  148.2388  141.1066  154.3116 S   0  0  0  0  0  0  0  0  0  0  0  0
  147.2414  136.6576  152.0649 H   0  0  0  0  0  0  0  0  0  0  0  0
  144.7809  136.0919  153.1912 H   0  0  0  0  0  0  0  0  0  0  0  0
  144.4614  137.4352  152.1301 H   0  0  0  0  0  0  0  0  0  0  0  0
  144.1189  135.1752  150.9967 H   0  0  0  0  0  0  0  0  0  0  0  0
  144.8642  137.2241  149.9827 H   0  0  0  0  0  0  0  0  0  0  0  0
  146.6526  134.4561  150.1770 H   0  0  0  0  0  0  0  0  0  0  0  0
  147.0035  134.8952  151.8272 H   0  0  0  0  0  0  0  0  0  0  0  0
  144.2230  133.1308  150.1052 H   0  0  0  0  0  0  0  0  0  0  0  0
  145.7033  132.2494  149.7770 H   0  0  0  0  0  0  0  0  0  0  0  0
  143.5354  131.5041  151.8132 H   0  0  0  0  0  0  0  0  0  0  0  0
  143.8538  130.6751  150.3081 H   0  0  0  0  0  0  0  0  0  0  0  0
  144.8643  129.4782  152.2748 H   0  0  0  0  0  0  0  0  0  0  0  0
  146.0754  129.9550  151.1053 H   0  0  0  0  0  0  0  0  0  0  0  0
  145.3950  131.4193  153.7028 H   0  0  0  0  0  0  0  0  0  0  0  0
  146.8666  130.5378  153.3683 H   0  0  0  0  0  0  0  0  0  0  0  0
  147.4951  132.1636  151.5995 H   0  0  0  0  0  0  0  0  0  0  0  0
  147.1954  132.9880  153.1132 H   0  0  0  0  0  0  0  0  0  0  0  0
  148.6646  137.8198  152.7936 H   0  0  0  0  0  0  0  0  0  0  0  0
  151.3764  140.1160  155.8836 H   0  0  0  0  0  0  0  0  0  0  0  0
  149.8690  142.3383  155.6961 H   0  0  0  0  0  0  0  0  0  0  0  0
  144.9761  133.4751  152.3273 H   0  0  0  0  0  0  0  0  0  0  0  0
  1  2  2  0  0  0  0
  2  3  1  0  0  0  0
  2 14  1  0  0  0  0
  3  4  1  0  0  0  0
  3 20  1  0  0  0  0
  4  5  1  0  0  0  0
  4 21  1  0  0  0  0
  4 22  1  0  0  0  0
  5  6  1  0  0  0  0
  5  7  1  0  0  0  0
  5 23  1  0  0  0  0
  6 24  1  0  0  0  0
  7  8  1  0  0  0  0
  7 25  1  0  0  0  0
  7 26  1  0  0  0  0
  8 13  1  0  0  0  0
  8  9  1  0  0  0  0
  8 40  1  0  0  0  0
  9 10  1  0  0  0  0
  9 27  1  0  0  0  0
  9 28  1  0  0  0  0
 10 11  1  0  0  0  0
 10 29  1  0  0  0  0
 10 30  1  0  0  0  0
 11 12  1  0  0  0  0
 11 31  1  0  0  0  0
 11 32  1  0  0  0  0
 12 13  1  0  0  0  0
 12 33  1  0  0  0  0
 12 34  1  0  0  0  0
 13 35  1  0  0  0  0
 13 36  1  0  0  0  0
 14 15  1  0  0  0  0
 14 37  1  0  0  0  0
 15 19  1  0  0  0  0
 15 16  2  0  0  0  0
 16 17  1  0  0  0  0
 17 18  2  0  0  0  0
 17 38  1  0  0  0  0
 18 19  1  0  0  0  0
 18 39  1  0  0  0  0
M  CHG  1   8   1
M  END
> <s_m_source_file>
AV-unprocessed.smi

> <i_m_source_file_index>
1268

> <i_lp_mmshare_version>
43012

> <i_f3d_flags>
0

> <s_epik_input>
czFbY0hdW2NIXW5jMVtOSF1DKD1PKVtOSF1bQ0gyXVtDQEhdKFtPSF0pW0NIMl1OMltDSDJdW0NIMl1bQ0gyXVtDSDJdW0NIMl0y

> <s_epik_cmdline>
J2VwaWtfcHl0aG9uJywgJy1waCcsICc3LjAnLCAnLXRuJywgJzgnLCAnLW1hJywgJzIwMCcsICctbWV0YWxfYmluZGluZycsICctaW1hZScsICc8aW5maWxlLm1hZT4nLCAnLW9tYWUnLCAnPG91dGZpbGUubWFlPic=

> <r_lp_tautomer_probability>
0.999

> <r_epik_Ionization_Penalty>
0.00539631

> <r_epik_Ionization_Penalty_Charging>
0.00525788

> <r_epik_Ionization_Penalty_Neutral>
0.000138432

> <r_epik_State_Penalty>
0.0038355

> <r_epik_Charging_Adjusted_Penalty>
0.00909338

> <i_epik_Tot_Q>
1

> <i_epik_Tot_abs_Q>
1

> <r_epik_Metal_State_Penalty>
0.0500806

> <b_epik_Metal_Only>
0

> <s_lp_Force_Field>
OPLS_2005

> <r_lp_Energy>
15.7881

> <b_lp_Chiralities_Consistent>
1

> <s_lp_Variant>
AV-unprocessed.smi:1268-2

> <Gold.Version>
5.8.1

> <Gold.Id.Protein>
6NUR|6NUR_protein|mol2

> <Gold.PLP.Fitness>
45.2426

> <Gold.PLP.PLP>
-35.6651

> <Gold.PLP.part.hbond>
-4.8017

> <Gold.PLP.part.metal>
0.0000

> <Gold.PLP.part.buried>
-5.5276

> <Gold.PLP.part.nonpolar>
-27.4394

> <Gold.PLP.part.repulsive>
0.3735

> <Gold.PLP.ligand.clash>
0.0000

> <Gold.PLP.ligand.torsion>
1.2394

> <Gold.PLP.Chemscore.Hbond>
3.0000

> <Gold.PLP.Chemscore.CHOScore>
1.0000

> <Gold.PLP.Chemscore.Metal>
0.0000

> <Gold.Chemscore.Hbonds>
donor molecule, donor type, donor heavy atom, donor atom, acceptor molecule, acceptor atom, score
      L1  H     3    20       P1  7948  1.00
      L1  H     6    24       P1 10171  1.00
      L1  H    14    37       P1  7948  1.00
      L1  C    18    39       P1  8028  0.89

> <Gold.PLP.Chemscore.Internal.Correction>
0.0563

> <Gold.Rescore>
     Score         DG    S(hbond)    S(metal)    S(lipo)     H(rot)  DE(clash)    DE(int)     intcor
     16.86     -18.27       2.94        0.00      80.95       2.54       0.19       1.22       ----

> <Gold.Chemscore.Fitness>
16.8596

> <Gold.Chemscore.DG>
-18.2718

> <Gold.Chemscore.ZeroCoef>
-5.4800

> <Gold.Chemscore.Hbond>
2.9396

> <Gold.Chemscore.Metal>
0.0000

> <Gold.Chemscore.Lipo>
80.9535

> <Gold.Chemscore.Internal_Hbond>
0.0000

> <Gold.Chemscore.DEClash>
0.1909

> <Gold.Chemscore.DEInternal>
1.2214

> <Gold.Chemscore.Rot>
2.5383

> <Gold.Chemscore.Internal.Correction>
   9.000000E+99

> <Gold.Chemscore.Hbonds>
donor molecule, donor type, donor heavy atom, donor atom, acceptor molecule, acceptor atom, score
      L1  H     3    20       P1  7948  0.98
      L1  H     6    24       P1 10171  1.00
      L1  H    14    37       P1  7948  0.96

> <Gold.Chemscore.Hbond.Weighted>
-9.8183

> <Gold.Chemscore.Metal.Weighted>
-0.0000

> <Gold.Chemscore.Lipo.Weighted>
-9.4716

> <Gold.Chemscore.Internal_Hbond.Weighted>
0.0000

> <Gold.Chemscore.DEClash.Weighted>
0.1909

> <Gold.Chemscore.DEInternal.Weighted>
1.2214

> <Gold.Chemscore.Rot.Weighted>
6.4981

> <Gold.Chemscore.Internal.Correction.Weighted>
   9.000000E+99

> <Gold.Protein.RotatedTorsions>
[ 6907 6896 6895 6894 ] final   -4.60 input  -60.11 | X-H torsion
[ 7974 7965 7964 7962 ] final   13.02 input  175.53 | X-H torsion
[ 8008 7997 7996 7995 ] final   93.84 input   59.86 | X-H torsion
[ 10167 10162 10161 10158 ] final  -28.83 input  -65.29 | X-H torsion
[ 10718 10713 10712 10709 ] final    1.26 input   66.30 | X-H torsion
[ 10763 10752 10751 10750 ] final   74.87 input  -60.55 | X-H torsion
[ 11005 11000 10999 10996 ] final   54.68 input  -57.11 | X-H torsion

> <Gold.Protein.ActiveResidues>
 VAL166  LYS551  ARG553  GLY616  TRP617  ASP618  TYR619  PRO620  LYS621  CYS622 
 ASP623  PHE694  ASN695  SER759  ASP760  ASP761  ALA762  ILE779  LEU786  VAL792 
 PHE793  MET794  SER795  GLU796  ALA797  LYS798  CYS799  TRP800  GLU811  SER814 

> <Gold.Protein.RotatedAtoms>
  151.4950  135.1059  159.9813 H   0  0  0  0  0  0  0  0  0  0  0  0  # atno 6907 bound_to 6896
  152.4725  133.8058  159.6988 H   0  0  0  0  0  0  0  0  0  0  0  0  # atno 6908 bound_to 6896
  150.8743  133.7399  159.2977 H   0  0  0  0  0  0  0  0  0  0  0  0  # atno 6909 bound_to 6896
  146.2339  139.9251  142.8504 H   0  0  0  0  0  0  0  0  0  0  0  0  # atno 7974 bound_to 7965
  156.0513  140.3307  155.7354 H   0  0  0  0  0  0  0  0  0  0  0  0  # atno 8008 bound_to 7997
  155.5597  140.0618  157.2849 H   0  0  0  0  0  0  0  0  0  0  0  0  # atno 8009 bound_to 7997
  154.4437  140.1879  156.0758 H   0  0  0  0  0  0  0  0  0  0  0  0  # atno 8010 bound_to 7997
  140.7266  143.3978  151.1317 H   0  0  0  0  0  0  0  0  0  0  0  0  # atno 10167 bound_to 10162
  156.8455  130.5535  149.5674 H   0  0  0  0  0  0  0  0  0  0  0  0  # atno 10718 bound_to 10713
  153.0616  135.5010  154.8106 H   0  0  0  0  0  0  0  0  0  0  0  0  # atno 10763 bound_to 10752
  154.6891  135.2981  154.9508 H   0  0  0  0  0  0  0  0  0  0  0  0  # atno 10764 bound_to 10752
  154.0268  135.6735  153.4830 H   0  0  0  0  0  0  0  0  0  0  0  0  # atno 10765 bound_to 10752
  140.0667  134.5527  155.9091 H   0  0  0  0  0  0  0  0  0  0  0  0  # atno 11005 bound_to 11000
  145.2099  140.9891  143.4106 LP  0  0  0  0  0  0  0  0  0  0  0  0  # atno 17320 bound_to 7965
  144.9700  139.3890  143.6313 LP  0  0  0  0  0  0  0  0  0  0  0  0  # atno 17321 bound_to 7965
  139.7593  143.8660  152.3096 LP  0  0  0  0  0  0  0  0  0  0  0  0  # atno 17342 bound_to 10162
  139.8540  144.7150  150.9179 LP  0  0  0  0  0  0  0  0  0  0  0  0  # atno 17343 bound_to 10162
  156.0857  130.5856  150.9643 LP  0  0  0  0  0  0  0  0  0  0  0  0  # atno 17370 bound_to 10713
  157.6332  131.0919  150.8400 LP  0  0  0  0  0  0  0  0  0  0  0  0  # atno 17371 bound_to 10713
  141.1995  133.6607  156.5850 LP  0  0  0  0  0  0  0  0  0  0  0  0  # atno 17394 bound_to 11000
  140.3688  134.7623  157.4584 LP  0  0  0  0  0  0  0  0  0  0  0  0  # atno 17395 bound_to 11000

$$$$
