AV-unprocessed.smi:870|AV-procd|sdf|4010|dock10
  -GOLD-   22720 1503D 1   1.00000     0.00000
 Structure written by MMmdl.
 47 49  0  0  0  0  0  0  0  0  2 V2000
  145.1627  144.2264  154.1421 C   0  0  0  0  0  0  0  0  0  0  0  0
  145.9389  143.2022  154.7389 O   0  0  0  0  0  0  0  0  0  0  0  0
  146.8644  142.6245  153.8325 C   0  0  0  0  0  0  0  0  0  0  0  0
  147.0243  141.1565  154.0574 C   0  0  0  0  0  0  0  0  0  0  0  0
  146.0514  140.2118  153.9171 N   0  3  0  0  0  0  0  0  0  0  0  0
  146.5708  138.9500  154.2093 C   0  0  0  0  0  0  0  0  0  0  0  0
  145.9729  137.6936  154.2044 C   0  0  0  0  0  0  0  0  0  0  0  0
  146.7937  136.6011  154.5539 C   0  0  0  0  0  0  0  0  0  0  0  0
  148.1512  136.7805  154.8913 C   0  0  0  0  0  0  0  0  0  0  0  0
  148.7460  138.0596  154.8934 C   0  0  0  0  0  0  0  0  0  0  0  0
  147.9275  139.1336  154.5458 C   0  0  0  0  0  0  0  0  0  0  0  0
  148.1627  140.5081  154.4378 N   0  0  0  0  0  0  0  0  0  0  0  0
  149.5078  141.0308  154.7235 C   0  0  0  0  0  0  0  0  0  0  0  0
  149.6864  141.4572  156.1946 C   0  0  1  0  0  0  0  0  0  0  0  0
  149.1123  140.4716  157.0303 O   0  0  0  0  0  0  0  0  0  0  0  0
  151.1683  141.6113  156.5691 C   0  0  0  0  0  0  0  0  0  0  0  0
  151.2806  142.6060  157.5779 O   0  0  0  0  0  0  0  0  0  0  0  0
  152.0037  142.3122  158.7159 C   0  0  0  0  0  0  0  0  0  0  0  0
  152.6402  141.0650  158.9447 C   0  0  0  0  0  0  0  0  0  0  0  0
  153.3615  140.8366  160.1320 C   0  0  0  0  0  0  0  0  0  0  0  0
  153.4581  141.8475  161.1046 C   0  0  0  0  0  0  0  0  0  0  0  0
  152.8327  143.0885  160.8883 C   0  0  0  0  0  0  0  0  0  0  0  0
  152.1083  143.3227  159.7004 C   0  0  0  0  0  0  0  0  0  0  0  0
  151.4389  144.6672  159.4842 C   0  0  0  0  0  0  0  0  0  0  0  0
  144.4628  144.6301  154.8738 H   0  0  0  0  0  0  0  0  0  0  0  0
  144.5852  143.8443  153.2993 H   0  0  0  0  0  0  0  0  0  0  0  0
  145.7929  145.0448  153.7919 H   0  0  0  0  0  0  0  0  0  0  0  0
  146.5298  142.7878  152.8072 H   0  0  0  0  0  0  0  0  0  0  0  0
  147.8395  143.1018  153.9405 H   0  0  0  0  0  0  0  0  0  0  0  0
  144.9333  137.5538  153.9463 H   0  0  0  0  0  0  0  0  0  0  0  0
  146.3741  135.6056  154.5630 H   0  0  0  0  0  0  0  0  0  0  0  0
  148.7493  135.9197  155.1534 H   0  0  0  0  0  0  0  0  0  0  0  0
  149.7870  138.1870  155.1516 H   0  0  0  0  0  0  0  0  0  0  0  0
  150.2288  140.2546  154.4641 H   0  0  0  0  0  0  0  0  0  0  0  0
  149.7014  141.8652  154.0481 H   0  0  0  0  0  0  0  0  0  0  0  0
  149.1685  142.4024  156.3606 H   0  0  0  0  0  0  0  0  0  0  0  0
  148.2145  140.3416  156.7642 H   0  0  0  0  0  0  0  0  0  0  0  0
  151.5870  140.6564  156.8923 H   0  0  0  0  0  0  0  0  0  0  0  0
  151.7284  141.9441  155.6936 H   0  0  0  0  0  0  0  0  0  0  0  0
  152.5916  140.2640  158.2231 H   0  0  0  0  0  0  0  0  0  0  0  0
  153.8422  139.8835  160.2961 H   0  0  0  0  0  0  0  0  0  0  0  0
  154.0117  141.6718  162.0153 H   0  0  0  0  0  0  0  0  0  0  0  0
  152.9114  143.8605  161.6398 H   0  0  0  0  0  0  0  0  0  0  0  0
  151.5934  145.3314  160.3349 H   0  0  0  0  0  0  0  0  0  0  0  0
  150.3650  144.5387  159.3465 H   0  0  0  0  0  0  0  0  0  0  0  0
  151.8445  145.1533  158.5966 H   0  0  0  0  0  0  0  0  0  0  0  0
  145.1018  140.4226  153.6382 H   0  0  0  0  0  0  0  0  0  0  0  0
  1  2  1  0  0  0  0
  1 25  1  0  0  0  0
  1 26  1  0  0  0  0
  1 27  1  0  0  0  0
  2  3  1  0  0  0  0
  3  4  1  0  0  0  0
  3 28  1  0  0  0  0
  3 29  1  0  0  0  0
  4 12  1  0  0  0  0
  4  5  2  0  0  0  0
  5  6  1  0  0  0  0
  5 47  1  0  0  0  0
  6 11  2  0  0  0  0
  6  7  1  0  0  0  0
  7  8  2  0  0  0  0
  7 30  1  0  0  0  0
  8  9  1  0  0  0  0
  8 31  1  0  0  0  0
  9 10  2  0  0  0  0
  9 32  1  0  0  0  0
 10 11  1  0  0  0  0
 10 33  1  0  0  0  0
 11 12  1  0  0  0  0
 12 13  1  0  0  0  0
 13 14  1  0  0  0  0
 13 34  1  0  0  0  0
 13 35  1  0  0  0  0
 14 15  1  0  0  0  0
 14 16  1  0  0  0  0
 14 36  1  0  0  0  0
 15 37  1  0  0  0  0
 16 17  1  0  0  0  0
 16 38  1  0  0  0  0
 16 39  1  0  0  0  0
 17 18  1  0  0  0  0
 18 23  1  0  0  0  0
 18 19  2  0  0  0  0
 19 20  1  0  0  0  0
 19 40  1  0  0  0  0
 20 21  2  0  0  0  0
 20 41  1  0  0  0  0
 21 22  1  0  0  0  0
 21 42  1  0  0  0  0
 22 23  2  0  0  0  0
 22 43  1  0  0  0  0
 23 24  1  0  0  0  0
 24 44  1  0  0  0  0
 24 45  1  0  0  0  0
 24 46  1  0  0  0  0
M  CHG  1   5   1
M  END
> <s_m_source_file>
AV-unprocessed.smi

> <i_m_source_file_index>
870

> <i_lp_mmshare_version>
43012

> <i_f3d_flags>
0

> <s_epik_input>
W2NIXTFbY0hdW2NIXVtjSF1jKGMxMiluKGMobjIpW0NIMl1PW0NIM10pW0NIMl1bQ0BIXShbT0hdKVtDSDJdT2MzW2NIXVtjSF1bY0hdW2NIXWMzW0NIM10=

> <s_epik_cmdline>
J2VwaWtfcHl0aG9uJywgJy1waCcsICc3LjAnLCAnLXRuJywgJzgnLCAnLW1hJywgJzIwMCcsICctbWV0YWxfYmluZGluZycsICctaW1hZScsICc8aW5maWxlLm1hZT4nLCAnLW9tYWUnLCAnPG91dGZpbGUubWFlPic=

> <r_lp_tautomer_probability>
1

> <r_epik_Ionization_Penalty>
1.55338

> <r_epik_Ionization_Penalty_Charging>
1.55338

> <r_epik_Ionization_Penalty_Neutral>
2.3993e-06

> <r_epik_State_Penalty>
1.64778

> <r_epik_Charging_Adjusted_Penalty>
3.20115

> <i_epik_Tot_Q>
1

> <i_epik_Tot_abs_Q>
1

> <r_epik_Metal_State_Penalty>
5.70266

> <b_epik_Metal_Only>
0

> <s_lp_Force_Field>
OPLS_2005

> <r_lp_Energy>
19.1039

> <b_lp_Chiralities_Consistent>
1

> <s_lp_Variant>
AV-unprocessed.smi:870-4

> <Gold.Version>
5.8.1

> <Gold.Id.Protein>
6NUR|6NUR_protein|mol2

> <Gold.PLP.Fitness>
47.7931

> <Gold.PLP.PLP>
-44.7118

> <Gold.PLP.part.hbond>
-1.0000

> <Gold.PLP.part.metal>
0.0000

> <Gold.PLP.part.buried>
-7.2204

> <Gold.PLP.part.nonpolar>
-35.9686

> <Gold.PLP.part.repulsive>
0.3154

> <Gold.PLP.ligand.clash>
0.0000

> <Gold.PLP.ligand.torsion>
1.4910

> <Gold.PLP.Chemscore.Hbond>
2.0000

> <Gold.PLP.Chemscore.CHOScore>
0.0000

> <Gold.PLP.Chemscore.Metal>
0.0000

> <Gold.Chemscore.Hbonds>
donor molecule, donor type, donor heavy atom, donor atom, acceptor molecule, acceptor atom, score
      L1  H     5    47       P1 10175  2.00

> <Gold.PLP.Chemscore.Internal.Correction>
0.0633

> <Gold.Rescore>
     Score         DG    S(hbond)    S(metal)    S(lipo)     H(rot)  DE(clash)    DE(int)     intcor
     15.61     -17.44       0.99        0.00     127.66       2.45       0.04       1.79       ----

> <Gold.Chemscore.Fitness>
15.6108

> <Gold.Chemscore.DG>
-17.4424

> <Gold.Chemscore.ZeroCoef>
-5.4800

> <Gold.Chemscore.Hbond>
0.9869

> <Gold.Chemscore.Metal>
0.0000

> <Gold.Chemscore.Lipo>
127.6633

> <Gold.Chemscore.Internal_Hbond>
0.0000

> <Gold.Chemscore.DEClash>
0.0385

> <Gold.Chemscore.DEInternal>
1.7931

> <Gold.Chemscore.Rot>
2.4494

> <Gold.Chemscore.Internal.Correction>
   9.000000E+99

> <Gold.Chemscore.Hbonds>
donor molecule, donor type, donor heavy atom, donor atom, acceptor molecule, acceptor atom, score
      L1  H     5    47       P1 10175  0.98

> <Gold.Chemscore.Hbond.Weighted>
-3.2962

> <Gold.Chemscore.Metal.Weighted>
-0.0000

> <Gold.Chemscore.Lipo.Weighted>
-14.9366

> <Gold.Chemscore.Internal_Hbond.Weighted>
0.0000

> <Gold.Chemscore.DEClash.Weighted>
0.0385

> <Gold.Chemscore.DEInternal.Weighted>
1.7931

> <Gold.Chemscore.Rot.Weighted>
6.2704

> <Gold.Chemscore.Internal.Correction.Weighted>
   9.000000E+99

> <Gold.Protein.RotatedTorsions>
[ 6907 6896 6895 6894 ] final  -72.08 input  -60.11 | X-H torsion
[ 7974 7965 7964 7962 ] final   15.16 input  175.53 | X-H torsion
[ 8008 7997 7996 7995 ] final  147.90 input   59.86 | X-H torsion
[ 10167 10162 10161 10158 ] final  -77.38 input  -65.29 | X-H torsion
[ 10718 10713 10712 10709 ] final  -57.73 input   66.30 | X-H torsion
[ 10763 10752 10751 10750 ] final   27.37 input  -60.55 | X-H torsion
[ 11005 11000 10999 10996 ] final    3.73 input  -57.11 | X-H torsion

> <Gold.Protein.ActiveResidues>
 VAL166  LYS551  ARG553  GLY616  TRP617  ASP618  TYR619  PRO620  LYS621  CYS622 
 ASP623  PHE694  ASN695  SER759  ASP760  ASP761  ALA762  ILE779  LEU786  VAL792 
 PHE793  MET794  SER795  GLU796  ALA797  LYS798  CYS799  TRP800  GLU811  SER814 

> <Gold.Protein.RotatedAtoms>
  150.7185  134.5215  159.5655 H   0  0  0  0  0  0  0  0  0  0  0  0  # atno 6907 bound_to 6896
  152.2769  134.7869  160.0413 H   0  0  0  0  0  0  0  0  0  0  0  0  # atno 6908 bound_to 6896
  151.8529  133.3408  159.3715 H   0  0  0  0  0  0  0  0  0  0  0  0  # atno 6909 bound_to 6896
  146.2286  139.8935  142.8551 H   0  0  0  0  0  0  0  0  0  0  0  0  # atno 7974 bound_to 7965
  156.2809  140.2143  156.5613 H   0  0  0  0  0  0  0  0  0  0  0  0  # atno 8008 bound_to 7997
  154.7211  140.0503  157.0663 H   0  0  0  0  0  0  0  0  0  0  0  0  # atno 8009 bound_to 7997
  155.0477  140.3153  155.4705 H   0  0  0  0  0  0  0  0  0  0  0  0  # atno 8010 bound_to 7997
  140.4775  143.2410  151.8109 H   0  0  0  0  0  0  0  0  0  0  0  0  # atno 10167 bound_to 10162
  156.1188  130.4168  150.0481 H   0  0  0  0  0  0  0  0  0  0  0  0  # atno 10718 bound_to 10713
  153.0560  135.6538  154.0576 H   0  0  0  0  0  0  0  0  0  0  0  0  # atno 10763 bound_to 10752
  154.0255  135.2916  155.3377 H   0  0  0  0  0  0  0  0  0  0  0  0  # atno 10764 bound_to 10752
  154.6875  135.5296  153.8414 H   0  0  0  0  0  0  0  0  0  0  0  0  # atno 10765 bound_to 10752
  140.5898  133.9935  155.8084 H   0  0  0  0  0  0  0  0  0  0  0  0  # atno 11005 bound_to 11000
  145.2394  141.0003  143.3945 LP  0  0  0  0  0  0  0  0  0  0  0  0  # atno 17320 bound_to 7965
  144.9465  139.4130  143.6423 LP  0  0  0  0  0  0  0  0  0  0  0  0  # atno 17321 bound_to 7965
  139.4828  144.4814  151.9301 LP  0  0  0  0  0  0  0  0  0  0  0  0  # atno 17342 bound_to 10162
  140.3899  144.2628  150.5900 LP  0  0  0  0  0  0  0  0  0  0  0  0  # atno 17343 bound_to 10162
  156.8425  130.9430  151.3631 LP  0  0  0  0  0  0  0  0  0  0  0  0  # atno 17370 bound_to 10713
  157.6372  130.8776  149.9380 LP  0  0  0  0  0  0  0  0  0  0  0  0  # atno 17371 bound_to 10713
  141.0942  133.9869  157.3187 LP  0  0  0  0  0  0  0  0  0  0  0  0  # atno 17394 bound_to 11000
  139.9279  135.0201  156.8299 LP  0  0  0  0  0  0  0  0  0  0  0  0  # atno 17395 bound_to 11000

$$$$
