AV-unprocessed.smi:198|AV-procd|sdf|1552|dock1
  -GOLD-   2262019423D 1   1.00000     0.00000
 Structure written by MMmdl.
 59 63  0  0  0  0  0  0  0  0  2 V2000
  150.9006  142.6501  157.5085 C   0  0  0  0  0  0  0  0  0  0  0  0
  149.7074  142.3471  156.6896 N   0  3  1  0  0  0  0  0  0  0  0  0
  149.9916  141.3614  155.6186 C   0  0  0  0  0  0  0  0  0  0  0  0
  148.7642  141.1522  154.7168 C   0  0  0  0  0  0  0  0  0  0  0  0
  147.5344  140.7058  155.5430 C   0  0  1  0  0  0  0  0  0  0  0  0
  147.2854  141.7693  156.6405 C   0  0  1  0  0  0  0  0  0  0  0  0
  146.0474  141.4119  157.4789 C   0  0  0  0  0  0  0  0  0  0  0  0
  144.8286  141.2483  156.5629 C   0  0  0  0  0  0  0  0  0  0  0  0
  145.1073  140.2026  155.4740 C   0  0  0  0  0  0  0  0  0  0  0  0
  146.3248  140.5178  154.7260 N   0  0  0  0  0  0  0  0  0  0  0  0
  146.4272  139.7048  153.6474 C   0  0  0  0  0  0  0  0  0  0  0  0
  146.8549  140.1975  152.4546 N   0  0  0  0  0  0  0  0  0  0  0  0
  146.9622  139.3866  151.3978 C   0  0  0  0  0  0  0  0  0  0  0  0
  146.7050  138.0793  151.3199 N   0  0  0  0  0  0  0  0  0  0  0  0
  146.2899  137.5785  152.5197 C   0  0  0  0  0  0  0  0  0  0  0  0
  146.1292  138.3187  153.7242 C   0  0  0  0  0  0  0  0  0  0  0  0
  145.6925  137.4852  154.7448 N   0  0  0  0  0  0  0  0  0  0  0  0
  145.5970  136.3147  154.1754 C   0  0  0  0  0  0  0  0  0  0  0  0
  145.9353  136.2773  152.8401 N   0  0  0  0  0  0  0  0  0  0  0  0
  145.9059  135.1216  151.9876 C   0  0  0  0  0  0  0  0  0  0  0  0
  144.8955  134.9889  150.8459 C   0  0  0  0  0  0  0  0  0  0  0  0
  144.8684  133.4574  151.0613 C   0  0  0  0  0  0  0  0  0  0  0  0
  143.4680  132.8273  150.9646 C   0  0  0  0  0  0  0  0  0  0  0  0
  143.0184  132.7362  149.6283 O   0  0  0  0  0  0  0  0  0  0  0  0
  145.8409  132.6853  150.1444 C   0  0  0  0  0  0  0  0  0  0  0  0
  146.0930  131.3754  150.6100 O   0  0  0  0  0  0  0  0  0  0  0  0
  145.3730  133.7790  152.4878 C   0  0  0  0  0  0  0  0  0  0  0  0
  148.5401  141.9508  157.5148 C   0  0  0  0  0  0  0  0  0  0  0  0
  151.2441  141.7638  158.0434 H   0  0  0  0  0  0  0  0  0  0  0  0
  150.6785  143.4272  158.2407 H   0  0  0  0  0  0  0  0  0  0  0  0
  151.7167  143.0097  156.8811 H   0  0  0  0  0  0  0  0  0  0  0  0
  150.8304  141.7108  155.0152 H   0  0  0  0  0  0  0  0  0  0  0  0
  150.2949  140.4128  156.0647 H   0  0  0  0  0  0  0  0  0  0  0  0
  148.5377  142.0773  154.1846 H   0  0  0  0  0  0  0  0  0  0  0  0
  149.0186  140.4161  153.9546 H   0  0  0  0  0  0  0  0  0  0  0  0
  147.7625  139.7553  156.0287 H   0  0  0  0  0  0  0  0  0  0  0  0
  147.0822  142.7236  156.1508 H   0  0  0  0  0  0  0  0  0  0  0  0
  146.2221  140.4875  158.0310 H   0  0  0  0  0  0  0  0  0  0  0  0
  145.8528  142.1887  158.2190 H   0  0  0  0  0  0  0  0  0  0  0  0
  143.9558  140.9560  157.1471 H   0  0  0  0  0  0  0  0  0  0  0  0
  144.5856  142.2048  156.0980 H   0  0  0  0  0  0  0  0  0  0  0  0
  145.2116  139.2161  155.9285 H   0  0  0  0  0  0  0  0  0  0  0  0
  144.2521  140.1503  154.7983 H   0  0  0  0  0  0  0  0  0  0  0  0
  147.3023  139.8509  150.4837 H   0  0  0  0  0  0  0  0  0  0  0  0
  145.2718  135.4401  154.7202 H   0  0  0  0  0  0  0  0  0  0  0  0
  146.9194  134.9956  151.6025 H   0  0  0  0  0  0  0  0  0  0  0  0
  143.9409  135.4698  151.0638 H   0  0  0  0  0  0  0  0  0  0  0  0
  145.2731  135.3091  149.8743 H   0  0  0  0  0  0  0  0  0  0  0  0
  143.4707  131.8164  151.3734 H   0  0  0  0  0  0  0  0  0  0  0  0
  142.7385  133.3909  151.5469 H   0  0  0  0  0  0  0  0  0  0  0  0
  142.2471  133.2736  149.5321 H   0  0  0  0  0  0  0  0  0  0  0  0
  145.4565  132.6255  149.1256 H   0  0  0  0  0  0  0  0  0  0  0  0
  146.8019  133.1951  150.0732 H   0  0  0  0  0  0  0  0  0  0  0  0
  146.9887  131.1514  150.4097 H   0  0  0  0  0  0  0  0  0  0  0  0
  146.1404  133.1054  152.8697 H   0  0  0  0  0  0  0  0  0  0  0  0
  144.5602  133.8853  153.2080 H   0  0  0  0  0  0  0  0  0  0  0  0
  148.7660  141.0289  158.0536 H   0  0  0  0  0  0  0  0  0  0  0  0
  148.3546  142.7204  158.2653 H   0  0  0  0  0  0  0  0  0  0  0  0
  149.4516  143.2077  156.2265 H   0  0  0  0  0  0  0  0  0  0  0  0
  1  2  1  0  0  0  0
  1 29  1  0  0  0  0
  1 30  1  0  0  0  0
  1 31  1  0  0  0  0
  2 28  1  0  0  0  0
  2  3  1  0  0  0  0
  2 59  1  0  0  0  0
  3  4  1  0  0  0  0
  3 32  1  0  0  0  0
  3 33  1  0  0  0  0
  4  5  1  0  0  0  0
  4 34  1  0  0  0  0
  4 35  1  0  0  0  0
  5 10  1  0  0  0  0
  5  6  1  0  0  0  0
  5 36  1  0  0  0  0
  6  7  1  0  0  0  0
  6 28  1  0  0  0  0
  6 37  1  0  0  0  0
  7  8  1  0  0  0  0
  7 38  1  0  0  0  0
  7 39  1  0  0  0  0
  8  9  1  0  0  0  0
  8 40  1  0  0  0  0
  8 41  1  0  0  0  0
  9 10  1  0  0  0  0
  9 42  1  0  0  0  0
  9 43  1  0  0  0  0
 10 11  1  0  0  0  0
 11 16  1  0  0  0  0
 11 12  2  0  0  0  0
 12 13  1  0  0  0  0
 13 14  2  0  0  0  0
 13 44  1  0  0  0  0
 14 15  1  0  0  0  0
 15 19  1  0  0  0  0
 15 16  2  0  0  0  0
 16 17  1  0  0  0  0
 17 18  2  0  0  0  0
 18 19  1  0  0  0  0
 18 45  1  0  0  0  0
 19 20  1  0  0  0  0
 20 27  1  0  0  0  0
 20 21  1  0  0  0  0
 20 46  1  0  0  0  0
 21 22  1  0  0  0  0
 21 47  1  0  0  0  0
 21 48  1  0  0  0  0
 22 23  1  0  0  0  0
 22 25  1  0  0  0  0
 22 27  1  0  0  0  0
 23 24  1  0  0  0  0
 23 49  1  0  0  0  0
 23 50  1  0  0  0  0
 24 51  1  0  0  0  0
 25 26  1  0  0  0  0
 25 52  1  0  0  0  0
 25 53  1  0  0  0  0
 26 54  1  0  0  0  0
 27 55  1  0  0  0  0
 27 56  1  0  0  0  0
 28 57  1  0  0  0  0
 28 58  1  0  0  0  0
M  CHG  1   2   1
M  END
> <s_m_source_file>
AV-unprocessed.smi

> <i_m_source_file_index>
198

> <i_lp_mmshare_version>
43012

> <i_f3d_flags>
0

> <s_epik_input>
W0NIMl0xW0NIMl1OKFtDSDNdKVtDSDJdW0NAQEhdKFtDQEhdMTIpW0NIMl1bQ0gyXVtDSDJdTjJjKG5bY0hdbjMpYyhjMzQpbltjSF1uNFtDSF0oW0NIMl01KVtDSDJdQzUoW0NIMl1bT0hdKVtDSDJdW09IXQ==

> <s_epik_cmdline>
J2VwaWtfcHl0aG9uJywgJy1waCcsICc3LjAnLCAnLXRuJywgJzgnLCAnLW1hJywgJzIwMCcsICctbWV0YWxfYmluZGluZycsICctaW1hZScsICc8aW5maWxlLm1hZT4nLCAnLW9tYWUnLCAnPG91dGZpbGUubWFlPic=

> <r_lp_tautomer_probability>
1

> <r_epik_Ionization_Penalty>
0.00239938

> <r_epik_Ionization_Penalty_Charging>
0.00138697

> <r_epik_Ionization_Penalty_Neutral>
0.00101241

> <r_epik_State_Penalty>
-0

> <r_epik_Charging_Adjusted_Penalty>
0.00138697

> <i_epik_Tot_Q>
1

> <i_epik_Tot_abs_Q>
1

> <r_epik_Metal_State_Penalty>
-0

> <b_epik_Metal_Only>
0

> <s_lp_Force_Field>
OPLS_2005

> <r_lp_Energy>
56.2866

> <b_lp_Chiralities_Consistent>
1

> <s_lp_Variant>
AV-unprocessed.smi:198-1

> <Gold.Version>
5.8.1

> <Gold.Id.Protein>
6NUR|6NUR_protein|mol2

> <Gold.PLP.Fitness>
49.8228

> <Gold.PLP.PLP>
-36.7583

> <Gold.PLP.part.hbond>
-4.2802

> <Gold.PLP.part.metal>
0.0000

> <Gold.PLP.part.buried>
-2.3435

> <Gold.PLP.part.nonpolar>
-31.8610

> <Gold.PLP.part.repulsive>
1.9081

> <Gold.PLP.ligand.clash>
0.0000

> <Gold.PLP.ligand.torsion>
0.8938

> <Gold.PLP.Chemscore.Hbond>
4.4680

> <Gold.PLP.Chemscore.CHOScore>
0.2626

> <Gold.PLP.Chemscore.Metal>
0.0000

> <Gold.Chemscore.Hbonds>
donor molecule, donor type, donor heavy atom, donor atom, acceptor molecule, acceptor atom, score
      L1  H     2    59       P1  8028  2.00
      L1  H    24    51       P1 10186  1.00
      L1  H    26    54       P1 10747  1.00
      P1  H  7954  7966       L1    14  0.47
      L1  C    13    44       P1  7957  0.34

> <Gold.PLP.Chemscore.Internal.Correction>
0.6603

> <Gold.Rescore>
     Score         DG    S(hbond)    S(metal)    S(lipo)     H(rot)  DE(clash)    DE(int)     intcor
     12.14     -16.25       3.02        0.00      73.08       3.08       2.00       2.11       ----

> <Gold.Chemscore.Fitness>
12.1435

> <Gold.Chemscore.DG>
-16.2500

> <Gold.Chemscore.ZeroCoef>
-5.4800

> <Gold.Chemscore.Hbond>
3.0238

> <Gold.Chemscore.Metal>
0.0000

> <Gold.Chemscore.Lipo>
73.0811

> <Gold.Chemscore.Internal_Hbond>
0.0000

> <Gold.Chemscore.DEClash>
1.9976

> <Gold.Chemscore.DEInternal>
2.1089

> <Gold.Chemscore.Rot>
3.0781

> <Gold.Chemscore.Internal.Correction>
   9.000000E+99

> <Gold.Chemscore.Hbonds>
donor molecule, donor type, donor heavy atom, donor atom, acceptor molecule, acceptor atom, score
      L1  H     2    59       P1  8028  1.00
      L1  H    24    51       P1 10186  1.00
      L1  H    26    54       P1 10747  0.96
      P1  H  7954  7966       L1    14  0.02

> <Gold.Chemscore.Hbond.Weighted>
-10.0995

> <Gold.Chemscore.Metal.Weighted>
-0.0000

> <Gold.Chemscore.Lipo.Weighted>
-8.5505

> <Gold.Chemscore.Internal_Hbond.Weighted>
0.0000

> <Gold.Chemscore.DEClash.Weighted>
1.9976

> <Gold.Chemscore.DEInternal.Weighted>
2.1089

> <Gold.Chemscore.Rot.Weighted>
7.8800

> <Gold.Chemscore.Internal.Correction.Weighted>
   9.000000E+99

> <Gold.Protein.RotatedTorsions>
[ 6907 6896 6895 6894 ] final -177.19 input  -60.11 | X-H torsion
[ 7974 7965 7964 7962 ] final  132.09 input  175.53 | X-H torsion
[ 8008 7997 7996 7995 ] final   61.67 input   59.86 | X-H torsion
[ 10167 10162 10161 10158 ] final  -37.37 input  -65.29 | X-H torsion
[ 10718 10713 10712 10709 ] final   25.34 input   66.30 | X-H torsion
[ 10763 10752 10751 10750 ] final  -41.26 input  -60.55 | X-H torsion
[ 11005 11000 10999 10996 ] final   79.72 input  -57.11 | X-H torsion

> <Gold.Protein.ActiveResidues>
 VAL166  LYS551  ARG553  GLY616  TRP617  ASP618  TYR619  PRO620  LYS621  CYS622 
 ASP623  PHE694  ASN695  SER759  ASP760  ASP761  ALA762  ILE779  LEU786  VAL792 
 PHE793  MET794  SER795  GLU796  ALA797  LYS798  CYS799  TRP800  GLU811  SER814 

> <Gold.Protein.RotatedAtoms>
  151.6170  133.3342  159.3079 H   0  0  0  0  0  0  0  0  0  0  0  0  # atno 6907 bound_to 6896
  150.8126  134.7293  159.6713 H   0  0  0  0  0  0  0  0  0  0  0  0  # atno 6908 bound_to 6896
  152.4222  134.5939  160.0033 H   0  0  0  0  0  0  0  0  0  0  0  0  # atno 6909 bound_to 6896
  145.0005  139.4317  143.5294 H   0  0  0  0  0  0  0  0  0  0  0  0  # atno 7974 bound_to 7965
  155.6020  140.3494  155.4596 H   0  0  0  0  0  0  0  0  0  0  0  0  # atno 8008 bound_to 7997
  156.0221  140.1256  157.0371 H   0  0  0  0  0  0  0  0  0  0  0  0  # atno 8009 bound_to 7997
  154.4319  140.1060  156.5964 H   0  0  0  0  0  0  0  0  0  0  0  0  # atno 8010 bound_to 7997
  140.7120  143.3346  151.2491 H   0  0  0  0  0  0  0  0  0  0  0  0  # atno 10167 bound_to 10162
  157.1921  130.6851  149.6154 H   0  0  0  0  0  0  0  0  0  0  0  0  # atno 10718 bound_to 10713
  153.9595  135.6741  153.4745 H   0  0  0  0  0  0  0  0  0  0  0  0  # atno 10763 bound_to 10752
  153.0845  135.4906  154.8566 H   0  0  0  0  0  0  0  0  0  0  0  0  # atno 10764 bound_to 10752
  154.7281  135.3132  154.8898 H   0  0  0  0  0  0  0  0  0  0  0  0  # atno 10765 bound_to 10752
  139.9162  134.7864  156.1815 H   0  0  0  0  0  0  0  0  0  0  0  0  # atno 11005 bound_to 11000
  146.3451  139.9390  142.8743 LP  0  0  0  0  0  0  0  0  0  0  0  0  # atno 17320 bound_to 7965
  145.2160  140.9915  143.4073 LP  0  0  0  0  0  0  0  0  0  0  0  0  # atno 17321 bound_to 7965
  139.6838  143.9809  152.2823 LP  0  0  0  0  0  0  0  0  0  0  0  0  # atno 17342 bound_to 10162
  139.9448  144.6658  150.8230 LP  0  0  0  0  0  0  0  0  0  0  0  0  # atno 17343 bound_to 10162
  155.9710  130.4611  150.6097 LP  0  0  0  0  0  0  0  0  0  0  0  0  # atno 17370 bound_to 10713
  157.3850  131.0787  151.1443 LP  0  0  0  0  0  0  0  0  0  0  0  0  # atno 17371 bound_to 10713
  141.0639  133.6828  156.2006 LP  0  0  0  0  0  0  0  0  0  0  0  0  # atno 17394 bound_to 11000
  140.6617  134.4961  157.5583 LP  0  0  0  0  0  0  0  0  0  0  0  0  # atno 17395 bound_to 11000

$$$$
