#       Name:                AV-unprocessed.smi:2593
#       Creating user name   scv26
#       Creation time:       Fri Mar 27 14:18:04 2020


#       File generated by GOLD software.
#

@<TRIPOS>MOLECULE
AV-unprocessed.smi:2593
    44    46     1
SMALL
NO_CHARGES


@<TRIPOS>ATOM
      1 ****        -2.0306   3.7640   2.6491 C.3            1 S1                 0.0000
      2 ****        -1.6150   2.4199   2.8121 O.3            1 S1                 0.0000
      3 ****        -2.2798   1.5319   1.9277 C.3            1 S1                 0.0000
      4 ****        -1.7704   0.1017   2.1548 C.3            1 S1                 0.0000
      5 ****        -0.3304  -0.0020   1.9688 N.pl3          1 S1                 0.0000
      6 ****         0.3489  -0.2143   0.8143 C.2            1 S1                 0.0000
      7 ****        -0.4941  -0.3983  -0.7311 S.3            1 S1                 0.0000
      8 ****         0.8305  -1.1477  -1.7246 C.3            1 S1                 0.0000
      9 ****         0.2887  -1.5390  -3.0843 C.ar           1 S1                 0.0000
     10 ****        -0.5213  -2.6804  -3.2668 C.ar           1 S1                 0.0000
     11 ****        -0.9938  -2.9894  -4.5589 C.ar           1 S1                 0.0000
     12 ****        -0.6472  -2.1526  -5.6400 C.ar           1 S1                 0.0000
     13 ****         0.1658  -1.0246  -5.4021 C.ar           1 S1                 0.0000
     14 ****         0.5473  -0.1589  -6.4252 N.pl3          1 S1                 0.0000
     15 ****         0.5975  -0.7630  -4.1486 N.pl3          1 S1                 1.0000
     16 ****         1.6774  -0.2617   0.9330 N.2            1 S1                 0.0000
     17 ****         1.8754  -0.0595   2.2845 C.ar           1 S1                 0.0000
     18 ****         3.0686   0.0012   3.0394 C.ar           1 S1                 0.0000
     19 ****         3.0217   0.2256   4.4310 C.ar           1 S1                 0.0000
     20 ****         1.7841   0.3925   5.0856 C.ar           1 S1                 0.0000
     21 ****         0.5837   0.3343   4.3517 C.ar           1 S1                 0.0000
     22 ****         0.6365   0.1084   2.9631 C.ar           1 S1                 0.0000
     23 ****        -1.4863   4.4019   3.3455 H              1 S1                 0.0000
     24 ****        -3.0961   3.8741   2.8541 H              1 S1                 0.0000
     25 ****        -1.8287   4.1198   1.6379 H              1 S1                 0.0000
     26 ****        -3.3566   1.5710   2.0982 H              1 S1                 0.0000
     27 ****        -2.1020   1.8322   0.8939 H              1 S1                 0.0000
     28 ****        -2.0139  -0.2220   3.1671 H              1 S1                 0.0000
     29 ****        -2.2735  -0.5959   1.4849 H              1 S1                 0.0000
     30 ****         1.6581  -0.4453  -1.8326 H              1 S1                 0.0000
     31 ****         1.2120  -2.0363  -1.2202 H              1 S1                 0.0000
     32 ****        -0.7783  -3.3100  -2.4272 H              1 S1                 0.0000
     33 ****        -1.6148  -3.8586  -4.7190 H              1 S1                 0.0000
     34 ****        -1.0020  -2.3782  -6.6353 H              1 S1                 0.0000
     35 ****         0.2538  -0.3085  -7.3800 H              1 S1                 0.0000
     36 ****         1.1508   0.6321  -6.2519 H              1 S1                 0.0000
     37 ****         4.0218  -0.1239   2.5469 H              1 S1                 0.0000
     38 ****         3.9394   0.2717   4.9987 H              1 S1                 0.0000
     39 ****         1.7563   0.5664   6.1513 H              1 S1                 0.0000
     40 ****        -0.3655   0.4655   4.8499 H              1 S1                 0.0000
     41 ****         1.1837   0.0577  -3.9948 H              1 S1                 0.0000
     42 ****        -1.8055   2.1376   3.7523 LP             1 S1                 0.0000
     43 ****        -0.6313   2.3658   2.6406 LP             1 S1                 0.0000
     44 ****         2.3615  -0.4079   0.2184 LP             1 S1                 0.0000
@<TRIPOS>BOND
    1    1    2 1     
    2    1   23 1     
    3    1   24 1     
    4    1   25 1     
    5    2    3 1     
    6    3    4 1     
    7    3   26 1     
    8    3   27 1     
    9    4    5 1     
   10    4   28 1     
   11    4   29 1     
   12    5   22 1     
   13    5    6 1     
   14    6    7 1     
   15    6   16 2     
   16    7    8 1     
   17    8    9 1     
   18    8   30 1     
   19    8   31 1     
   20    9   15 ar    
   21    9   10 ar    
   22   10   11 ar    
   23   10   32 1     
   24   11   12 ar    
   25   11   33 1     
   26   12   13 ar    
   27   12   34 1     
   28   13   14 1     
   29   13   15 ar    
   30   14   35 1     
   31   14   36 1     
   32   15   41 1     
   33   16   17 1     
   34   17   22 ar    
   35   17   18 ar    
   36   18   19 ar    
   37   18   37 1     
   38   19   20 ar    
   39   19   38 1     
   40   20   21 ar    
   41   20   39 1     
   42   21   22 ar    
   43   21   40 1     
   44    2   42 1     
   45    2   43 1     
   46   16   44 1     
@<TRIPOS>SUBSTRUCTURE
      1 S1             1
@<TRIPOS>SET
LONE_PAIRS      STATIC     ATOMS    <user>   **** ""
3 42 43 44
DONOR_HYDROGENS      STATIC     ATOMS    <user>   **** ""
3 35 36 41
ATOM$BLUE        STATIC     ATOMS    COLORGROUP SYSTEM
3 42 43 44
ATOM$RED        STATIC     ATOMS    COLORGROUP SYSTEM
3 35 36 41
