AV-unprocessed.smi:1492|AV-procd|sdf|6044|dock4
  -GOLD-   22720 6153D 1   1.00000     0.00000
 Structure written by MMmdl.
 51 52  0  0  0  0  0  0  0  0  2 V2000
  143.8781  137.5004  154.9433 C   0  0  0  0  0  0  0  0  0  0  0  0
  144.1969  136.3348  153.9916 C   0  0  0  0  0  0  0  0  0  0  0  0
  145.5877  136.4107  153.2779 C   0  0  1  0  0  0  0  0  0  0  0  0
  145.6321  137.7801  152.5489 C   0  0  0  0  0  0  0  0  0  0  0  0
  146.7138  136.4039  154.3674 C   0  0  0  0  0  0  0  0  0  0  0  0
  147.9121  137.1479  153.9892 N   0  0  0  0  0  0  0  0  0  0  0  0
  148.4402  138.1983  154.6349 C   0  0  0  0  0  0  0  0  0  0  0  0
  147.8966  138.7636  155.5836 O   0  0  0  0  0  0  0  0  0  0  0  0
  149.8168  138.6539  154.1497 C   0  0  0  0  0  0  0  0  0  0  0  0
  150.9715  138.3011  155.0887 C   0  0  0  0  0  0  0  0  0  0  0  0
  151.2935  137.0199  155.4269 C   0  0  0  0  0  0  0  0  0  0  0  0
  150.5213  135.8135  154.9223 C   0  0  0  0  0  0  0  0  0  0  0  0
  152.3844  136.7420  156.2679 N   0  0  0  0  0  0  0  0  0  0  0  0
  153.0935  137.7059  156.7180 C   0  0  0  0  0  0  0  0  0  0  0  0
  154.2707  137.4020  157.6196 C   0  0  0  0  0  0  0  0  0  0  0  0
  152.8566  139.0322  156.4343 N   0  5  0  0  0  0  0  0  0  0  0  0
  151.8149  139.3833  155.6284 C   0  0  0  0  0  0  0  0  0  0  0  0
  151.5804  140.5557  155.3377 O   0  0  0  0  0  0  0  0  0  0  0  0
  145.7771  135.2672  152.3347 N   0  0  0  0  0  0  0  0  0  0  0  0
  146.1686  133.9953  152.9580 C   0  0  0  0  0  0  0  0  0  0  0  0
  146.4670  132.9040  151.9164 C   0  0  0  0  0  0  0  0  0  0  0  0
  145.3317  132.7148  151.0819 O   0  0  0  0  0  0  0  0  0  0  0  0
  144.9560  133.9077  150.4059 C   0  0  0  0  0  0  0  0  0  0  0  0
  144.6474  135.0127  151.4307 C   0  0  0  0  0  0  0  0  0  0  0  0
  142.9091  137.3491  155.4190 H   0  0  0  0  0  0  0  0  0  0  0  0
  143.8322  138.4526  154.4152 H   0  0  0  0  0  0  0  0  0  0  0  0
  144.6220  137.5891  155.7349 H   0  0  0  0  0  0  0  0  0  0  0  0
  144.0975  135.3979  154.5383 H   0  0  0  0  0  0  0  0  0  0  0  0
  143.3940  136.2719  153.2564 H   0  0  0  0  0  0  0  0  0  0  0  0
  145.4315  138.6045  153.2330 H   0  0  0  0  0  0  0  0  0  0  0  0
  144.8825  137.8547  151.7620 H   0  0  0  0  0  0  0  0  0  0  0  0
  146.6058  137.9750  152.1003 H   0  0  0  0  0  0  0  0  0  0  0  0
  146.3401  136.8465  155.2912 H   0  0  0  0  0  0  0  0  0  0  0  0
  147.0051  135.3856  154.6260 H   0  0  0  0  0  0  0  0  0  0  0  0
  148.4422  136.7712  153.2159 H   0  0  0  0  0  0  0  0  0  0  0  0
  149.9883  138.2487  153.1519 H   0  0  0  0  0  0  0  0  0  0  0  0
  149.7945  139.7349  154.0104 H   0  0  0  0  0  0  0  0  0  0  0  0
  149.4961  135.8355  155.2919 H   0  0  0  0  0  0  0  0  0  0  0  0
  150.9795  134.8829  155.2590 H   0  0  0  0  0  0  0  0  0  0  0  0
  150.4984  135.7977  153.8328 H   0  0  0  0  0  0  0  0  0  0  0  0
  154.0990  137.8123  158.6152 H   0  0  0  0  0  0  0  0  0  0  0  0
  155.1816  137.8443  157.2151 H   0  0  0  0  0  0  0  0  0  0  0  0
  154.4270  136.3266  157.7137 H   0  0  0  0  0  0  0  0  0  0  0  0
  147.0643  134.1130  153.5637 H   0  0  0  0  0  0  0  0  0  0  0  0
  145.3798  133.6386  153.6203 H   0  0  0  0  0  0  0  0  0  0  0  0
  147.3335  133.1750  151.3111 H   0  0  0  0  0  0  0  0  0  0  0  0
  146.7045  131.9628  152.4121 H   0  0  0  0  0  0  0  0  0  0  0  0
  145.7545  134.2193  149.7310 H   0  0  0  0  0  0  0  0  0  0  0  0
  144.0786  133.7063  149.7914 H   0  0  0  0  0  0  0  0  0  0  0  0
  143.7647  134.7259  152.0023 H   0  0  0  0  0  0  0  0  0  0  0  0
  144.3850  135.9062  150.8682 H   0  0  0  0  0  0  0  0  0  0  0  0
  1  2  1  0  0  0  0
  1 25  1  0  0  0  0
  1 26  1  0  0  0  0
  1 27  1  0  0  0  0
  2  3  1  0  0  0  0
  2 28  1  0  0  0  0
  2 29  1  0  0  0  0
  3  4  1  0  0  0  0
  3  5  1  0  0  0  0
  3 19  1  0  0  0  0
  4 30  1  0  0  0  0
  4 31  1  0  0  0  0
  4 32  1  0  0  0  0
  5  6  1  0  0  0  0
  5 33  1  0  0  0  0
  5 34  1  0  0  0  0
  6  7  1  0  0  0  0
  6 35  1  0  0  0  0
  7  8  2  0  0  0  0
  7  9  1  0  0  0  0
  9 10  1  0  0  0  0
  9 36  1  0  0  0  0
  9 37  1  0  0  0  0
 10 17  1  0  0  0  0
 10 11  2  0  0  0  0
 11 12  1  0  0  0  0
 11 13  1  0  0  0  0
 12 38  1  0  0  0  0
 12 39  1  0  0  0  0
 12 40  1  0  0  0  0
 13 14  2  0  0  0  0
 14 15  1  0  0  0  0
 14 16  1  0  0  0  0
 15 41  1  0  0  0  0
 15 42  1  0  0  0  0
 15 43  1  0  0  0  0
 16 17  1  0  0  0  0
 17 18  2  0  0  0  0
 19 24  1  0  0  0  0
 19 20  1  0  0  0  0
 20 21  1  0  0  0  0
 20 44  1  0  0  0  0
 20 45  1  0  0  0  0
 21 22  1  0  0  0  0
 21 46  1  0  0  0  0
 21 47  1  0  0  0  0
 22 23  1  0  0  0  0
 23 24  1  0  0  0  0
 23 48  1  0  0  0  0
 23 49  1  0  0  0  0
 24 50  1  0  0  0  0
 24 51  1  0  0  0  0
M  CHG  1  16  -1
M  END
> <s_m_source_file>
AV-unprocessed.smi

> <i_m_source_file_index>
1492

> <i_lp_mmshare_version>
43012

> <i_f3d_flags>
0

> <s_epik_input>
W0NIMl0xW0NIMl1PW0NIMl1bQ0gyXU4xW0NAQF0oW0NIM10pKFtDSDJdW0NIM10pW0NIMl1bTkhdQyg9TylbQ0gyXWMyYyhbQ0gzXSluYyhbQ0gzXSlbbkhdYzI9Tw==

> <s_epik_cmdline>
J2VwaWtfcHl0aG9uJywgJy1waCcsICc3LjAnLCAnLXRuJywgJzgnLCAnLW1hJywgJzIwMCcsICctbWV0YWxfYmluZGluZycsICctaW1hZScsICc8aW5maWxlLm1hZT4nLCAnLW9tYWUnLCAnPG91dGZpbGUubWFlPic=

> <r_lp_tautomer_probability>
0.839158

> <r_epik_Ionization_Penalty>
6.88574

> <r_epik_Ionization_Penalty_Charging>
6.74373e-08

> <r_epik_Ionization_Penalty_Neutral>
6.88574

> <r_epik_State_Penalty>
4.79448

> <r_epik_Charging_Adjusted_Penalty>
4.79448

> <i_epik_Tot_Q>
-1

> <i_epik_Tot_abs_Q>
1

> <r_epik_Metal_State_Penalty>
1.16421

> <b_epik_Metal_Only>
1

> <s_lp_Force_Field>
OPLS_2005

> <r_lp_Energy>
44.9842

> <b_lp_Chiralities_Consistent>
1

> <s_lp_Variant>
AV-unprocessed.smi:1492-9

> <Gold.Version>
5.8.1

> <Gold.Id.Protein>
6NUR|6NUR_protein|mol2

> <Gold.PLP.Fitness>
40.8928

> <Gold.PLP.PLP>
-28.4147

> <Gold.PLP.part.hbond>
-4.0000

> <Gold.PLP.part.metal>
0.0000

> <Gold.PLP.part.buried>
-4.2434

> <Gold.PLP.part.nonpolar>
-21.4046

> <Gold.PLP.part.repulsive>
0.2651

> <Gold.PLP.ligand.clash>
0.0000

> <Gold.PLP.ligand.torsion>
1.0281

> <Gold.PLP.Chemscore.Hbond>
4.8000

> <Gold.PLP.Chemscore.CHOScore>
0.0000

> <Gold.PLP.Chemscore.Metal>
0.0000

> <Gold.Chemscore.Hbonds>
donor molecule, donor type, donor heavy atom, donor atom, acceptor molecule, acceptor atom, score
      L1  H     6    35       P1  7948  1.00
      P1  H  7989  7998       L1    18  0.78
      P1  H  7997  8009       L1    16  2.00
      P1  H 10752 10763       L1    13  1.00

> <Gold.PLP.Chemscore.Internal.Correction>
0.1343

> <Gold.Rescore>
     Score         DG    S(hbond)    S(metal)    S(lipo)     H(rot)  DE(clash)    DE(int)     intcor
     17.17     -17.98       3.12        0.00      62.66       2.05       0.04       0.77       ----

> <Gold.Chemscore.Fitness>
17.1714

> <Gold.Chemscore.DG>
-17.9834

> <Gold.Chemscore.ZeroCoef>
-5.4800

> <Gold.Chemscore.Hbond>
3.1167

> <Gold.Chemscore.Metal>
0.0000

> <Gold.Chemscore.Lipo>
62.6641

> <Gold.Chemscore.Internal_Hbond>
0.0000

> <Gold.Chemscore.DEClash>
0.0382

> <Gold.Chemscore.DEInternal>
0.7737

> <Gold.Chemscore.Rot>
2.0461

> <Gold.Chemscore.Internal.Correction>
   9.000000E+99

> <Gold.Chemscore.Hbonds>
donor molecule, donor type, donor heavy atom, donor atom, acceptor molecule, acceptor atom, score
      L1  H     6    35       P1  7948  0.94
      P1  H  7989  7998       L1    18  0.66
      P1  H  7997  8009       L1    16  0.86
      P1  H 10752 10763       L1    13  0.23

> <Gold.Chemscore.Hbond.Weighted>
-10.4097

> <Gold.Chemscore.Metal.Weighted>
-0.0000

> <Gold.Chemscore.Lipo.Weighted>
-7.3317

> <Gold.Chemscore.Internal_Hbond.Weighted>
0.0000

> <Gold.Chemscore.DEClash.Weighted>
0.0382

> <Gold.Chemscore.DEInternal.Weighted>
0.7737

> <Gold.Chemscore.Rot.Weighted>
5.2381

> <Gold.Chemscore.Internal.Correction.Weighted>
   9.000000E+99

> <Gold.Protein.RotatedTorsions>
[ 6907 6896 6895 6894 ] final -161.11 input  -60.11 | X-H torsion
[ 7974 7965 7964 7962 ] final -129.45 input  175.53 | X-H torsion
[ 8008 7997 7996 7995 ] final -173.32 input   59.86 | X-H torsion
[ 10167 10162 10161 10158 ] final    0.84 input  -65.29 | X-H torsion
[ 10718 10713 10712 10709 ] final  -66.27 input   66.30 | X-H torsion
[ 10763 10752 10751 10750 ] final  102.53 input  -60.55 | X-H torsion
[ 11005 11000 10999 10996 ] final  -49.43 input  -57.11 | X-H torsion

> <Gold.Protein.ActiveResidues>
 VAL166  LYS551  ARG553  GLY616  TRP617  ASP618  TYR619  PRO620  LYS621  CYS622 
 ASP623  PHE694  ASN695  SER759  ASP760  ASP761  ALA762  ILE779  LEU786  VAL792 
 PHE793  MET794  SER795  GLU796  ALA797  LYS798  CYS799  TRP800  GLU811  SER814 

> <Gold.Protein.RotatedAtoms>
  151.3595  133.3895  159.2688 H   0  0  0  0  0  0  0  0  0  0  0  0  # atno 6907 bound_to 6896
  150.9737  134.9106  159.7813 H   0  0  0  0  0  0  0  0  0  0  0  0  # atno 6908 bound_to 6896
  152.5193  134.3557  159.9319 H   0  0  0  0  0  0  0  0  0  0  0  0  # atno 6909 bound_to 6896
  144.9571  140.7407  143.4752 H   0  0  0  0  0  0  0  0  0  0  0  0  # atno 7974 bound_to 7965
  155.9560  140.1135  157.0937 H   0  0  0  0  0  0  0  0  0  0  0  0  # atno 8008 bound_to 7997
  154.4120  140.1191  156.5181 H   0  0  0  0  0  0  0  0  0  0  0  0  # atno 8009 bound_to 7997
  155.6782  140.3473  155.4847 H   0  0  0  0  0  0  0  0  0  0  0  0  # atno 8010 bound_to 7997
  140.6710  143.7048  150.7923 H   0  0  0  0  0  0  0  0  0  0  0  0  # atno 10167 bound_to 10162
  156.0622  130.4259  150.1684 H   0  0  0  0  0  0  0  0  0  0  0  0  # atno 10718 bound_to 10713
  153.3407  135.4007  155.1570 H   0  0  0  0  0  0  0  0  0  0  0  0  # atno 10763 bound_to 10752
  154.8643  135.3633  154.5349 H   0  0  0  0  0  0  0  0  0  0  0  0  # atno 10764 bound_to 10752
  153.5794  135.7077  153.5529 H   0  0  0  0  0  0  0  0  0  0  0  0  # atno 10765 bound_to 10752
  141.0759  133.6666  156.3585 H   0  0  0  0  0  0  0  0  0  0  0  0  # atno 11005 bound_to 11000
  145.2756  139.1938  143.4818 LP  0  0  0  0  0  0  0  0  0  0  0  0  # atno 17320 bound_to 7965
  146.3341  140.2709  142.8606 LP  0  0  0  0  0  0  0  0  0  0  0  0  # atno 17321 bound_to 7965
  140.0734  143.5039  152.2568 LP  0  0  0  0  0  0  0  0  0  0  0  0  # atno 17342 bound_to 10162
  139.5979  144.7573  151.3243 LP  0  0  0  0  0  0  0  0  0  0  0  0  # atno 17343 bound_to 10162
  156.9750  130.9846  151.3450 LP  0  0  0  0  0  0  0  0  0  0  0  0  # atno 17370 bound_to 10713
  157.5639  130.8264  149.8301 LP  0  0  0  0  0  0  0  0  0  0  0  0  # atno 17371 bound_to 10713
  140.5575  134.5967  157.5424 LP  0  0  0  0  0  0  0  0  0  0  0  0  # atno 17394 bound_to 11000
  139.9571  134.7516  156.0317 LP  0  0  0  0  0  0  0  0  0  0  0  0  # atno 17395 bound_to 11000

$$$$
