AV-unprocessed.smi:1047|AV-procd|sdf|4566|dock5
  -GOLD-   22720 3 13D 1   1.00000     0.00000
 Structure written by MMmdl.
 57 59  0  0  0  0  0  0  0  0  3 V2000
  141.7441  135.3241  153.2711 C   0  0  0  0  0  0  0  0  0  0  0  0
  142.9373  134.8043  152.4571 C   0  0  0  0  0  0  0  0  0  0  0  0
  143.9654  134.1494  153.3091 N   0  3  1  0  0  0  0  0  0  0  0  0
  144.9482  133.3486  152.5393 C   0  0  0  0  0  0  0  0  0  0  0  0
  145.9998  134.2518  151.8715 C   0  0  0  0  0  0  0  0  0  0  0  0
  146.6393  135.0458  152.8635 O   0  0  0  0  0  0  0  0  0  0  0  0
  145.7383  135.9142  153.5431 C   0  0  2  0  0  0  0  0  0  0  0  0
  146.5730  136.7584  154.5210 C   0  0  0  0  0  0  0  0  0  0  0  0
  147.3198  137.8315  153.8320 N   0  3  0  0  0  0  0  0  0  0  0  0
  148.0860  138.7072  154.7420 C   0  0  0  0  0  0  0  0  0  0  0  0
  148.9005  139.7532  153.9630 C   0  0  1  0  0  0  0  0  0  0  0  0
  148.0881  140.2793  152.9307 O   0  0  0  0  0  0  0  0  0  0  0  0
  149.3784  140.9005  154.8743 C   0  0  0  0  0  0  0  0  0  0  0  0
  150.3275  140.4565  155.8802 N   0  0  0  0  0  0  0  0  0  0  0  0
  150.7956  139.2057  156.0549 C   0  0  0  0  0  0  0  0  0  0  0  0
  151.6639  139.0126  157.0430 N   0  0  0  0  0  0  0  0  0  0  0  0
  151.7668  140.2856  157.5771 C   0  0  0  0  0  0  0  0  0  0  0  0
  152.5325  140.7648  158.6621 C   0  0  0  0  0  0  0  0  0  0  0  0
  152.4825  142.1254  159.0398 C   0  0  0  0  0  0  0  0  0  0  0  0
  153.3199  142.5963  160.2162 C   0  0  0  0  0  0  0  0  0  0  0  0
  151.6564  143.0307  158.3264 C   0  0  0  0  0  0  0  0  0  0  0  0
  151.5850  144.4968  158.7156 C   0  0  0  0  0  0  0  0  0  0  0  0
  150.8865  142.5692  157.2381 C   0  0  0  0  0  0  0  0  0  0  0  0
  150.9432  141.2123  156.8730 C   0  0  0  0  0  0  0  0  0  0  0  0
  144.6651  135.0569  154.2558 C   0  0  0  0  0  0  0  0  0  0  0  0
  140.9677  135.7075  152.6086 H   0  0  0  0  0  0  0  0  0  0  0  0
  142.0246  136.1363  153.9407 H   0  0  0  0  0  0  0  0  0  0  0  0
  141.3003  134.5291  153.8711 H   0  0  0  0  0  0  0  0  0  0  0  0
  142.5538  134.0747  151.7428 H   0  0  0  0  0  0  0  0  0  0  0  0
  143.3731  135.6089  151.8650 H   0  0  0  0  0  0  0  0  0  0  0  0
  145.4469  132.6639  153.2266 H   0  0  0  0  0  0  0  0  0  0  0  0
  144.4452  132.7247  151.7995 H   0  0  0  0  0  0  0  0  0  0  0  0
  146.7527  133.6414  151.3728 H   0  0  0  0  0  0  0  0  0  0  0  0
  145.5515  134.8881  151.1069 H   0  0  0  0  0  0  0  0  0  0  0  0
  145.2763  136.5814  152.8137 H   0  0  0  0  0  0  0  0  0  0  0  0
  145.9321  137.1909  155.2905 H   0  0  0  0  0  0  0  0  0  0  0  0
  147.2912  136.1148  155.0311 H   0  0  0  0  0  0  0  0  0  0  0  0
  147.9631  137.4147  153.1743 H   0  0  0  0  0  0  0  0  0  0  0  0
  147.4086  139.1991  155.4418 H   0  0  0  0  0  0  0  0  0  0  0  0
  148.7569  138.0830  155.3338 H   0  0  0  0  0  0  0  0  0  0  0  0
  149.7695  139.2758  153.5076 H   0  0  0  0  0  0  0  0  0  0  0  0
  148.6157  140.3734  152.1511 H   0  0  0  0  0  0  0  0  0  0  0  0
  149.8397  141.6921  154.2824 H   0  0  0  0  0  0  0  0  0  0  0  0
  148.5286  141.3529  155.3870 H   0  0  0  0  0  0  0  0  0  0  0  0
  150.4833  138.3909  155.4179 H   0  0  0  0  0  0  0  0  0  0  0  0
  153.1607  140.0747  159.2061 H   0  0  0  0  0  0  0  0  0  0  0  0
  152.6767  142.9258  161.0322 H   0  0  0  0  0  0  0  0  0  0  0  0
  153.9619  143.4272  159.9238 H   0  0  0  0  0  0  0  0  0  0  0  0
  153.9596  141.7985  160.5942 H   0  0  0  0  0  0  0  0  0  0  0  0
  150.8615  145.0364  158.1041 H   0  0  0  0  0  0  0  0  0  0  0  0
  152.5565  144.9734  158.5841 H   0  0  0  0  0  0  0  0  0  0  0  0
  151.2852  144.6026  159.7581 H   0  0  0  0  0  0  0  0  0  0  0  0
  150.2545  143.2499  156.6871 H   0  0  0  0  0  0  0  0  0  0  0  0
  143.9530  135.6862  154.7878 H   0  0  0  0  0  0  0  0  0  0  0  0
  145.1447  134.4386  155.0160 H   0  0  0  0  0  0  0  0  0  0  0  0
  146.6648  138.4090  153.3235 H   0  0  0  0  0  0  0  0  0  0  0  0
  143.4525  133.4845  153.8712 H   0  0  0  0  0  0  0  0  0  0  0  0
  1  2  1  0  0  0  0
  1 26  1  0  0  0  0
  1 27  1  0  0  0  0
  1 28  1  0  0  0  0
  2  3  1  0  0  0  0
  2 29  1  0  0  0  0
  2 30  1  0  0  0  0
  3 25  1  0  0  0  0
  3  4  1  0  0  0  0
  3 57  1  0  0  0  0
  4  5  1  0  0  0  0
  4 31  1  0  0  0  0
  4 32  1  0  0  0  0
  5  6  1  0  0  0  0
  5 33  1  0  0  0  0
  5 34  1  0  0  0  0
  6  7  1  0  0  0  0
  7  8  1  0  0  0  0
  7 25  1  0  0  0  0
  7 35  1  0  0  0  0
  8  9  1  0  0  0  0
  8 36  1  0  0  0  0
  8 37  1  0  0  0  0
  9 10  1  0  0  0  0
  9 38  1  0  0  0  0
  9 56  1  0  0  0  0
 10 11  1  0  0  0  0
 10 39  1  0  0  0  0
 10 40  1  0  0  0  0
 11 12  1  0  0  0  0
 11 13  1  0  0  0  0
 11 41  1  0  0  0  0
 12 42  1  0  0  0  0
 13 14  1  0  0  0  0
 13 43  1  0  0  0  0
 13 44  1  0  0  0  0
 14 24  1  0  0  0  0
 14 15  1  0  0  0  0
 15 16  2  0  0  0  0
 15 45  1  0  0  0  0
 16 17  1  0  0  0  0
 17 24  2  0  0  0  0
 17 18  1  0  0  0  0
 18 19  2  0  0  0  0
 18 46  1  0  0  0  0
 19 20  1  0  0  0  0
 19 21  1  0  0  0  0
 20 47  1  0  0  0  0
 20 48  1  0  0  0  0
 20 49  1  0  0  0  0
 21 22  1  0  0  0  0
 21 23  2  0  0  0  0
 22 50  1  0  0  0  0
 22 51  1  0  0  0  0
 22 52  1  0  0  0  0
 23 24  1  0  0  0  0
 23 53  1  0  0  0  0
 25 54  1  0  0  0  0
 25 55  1  0  0  0  0
M  CHG  1   3   1
M  CHG  1   9   1
M  END
> <s_m_source_file>
AV-unprocessed.smi

> <i_m_source_file_index>
1047

> <i_lp_mmshare_version>
43012

> <i_f3d_flags>
0

> <s_epik_input>
W0NIM11bQ0gyXU4xW0NIMl1bQ0gyXU9bQ0BIXShbQ0gyXTEpW0NIMl1bTkhdW0NIMl1bQ0BIXShbT0hdKVtDSDJdbihbY0hdbjIpYyhjMjMpW2NIXWMoW0NIM10pYyhbY0hdMylbQ0gzXQ==

> <s_epik_cmdline>
J2VwaWtfcHl0aG9uJywgJy1waCcsICc3LjAnLCAnLXRuJywgJzgnLCAnLW1hJywgJzIwMCcsICctbWV0YWxfYmluZGluZycsICctaW1hZScsICc8aW5maWxlLm1hZT4nLCAnLW9tYWUnLCAnPG91dGZpbGUubWFlPic=

> <r_epik_Ionization_Penalty>
0.528991

> <r_epik_Ionization_Penalty_Charging>
0.438567

> <r_epik_Ionization_Penalty_Neutral>
0.0904237

> <r_epik_State_Penalty>
0.533036

> <r_epik_Charging_Adjusted_Penalty>
0.971603

> <i_epik_Tot_Q>
2

> <i_epik_Tot_abs_Q>
2

> <r_epik_Metal_State_Penalty>
0.448985

> <b_epik_Metal_Only>
0

> <s_lp_Force_Field>
OPLS_2005

> <r_lp_Energy>
33.3507

> <b_lp_Chiralities_Consistent>
1

> <s_lp_Variant>
AV-unprocessed.smi:1047-7

> <Gold.Version>
5.8.1

> <Gold.Id.Protein>
6NUR|6NUR_protein|mol2

> <Gold.PLP.Fitness>
55.9903

> <Gold.PLP.PLP>
-41.3406

> <Gold.PLP.part.hbond>
-2.6341

> <Gold.PLP.part.metal>
0.0000

> <Gold.PLP.part.buried>
-5.4495

> <Gold.PLP.part.nonpolar>
-36.4916

> <Gold.PLP.part.repulsive>
2.6638

> <Gold.PLP.ligand.clash>
0.0000

> <Gold.PLP.ligand.torsion>
0.3375

> <Gold.PLP.Chemscore.Hbond>
5.0000

> <Gold.PLP.Chemscore.CHOScore>
0.0000

> <Gold.PLP.Chemscore.Metal>
0.0000

> <Gold.Chemscore.Hbonds>
donor molecule, donor type, donor heavy atom, donor atom, acceptor molecule, acceptor atom, score
      L1  H     3    57       P1 10957  1.66
      L1  H     9    38       P1  7948  2.00
      L1  H    12    42       P1  7957  0.75

> <Gold.PLP.Chemscore.Internal.Correction>
0.3246

> <Gold.Rescore>
     Score         DG    S(hbond)    S(metal)    S(lipo)     H(rot)  DE(clash)    DE(int)     intcor
     19.85     -21.82       2.95        0.00     114.40       2.70       1.54       0.43       ----

> <Gold.Chemscore.Fitness>
19.8469

> <Gold.Chemscore.DG>
-21.8185

> <Gold.Chemscore.ZeroCoef>
-5.4800

> <Gold.Chemscore.Hbond>
2.9526

> <Gold.Chemscore.Metal>
0.0000

> <Gold.Chemscore.Lipo>
114.4023

> <Gold.Chemscore.Internal_Hbond>
0.0000

> <Gold.Chemscore.DEClash>
1.5397

> <Gold.Chemscore.DEInternal>
0.4319

> <Gold.Chemscore.Rot>
2.6985

> <Gold.Chemscore.Internal.Correction>
   9.000000E+99

> <Gold.Chemscore.Hbonds>
donor molecule, donor type, donor heavy atom, donor atom, acceptor molecule, acceptor atom, score
      L1  H     3    57       P1 10957  0.80
      L1  H     9    38       P1  7948  0.94
      L1  H    12    42       P1  7957  0.74

> <Gold.Chemscore.Hbond.Weighted>
-9.8616

> <Gold.Chemscore.Metal.Weighted>
-0.0000

> <Gold.Chemscore.Lipo.Weighted>
-13.3851

> <Gold.Chemscore.Internal_Hbond.Weighted>
0.0000

> <Gold.Chemscore.DEClash.Weighted>
1.5397

> <Gold.Chemscore.DEInternal.Weighted>
0.4319

> <Gold.Chemscore.Rot.Weighted>
6.9081

> <Gold.Chemscore.Internal.Correction.Weighted>
   9.000000E+99

> <Gold.Protein.RotatedTorsions>
[ 6907 6896 6895 6894 ] final  -70.08 input  -60.11 | X-H torsion
[ 7974 7965 7964 7962 ] final  -59.05 input  175.53 | X-H torsion
[ 8008 7997 7996 7995 ] final   20.88 input   59.86 | X-H torsion
[ 10167 10162 10161 10158 ] final -162.76 input  -65.29 | X-H torsion
[ 10718 10713 10712 10709 ] final   99.16 input   66.30 | X-H torsion
[ 10763 10752 10751 10750 ] final -106.01 input  -60.55 | X-H torsion
[ 11005 11000 10999 10996 ] final -161.88 input  -57.11 | X-H torsion

> <Gold.Protein.ActiveResidues>
 VAL166  LYS551  ARG553  GLY616  TRP617  ASP618  TYR619  PRO620  LYS621  CYS622 
 ASP623  PHE694  ASN695  SER759  ASP760  ASP761  ALA762  ILE779  LEU786  VAL792 
 PHE793  MET794  SER795  GLU796  ALA797  LYS798  CYS799  TRP800  GLU811  SER814 

> <Gold.Protein.RotatedAtoms>
  150.7274  134.5504  159.5791 H   0  0  0  0  0  0  0  0  0  0  0  0  # atno 6907 bound_to 6896
  152.2993  134.7627  160.0370 H   0  0  0  0  0  0  0  0  0  0  0  0  # atno 6908 bound_to 6896
  151.8213  133.3359  159.3622 H   0  0  0  0  0  0  0  0  0  0  0  0  # atno 6909 bound_to 6896
  145.8320  140.8473  143.0078 H   0  0  0  0  0  0  0  0  0  0  0  0  # atno 7974 bound_to 7965
  154.9422  140.3054  155.5115 H   0  0  0  0  0  0  0  0  0  0  0  0  # atno 8008 bound_to 7997
  156.2995  140.2334  156.4430 H   0  0  0  0  0  0  0  0  0  0  0  0  # atno 8009 bound_to 7997
  154.8134  140.0427  157.1348 H   0  0  0  0  0  0  0  0  0  0  0  0  # atno 8010 bound_to 7997
  139.6369  144.0333  152.2061 H   0  0  0  0  0  0  0  0  0  0  0  0  # atno 10167 bound_to 10162
  157.6881  131.0661  150.4906 H   0  0  0  0  0  0  0  0  0  0  0  0  # atno 10718 bound_to 10713
  154.7984  135.4728  154.0216 H   0  0  0  0  0  0  0  0  0  0  0  0  # atno 10763 bound_to 10752
  153.1741  135.6830  153.8574 H   0  0  0  0  0  0  0  0  0  0  0  0  # atno 10764 bound_to 10752
  153.8147  135.3212  155.3382 H   0  0  0  0  0  0  0  0  0  0  0  0  # atno 10765 bound_to 10752
  140.6154  134.4805  157.5219 H   0  0  0  0  0  0  0  0  0  0  0  0  # atno 11005 bound_to 11000
  144.6739  140.0686  143.7473 LP  0  0  0  0  0  0  0  0  0  0  0  0  # atno 17320 bound_to 7965
  145.9560  139.2767  143.1184 LP  0  0  0  0  0  0  0  0  0  0  0  0  # atno 17321 bound_to 7965
  140.0013  144.6291  150.7728 LP  0  0  0  0  0  0  0  0  0  0  0  0  # atno 17342 bound_to 10162
  140.7470  143.2899  151.3358 LP  0  0  0  0  0  0  0  0  0  0  0  0  # atno 17343 bound_to 10162
  156.5233  130.4167  149.6239 LP  0  0  0  0  0  0  0  0  0  0  0  0  # atno 17370 bound_to 10713
  156.3134  130.7241  151.2139 LP  0  0  0  0  0  0  0  0  0  0  0  0  # atno 17371 bound_to 10713
  139.9175  134.8217  156.1319 LP  0  0  0  0  0  0  0  0  0  0  0  0  # atno 17394 bound_to 11000
  141.0779  133.6767  156.2274 LP  0  0  0  0  0  0  0  0  0  0  0  0  # atno 17395 bound_to 11000

$$$$
