#       Name:                AV-unprocessed.smi:2797
#       Creating user name   scv26
#       Creation time:       Fri Mar 27 15:22:02 2020


#       File generated by GOLD software.
#

@<TRIPOS>MOLECULE
AV-unprocessed.smi:2797
    42    43     1
SMALL
NO_CHARGES


@<TRIPOS>ATOM
      1 ****        -2.5115   0.1863  -2.6437 C.3            1 S1                 0.0000
      2 ****        -2.5928  -0.5410  -1.4236 O.3            1 S1                 0.0000
      3 ****        -2.1470  -1.9019  -1.4408 C.3            1 S1                 0.0000
      4 ****        -0.6247  -1.9925  -1.6126 C.3            1 S1                 0.0000
      5 ****         0.0693  -1.3607  -0.4945 N.am           1 S1                 0.0000
      6 ****         0.6429  -0.1498  -0.5162 C.2            1 S1                 0.0000
      7 ****         0.7004   0.5607  -1.5191 O.2            1 S1                 0.0000
      8 ****         1.1518   0.1665   0.6864 N.am           1 S1                 0.0000
      9 ****         1.8188   1.3598   1.0830 C.ar           1 S1                 0.0000
     10 ****         1.6266   2.6061   0.4344 C.ar           1 S1                 0.0000
     11 ****         2.3122   3.7437   0.9023 C.ar           1 S1                 0.0000
     12 ****         3.1345   3.6433   1.9670 N.pl3          1 S1                 1.0000
     13 ****         3.3411   2.4847   2.6310 C.ar           1 S1                 0.0000
     14 ****         4.2844   2.5114   3.8180 C.3            1 S1                 0.0000
     15 ****         2.6810   1.3071   2.2068 C.ar           1 S1                 0.0000
     16 ****         2.9334  -0.1821   3.0540 Cl             1 S1                 0.0000
     17 ****        -2.7736  -2.5835  -0.2088 C.3            1 S1                 0.0000
     18 ****        -3.9733  -2.9780  -1.0720 C.3            1 S1                 0.0000
     19 ****        -3.0632  -2.8113  -2.2897 C.3            1 S1                 0.0000
     20 ****        -2.8225   1.2145  -2.4599 H              1 S1                 0.0000
     21 ****        -3.1730  -0.2159  -3.4091 H              1 S1                 0.0000
     22 ****        -1.5001   0.2233  -3.0443 H              1 S1                 0.0000
     23 ****        -0.3176  -3.0385  -1.6267 H              1 S1                 0.0000
     24 ****        -0.2980  -1.5882  -2.5707 H              1 S1                 0.0000
     25 ****         0.0804  -1.8754   0.3738 H              1 S1                 0.0000
     26 ****         1.1090  -0.5577   1.3886 H              1 S1                 0.0000
     27 ****         0.9567   2.7160  -0.4045 H              1 S1                 0.0000
     28 ****         2.2219   4.7267   0.4631 H              1 S1                 0.0000
     29 ****         5.1185   1.8284   3.6552 H              1 S1                 0.0000
     30 ****         3.7612   2.2072   4.7250 H              1 S1                 0.0000
     31 ****         4.6922   3.5097   3.9818 H              1 S1                 0.0000
     32 ****        -2.2039  -3.4502   0.1308 H              1 S1                 0.0000
     33 ****        -3.0079  -1.9145   0.6202 H              1 S1                 0.0000
     34 ****        -4.3410  -3.9916  -0.9106 H              1 S1                 0.0000
     35 ****        -4.7781  -2.2419  -1.0405 H              1 S1                 0.0000
     36 ****        -3.5472  -2.3566  -3.1523 H              1 S1                 0.0000
     37 ****        -2.5774  -3.7476  -2.5697 H              1 S1                 0.0000
     38 ****         3.6183   4.4820   2.2891 H              1 S1                 0.0000
     39 ****        -3.5511  -0.5421  -1.1376 LP             1 S1                 0.0000
     40 ****        -2.0431  -0.0531  -0.7456 LP             1 S1                 0.0000
     41 ****         0.3051   0.2424  -2.3808 LP             1 S1                 0.0000
     42 ****         1.1423   1.4566  -1.4726 LP             1 S1                 0.0000
@<TRIPOS>BOND
    1    1    2 1     
    2    1   20 1     
    3    1   21 1     
    4    1   22 1     
    5    2    3 1     
    6    3   19 1     
    7    3    4 1     
    8    3   17 1     
    9    4    5 1     
   10    4   23 1     
   11    4   24 1     
   12    5    6 am    
   13    5   25 1     
   14    6    7 2     
   15    6    8 am    
   16    8    9 1     
   17    8   26 1     
   18    9   15 ar    
   19    9   10 ar    
   20   10   11 ar    
   21   10   27 1     
   22   11   12 ar    
   23   11   28 1     
   24   12   13 ar    
   25   12   38 1     
   26   13   14 1     
   27   13   15 ar    
   28   14   29 1     
   29   14   30 1     
   30   14   31 1     
   31   15   16 1     
   32   17   18 1     
   33   17   32 1     
   34   17   33 1     
   35   18   19 1     
   36   18   34 1     
   37   18   35 1     
   38   19   36 1     
   39   19   37 1     
   40    2   39 1     
   41    2   40 1     
   42    7   41 1     
   43    7   42 1     
@<TRIPOS>SUBSTRUCTURE
      1 S1             1
@<TRIPOS>SET
LONE_PAIRS      STATIC     ATOMS    <user>   **** ""
4 39 40 41 42
DONOR_HYDROGENS      STATIC     ATOMS    <user>   **** ""
3 25 26 38
ATOM$BLUE        STATIC     ATOMS    COLORGROUP SYSTEM
4 39 40 41 42
ATOM$RED        STATIC     ATOMS    COLORGROUP SYSTEM
3 25 26 38
