#       Name:                AV-unprocessed.smi:2158
#       Creating user name   scv26
#       Creation time:       Fri Mar 27 11:56:55 2020


#       File generated by GOLD software.
#

@<TRIPOS>MOLECULE
AV-unprocessed.smi:2158
    37    37     1
SMALL
NO_CHARGES


@<TRIPOS>ATOM
      1 ****        -2.2822  -1.0205   2.4134 C.3            1 S1                 0.0000
      2 ****        -2.7398  -1.7060   1.1174 C.3            1 S1                 0.0000
      3 ****        -2.2306  -1.0138  -0.1609 C.3            1 S1                 0.0000
      4 ****        -2.7932  -1.6753  -1.4285 C.3            1 S1                 0.0000
      5 ****        -0.7703  -1.0320  -0.1955 N.am           1 S1                 0.0000
      6 ****         0.0093  -0.0835  -0.7368 C.2            1 S1                 0.0000
      7 ****        -0.4339   0.9117  -1.3116 O.2            1 S1                 0.0000
      8 ****         1.5224  -0.3143  -0.6365 C.3            1 S1                 0.0000
      9 ****         2.2605   0.9209  -0.3295 N.am           1 S1                 0.0000
     10 ****         2.8501   1.6158  -1.4003 C.2            1 S1                 0.0000
     11 ****         3.5380   2.7582  -1.2125 C.2            1 S1                 0.0000
     12 ****         3.6646   3.2727   0.1455 C.2            1 S1                 0.0000
     13 ****         4.2932   4.3122   0.3359 O.2            1 S1                 0.0000
     14 ****         3.0713   2.5643   1.1506 N.pl3          1 S1                -1.0000
     15 ****         2.3719   1.4054   0.9444 C.2            1 S1                 0.0000
     16 ****         1.8408   0.7833   1.8655 O.2            1 S1                 0.0000
     17 ****        -2.7053  -1.5200   3.2850 H              1 S1                 0.0000
     18 ****        -2.6013   0.0216   2.4403 H              1 S1                 0.0000
     19 ****        -1.1970  -1.0401   2.5176 H              1 S1                 0.0000
     20 ****        -2.4169  -2.7478   1.1282 H              1 S1                 0.0000
     21 ****        -3.8301  -1.7274   1.1025 H              1 S1                 0.0000
     22 ****        -2.5764   0.0214  -0.1364 H              1 S1                 0.0000
     23 ****        -3.8832  -1.6526  -1.4317 H              1 S1                 0.0000
     24 ****        -2.4818  -2.7176  -1.5039 H              1 S1                 0.0000
     25 ****        -2.4530  -1.1595  -2.3272 H              1 S1                 0.0000
     26 ****        -0.3155  -1.8144   0.2525 H              1 S1                 0.0000
     27 ****         1.7384  -1.0774   0.1141 H              1 S1                 0.0000
     28 ****         1.8637  -0.7383  -1.5814 H              1 S1                 0.0000
     29 ****         2.7035   1.1714  -2.3737 H              1 S1                 0.0000
     30 ****         3.9819   3.2822  -2.0460 H              1 S1                 0.0000
     31 ****        -1.4218   1.0436  -1.3929 LP             1 S1                 0.0000
     32 ****         0.1942   1.5877  -1.6970 LP             1 S1                 0.0000
     33 ****         4.7096   4.7932  -0.4357 LP             1 S1                 0.0000
     34 ****         4.3881   4.6766   1.2623 LP             1 S1                 0.0000
     35 ****         3.1517   2.9096   2.0856 LP             1 S1                 0.0000
     36 ****         1.3390  -0.0605   1.6750 LP             1 S1                 0.0000
     37 ****         1.9115   1.1220   2.8037 LP             1 S1                 0.0000
@<TRIPOS>BOND
    1    1    2 1     
    2    1   17 1     
    3    1   18 1     
    4    1   19 1     
    5    2    3 1     
    6    2   20 1     
    7    2   21 1     
    8    3    4 1     
    9    3    5 1     
   10    3   22 1     
   11    4   23 1     
   12    4   24 1     
   13    4   25 1     
   14    5    6 am    
   15    5   26 1     
   16    6    7 2     
   17    6    8 1     
   18    8    9 1     
   19    8   27 1     
   20    8   28 1     
   21    9   15 am    
   22    9   10 1     
   23   10   11 2     
   24   10   29 1     
   25   11   12 1     
   26   11   30 1     
   27   12   13 2     
   28   12   14 1     
   29   14   15 1     
   30   15   16 2     
   31    7   31 1     
   32    7   32 1     
   33   13   33 1     
   34   13   34 1     
   35   14   35 1     
   36   16   36 1     
   37   16   37 1     
@<TRIPOS>SUBSTRUCTURE
      1 S1             1
@<TRIPOS>SET
LONE_PAIRS      STATIC     ATOMS    <user>   **** ""
7 31 32 33 34 35 36 37
DONOR_HYDROGENS      STATIC     ATOMS    <user>   **** ""
1 26
ATOM$BLUE        STATIC     ATOMS    COLORGROUP SYSTEM
7 31 32 33 34 35 36 37
ATOM$RED        STATIC     ATOMS    COLORGROUP SYSTEM
1 26
