AV-unprocessed.smi:3303|AV-procd|sdf|12681|dock3
  -GOLD-   2272019 13D 1   1.00000     0.00000
 Structure written by MMmdl.
 44 45  0  0  0  0  0  0  0  0  2 V2000
  148.5266  140.7389  154.7957 C   0  0  0  0  0  0  0  0  0  0  0  0
  149.1421  139.3414  154.6027 C   0  0  2  0  0  0  0  0  0  0  0  0
  148.0674  138.2570  154.8145 C   0  0  0  0  0  0  0  0  0  0  0  0
  148.6032  136.8856  154.6141 N   0  3  2  0  0  0  0  0  0  0  0  0
  147.5154  135.8788  154.6658 C   0  0  0  0  0  0  0  0  0  0  0  0
  149.7454  136.5967  155.5313 C   0  0  1  0  0  0  0  0  0  0  0  0
  150.3281  135.1837  155.3323 C   0  0  0  0  0  0  0  0  0  0  0  0
  150.8568  137.6466  155.3362 C   0  0  0  0  0  0  0  0  0  0  0  0
  150.3419  139.0801  155.5409 C   0  0  1  0  0  0  0  0  0  0  0  0
  151.4363  139.9878  155.2222 N   0  0  0  0  0  0  0  0  0  0  0  0
  151.3038  141.2576  155.9230 C   0  0  0  0  0  0  0  0  0  0  0  0
  151.5175  141.0775  157.4356 C   0  0  0  0  0  0  0  0  0  0  0  0
  151.6374  142.3948  158.1842 C   0  0  0  0  0  0  0  0  0  0  0  0
  152.6873  142.6013  159.1044 C   0  0  0  0  0  0  0  0  0  0  0  0
  152.7471  143.8296  159.7908 C   0  0  0  0  0  0  0  0  0  0  0  0
  151.7585  144.7988  159.5341 C   0  0  0  0  0  0  0  0  0  0  0  0
  150.7507  144.4958  158.5972 C   0  0  0  0  0  0  0  0  0  0  0  0
  150.6849  143.3220  157.9329 N   0  0  0  0  0  0  0  0  0  0  0  0
  148.2025  140.8915  155.8256 H   0  0  0  0  0  0  0  0  0  0  0  0
  147.6590  140.8778  154.1500 H   0  0  0  0  0  0  0  0  0  0  0  0
  149.2370  141.5278  154.5478 H   0  0  0  0  0  0  0  0  0  0  0  0
  149.4865  139.2718  153.5692 H   0  0  0  0  0  0  0  0  0  0  0  0
  147.6453  138.3362  155.8179 H   0  0  0  0  0  0  0  0  0  0  0  0
  147.2470  138.4263  154.1155 H   0  0  0  0  0  0  0  0  0  0  0  0
  147.1332  135.7671  155.6813 H   0  0  0  0  0  0  0  0  0  0  0  0
  147.8530  134.9050  154.3122 H   0  0  0  0  0  0  0  0  0  0  0  0
  146.6850  136.1716  154.0223 H   0  0  0  0  0  0  0  0  0  0  0  0
  149.3810  136.6685  156.5578 H   0  0  0  0  0  0  0  0  0  0  0  0
  151.2184  135.0414  155.9455 H   0  0  0  0  0  0  0  0  0  0  0  0
  150.6136  135.0119  154.2940 H   0  0  0  0  0  0  0  0  0  0  0  0
  149.6245  134.4048  155.6249 H   0  0  0  0  0  0  0  0  0  0  0  0
  151.6729  137.4515  156.0336 H   0  0  0  0  0  0  0  0  0  0  0  0
  151.2780  137.5429  154.3342 H   0  0  0  0  0  0  0  0  0  0  0  0
  150.0321  139.1935  156.5815 H   0  0  0  0  0  0  0  0  0  0  0  0
  152.3236  139.5668  155.4588 H   0  0  0  0  0  0  0  0  0  0  0  0
  152.0192  141.9840  155.5361 H   0  0  0  0  0  0  0  0  0  0  0  0
  150.3065  141.6571  155.7354 H   0  0  0  0  0  0  0  0  0  0  0  0
  150.6794  140.5180  157.8529 H   0  0  0  0  0  0  0  0  0  0  0  0
  152.4050  140.4708  157.6220 H   0  0  0  0  0  0  0  0  0  0  0  0
  153.4280  141.8360  159.2845 H   0  0  0  0  0  0  0  0  0  0  0  0
  153.5355  144.0237  160.5028 H   0  0  0  0  0  0  0  0  0  0  0  0
  151.7713  145.7512  160.0433 H   0  0  0  0  0  0  0  0  0  0  0  0
  149.9752  145.2145  158.3773 H   0  0  0  0  0  0  0  0  0  0  0  0
  148.9719  136.8586  153.6740 H   0  0  0  0  0  0  0  0  0  0  0  0
  1  2  1  0  0  0  0
  1 19  1  0  0  0  0
  1 20  1  0  0  0  0
  1 21  1  0  0  0  0
  2  9  1  0  0  0  0
  2  3  1  0  0  0  0
  2 22  1  0  0  0  0
  3  4  1  0  0  0  0
  3 23  1  0  0  0  0
  3 24  1  0  0  0  0
  4  5  1  0  0  0  0
  4  6  1  0  0  0  0
  4 44  1  0  0  0  0
  5 25  1  0  0  0  0
  5 26  1  0  0  0  0
  5 27  1  0  0  0  0
  6  7  1  0  0  0  0
  6  8  1  0  0  0  0
  6 28  1  0  0  0  0
  7 29  1  0  0  0  0
  7 30  1  0  0  0  0
  7 31  1  0  0  0  0
  8  9  1  0  0  0  0
  8 32  1  0  0  0  0
  8 33  1  0  0  0  0
  9 10  1  0  0  0  0
  9 34  1  0  0  0  0
 10 11  1  0  0  0  0
 10 35  1  0  0  0  0
 11 12  1  0  0  0  0
 11 36  1  0  0  0  0
 11 37  1  0  0  0  0
 12 13  1  0  0  0  0
 12 38  1  0  0  0  0
 12 39  1  0  0  0  0
 13 18  1  0  0  0  0
 13 14  2  0  0  0  0
 14 15  1  0  0  0  0
 14 40  1  0  0  0  0
 15 16  2  0  0  0  0
 15 41  1  0  0  0  0
 16 17  1  0  0  0  0
 16 42  1  0  0  0  0
 17 18  2  0  0  0  0
 17 43  1  0  0  0  0
M  CHG  1   4   1
M  END
> <s_m_source_file>
AV-unprocessed.smi

> <i_m_source_file_index>
3303

> <i_lp_mmshare_version>
43012

> <i_f3d_flags>
0

> <s_epik_input>
W0NIM11bQ0BASF0xW0NIMl1OKFtDSDNdKVtDQEBIXShbQ0gzXSlbQ0gyXVtDQEhdMVtOSF1bQ0gyXVtDSDJdYzJbY0hdW2NIXVtjSF1bY0hdbjI=

> <s_epik_cmdline>
J2VwaWtfcHl0aG9uJywgJy1waCcsICc3LjAnLCAnLXRuJywgJzgnLCAnLW1hJywgJzIwMCcsICctbWV0YWxfYmluZGluZycsICctaW1hZScsICc8aW5maWxlLm1hZT4nLCAnLW9tYWUnLCAnPG91dGZpbGUubWFlPic=

> <r_epik_Ionization_Penalty>
2.31085

> <r_epik_Ionization_Penalty_Charging>
0.000313057

> <r_epik_Ionization_Penalty_Neutral>
2.31054

> <r_epik_State_Penalty>
2.4087

> <r_epik_Charging_Adjusted_Penalty>
2.40902

> <i_epik_Tot_Q>
1

> <i_epik_Tot_abs_Q>
1

> <r_epik_Metal_State_Penalty>
2.30979

> <b_epik_Metal_Only>
0

> <s_lp_Force_Field>
OPLS_2005

> <r_lp_Energy>
25.5146

> <b_lp_Chiralities_Consistent>
1

> <s_lp_Variant>
AV-unprocessed.smi:3303-25

> <Gold.Version>
5.8.1

> <Gold.Id.Protein>
6NUR|6NUR_protein|mol2

> <Gold.PLP.Fitness>
42.8688

> <Gold.PLP.PLP>
-32.6872

> <Gold.PLP.part.hbond>
-2.0000

> <Gold.PLP.part.metal>
0.0000

> <Gold.PLP.part.buried>
-4.3957

> <Gold.PLP.part.nonpolar>
-25.4823

> <Gold.PLP.part.repulsive>
0.1501

> <Gold.PLP.ligand.clash>
0.0000

> <Gold.PLP.ligand.torsion>
0.4621

> <Gold.PLP.Chemscore.Hbond>
2.7000

> <Gold.PLP.Chemscore.CHOScore>
1.0000

> <Gold.PLP.Chemscore.Metal>
0.0000

> <Gold.Chemscore.Hbonds>
donor molecule, donor type, donor heavy atom, donor atom, acceptor molecule, acceptor atom, score
      L1  H     4    44       P1  7948  2.00
      P1  H  7989  7998       L1    10  0.60
      L1  C    17    43       P1  8029  1.00

> <Gold.PLP.Chemscore.Internal.Correction>
0.0058

> <Gold.Rescore>
     Score         DG    S(hbond)    S(metal)    S(lipo)     H(rot)  DE(clash)    DE(int)     intcor
     17.16     -17.97       1.02        0.00     106.75       1.33       0.22       0.59       ----

> <Gold.Chemscore.Fitness>
17.1591

> <Gold.Chemscore.DG>
-17.9715

> <Gold.Chemscore.ZeroCoef>
-5.4800

> <Gold.Chemscore.Hbond>
1.0178

> <Gold.Chemscore.Metal>
0.0000

> <Gold.Chemscore.Lipo>
106.7484

> <Gold.Chemscore.Internal_Hbond>
0.0000

> <Gold.Chemscore.DEClash>
0.2249

> <Gold.Chemscore.DEInternal>
0.5875

> <Gold.Chemscore.Rot>
1.3272

> <Gold.Chemscore.Internal.Correction>
   9.000000E+99

> <Gold.Chemscore.Hbonds>
donor molecule, donor type, donor heavy atom, donor atom, acceptor molecule, acceptor atom, score
      L1  H     4    44       P1  7948  0.97
      P1  H  7989  7998       L1    10  0.02

> <Gold.Chemscore.Hbond.Weighted>
-3.3996

> <Gold.Chemscore.Metal.Weighted>
-0.0000

> <Gold.Chemscore.Lipo.Weighted>
-12.4896

> <Gold.Chemscore.Internal_Hbond.Weighted>
0.0000

> <Gold.Chemscore.DEClash.Weighted>
0.2249

> <Gold.Chemscore.DEInternal.Weighted>
0.5875

> <Gold.Chemscore.Rot.Weighted>
3.3976

> <Gold.Chemscore.Internal.Correction.Weighted>
   9.000000E+99

> <Gold.Protein.RotatedTorsions>
[ 6907 6896 6895 6894 ] final -152.71 input  -60.11 | X-H torsion
[ 7974 7965 7964 7962 ] final  -27.49 input  175.53 | X-H torsion
[ 8008 7997 7996 7995 ] final  -11.54 input   59.86 | X-H torsion
[ 10167 10162 10161 10158 ] final  -35.97 input  -65.29 | X-H torsion
[ 10718 10713 10712 10709 ] final   12.65 input   66.30 | X-H torsion
[ 10763 10752 10751 10750 ] final  144.30 input  -60.55 | X-H torsion
[ 11005 11000 10999 10996 ] final -135.35 input  -57.11 | X-H torsion

> <Gold.Protein.ActiveResidues>
 VAL166  LYS551  ARG553  GLY616  TRP617  ASP618  TYR619  PRO620  LYS621  CYS622 
 ASP623  PHE694  ASN695  SER759  ASP760  ASP761  ALA762  ILE779  LEU786  VAL792 
 PHE793  MET794  SER795  GLU796  ALA797  LYS798  CYS799  TRP800  GLU811  SER814 

> <Gold.Protein.RotatedAtoms>
  151.2319  133.4446  159.2603 H   0  0  0  0  0  0  0  0  0  0  0  0  # atno 6907 bound_to 6896
  151.0787  134.9844  159.8355 H   0  0  0  0  0  0  0  0  0  0  0  0  # atno 6908 bound_to 6896
  152.5421  134.2260  159.8859 H   0  0  0  0  0  0  0  0  0  0  0  0  # atno 6909 bound_to 6896
  146.1354  140.5158  142.8675 H   0  0  0  0  0  0  0  0  0  0  0  0  # atno 7974 bound_to 7965
  154.5456  140.2300  155.8569 H   0  0  0  0  0  0  0  0  0  0  0  0  # atno 8008 bound_to 7997
  156.1899  140.3079  155.9274 H   0  0  0  0  0  0  0  0  0  0  0  0  # atno 8009 bound_to 7997
  155.3171  140.0438  157.3028 H   0  0  0  0  0  0  0  0  0  0  0  0  # atno 8010 bound_to 7997
  140.7153  143.3441  151.2295 H   0  0  0  0  0  0  0  0  0  0  0  0  # atno 10167 bound_to 10162
  157.0132  130.6125  149.5711 H   0  0  0  0  0  0  0  0  0  0  0  0  # atno 10718 bound_to 10713
  153.9866  135.2936  155.3415 H   0  0  0  0  0  0  0  0  0  0  0  0  # atno 10763 bound_to 10752
  154.7238  135.5097  153.8857 H   0  0  0  0  0  0  0  0  0  0  0  0  # atno 10764 bound_to 10752
  153.0829  135.6684  154.0124 H   0  0  0  0  0  0  0  0  0  0  0  0  # atno 10765 bound_to 10752
  140.8906  134.1816  157.4530 H   0  0  0  0  0  0  0  0  0  0  0  0  # atno 11005 bound_to 11000
  144.7734  140.5688  143.6654 LP  0  0  0  0  0  0  0  0  0  0  0  0  # atno 17320 bound_to 7965
  145.5167  139.1477  143.3575 LP  0  0  0  0  0  0  0  0  0  0  0  0  # atno 17321 bound_to 7965
  139.6956  143.9619  152.2881 LP  0  0  0  0  0  0  0  0  0  0  0  0  # atno 17342 bound_to 10162
  139.9295  144.6750  150.8377 LP  0  0  0  0  0  0  0  0  0  0  0  0  # atno 17343 bound_to 10162
  156.0128  130.5221  150.8043 LP  0  0  0  0  0  0  0  0  0  0  0  0  # atno 17370 bound_to 10713
  157.5305  131.0936  150.9961 LP  0  0  0  0  0  0  0  0  0  0  0  0  # atno 17371 bound_to 10713
  139.8729  134.9857  156.5292 LP  0  0  0  0  0  0  0  0  0  0  0  0  # atno 17394 bound_to 11000
  140.8351  133.8249  155.9021 LP  0  0  0  0  0  0  0  0  0  0  0  0  # atno 17395 bound_to 11000

$$$$
