#       Name:                AV-unprocessed.smi:685
#       Creating user name   scv26
#       Creation time:       Fri Mar 27 00:30:40 2020


#       File generated by GOLD software.
#

@<TRIPOS>MOLECULE
AV-unprocessed.smi:685
    53    54     1
SMALL
NO_CHARGES


@<TRIPOS>ATOM
      1 ****        -1.4644   3.2634   2.1028 C.3            1 S1                 0.0000
      2 ****        -2.1775   3.5375   0.8211 C.2            1 S1                 0.0000
      3 ****        -2.7955   4.7112   0.5216 N.pl3          1 S1                 1.0000
      4 ****        -3.3454   4.6471  -0.6998 N.pl3          1 S1                 0.0000
      5 ****        -4.0629   5.8129  -1.2165 C.3            1 S1                 0.0000
      6 ****        -3.1079   3.4268  -1.2601 C.2            1 S1                 0.0000
      7 ****        -3.5744   3.0069  -2.6161 C.3            1 S1                 0.0000
      8 ****        -2.3689   2.7226  -0.3006 C.2            1 S1                 0.0000
      9 ****        -1.8582   1.3158  -0.4384 C.3            1 S1                 0.0000
     10 ****        -0.3475   1.2480  -0.7505 C.3            1 S1                 0.0000
     11 ****         0.0047   1.8403  -2.1239 C.3            1 S1                 0.0000
     12 ****         0.1205  -0.1338  -0.6921 N.am           1 S1                 0.0000
     13 ****         0.4480  -0.7925   0.4310 C.2            1 S1                 0.0000
     14 ****         0.3649  -0.2917   1.5533 O.2            1 S1                 0.0000
     15 ****         0.9330  -2.2344   0.2512 C.3            1 S1                 0.0000
     16 ****         1.9436  -2.6730   1.3287 C.3            1 S1                 0.0000
     17 ****         2.4424  -4.1167   1.1397 C.3            1 S1                 0.0000
     18 ****         3.3553  -4.5973   2.2702 C.3            1 S1                 0.0000
     19 ****         4.1074  -5.7994   1.6905 C.3            1 S1                 0.0000
     20 ****         4.0905  -5.6211   0.1647 C.3            1 S1                 0.0000
     21 ****         3.3005  -4.3364  -0.1105 C.3            1 S1                 0.0000
     22 ****        -1.7431   2.2828   2.4888 H              1 S1                 0.0000
     23 ****        -1.7178   4.0142   2.8517 H              1 S1                 0.0000
     24 ****        -0.3861   3.2808   1.9441 H              1 S1                 0.0000
     25 ****        -4.9624   5.4805  -1.7354 H              1 S1                 0.0000
     26 ****        -3.4160   6.3479  -1.9122 H              1 S1                 0.0000
     27 ****        -4.3454   6.4738  -0.3961 H              1 S1                 0.0000
     28 ****        -2.8687   2.3089  -3.0653 H              1 S1                 0.0000
     29 ****        -3.6648   3.8687  -3.2774 H              1 S1                 0.0000
     30 ****        -4.5465   2.5197  -2.5426 H              1 S1                 0.0000
     31 ****        -2.0635   0.7757   0.4867 H              1 S1                 0.0000
     32 ****        -2.4145   0.7809  -1.2088 H              1 S1                 0.0000
     33 ****         0.1961   1.8212   0.0026 H              1 S1                 0.0000
     34 ****        -0.2599   2.8962  -2.1826 H              1 S1                 0.0000
     35 ****        -0.5180   1.3198  -2.9270 H              1 S1                 0.0000
     36 ****         1.0748   1.7640  -2.3202 H              1 S1                 0.0000
     37 ****         0.2136  -0.6223  -1.5712 H              1 S1                 0.0000
     38 ****         0.0634  -2.8921   0.2668 H              1 S1                 0.0000
     39 ****         1.3832  -2.3329  -0.7373 H              1 S1                 0.0000
     40 ****         2.7939  -1.9894   1.3396 H              1 S1                 0.0000
     41 ****         1.4782  -2.5958   2.3125 H              1 S1                 0.0000
     42 ****         1.5831  -4.7880   1.0922 H              1 S1                 0.0000
     43 ****         4.0698  -3.8142   2.5286 H              1 S1                 0.0000
     44 ****         2.8026  -4.8501   3.1756 H              1 S1                 0.0000
     45 ****         5.1225  -5.8621   2.0841 H              1 S1                 0.0000
     46 ****         3.5962  -6.7250   1.9583 H              1 S1                 0.0000
     47 ****         5.0976  -5.5628  -0.2493 H              1 S1                 0.0000
     48 ****         3.5961  -6.4747  -0.3010 H              1 S1                 0.0000
     49 ****         2.7048  -4.4069  -1.0211 H              1 S1                 0.0000
     50 ****         3.9951  -3.5045  -0.2352 H              1 S1                 0.0000
     51 ****        -2.8712   5.5477   1.0866 H              1 S1                 0.0000
     52 ****         0.0408   0.6485   1.6585 LP             1 S1                 0.0000
     53 ****         0.6215  -0.8253   2.3591 LP             1 S1                 0.0000
@<TRIPOS>BOND
    1    1    2 1     
    2    1   22 1     
    3    1   23 1     
    4    1   24 1     
    5    2    8 1     
    6    2    3 2     
    7    3    4 1     
    8    3   51 1     
    9    4    5 1     
   10    4    6 1     
   11    5   25 1     
   12    5   26 1     
   13    5   27 1     
   14    6    7 1     
   15    6    8 2     
   16    7   28 1     
   17    7   29 1     
   18    7   30 1     
   19    8    9 1     
   20    9   10 1     
   21    9   31 1     
   22    9   32 1     
   23   10   11 1     
   24   10   12 1     
   25   10   33 1     
   26   11   34 1     
   27   11   35 1     
   28   11   36 1     
   29   12   13 am    
   30   12   37 1     
   31   13   14 2     
   32   13   15 1     
   33   15   16 1     
   34   15   38 1     
   35   15   39 1     
   36   16   17 1     
   37   16   40 1     
   38   16   41 1     
   39   17   21 1     
   40   17   18 1     
   41   17   42 1     
   42   18   19 1     
   43   18   43 1     
   44   18   44 1     
   45   19   20 1     
   46   19   45 1     
   47   19   46 1     
   48   20   21 1     
   49   20   47 1     
   50   20   48 1     
   51   21   49 1     
   52   21   50 1     
   53   14   52 1     
   54   14   53 1     
@<TRIPOS>SUBSTRUCTURE
      1 S1             1
@<TRIPOS>SET
LONE_PAIRS      STATIC     ATOMS    <user>   **** ""
2 52 53
DONOR_HYDROGENS      STATIC     ATOMS    <user>   **** ""
2 51 37
ATOM$BLUE        STATIC     ATOMS    COLORGROUP SYSTEM
2 52 53
ATOM$RED        STATIC     ATOMS    COLORGROUP SYSTEM
2 51 37
