AV-unprocessed.smi:709|AV-procd|sdf|3458|dock7
  -GOLD-   22720 0443D 1   1.00000     0.00000
 Structure written by MMmdl.
 48 50  0  0  0  0  0  0  0  0  1 V2000
  150.4253  135.9622  159.7164 C   0  0  0  0  0  0  0  0  0  0  0  0
  149.5916  136.5456  158.5740 C   0  0  0  0  0  0  0  0  0  0  0  0
  150.4570  136.9077  157.5110 O   0  0  0  0  0  0  0  0  0  0  0  0
  150.1458  136.2438  156.2960 C   0  0  2  0  0  0  0  0  0  0  0  0
  150.3801  134.7342  156.3782 C   0  0  0  0  0  0  0  0  0  0  0  0
  150.9111  134.8121  154.9430 C   0  0  1  0  0  0  0  0  0  0  0  0
  149.8344  134.6052  153.9723 N   0  0  0  0  0  0  0  0  0  0  0  0
  149.0392  133.5278  153.9322 C   0  0  0  0  0  0  0  0  0  0  0  0
  149.1317  132.5923  154.7265 O   0  0  0  0  0  0  0  0  0  0  0  0
  148.1488  133.6263  152.9281 N   0  0  0  0  0  0  0  0  0  0  0  0
  147.1749  132.7040  152.5076 C   0  0  0  0  0  0  0  0  0  0  0  0
  147.1696  131.3867  152.8334 C   0  0  0  0  0  0  0  0  0  0  0  0
  146.1358  130.5060  152.3455 C   0  0  0  0  0  0  0  0  0  0  0  0
  145.1836  131.0183  151.5536 C   0  0  0  0  0  0  0  0  0  0  0  0
  145.1746  132.3772  151.1957 N   0  0  0  0  0  0  0  0  0  0  0  0
  144.0926  132.8415  150.3237 C   0  0  0  0  0  0  0  0  0  0  0  0
  146.1273  133.2566  151.6268 C   0  0  0  0  0  0  0  0  0  0  0  0
  146.0992  134.4432  151.2904 O   0  0  0  0  0  0  0  0  0  0  0  0
  151.2443  136.3082  155.2007 C   0  0  0  0  0  0  0  0  0  0  0  0
  152.6760  136.5988  155.6601 C   0  0  0  0  0  0  0  0  0  0  0  0
  152.9141  138.0980  155.4838 C   0  0  0  0  0  0  0  0  0  0  0  0
  151.9696  138.5323  154.3613 C   0  0  0  0  0  0  0  0  0  0  0  0
  151.0639  137.3289  154.0727 C   0  0  0  0  0  0  0  0  0  0  0  0
  149.7896  135.6681  160.5517 H   0  0  0  0  0  0  0  0  0  0  0  0
  151.1460  136.6925  160.0852 H   0  0  0  0  0  0  0  0  0  0  0  0
  150.9771  135.0809  159.3887 H   0  0  0  0  0  0  0  0  0  0  0  0
  148.8656  135.8095  158.2262 H   0  0  0  0  0  0  0  0  0  0  0  0
  149.0334  137.4116  158.9283 H   0  0  0  0  0  0  0  0  0  0  0  0
  149.1424  136.4625  155.9225 H   0  0  0  0  0  0  0  0  0  0  0  0
  151.1518  134.4600  157.0996 H   0  0  0  0  0  0  0  0  0  0  0  0
  149.4773  134.1375  156.5135 H   0  0  0  0  0  0  0  0  0  0  0  0
  151.7866  134.1807  154.7811 H   0  0  0  0  0  0  0  0  0  0  0  0
  149.6904  135.3323  153.2870 H   0  0  0  0  0  0  0  0  0  0  0  0
  148.1536  134.4929  152.4098 H   0  0  0  0  0  0  0  0  0  0  0  0
  147.9392  130.9487  153.4481 H   0  0  0  0  0  0  0  0  0  0  0  0
  146.1300  129.4595  152.6125 H   0  0  0  0  0  0  0  0  0  0  0  0
  144.3769  130.4250  151.1483 H   0  0  0  0  0  0  0  0  0  0  0  0
  144.4964  133.2349  149.3897 H   0  0  0  0  0  0  0  0  0  0  0  0
  143.5224  133.6351  150.8088 H   0  0  0  0  0  0  0  0  0  0  0  0
  143.3892  132.0491  150.0659 H   0  0  0  0  0  0  0  0  0  0  0  0
  152.8654  136.2854  156.6872 H   0  0  0  0  0  0  0  0  0  0  0  0
  153.3817  136.0514  155.0338 H   0  0  0  0  0  0  0  0  0  0  0  0
  152.6605  138.6240  156.4046 H   0  0  0  0  0  0  0  0  0  0  0  0
  153.9569  138.3220  155.2577 H   0  0  0  0  0  0  0  0  0  0  0  0
  151.3853  139.4004  154.6678 H   0  0  0  0  0  0  0  0  0  0  0  0
  152.5250  138.8158  153.4667 H   0  0  0  0  0  0  0  0  0  0  0  0
  151.3617  136.8914  153.1193 H   0  0  0  0  0  0  0  0  0  0  0  0
  150.0245  137.6390  153.9617 H   0  0  0  0  0  0  0  0  0  0  0  0
  1  2  1  0  0  0  0
  1 24  1  0  0  0  0
  1 25  1  0  0  0  0
  1 26  1  0  0  0  0
  2  3  1  0  0  0  0
  2 27  1  0  0  0  0
  2 28  1  0  0  0  0
  3  4  1  0  0  0  0
  4 19  1  0  0  0  0
  4  5  1  0  0  0  0
  4 29  1  0  0  0  0
  5  6  1  0  0  0  0
  5 30  1  0  0  0  0
  5 31  1  0  0  0  0
  6  7  1  0  0  0  0
  6 19  1  0  0  0  0
  6 32  1  0  0  0  0
  7  8  1  0  0  0  0
  7 33  1  0  0  0  0
  8  9  2  0  0  0  0
  8 10  1  0  0  0  0
 10 11  1  0  0  0  0
 10 34  1  0  0  0  0
 11 17  1  0  0  0  0
 11 12  2  0  0  0  0
 12 13  1  0  0  0  0
 12 35  1  0  0  0  0
 13 14  2  0  0  0  0
 13 36  1  0  0  0  0
 14 15  1  0  0  0  0
 14 37  1  0  0  0  0
 15 16  1  0  0  0  0
 15 17  1  0  0  0  0
 16 38  1  0  0  0  0
 16 39  1  0  0  0  0
 16 40  1  0  0  0  0
 17 18  2  0  0  0  0
 19 23  1  0  0  0  0
 19 20  1  0  0  0  0
 20 21  1  0  0  0  0
 20 41  1  0  0  0  0
 20 42  1  0  0  0  0
 21 22  1  0  0  0  0
 21 43  1  0  0  0  0
 21 44  1  0  0  0  0
 22 23  1  0  0  0  0
 22 45  1  0  0  0  0
 22 46  1  0  0  0  0
 23 47  1  0  0  0  0
 23 48  1  0  0  0  0
M  END
> <s_m_source_file>
AV-unprocessed.smi

> <i_m_source_file_index>
709

> <i_lp_mmshare_version>
43012

> <i_f3d_flags>
0

> <s_epik_input>
W0NIMl0xW0NIMl1bQ0gyXVtDSDJdQzEyW0NASF0oT1tDSDJdW0NIM10pW0NIMl1bQ0BIXTJbTkhdQyg9TylbTkhdYzNbY0hdW2NIXVtjSF1uKFtDSDNdKWMzPU8=

> <s_epik_cmdline>
J2VwaWtfcHl0aG9uJywgJy1waCcsICc3LjAnLCAnLXRuJywgJzgnLCAnLW1hJywgJzIwMCcsICctbWV0YWxfYmluZGluZycsICctaW1hZScsICc8aW5maWxlLm1hZT4nLCAnLW9tYWUnLCAnPG91dGZpbGUubWFlPic=

> <r_lp_tautomer_probability>
1

> <r_epik_Ionization_Penalty>
2.50859e-05

> <r_epik_Ionization_Penalty_Charging>
5.10493e-06

> <r_epik_Ionization_Penalty_Neutral>
1.9981e-05

> <r_epik_State_Penalty>
-0

> <r_epik_Charging_Adjusted_Penalty>
5.10493e-06

> <i_epik_Tot_Q>
0

> <i_epik_Tot_abs_Q>
0

> <r_epik_Metal_State_Penalty>
-0

> <b_epik_Metal_Only>
0

> <s_lp_Force_Field>
OPLS_2005

> <r_lp_Energy>
50.6908

> <b_lp_Chiralities_Consistent>
1

> <s_lp_Variant>
AV-unprocessed.smi:709-1

> <Gold.Version>
5.8.1

> <Gold.Id.Protein>
6NUR|6NUR_protein|mol2

> <Gold.PLP.Fitness>
42.0659

> <Gold.PLP.PLP>
-37.0921

> <Gold.PLP.part.hbond>
-2.0000

> <Gold.PLP.part.metal>
0.0000

> <Gold.PLP.part.buried>
-4.4022

> <Gold.PLP.part.nonpolar>
-30.7998

> <Gold.PLP.part.repulsive>
0.2471

> <Gold.PLP.ligand.clash>
0.0000

> <Gold.PLP.ligand.torsion>
0.6843

> <Gold.PLP.Chemscore.Hbond>
2.0000

> <Gold.PLP.Chemscore.CHOScore>
0.0000

> <Gold.PLP.Chemscore.Metal>
0.0000

> <Gold.Chemscore.Hbonds>
donor molecule, donor type, donor heavy atom, donor atom, acceptor molecule, acceptor atom, score
      L1  H     7    33       P1  7948  0.35
      L1  H    10    34       P1  7948  1.00

> <Gold.PLP.Chemscore.Internal.Correction>
0.3425

> <Gold.Rescore>
     Score         DG    S(hbond)    S(metal)    S(lipo)     H(rot)  DE(clash)    DE(int)     intcor
     14.21     -16.76       1.54        0.00      82.25       1.36       0.03       2.52       ----

> <Gold.Chemscore.Fitness>
14.2076

> <Gold.Chemscore.DG>
-16.7565

> <Gold.Chemscore.ZeroCoef>
-5.4800

> <Gold.Chemscore.Hbond>
1.5372

> <Gold.Chemscore.Metal>
0.0000

> <Gold.Chemscore.Lipo>
82.2524

> <Gold.Chemscore.Internal_Hbond>
0.0000

> <Gold.Chemscore.DEClash>
0.0272

> <Gold.Chemscore.DEInternal>
2.5217

> <Gold.Chemscore.Rot>
1.3599

> <Gold.Chemscore.Internal.Correction>
   9.000000E+99

> <Gold.Chemscore.Hbonds>
donor molecule, donor type, donor heavy atom, donor atom, acceptor molecule, acceptor atom, score
      L1  H     7    33       P1  7948  0.01
      L1  H    10    34       P1  7948  0.25

> <Gold.Chemscore.Hbond.Weighted>
-5.1342

> <Gold.Chemscore.Metal.Weighted>
-0.0000

> <Gold.Chemscore.Lipo.Weighted>
-9.6235

> <Gold.Chemscore.Internal_Hbond.Weighted>
0.0000

> <Gold.Chemscore.DEClash.Weighted>
0.0272

> <Gold.Chemscore.DEInternal.Weighted>
2.5217

> <Gold.Chemscore.Rot.Weighted>
3.4813

> <Gold.Chemscore.Internal.Correction.Weighted>
   9.000000E+99

> <Gold.Protein.RotatedTorsions>
[ 6907 6896 6895 6894 ] final  -47.84 input  -60.11 | X-H torsion
[ 7974 7965 7964 7962 ] final  -18.01 input  175.53 | X-H torsion
[ 8008 7997 7996 7995 ] final  -60.47 input   59.86 | X-H torsion
[ 10167 10162 10161 10158 ] final   96.40 input  -65.29 | X-H torsion
[ 10718 10713 10712 10709 ] final -133.08 input   66.30 | X-H torsion
[ 10763 10752 10751 10750 ] final   70.59 input  -60.55 | X-H torsion
[ 11005 11000 10999 10996 ] final -108.95 input  -57.11 | X-H torsion

> <Gold.Protein.ActiveResidues>
 VAL166  LYS551  ARG553  GLY616  TRP617  ASP618  TYR619  PRO620  LYS621  CYS622 
 ASP623  PHE694  ASN695  SER759  ASP760  ASP761  ALA762  ILE779  LEU786  VAL792 
 PHE793  MET794  SER795  GLU796  ALA797  LYS798  CYS799  TRP800  GLU811  SER814 

> <Gold.Protein.RotatedAtoms>
  150.8967  134.8376  159.7331 H   0  0  0  0  0  0  0  0  0  0  0  0  # atno 6907 bound_to 6896
  152.4869  134.4565  159.9601 H   0  0  0  0  0  0  0  0  0  0  0  0  # atno 6908 bound_to 6896
  151.4621  133.3551  159.2846 H   0  0  0  0  0  0  0  0  0  0  0  0  # atno 6909 bound_to 6896
  146.1913  140.3861  142.8457 H   0  0  0  0  0  0  0  0  0  0  0  0  # atno 7974 bound_to 7965
  154.4400  140.1039  156.6278 H   0  0  0  0  0  0  0  0  0  0  0  0  # atno 8008 bound_to 7997
  155.5638  140.3488  155.4479 H   0  0  0  0  0  0  0  0  0  0  0  0  # atno 8009 bound_to 7997
  156.0440  140.1288  157.0113 H   0  0  0  0  0  0  0  0  0  0  0  0  # atno 8010 bound_to 7997
  139.7898  144.6856  150.9908 H   0  0  0  0  0  0  0  0  0  0  0  0  # atno 10167 bound_to 10162
  156.2412  130.7097  151.0958 H   0  0  0  0  0  0  0  0  0  0  0  0  # atno 10718 bound_to 10713
  153.0350  135.5168  154.7465 H   0  0  0  0  0  0  0  0  0  0  0  0  # atno 10763 bound_to 10752
  154.6448  135.2917  155.0061 H   0  0  0  0  0  0  0  0  0  0  0  0  # atno 10764 bound_to 10752
  154.0966  135.6642  153.4914 H   0  0  0  0  0  0  0  0  0  0  0  0  # atno 10765 bound_to 10752
  141.0874  133.9115  157.2155 H   0  0  0  0  0  0  0  0  0  0  0  0  # atno 11005 bound_to 11000
  144.8492  140.6976  143.6179 LP  0  0  0  0  0  0  0  0  0  0  0  0  # atno 17320 bound_to 7965
  145.3783  139.1642  143.4294 LP  0  0  0  0  0  0  0  0  0  0  0  0  # atno 17321 bound_to 7965
  140.7820  143.4393  151.0575 LP  0  0  0  0  0  0  0  0  0  0  0  0  # atno 17342 bound_to 10162
  139.8070  143.8003  152.3168 LP  0  0  0  0  0  0  0  0  0  0  0  0  # atno 17343 bound_to 10162
  157.7176  131.0701  150.6266 LP  0  0  0  0  0  0  0  0  0  0  0  0  # atno 17370 bound_to 10713
  156.6339  130.4440  149.5776 LP  0  0  0  0  0  0  0  0  0  0  0  0  # atno 17371 bound_to 10713
  139.9694  135.0132  156.9472 LP  0  0  0  0  0  0  0  0  0  0  0  0  # atno 17394 bound_to 11000
  140.5332  134.0793  155.7321 LP  0  0  0  0  0  0  0  0  0  0  0  0  # atno 17395 bound_to 11000

$$$$
