AV-unprocessed.smi:148|AV-procd|sdf|1220|dock8
  -GOLD-   2262018413D 1   1.00000     0.00000
 Structure written by MMmdl.
 63 67  0  0  0  0  0  0  0  0  1 V2000
  147.3018  138.6616  151.8767 O   0  0  0  0  0  0  0  0  0  0  0  0
  146.6304  139.1177  153.0328 C   0  0  0  0  0  0  0  0  0  0  0  0
  147.6234  139.4138  154.1829 C   0  0  2  0  0  0  0  0  0  0  0  0
  147.7246  138.2255  155.1751 C   0  0  0  0  0  0  0  0  0  0  0  0
  148.6512  138.4750  156.2651 N   0  0  0  0  0  0  0  0  0  0  0  0
  148.4119  138.2739  157.6059 C   0  0  0  0  0  0  0  0  0  0  0  0
  149.4070  138.5646  158.3988 N   0  0  0  0  0  0  0  0  0  0  0  0
  150.4063  138.9995  157.5377 C   0  0  0  0  0  0  0  0  0  0  0  0
  151.7329  139.4694  157.7248 C   0  0  0  0  0  0  0  0  0  0  0  0
  152.2960  139.5476  158.9545 N   0  0  0  0  0  0  0  0  0  0  0  0
  153.1292  138.3610  159.1622 C   0  0  0  0  0  0  0  0  0  0  0  0
  153.6350  138.2628  160.6060 C   0  0  0  0  0  0  0  0  0  0  0  0
  154.3683  139.5484  160.9962 C   0  0  0  0  0  0  0  0  0  0  0  0
  153.4330  140.7475  160.8027 C   0  0  0  0  0  0  0  0  0  0  0  0
  152.8974  140.8378  159.3483 C   0  0  2  0  0  0  0  0  0  0  0  0
  151.9441  142.0599  159.1301 C   0  0  2  0  0  0  0  0  0  0  0  0
  151.8665  142.5648  157.6763 C   0  0  0  0  0  0  0  0  0  0  0  0
  151.5343  144.0644  157.7504 C   0  0  0  0  0  0  0  0  0  0  0  0
  151.3941  144.4006  159.2377 C   0  0  0  0  0  0  0  0  0  0  0  0
  152.2197  143.3315  159.9522 C   0  0  1  0  0  0  0  0  0  0  0  0
  151.8253  143.2117  161.3029 O   0  0  0  0  0  0  0  0  0  0  0  0
  152.4494  139.8034  156.6180 N   0  0  0  0  0  0  0  0  0  0  0  0
  151.8923  139.7064  155.4070 C   0  0  0  0  0  0  0  0  0  0  0  0
  150.6638  139.2964  155.0828 N   0  0  0  0  0  0  0  0  0  0  0  0
  149.9504  138.9458  156.1915 C   0  0  0  0  0  0  0  0  0  0  0  0
  147.3112  140.7722  154.8721 C   0  0  1  0  0  0  0  0  0  0  0  0
  147.4301  142.0285  154.0091 C   0  0  0  0  0  0  0  0  0  0  0  0
  146.2545  142.9023  154.4563 C   0  0  0  0  0  0  0  0  0  0  0  0
  145.7923  142.3103  155.6616 O   0  0  0  0  0  0  0  0  0  0  0  0
  145.9250  140.9077  155.5084 C   0  0  0  0  0  0  0  0  0  0  0  0
  147.5233  137.7508  151.9976 H   0  0  0  0  0  0  0  0  0  0  0  0
  146.0458  140.0042  152.7857 H   0  0  0  0  0  0  0  0  0  0  0  0
  145.9217  138.3391  153.3123 H   0  0  0  0  0  0  0  0  0  0  0  0
  148.6090  139.5202  153.7267 H   0  0  0  0  0  0  0  0  0  0  0  0
  146.7592  138.0046  155.6266 H   0  0  0  0  0  0  0  0  0  0  0  0
  148.0383  137.3159  154.6641 H   0  0  0  0  0  0  0  0  0  0  0  0
  147.4688  137.9016  157.9794 H   0  0  0  0  0  0  0  0  0  0  0  0
  152.5659  137.4584  158.9200 H   0  0  0  0  0  0  0  0  0  0  0  0
  153.9786  138.3960  158.4781 H   0  0  0  0  0  0  0  0  0  0  0  0
  152.7941  138.0959  161.2805 H   0  0  0  0  0  0  0  0  0  0  0  0
  154.2973  137.4034  160.7131 H   0  0  0  0  0  0  0  0  0  0  0  0
  154.6995  139.4920  162.0334 H   0  0  0  0  0  0  0  0  0  0  0  0
  155.2632  139.6701  160.3847 H   0  0  0  0  0  0  0  0  0  0  0  0
  152.6077  140.6422  161.5060 H   0  0  0  0  0  0  0  0  0  0  0  0
  153.9646  141.6547  161.0845 H   0  0  0  0  0  0  0  0  0  0  0  0
  153.7619  140.9855  158.6992 H   0  0  0  0  0  0  0  0  0  0  0  0
  150.9218  141.7606  159.3608 H   0  0  0  0  0  0  0  0  0  0  0  0
  152.8061  142.4336  157.1424 H   0  0  0  0  0  0  0  0  0  0  0  0
  151.1095  142.0154  157.1155 H   0  0  0  0  0  0  0  0  0  0  0  0
  152.3502  144.6423  157.3142 H   0  0  0  0  0  0  0  0  0  0  0  0
  150.6280  144.3120  157.1971 H   0  0  0  0  0  0  0  0  0  0  0  0
  151.7229  145.4134  159.4728 H   0  0  0  0  0  0  0  0  0  0  0  0
  150.3448  144.3180  159.5264 H   0  0  0  0  0  0  0  0  0  0  0  0
  153.2694  143.6177  159.9067 H   0  0  0  0  0  0  0  0  0  0  0  0
  151.5763  144.0660  161.6206 H   0  0  0  0  0  0  0  0  0  0  0  0
  152.5220  139.9978  154.5792 H   0  0  0  0  0  0  0  0  0  0  0  0
  148.0128  140.8980  155.6979 H   0  0  0  0  0  0  0  0  0  0  0  0
  148.3833  142.5248  154.1955 H   0  0  0  0  0  0  0  0  0  0  0  0
  147.3714  141.8316  152.9398 H   0  0  0  0  0  0  0  0  0  0  0  0
  146.5388  143.9436  154.6092 H   0  0  0  0  0  0  0  0  0  0  0  0
  145.4542  142.8732  153.7155 H   0  0  0  0  0  0  0  0  0  0  0  0
  145.1222  140.5503  154.8649 H   0  0  0  0  0  0  0  0  0  0  0  0
  145.8511  140.3917  156.4659 H   0  0  0  0  0  0  0  0  0  0  0  0
  1  2  1  0  0  0  0
  1 31  1  0  0  0  0
  2  3  1  0  0  0  0
  2 32  1  0  0  0  0
  2 33  1  0  0  0  0
  3  4  1  0  0  0  0
  3 26  1  0  0  0  0
  3 34  1  0  0  0  0
  4  5  1  0  0  0  0
  4 35  1  0  0  0  0
  4 36  1  0  0  0  0
  5 25  1  0  0  0  0
  5  6  1  0  0  0  0
  6  7  2  0  0  0  0
  6 37  1  0  0  0  0
  7  8  1  0  0  0  0
  8 25  2  0  0  0  0
  8  9  1  0  0  0  0
  9 10  1  0  0  0  0
  9 22  2  0  0  0  0
 10 15  1  0  0  0  0
 10 11  1  0  0  0  0
 11 12  1  0  0  0  0
 11 38  1  0  0  0  0
 11 39  1  0  0  0  0
 12 13  1  0  0  0  0
 12 40  1  0  0  0  0
 12 41  1  0  0  0  0
 13 14  1  0  0  0  0
 13 42  1  0  0  0  0
 13 43  1  0  0  0  0
 14 15  1  0  0  0  0
 14 44  1  0  0  0  0
 14 45  1  0  0  0  0
 15 16  1  0  0  0  0
 15 46  1  0  0  0  0
 16 20  1  0  0  0  0
 16 17  1  0  0  0  0
 16 47  1  0  0  0  0
 17 18  1  0  0  0  0
 17 48  1  0  0  0  0
 17 49  1  0  0  0  0
 18 19  1  0  0  0  0
 18 50  1  0  0  0  0
 18 51  1  0  0  0  0
 19 20  1  0  0  0  0
 19 52  1  0  0  0  0
 19 53  1  0  0  0  0
 20 21  1  0  0  0  0
 20 54  1  0  0  0  0
 21 55  1  0  0  0  0
 22 23  1  0  0  0  0
 23 24  2  0  0  0  0
 23 56  1  0  0  0  0
 24 25  1  0  0  0  0
 26 30  1  0  0  0  0
 26 27  1  0  0  0  0
 26 57  1  0  0  0  0
 27 28  1  0  0  0  0
 27 58  1  0  0  0  0
 27 59  1  0  0  0  0
 28 29  1  0  0  0  0
 28 60  1  0  0  0  0
 28 61  1  0  0  0  0
 29 30  1  0  0  0  0
 30 62  1  0  0  0  0
 30 63  1  0  0  0  0
M  END
> <s_m_source_file>
AV-unprocessed.smi

> <i_m_source_file_index>
148

> <i_lp_mmshare_version>
43012

> <i_f3d_flags>
0

> <s_epik_input>
W0NIMl0xT1tDSDJdW0NIMl1bQ0BIXTFbQ0BIXShbQ0gyXVtPSF0pW0NIMl1uKFtjSF1uMiljKGMyMyluW2NIXW5jM040W0NIMl1bQ0gyXVtDSDJdW0NIMl1bQ0BIXTRbQ0BASF01W0NIMl1bQ0gyXVtDSDJdW0NASF01W09IXQ==

> <s_epik_cmdline>
J2VwaWtfcHl0aG9uJywgJy1waCcsICc3LjAnLCAnLXRuJywgJzgnLCAnLW1hJywgJzIwMCcsICctbWV0YWxfYmluZGluZycsICctaW1hZScsICc8aW5maWxlLm1hZT4nLCAnLW9tYWUnLCAnPG91dGZpbGUubWFlPic=

> <r_lp_tautomer_probability>
1

> <r_epik_Ionization_Penalty>
0.00556303

> <r_epik_Ionization_Penalty_Charging>
0

> <r_epik_Ionization_Penalty_Neutral>
0.00556303

> <r_epik_State_Penalty>
0.00401767

> <r_epik_Charging_Adjusted_Penalty>
0.00401767

> <i_epik_Tot_Q>
0

> <i_epik_Tot_abs_Q>
0

> <r_epik_Metal_State_Penalty>
-0

> <b_epik_Metal_Only>
0

> <s_lp_Force_Field>
OPLS_2005

> <r_lp_Energy>
68.7494

> <b_lp_Chiralities_Consistent>
1

> <s_lp_Variant>
AV-unprocessed.smi:148-19

> <Gold.Version>
5.8.1

> <Gold.Id.Protein>
6NUR|6NUR_protein|mol2

> <Gold.PLP.Fitness>
52.4106

> <Gold.PLP.PLP>
-49.7503

> <Gold.PLP.part.hbond>
-3.8963

> <Gold.PLP.part.metal>
0.0000

> <Gold.PLP.part.buried>
-6.3838

> <Gold.PLP.part.nonpolar>
-38.5584

> <Gold.PLP.part.repulsive>
0.1762

> <Gold.PLP.ligand.clash>
0.5167

> <Gold.PLP.ligand.torsion>
1.6013

> <Gold.PLP.Chemscore.Hbond>
2.0000

> <Gold.PLP.Chemscore.CHOScore>
0.0000

> <Gold.PLP.Chemscore.Metal>
0.0000

> <Gold.Chemscore.Hbonds>
donor molecule, donor type, donor heavy atom, donor atom, acceptor molecule, acceptor atom, score
      L1  H     1    31       P1  7948  0.86
      P1  H  7997  8009       L1    22  1.00

> <Gold.PLP.Chemscore.Internal.Correction>
0.3795

> <Gold.Rescore>
     Score         DG    S(hbond)    S(metal)    S(lipo)     H(rot)  DE(clash)    DE(int)     intcor
     14.79     -17.73       1.89        0.00     123.36       3.32       0.21       2.73       ----

> <Gold.Chemscore.Fitness>
14.7870

> <Gold.Chemscore.DG>
-17.7335

> <Gold.Chemscore.ZeroCoef>
-5.4800

> <Gold.Chemscore.Hbond>
1.8923

> <Gold.Chemscore.Metal>
0.0000

> <Gold.Chemscore.Lipo>
123.3598

> <Gold.Chemscore.Internal_Hbond>
0.0000

> <Gold.Chemscore.DEClash>
0.2136

> <Gold.Chemscore.DEInternal>
2.7329

> <Gold.Chemscore.Rot>
3.3203

> <Gold.Chemscore.Internal.Correction>
   9.000000E+99

> <Gold.Chemscore.Hbonds>
donor molecule, donor type, donor heavy atom, donor atom, acceptor molecule, acceptor atom, score
      L1  H     1    31       P1  7948  0.79
      P1  H  6933  6945       L1    21  0.01
      P1  H  7997  8009       L1    22  0.82

> <Gold.Chemscore.Hbond.Weighted>
-6.3204

> <Gold.Chemscore.Metal.Weighted>
-0.0000

> <Gold.Chemscore.Lipo.Weighted>
-14.4331

> <Gold.Chemscore.Internal_Hbond.Weighted>
0.0000

> <Gold.Chemscore.DEClash.Weighted>
0.2136

> <Gold.Chemscore.DEInternal.Weighted>
2.7329

> <Gold.Chemscore.Rot.Weighted>
8.5000

> <Gold.Chemscore.Internal.Correction.Weighted>
   9.000000E+99

> <Gold.Protein.RotatedTorsions>
[ 6907 6896 6895 6894 ] final   63.11 input  -60.11 | X-H torsion
[ 7974 7965 7964 7962 ] final  148.99 input  175.53 | X-H torsion
[ 8008 7997 7996 7995 ] final -173.46 input   59.86 | X-H torsion
[ 10167 10162 10161 10158 ] final -144.09 input  -65.29 | X-H torsion
[ 10718 10713 10712 10709 ] final  -12.63 input   66.30 | X-H torsion
[ 10763 10752 10751 10750 ] final   25.90 input  -60.55 | X-H torsion
[ 11005 11000 10999 10996 ] final -121.77 input  -57.11 | X-H torsion

> <Gold.Protein.ActiveResidues>
 VAL166  LYS551  ARG553  GLY616  TRP617  ASP618  TYR619  PRO620  LYS621  CYS622 
 ASP623  PHE694  ASN695  SER759  ASP760  ASP761  ALA762  ILE779  LEU786  VAL792 
 PHE793  MET794  SER795  GLU796  ALA797  LYS798  CYS799  TRP800  GLU811  SER814 

> <Gold.Protein.RotatedAtoms>
  152.4227  134.5925  159.9977 H   0  0  0  0  0  0  0  0  0  0  0  0  # atno 6907 bound_to 6896
  151.6071  133.3345  159.3067 H   0  0  0  0  0  0  0  0  0  0  0  0  # atno 6908 bound_to 6896
  150.8115  134.7311  159.6758 H   0  0  0  0  0  0  0  0  0  0  0  0  # atno 6909 bound_to 6896
  144.8471  139.6224  143.5990 H   0  0  0  0  0  0  0  0  0  0  0  0  # atno 7974 bound_to 7965
  155.9577  140.1138  157.0922 H   0  0  0  0  0  0  0  0  0  0  0  0  # atno 8008 bound_to 7997
  154.4124  140.1188  156.5204 H   0  0  0  0  0  0  0  0  0  0  0  0  # atno 8009 bound_to 7997
  155.6761  140.3473  155.4839 H   0  0  0  0  0  0  0  0  0  0  0  0  # atno 8010 bound_to 7997
  139.7931  143.7938  152.2652 H   0  0  0  0  0  0  0  0  0  0  0  0  # atno 10167 bound_to 10162
  156.6418  130.4930  149.6092 H   0  0  0  0  0  0  0  0  0  0  0  0  # atno 10718 bound_to 10713
  153.0659  135.6572  154.0355 H   0  0  0  0  0  0  0  0  0  0  0  0  # atno 10763 bound_to 10752
  154.0012  135.2937  155.3404 H   0  0  0  0  0  0  0  0  0  0  0  0  # atno 10764 bound_to 10752
  154.7017  135.5242  153.8605 H   0  0  0  0  0  0  0  0  0  0  0  0  # atno 10765 bound_to 10752
  141.0045  134.0354  157.3495 H   0  0  0  0  0  0  0  0  0  0  0  0  # atno 11005 bound_to 11000
  146.2754  139.6739  142.9267 LP  0  0  0  0  0  0  0  0  0  0  0  0  # atno 17320 bound_to 7965
  145.4574  141.0431  143.2770 LP  0  0  0  0  0  0  0  0  0  0  0  0  # atno 17321 bound_to 7965
  139.8035  144.7364  150.9793 LP  0  0  0  0  0  0  0  0  0  0  0  0  # atno 17342 bound_to 10162
  140.7820  143.4321  151.0678 LP  0  0  0  0  0  0  0  0  0  0  0  0  # atno 17343 bound_to 10162
  156.2153  130.6704  151.1312 LP  0  0  0  0  0  0  0  0  0  0  0  0  # atno 17370 bound_to 10713
  157.7168  131.0705  150.6293 LP  0  0  0  0  0  0  0  0  0  0  0  0  # atno 17371 bound_to 10713
  139.9056  135.0178  156.7470 LP  0  0  0  0  0  0  0  0  0  0  0  0  # atno 17394 bound_to 11000
  140.6835  133.9453  155.7924 LP  0  0  0  0  0  0  0  0  0  0  0  0  # atno 17395 bound_to 11000

$$$$
