AV-unprocessed.smi:3179|AV-procd|sdf|12133|dock1
  -GOLD-   2272017573D 1   1.00000     0.00000
 Structure written by MMmdl.
 34 34  0  0  0  0  0  0  0  0  2 V2000
  151.8205  138.4414  154.3107 C   0  0  0  0  0  0  0  0  0  0  0  0
  151.7716  139.6454  155.2551 C   0  0  0  0  0  0  0  0  0  0  0  0
  150.4724  140.3267  155.1811 N   0  3  0  0  0  0  0  0  0  0  0  0
  150.1749  141.5142  155.7440 C   0  0  0  0  0  0  0  0  0  0  0  0
  148.9405  142.0359  155.6042 N   0  0  0  0  0  0  0  0  0  0  0  0
  147.8283  141.4196  154.8692 C   0  0  0  0  0  0  0  0  0  0  0  0
  147.2924  142.3594  153.7857 C   0  0  0  0  0  0  0  0  0  0  0  0
  151.1120  142.1803  156.4464 N   0  0  0  0  0  0  0  0  0  0  0  0
  150.9246  143.4781  157.1087 C   0  0  0  0  0  0  0  0  0  0  0  0
  152.2331  143.9783  157.7317 C   0  0  0  0  0  0  0  0  0  0  0  0
  152.4719  143.4037  159.0875 C   0  0  0  0  0  0  0  0  0  0  0  0
  152.3070  144.0937  160.2194 N   0  0  0  0  0  0  0  0  0  0  0  0
  152.5665  143.3246  161.3566 C   0  0  0  0  0  0  0  0  0  0  0  0
  152.9166  142.0291  161.0727 C   0  0  0  0  0  0  0  0  0  0  0  0
  152.9332  141.7262  159.3569 S   0  0  0  0  0  0  0  0  0  0  0  0
  152.8054  137.9742  154.3302 H   0  0  0  0  0  0  0  0  0  0  0  0
  151.6143  138.7379  153.2819 H   0  0  0  0  0  0  0  0  0  0  0  0
  151.0886  137.6857  154.5972 H   0  0  0  0  0  0  0  0  0  0  0  0
  151.9528  139.3274  156.2819 H   0  0  0  0  0  0  0  0  0  0  0  0
  152.5567  140.3543  154.9916 H   0  0  0  0  0  0  0  0  0  0  0  0
  148.7498  142.9272  156.0395 H   0  0  0  0  0  0  0  0  0  0  0  0
  148.1748  140.4900  154.4172 H   0  0  0  0  0  0  0  0  0  0  0  0
  147.0342  141.1632  155.5706 H   0  0  0  0  0  0  0  0  0  0  0  0
  146.4888  141.8830  153.2237 H   0  0  0  0  0  0  0  0  0  0  0  0
  148.0756  142.6329  153.0779 H   0  0  0  0  0  0  0  0  0  0  0  0
  146.8951  143.2772  154.2203 H   0  0  0  0  0  0  0  0  0  0  0  0
  152.0265  141.7608  156.5336 H   0  0  0  0  0  0  0  0  0  0  0  0
  150.5579  144.1989  156.3771 H   0  0  0  0  0  0  0  0  0  0  0  0
  150.1572  143.3754  157.8765 H   0  0  0  0  0  0  0  0  0  0  0  0
  153.0773  143.7190  157.0918 H   0  0  0  0  0  0  0  0  0  0  0  0
  152.2216  145.0663  157.8089 H   0  0  0  0  0  0  0  0  0  0  0  0
  152.4749  143.7801  162.3315 H   0  0  0  0  0  0  0  0  0  0  0  0
  153.1624  141.2380  161.7656 H   0  0  0  0  0  0  0  0  0  0  0  0
  149.7448  139.8484  154.6692 H   0  0  0  0  0  0  0  0  0  0  0  0
  1  2  1  0  0  0  0
  1 16  1  0  0  0  0
  1 17  1  0  0  0  0
  1 18  1  0  0  0  0
  2  3  1  0  0  0  0
  2 19  1  0  0  0  0
  2 20  1  0  0  0  0
  3  4  2  0  0  0  0
  3 34  1  0  0  0  0
  4  5  1  0  0  0  0
  4  8  1  0  0  0  0
  5  6  1  0  0  0  0
  5 21  1  0  0  0  0
  6  7  1  0  0  0  0
  6 22  1  0  0  0  0
  6 23  1  0  0  0  0
  7 24  1  0  0  0  0
  7 25  1  0  0  0  0
  7 26  1  0  0  0  0
  8  9  1  0  0  0  0
  8 27  1  0  0  0  0
  9 10  1  0  0  0  0
  9 28  1  0  0  0  0
  9 29  1  0  0  0  0
 10 11  1  0  0  0  0
 10 30  1  0  0  0  0
 10 31  1  0  0  0  0
 11 15  1  0  0  0  0
 11 12  2  0  0  0  0
 12 13  1  0  0  0  0
 13 14  2  0  0  0  0
 13 32  1  0  0  0  0
 14 15  1  0  0  0  0
 14 33  1  0  0  0  0
M  CHG  1   3   1
M  END
> <s_m_source_file>
AV-unprocessed.smi

> <i_m_source_file_index>
3179

> <i_lp_mmshare_version>
43012

> <i_f3d_flags>
0

> <s_epik_input>
W0NIM11bQ0gyXS9OPUMoXFtOSF1bQ0gyXVtDSDNdKVtOSF1bQ0gyXVtDSDJdYzFuW2NIXVtjSF1zMQ==

> <s_epik_cmdline>
J2VwaWtfcHl0aG9uJywgJy1waCcsICc3LjAnLCAnLXRuJywgJzgnLCAnLW1hJywgJzIwMCcsICctbWV0YWxfYmluZGluZycsICctaW1hZScsICc8aW5maWxlLm1hZT4nLCAnLW9tYWUnLCAnPG91dGZpbGUubWFlPic=

> <r_lp_tautomer_probability>
1

> <r_epik_Ionization_Penalty>
3.28801e-05

> <r_epik_Ionization_Penalty_Charging>
8.99277e-08

> <r_epik_Ionization_Penalty_Neutral>
3.27902e-05

> <r_epik_State_Penalty>
-0

> <r_epik_Charging_Adjusted_Penalty>
8.99277e-08

> <i_epik_Tot_Q>
1

> <i_epik_Tot_abs_Q>
1

> <r_epik_Metal_State_Penalty>
-0

> <b_epik_Metal_Only>
0

> <s_epik_Chemistry_Notes>
This compound has an imine and may undergo hydrolysis.

> <s_lp_Force_Field>
OPLS_2005

> <r_lp_Energy>
0.365327

> <b_lp_Chiralities_Consistent>
1

> <s_lp_Variant>
AV-unprocessed.smi:3179-2

> <Gold.Version>
5.8.1

> <Gold.Id.Protein>
6NUR|6NUR_protein|mol2

> <Gold.PLP.Fitness>
41.8768

> <Gold.PLP.PLP>
-37.6557

> <Gold.PLP.part.hbond>
-1.0000

> <Gold.PLP.part.metal>
0.0000

> <Gold.PLP.part.buried>
-1.7575

> <Gold.PLP.part.nonpolar>
-35.1844

> <Gold.PLP.part.repulsive>
0.4308

> <Gold.PLP.ligand.clash>
0.0000

> <Gold.PLP.ligand.torsion>
0.3517

> <Gold.PLP.Chemscore.Hbond>
1.6320

> <Gold.PLP.Chemscore.CHOScore>
0.0000

> <Gold.PLP.Chemscore.Metal>
0.0000

> <Gold.Chemscore.Hbonds>
donor molecule, donor type, donor heavy atom, donor atom, acceptor molecule, acceptor atom, score
      L1  H     5    21       P1  8028  1.57

> <Gold.PLP.Chemscore.Internal.Correction>
0.0285

> <Gold.Rescore>
     Score         DG    S(hbond)    S(metal)    S(lipo)     H(rot)  DE(clash)    DE(int)     intcor
     13.86     -15.79       0.86        0.00     101.10       1.72       1.84       0.09       ----

> <Gold.Chemscore.Fitness>
13.8553

> <Gold.Chemscore.DG>
-15.7905

> <Gold.Chemscore.ZeroCoef>
-5.4800

> <Gold.Chemscore.Hbond>
0.8627

> <Gold.Chemscore.Metal>
0.0000

> <Gold.Chemscore.Lipo>
101.1026

> <Gold.Chemscore.Internal_Hbond>
0.0000

> <Gold.Chemscore.DEClash>
1.8407

> <Gold.Chemscore.DEInternal>
0.0946

> <Gold.Chemscore.Rot>
1.7187

> <Gold.Chemscore.Internal.Correction>
   9.000000E+99

> <Gold.Chemscore.Hbonds>
donor molecule, donor type, donor heavy atom, donor atom, acceptor molecule, acceptor atom, score
      L1  H     5    21       P1  8028  0.78

> <Gold.Chemscore.Hbond.Weighted>
-2.8813

> <Gold.Chemscore.Metal.Weighted>
-0.0000

> <Gold.Chemscore.Lipo.Weighted>
-11.8290

> <Gold.Chemscore.Internal_Hbond.Weighted>
0.0000

> <Gold.Chemscore.DEClash.Weighted>
1.8407

> <Gold.Chemscore.DEInternal.Weighted>
0.0946

> <Gold.Chemscore.Rot.Weighted>
4.3998

> <Gold.Chemscore.Internal.Correction.Weighted>
   9.000000E+99

> <Gold.Protein.RotatedTorsions>
[ 6907 6896 6895 6894 ] final   37.45 input  -60.11 | X-H torsion
[ 7974 7965 7964 7962 ] final  -99.24 input  175.53 | X-H torsion
[ 8008 7997 7996 7995 ] final  -95.30 input   59.86 | X-H torsion
[ 10167 10162 10161 10158 ] final   63.07 input  -65.29 | X-H torsion
[ 10718 10713 10712 10709 ] final -118.32 input   66.30 | X-H torsion
[ 10763 10752 10751 10750 ] final  152.03 input  -60.55 | X-H torsion
[ 11005 11000 10999 10996 ] final  139.17 input  -57.11 | X-H torsion

> <Gold.Protein.ActiveResidues>
 VAL166  LYS551  ARG553  GLY616  TRP617  ASP618  TYR619  PRO620  LYS621  CYS622 
 ASP623  PHE694  ASN695  SER759  ASP760  ASP761  ALA762  ILE779  LEU786  VAL792 
 PHE793  MET794  SER795  GLU796  ALA797  LYS798  CYS799  TRP800  GLU811  SER814 

> <Gold.Protein.RotatedAtoms>
  152.1434  134.9045  160.0552 H   0  0  0  0  0  0  0  0  0  0  0  0  # atno 6907 bound_to 6896
  152.0104  133.3854  159.4226 H   0  0  0  0  0  0  0  0  0  0  0  0  # atno 6908 bound_to 6896
  150.6867  134.3658  159.5014 H   0  0  0  0  0  0  0  0  0  0  0  0  # atno 6909 bound_to 6896
  145.3102  140.9398  143.2774 H   0  0  0  0  0  0  0  0  0  0  0  0  # atno 7974 bound_to 7965
  154.7595  140.0481  157.0961 H   0  0  0  0  0  0  0  0  0  0  0  0  # atno 8008 bound_to 7997
  154.9955  140.3118  155.4869 H   0  0  0  0  0  0  0  0  0  0  0  0  # atno 8009 bound_to 7997
  156.2901  140.2211  156.5062 H   0  0  0  0  0  0  0  0  0  0  0  0  # atno 8010 bound_to 7997
  140.1370  144.4589  150.6832 H   0  0  0  0  0  0  0  0  0  0  0  0  # atno 10167 bound_to 10162
  156.1098  130.6239  150.9276 H   0  0  0  0  0  0  0  0  0  0  0  0  # atno 10718 bound_to 10713
  154.1133  135.2837  155.3225 H   0  0  0  0  0  0  0  0  0  0  0  0  # atno 10763 bound_to 10752
  154.6474  135.5381  153.7864 H   0  0  0  0  0  0  0  0  0  0  0  0  # atno 10764 bound_to 10752
  153.0338  135.6501  154.1291 H   0  0  0  0  0  0  0  0  0  0  0  0  # atno 10765 bound_to 10752
  140.0235  134.9385  157.0522 H   0  0  0  0  0  0  0  0  0  0  0  0  # atno 11005 bound_to 11000
  144.9022  139.4635  143.6627 LP  0  0  0  0  0  0  0  0  0  0  0  0  # atno 17320 bound_to 7965
  146.3120  139.7782  142.9012 LP  0  0  0  0  0  0  0  0  0  0  0  0  # atno 17321 bound_to 7965
  140.6783  143.2315  151.5450 LP  0  0  0  0  0  0  0  0  0  0  0  0  # atno 17342 bound_to 10162
  139.5491  144.2443  152.1497 LP  0  0  0  0  0  0  0  0  0  0  0  0  # atno 17343 bound_to 10162
  157.6278  131.0924  150.8500 LP  0  0  0  0  0  0  0  0  0  0  0  0  # atno 17370 bound_to 10713
  156.8613  130.5114  149.5303 LP  0  0  0  0  0  0  0  0  0  0  0  0  # atno 17371 bound_to 10713
  140.4346  134.1745  155.7170 LP  0  0  0  0  0  0  0  0  0  0  0  0  # atno 17394 bound_to 11000
  141.1788  133.8457  157.1328 LP  0  0  0  0  0  0  0  0  0  0  0  0  # atno 17395 bound_to 11000

$$$$
