AV-unprocessed.smi:1803|AV-procd|sdf|7279|dock1
  -GOLD-   22720 8543D 1   1.00000     0.00000
 Structure written by MMmdl.
 36 38  0  0  0  0  0  0  0  0  2 V2000
  150.3848  134.1905  155.6212 O   0  0  0  0  0  0  0  0  0  0  0  0
  149.8703  134.7836  154.6749 C   0  0  0  0  0  0  0  0  0  0  0  0
  150.2144  136.0561  154.3818 N   0  0  0  0  0  0  0  0  0  0  0  0
  151.1356  136.9552  154.9950 C   0  0  0  0  0  0  0  0  0  0  0  0
  151.9882  136.6205  155.9774 N   0  0  0  0  0  0  0  0  0  0  0  0
  152.7746  137.6927  156.3760 N   0  0  0  0  0  0  0  0  0  0  0  0
  152.4916  138.7944  155.6754 C   0  0  0  0  0  0  0  0  0  0  0  0
  151.2370  138.6274  154.4603 S   0  0  0  0  0  0  0  0  0  0  0  0
  148.9501  134.2154  153.8784 N   0  0  0  0  0  0  0  0  0  0  0  0
  148.4266  132.8602  154.0137 C   0  0  2  0  0  0  0  0  0  0  0  0
  149.5220  131.8048  154.1077 C   0  0  0  0  0  0  0  0  0  0  0  0
  148.7709  130.5259  153.7349 C   0  0  0  0  0  0  0  0  0  0  0  0
  147.7501  130.9285  152.7401 N   0  3  1  0  0  0  0  0  0  0  0  0
  146.4760  130.1732  152.8232 C   0  0  0  0  0  0  0  0  0  0  0  0
  145.4874  130.6511  151.7435 C   0  0  0  0  0  0  0  0  0  0  0  0
  145.3226  132.1851  151.7093 C   0  0  0  0  0  0  0  0  0  0  0  0
  146.1497  132.8882  152.7967 C   0  0  0  0  0  0  0  0  0  0  0  0
  147.6204  132.4129  152.7825 C   0  0  1  0  0  0  0  0  0  0  0  0
  149.7497  136.4338  153.5685 H   0  0  0  0  0  0  0  0  0  0  0  0
  153.0265  139.7114  155.8744 H   0  0  0  0  0  0  0  0  0  0  0  0
  148.5814  134.7726  153.1203 H   0  0  0  0  0  0  0  0  0  0  0  0
  147.8086  132.7798  154.9107 H   0  0  0  0  0  0  0  0  0  0  0  0
  150.3085  132.0027  153.3774 H   0  0  0  0  0  0  0  0  0  0  0  0
  149.9807  131.7531  155.0958 H   0  0  0  0  0  0  0  0  0  0  0  0
  149.4306  129.7536  153.3388 H   0  0  0  0  0  0  0  0  0  0  0  0
  148.2843  130.1240  154.6251 H   0  0  0  0  0  0  0  0  0  0  0  0
  146.6762  129.1082  152.7009 H   0  0  0  0  0  0  0  0  0  0  0  0
  146.0378  130.2981  153.8148 H   0  0  0  0  0  0  0  0  0  0  0  0
  145.8292  130.3087  150.7659 H   0  0  0  0  0  0  0  0  0  0  0  0
  144.5185  130.1771  151.9041 H   0  0  0  0  0  0  0  0  0  0  0  0
  145.6325  132.5555  150.7313 H   0  0  0  0  0  0  0  0  0  0  0  0
  144.2707  132.4528  151.8132 H   0  0  0  0  0  0  0  0  0  0  0  0
  146.1019  133.9683  152.6561 H   0  0  0  0  0  0  0  0  0  0  0  0
  145.7016  132.6922  153.7718 H   0  0  0  0  0  0  0  0  0  0  0  0
  148.1053  132.7827  151.8772 H   0  0  0  0  0  0  0  0  0  0  0  0
  148.1399  130.7219  151.8314 H   0  0  0  0  0  0  0  0  0  0  0  0
  1  2  2  0  0  0  0
  2  3  1  0  0  0  0
  2  9  1  0  0  0  0
  3  4  1  0  0  0  0
  3 19  1  0  0  0  0
  4  8  1  0  0  0  0
  4  5  2  0  0  0  0
  5  6  1  0  0  0  0
  6  7  2  0  0  0  0
  7  8  1  0  0  0  0
  7 20  1  0  0  0  0
  9 10  1  0  0  0  0
  9 21  1  0  0  0  0
 10 18  1  0  0  0  0
 10 11  1  0  0  0  0
 10 22  1  0  0  0  0
 11 12  1  0  0  0  0
 11 23  1  0  0  0  0
 11 24  1  0  0  0  0
 12 13  1  0  0  0  0
 12 25  1  0  0  0  0
 12 26  1  0  0  0  0
 13 18  1  0  0  0  0
 13 14  1  0  0  0  0
 13 36  1  0  0  0  0
 14 15  1  0  0  0  0
 14 27  1  0  0  0  0
 14 28  1  0  0  0  0
 15 16  1  0  0  0  0
 15 29  1  0  0  0  0
 15 30  1  0  0  0  0
 16 17  1  0  0  0  0
 16 31  1  0  0  0  0
 16 32  1  0  0  0  0
 17 18  1  0  0  0  0
 17 33  1  0  0  0  0
 17 34  1  0  0  0  0
 18 35  1  0  0  0  0
M  CHG  1  13   1
M  END
> <s_m_source_file>
AV-unprocessed.smi

> <i_m_source_file_index>
1803

> <i_lp_mmshare_version>
43012

> <i_f3d_flags>
0

> <s_epik_input>
czFbY0hdbm5jMVtOSF1DKD1PKVtOSF1bQ0BIXShbQ0gyXVtDSDJdMilbQ0BASF0oTjIzKVtDSDJdW0NIMl1bQ0gyXVtDSDJdMw==

> <s_epik_cmdline>
J2VwaWtfcHl0aG9uJywgJy1waCcsICc3LjAnLCAnLXRuJywgJzgnLCAnLW1hJywgJzIwMCcsICctbWV0YWxfYmluZGluZycsICctaW1hZScsICc8aW5maWxlLm1hZT4nLCAnLW9tYWUnLCAnPG91dGZpbGUubWFlPic=

> <r_lp_tautomer_probability>
1

> <r_epik_Ionization_Penalty>
0.00213286

> <r_epik_Ionization_Penalty_Charging>
0.00107044

> <r_epik_Ionization_Penalty_Neutral>
0.00106242

> <r_epik_State_Penalty>
-0

> <r_epik_Charging_Adjusted_Penalty>
0.00107044

> <i_epik_Tot_Q>
1

> <i_epik_Tot_abs_Q>
1

> <r_epik_Metal_State_Penalty>
0.292783

> <b_epik_Metal_Only>
0

> <s_lp_Force_Field>
OPLS_2005

> <r_lp_Energy>
41.2334

> <b_lp_Chiralities_Consistent>
1

> <s_lp_Variant>
AV-unprocessed.smi:1803-1

> <Gold.Version>
5.8.1

> <Gold.Id.Protein>
6NUR|6NUR_protein|mol2

> <Gold.PLP.Fitness>
44.0308

> <Gold.PLP.PLP>
-32.5582

> <Gold.PLP.part.hbond>
-4.9027

> <Gold.PLP.part.metal>
0.0000

> <Gold.PLP.part.buried>
-3.3455

> <Gold.PLP.part.nonpolar>
-24.6089

> <Gold.PLP.part.repulsive>
0.1341

> <Gold.PLP.ligand.clash>
0.0000

> <Gold.PLP.ligand.torsion>
0.1118

> <Gold.PLP.Chemscore.Hbond>
3.8960

> <Gold.PLP.Chemscore.CHOScore>
0.0000

> <Gold.PLP.Chemscore.Metal>
0.0000

> <Gold.Chemscore.Hbonds>
donor molecule, donor type, donor heavy atom, donor atom, acceptor molecule, acceptor atom, score
      L1  H     3    19       P1  7948  1.00
      L1  H     9    21       P1  7948  0.90
      L1  H    13    36       P1 10747  1.00
      P1  H 10752 10764       L1     5  1.00

> <Gold.PLP.Chemscore.Internal.Correction>
0.0083

> <Gold.Rescore>
     Score         DG    S(hbond)    S(metal)    S(lipo)     H(rot)  DE(clash)    DE(int)     intcor
     16.75     -19.49       2.67        0.00      65.39       1.00       0.03       2.70       ----

> <Gold.Chemscore.Fitness>
16.7524

> <Gold.Chemscore.DG>
-19.4873

> <Gold.Chemscore.ZeroCoef>
-5.4800

> <Gold.Chemscore.Hbond>
2.6696

> <Gold.Chemscore.Metal>
0.0000

> <Gold.Chemscore.Lipo>
65.3905

> <Gold.Chemscore.Internal_Hbond>
0.0000

> <Gold.Chemscore.DEClash>
0.0330

> <Gold.Chemscore.DEInternal>
2.7019

> <Gold.Chemscore.Rot>
1.0000

> <Gold.Chemscore.Internal.Correction>
   9.000000E+99

> <Gold.Chemscore.Hbonds>
donor molecule, donor type, donor heavy atom, donor atom, acceptor molecule, acceptor atom, score
      L1  H     3    19       P1  7948  0.33
      L1  H     9    21       P1  7948  0.39
      L1  H    13    36       P1 10747  1.00
      P1  H 10752 10764       L1     5  0.15

> <Gold.Chemscore.Hbond.Weighted>
-8.9166

> <Gold.Chemscore.Metal.Weighted>
-0.0000

> <Gold.Chemscore.Lipo.Weighted>
-7.6507

> <Gold.Chemscore.Internal_Hbond.Weighted>
0.0000

> <Gold.Chemscore.DEClash.Weighted>
0.0330

> <Gold.Chemscore.DEInternal.Weighted>
2.7019

> <Gold.Chemscore.Rot.Weighted>
2.5600

> <Gold.Chemscore.Internal.Correction.Weighted>
   9.000000E+99

> <Gold.Protein.RotatedTorsions>
[ 6907 6896 6895 6894 ] final -175.61 input  -60.11 | X-H torsion
[ 7974 7965 7964 7962 ] final  136.55 input  175.53 | X-H torsion
[ 8008 7997 7996 7995 ] final  145.18 input   59.86 | X-H torsion
[ 10167 10162 10161 10158 ] final   88.91 input  -65.29 | X-H torsion
[ 10718 10713 10712 10709 ] final -155.99 input   66.30 | X-H torsion
[ 10763 10752 10751 10750 ] final  -26.23 input  -60.55 | X-H torsion
[ 11005 11000 10999 10996 ] final  172.93 input  -57.11 | X-H torsion

> <Gold.Protein.ActiveResidues>
 VAL166  LYS551  ARG553  GLY616  TRP617  ASP618  TYR619  PRO620  LYS621  CYS622 
 ASP623  PHE694  ASN695  SER759  ASP760  ASP761  ALA762  ILE779  LEU786  VAL792 
 PHE793  MET794  SER795  GLU796  ALA797  LYS798  CYS799  TRP800  GLU811  SER814 

> <Gold.Protein.RotatedAtoms>
  151.5913  133.3366  159.3028 H   0  0  0  0  0  0  0  0  0  0  0  0  # atno 6907 bound_to 6896
  150.8258  134.7492  159.6823 H   0  0  0  0  0  0  0  0  0  0  0  0  # atno 6908 bound_to 6896
  152.4348  134.5714  159.9974 H   0  0  0  0  0  0  0  0  0  0  0  0  # atno 6909 bound_to 6896
  144.9554  139.4770  143.5505 H   0  0  0  0  0  0  0  0  0  0  0  0  # atno 7974 bound_to 7965
  156.2889  140.2216  156.5174 H   0  0  0  0  0  0  0  0  0  0  0  0  # atno 8008 bound_to 7997
  154.7557  140.0477  157.0953 H   0  0  0  0  0  0  0  0  0  0  0  0  # atno 8009 bound_to 7997
  155.0053  140.3106  155.4854 H   0  0  0  0  0  0  0  0  0  0  0  0  # atno 8010 bound_to 7997
  139.8625  144.6536  150.9042 H   0  0  0  0  0  0  0  0  0  0  0  0  # atno 10167 bound_to 10162
  156.5205  130.8475  151.2680 H   0  0  0  0  0  0  0  0  0  0  0  0  # atno 10718 bound_to 10713
  153.7126  135.6950  153.5033 H   0  0  0  0  0  0  0  0  0  0  0  0  # atno 10763 bound_to 10752
  153.2262  135.4353  155.0543 H   0  0  0  0  0  0  0  0  0  0  0  0  # atno 10764 bound_to 10752
  154.8310  135.3472  154.6662 H   0  0  0  0  0  0  0  0  0  0  0  0  # atno 10765 bound_to 10752
  140.3350  134.7325  157.4162 H   0  0  0  0  0  0  0  0  0  0  0  0  # atno 11005 bound_to 11000
  146.3335  139.8668  142.8847 LP  0  0  0  0  0  0  0  0  0  0  0  0  # atno 17320 bound_to 7965
  145.2780  141.0130  143.3734 LP  0  0  0  0  0  0  0  0  0  0  0  0  # atno 17321 bound_to 7965
  140.7773  143.3732  151.1611 LP  0  0  0  0  0  0  0  0  0  0  0  0  # atno 17342 bound_to 10162
  139.7360  143.8998  152.3035 LP  0  0  0  0  0  0  0  0  0  0  0  0  # atno 17343 bound_to 10162
  157.7437  130.9919  150.2617 LP  0  0  0  0  0  0  0  0  0  0  0  0  # atno 17370 bound_to 10713
  156.3154  130.3778  149.7623 LP  0  0  0  0  0  0  0  0  0  0  0  0  # atno 17371 bound_to 10713
  140.0828  134.5707  155.8522 LP  0  0  0  0  0  0  0  0  0  0  0  0  # atno 17394 bound_to 11000
  141.2053  133.6646  156.6175 LP  0  0  0  0  0  0  0  0  0  0  0  0  # atno 17395 bound_to 11000

$$$$
