AV-unprocessed.smi:1834|AV-procd|sdf|7469|dock1
  -GOLD-   22720 9163D 1   1.00000     0.00000
 Structure written by MMmdl.
 46 47  0  0  0  0  0  0  0  0  2 V2000
  146.9165  128.3784  151.9823 C   0  0  0  0  0  0  0  0  0  0  0  0
  147.4744  129.2156  153.1426 C   0  0  0  0  0  0  0  0  0  0  0  0
  147.6835  130.6382  152.7720 N   0  3  1  0  0  0  0  0  0  0  0  0
  146.4138  131.3069  152.3897 C   0  0  0  0  0  0  0  0  0  0  0  0
  146.6744  132.7296  151.8745 C   0  0  0  0  0  0  0  0  0  0  0  0
  147.4322  133.5614  152.9159 C   0  0  0  0  0  0  0  0  0  0  0  0
  148.7338  132.8487  153.3362 C   0  0  1  0  0  0  0  0  0  0  0  0
  149.5166  133.6146  154.4246 C   0  0  0  0  0  0  0  0  0  0  0  0
  149.6132  135.0460  154.1488 N   0  0  0  0  0  0  0  0  0  0  0  0
  150.3179  135.9308  154.8701 C   0  0  0  0  0  0  0  0  0  0  0  0
  150.9553  135.6274  155.8787 O   0  0  0  0  0  0  0  0  0  0  0  0
  150.2254  137.1662  154.3479 N   0  0  0  0  0  0  0  0  0  0  0  0
  150.7909  138.3204  154.7916 C   0  0  0  0  0  0  0  0  0  0  0  0
  150.1820  139.4621  155.2363 C   0  0  0  0  0  0  0  0  0  0  0  0
  151.2874  140.3040  155.5533 C   0  0  0  0  0  0  0  0  0  0  0  0
  151.2580  141.7028  156.0949 C   0  0  0  0  0  0  0  0  0  0  0  0
  152.4585  139.7227  155.3184 N   0  0  0  0  0  0  0  0  0  0  0  0
  152.1560  138.4940  154.8466 N   0  0  0  0  0  0  0  0  0  0  0  0
  153.2164  137.5746  154.4828 C   0  0  0  0  0  0  0  0  0  0  0  0
  148.4166  131.4134  153.8091 C   0  0  0  0  0  0  0  0  0  0  0  0
  146.6865  127.3667  152.3176 H   0  0  0  0  0  0  0  0  0  0  0  0
  147.6254  128.2901  151.1597 H   0  0  0  0  0  0  0  0  0  0  0  0
  145.9962  128.8120  151.5903 H   0  0  0  0  0  0  0  0  0  0  0  0
  146.7571  129.1608  153.9625 H   0  0  0  0  0  0  0  0  0  0  0  0
  148.4039  128.7845  153.5175 H   0  0  0  0  0  0  0  0  0  0  0  0
  145.9121  130.7328  151.6096 H   0  0  0  0  0  0  0  0  0  0  0  0
  145.7404  131.3331  153.2481 H   0  0  0  0  0  0  0  0  0  0  0  0
  147.2509  132.6855  150.9495 H   0  0  0  0  0  0  0  0  0  0  0  0
  145.7298  133.2151  151.6272 H   0  0  0  0  0  0  0  0  0  0  0  0
  147.6464  134.5448  152.4973 H   0  0  0  0  0  0  0  0  0  0  0  0
  146.7992  133.7253  153.7893 H   0  0  0  0  0  0  0  0  0  0  0  0
  149.3755  132.7746  152.4564 H   0  0  0  0  0  0  0  0  0  0  0  0
  149.0761  133.4351  155.4070 H   0  0  0  0  0  0  0  0  0  0  0  0
  150.5355  133.2299  154.4799 H   0  0  0  0  0  0  0  0  0  0  0  0
  149.1187  135.3853  153.3365 H   0  0  0  0  0  0  0  0  0  0  0  0
  149.6701  137.2555  153.5098 H   0  0  0  0  0  0  0  0  0  0  0  0
  149.1286  139.6804  155.3280 H   0  0  0  0  0  0  0  0  0  0  0  0
  150.2343  142.0411  156.2569 H   0  0  0  0  0  0  0  0  0  0  0  0
  151.7327  142.4007  155.4049 H   0  0  0  0  0  0  0  0  0  0  0  0
  151.7824  141.7657  157.0487 H   0  0  0  0  0  0  0  0  0  0  0  0
  153.0959  136.6407  155.0325 H   0  0  0  0  0  0  0  0  0  0  0  0
  154.1927  137.9996  154.7207 H   0  0  0  0  0  0  0  0  0  0  0  0
  153.1709  137.3686  153.4129 H   0  0  0  0  0  0  0  0  0  0  0  0
  147.8245  131.4409  154.7255 H   0  0  0  0  0  0  0  0  0  0  0  0
  149.3510  130.9101  154.0555 H   0  0  0  0  0  0  0  0  0  0  0  0
  148.2600  130.6353  151.9426 H   0  0  0  0  0  0  0  0  0  0  0  0
  1  2  1  0  0  0  0
  1 21  1  0  0  0  0
  1 22  1  0  0  0  0
  1 23  1  0  0  0  0
  2  3  1  0  0  0  0
  2 24  1  0  0  0  0
  2 25  1  0  0  0  0
  3 20  1  0  0  0  0
  3  4  1  0  0  0  0
  3 46  1  0  0  0  0
  4  5  1  0  0  0  0
  4 26  1  0  0  0  0
  4 27  1  0  0  0  0
  5  6  1  0  0  0  0
  5 28  1  0  0  0  0
  5 29  1  0  0  0  0
  6  7  1  0  0  0  0
  6 30  1  0  0  0  0
  6 31  1  0  0  0  0
  7  8  1  0  0  0  0
  7 20  1  0  0  0  0
  7 32  1  0  0  0  0
  8  9  1  0  0  0  0
  8 33  1  0  0  0  0
  8 34  1  0  0  0  0
  9 10  1  0  0  0  0
  9 35  1  0  0  0  0
 10 11  2  0  0  0  0
 10 12  1  0  0  0  0
 12 13  1  0  0  0  0
 12 36  1  0  0  0  0
 13 18  1  0  0  0  0
 13 14  2  0  0  0  0
 14 15  1  0  0  0  0
 14 37  1  0  0  0  0
 15 16  1  0  0  0  0
 15 17  2  0  0  0  0
 16 38  1  0  0  0  0
 16 39  1  0  0  0  0
 16 40  1  0  0  0  0
 17 18  1  0  0  0  0
 18 19  1  0  0  0  0
 19 41  1  0  0  0  0
 19 42  1  0  0  0  0
 19 43  1  0  0  0  0
 20 44  1  0  0  0  0
 20 45  1  0  0  0  0
M  CHG  1   3   1
M  END
> <s_m_source_file>
AV-unprocessed.smi

> <i_m_source_file_index>
1834

> <i_lp_mmshare_version>
43012

> <i_f3d_flags>
0

> <s_epik_input>
W0NIM11bQ0gyXU4xW0NIMl1bQ0gyXVtDSDJdW0NASF0oW0NIMl0xKVtDSDJdW05IXUMoPU8pW05IXWMyW2NIXWMoW0NIM10pbm4yW0NIM10=

> <s_epik_cmdline>
J2VwaWtfcHl0aG9uJywgJy1waCcsICc3LjAnLCAnLXRuJywgJzgnLCAnLW1hJywgJzIwMCcsICctbWV0YWxfYmluZGluZycsICctaW1hZScsICc8aW5maWxlLm1hZT4nLCAnLW9tYWUnLCAnPG91dGZpbGUubWFlPic=

> <r_lp_tautomer_probability>
1

> <r_epik_Ionization_Penalty>
0.000466842

> <r_epik_Ionization_Penalty_Charging>
0.000378984

> <r_epik_Ionization_Penalty_Neutral>
8.78572e-05

> <r_epik_State_Penalty>
0.000231434

> <r_epik_Charging_Adjusted_Penalty>
0.000610418

> <i_epik_Tot_Q>
1

> <i_epik_Tot_abs_Q>
1

> <r_epik_Metal_State_Penalty>
-0

> <b_epik_Metal_Only>
0

> <s_lp_Force_Field>
OPLS_2005

> <r_lp_Energy>
20.6354

> <b_lp_Chiralities_Consistent>
1

> <s_lp_Variant>
AV-unprocessed.smi:1834-1

> <Gold.Version>
5.8.1

> <Gold.Id.Protein>
6NUR|6NUR_protein|mol2

> <Gold.PLP.Fitness>
48.4127

> <Gold.PLP.PLP>
-36.3063

> <Gold.PLP.part.hbond>
-7.0266

> <Gold.PLP.part.metal>
0.0000

> <Gold.PLP.part.buried>
2.3062

> <Gold.PLP.part.nonpolar>
-31.0575

> <Gold.PLP.part.repulsive>
0.1876

> <Gold.PLP.ligand.clash>
0.0000

> <Gold.PLP.ligand.torsion>
0.7162

> <Gold.PLP.Chemscore.Hbond>
4.5013

> <Gold.PLP.Chemscore.CHOScore>
0.0000

> <Gold.PLP.Chemscore.Metal>
0.0000

> <Gold.Chemscore.Hbonds>
donor molecule, donor type, donor heavy atom, donor atom, acceptor molecule, acceptor atom, score
      L1  H     3    46       P1 10747  1.00
      L1  H     9    35       P1  7948  1.00
      L1  H    12    36       P1  7948  0.86
      P1  H  7997  8008       L1    17  0.80
      P1  H 10752 10764       L1    11  0.28

> <Gold.PLP.Chemscore.Internal.Correction>
0.0348

> <Gold.Rescore>
     Score         DG    S(hbond)    S(metal)    S(lipo)     H(rot)  DE(clash)    DE(int)     intcor
     20.36     -23.44       3.63        0.00      81.22       1.43       2.40       0.68       ----

> <Gold.Chemscore.Fitness>
20.3628

> <Gold.Chemscore.DG>
-23.4361

> <Gold.Chemscore.ZeroCoef>
-5.4800

> <Gold.Chemscore.Hbond>
3.6262

> <Gold.Chemscore.Metal>
0.0000

> <Gold.Chemscore.Lipo>
81.2231

> <Gold.Chemscore.Internal_Hbond>
0.0000

> <Gold.Chemscore.DEClash>
2.3954

> <Gold.Chemscore.DEInternal>
0.6780

> <Gold.Chemscore.Rot>
1.4291

> <Gold.Chemscore.Internal.Correction>
   9.000000E+99

> <Gold.Chemscore.Hbonds>
donor molecule, donor type, donor heavy atom, donor atom, acceptor molecule, acceptor atom, score
      L1  H     3    46       P1 10747  0.98
      L1  H     9    35       P1  7948  0.39
      L1  H    12    36       P1  7948  0.62
      P1  H  7997  8008       L1    17  0.78
      P1  H 10752 10764       L1    11  0.09

> <Gold.Chemscore.Hbond.Weighted>
-12.1115

> <Gold.Chemscore.Metal.Weighted>
-0.0000

> <Gold.Chemscore.Lipo.Weighted>
-9.5031

> <Gold.Chemscore.Internal_Hbond.Weighted>
0.0000

> <Gold.Chemscore.DEClash.Weighted>
2.3954

> <Gold.Chemscore.DEInternal.Weighted>
0.6780

> <Gold.Chemscore.Rot.Weighted>
3.6584

> <Gold.Chemscore.Internal.Correction.Weighted>
   9.000000E+99

> <Gold.Protein.RotatedTorsions>
[ 6907 6896 6895 6894 ] final  111.30 input  -60.11 | X-H torsion
[ 7974 7965 7964 7962 ] final  -51.36 input  175.53 | X-H torsion
[ 8008 7997 7996 7995 ] final  -29.58 input   59.86 | X-H torsion
[ 10167 10162 10161 10158 ] final  154.30 input  -65.29 | X-H torsion
[ 10718 10713 10712 10709 ] final -139.11 input   66.30 | X-H torsion
[ 10763 10752 10751 10750 ] final  -32.48 input  -60.55 | X-H torsion
[ 11005 11000 10999 10996 ] final  106.20 input  -57.11 | X-H torsion

> <Gold.Protein.ActiveResidues>
 VAL166  LYS551  ARG553  GLY616  TRP617  ASP618  TYR619  PRO620  LYS621  CYS622 
 ASP623  PHE694  ASN695  SER759  ASP760  ASP761  ALA762  ILE779  LEU786  VAL792 
 PHE793  MET794  SER795  GLU796  ALA797  LYS798  CYS799  TRP800  GLU811  SER814 

> <Gold.Protein.RotatedAtoms>
  152.4976  133.8677  159.7282 H   0  0  0  0  0  0  0  0  0  0  0  0  # atno 6907 bound_to 6896
  150.9172  133.6915  159.2847 H   0  0  0  0  0  0  0  0  0  0  0  0  # atno 6908 bound_to 6896
  151.4305  135.1013  159.9693 H   0  0  0  0  0  0  0  0  0  0  0  0  # atno 6909 bound_to 6896
  145.9198  140.7844  142.9653 H   0  0  0  0  0  0  0  0  0  0  0  0  # atno 7974 bound_to 7965
  154.4284  140.1814  156.1271 H   0  0  0  0  0  0  0  0  0  0  0  0  # atno 8008 bound_to 7997
  156.0097  140.3352  155.6903 H   0  0  0  0  0  0  0  0  0  0  0  0  # atno 8009 bound_to 7997
  155.6128  140.0652  157.2692 H   0  0  0  0  0  0  0  0  0  0  0  0  # atno 8010 bound_to 7997
  139.4824  144.5198  151.7894 H   0  0  0  0  0  0  0  0  0  0  0  0  # atno 10167 bound_to 10162
  156.3070  130.7461  151.1527 H   0  0  0  0  0  0  0  0  0  0  0  0  # atno 10718 bound_to 10713
  153.8144  135.6879  153.4836 H   0  0  0  0  0  0  0  0  0  0  0  0  # atno 10763 bound_to 10752
  153.1608  135.4580  154.9767 H   0  0  0  0  0  0  0  0  0  0  0  0  # atno 10764 bound_to 10752
  154.7954  135.3317  154.7622 H   0  0  0  0  0  0  0  0  0  0  0  0  # atno 10765 bound_to 10752
  139.8811  134.9361  156.5631 H   0  0  0  0  0  0  0  0  0  0  0  0  # atno 11005 bound_to 11000
  144.6751  140.1957  143.7392 LP  0  0  0  0  0  0  0  0  0  0  0  0  # atno 17320 bound_to 7965
  145.8565  139.2201  143.1741 LP  0  0  0  0  0  0  0  0  0  0  0  0  # atno 17321 bound_to 7965
  140.4711  144.1585  150.5918 LP  0  0  0  0  0  0  0  0  0  0  0  0  # atno 17342 bound_to 10162
  140.4381  143.2538  151.9508 LP  0  0  0  0  0  0  0  0  0  0  0  0  # atno 17343 bound_to 10162
  157.7382  131.0543  150.5309 LP  0  0  0  0  0  0  0  0  0  0  0  0  # atno 17370 bound_to 10713
  156.5444  130.4216  149.6138 LP  0  0  0  0  0  0  0  0  0  0  0  0  # atno 17371 bound_to 10713
  140.8154  133.8395  155.8848 LP  0  0  0  0  0  0  0  0  0  0  0  0  # atno 17394 bound_to 11000
  140.9467  134.1831  157.4758 LP  0  0  0  0  0  0  0  0  0  0  0  0  # atno 17395 bound_to 11000

$$$$
