AV-unprocessed.smi:3112|AV-procd|sdf|11850|dock2
  -GOLD-   2272017233D 1   1.00000     0.00000
 Structure written by MMmdl.
 36 36  0  0  0  0  0  0  0  0  1 V2000
  151.2149  138.9838  154.5437 C   0  0  0  0  0  0  0  0  0  0  0  0
  149.7481  139.2810  154.8832 C   0  0  0  0  0  0  0  0  0  0  0  0
  149.4059  140.7837  154.8379 C   0  0  2  0  0  0  0  0  0  0  0  0
  149.3476  141.2496  153.5045 O   0  0  0  0  0  0  0  0  0  0  0  0
  150.3675  141.6797  155.6409 C   0  0  0  0  0  0  0  0  0  0  0  0
  149.7261  142.2712  156.8185 N   0  0  0  0  0  0  0  0  0  0  0  0
  150.4080  142.0142  158.0907 C   0  0  1  0  0  0  0  0  0  0  0  0
  150.4959  140.4891  158.2892 C   0  0  0  0  0  0  0  0  0  0  0  0
  151.8076  142.6980  158.1439 C   0  0  1  0  0  0  0  0  0  0  0  0
  151.8005  144.1965  157.7889 C   0  0  0  0  0  0  0  0  0  0  0  0
  152.4559  142.5078  159.4362 N   0  0  0  0  0  0  0  0  0  0  0  0
  152.1910  143.1526  160.6272 C   0  0  0  0  0  0  0  0  0  0  0  0
  153.0460  142.6480  161.5646 C   0  0  0  0  0  0  0  0  0  0  0  0
  153.8064  141.6852  160.8445 C   0  0  0  0  0  0  0  0  0  0  0  0
  153.4520  141.6028  159.5727 N   0  0  0  0  0  0  0  0  0  0  0  0
  151.4047  137.9104  154.5559 H   0  0  0  0  0  0  0  0  0  0  0  0
  151.8913  139.4461  155.2631 H   0  0  0  0  0  0  0  0  0  0  0  0
  151.4740  139.3554  153.5520 H   0  0  0  0  0  0  0  0  0  0  0  0
  149.1147  138.7498  154.1715 H   0  0  0  0  0  0  0  0  0  0  0  0
  149.5159  138.8687  155.8659 H   0  0  0  0  0  0  0  0  0  0  0  0
  148.4087  140.9216  155.2577 H   0  0  0  0  0  0  0  0  0  0  0  0
  149.2990  140.5030  152.9276 H   0  0  0  0  0  0  0  0  0  0  0  0
  151.2555  141.1116  155.9109 H   0  0  0  0  0  0  0  0  0  0  0  0
  150.7162  142.4820  154.9897 H   0  0  0  0  0  0  0  0  0  0  0  0
  149.6395  143.2724  156.6773 H   0  0  0  0  0  0  0  0  0  0  0  0
  149.7988  142.3994  158.9099 H   0  0  0  0  0  0  0  0  0  0  0  0
  150.8754  140.2288  159.2773 H   0  0  0  0  0  0  0  0  0  0  0  0
  151.1506  140.0290  157.5483 H   0  0  0  0  0  0  0  0  0  0  0  0
  149.5134  140.0250  158.1976 H   0  0  0  0  0  0  0  0  0  0  0  0
  152.4430  142.2009  157.4089 H   0  0  0  0  0  0  0  0  0  0  0  0
  151.5596  144.3550  156.7383 H   0  0  0  0  0  0  0  0  0  0  0  0
  152.7824  144.6416  157.9539 H   0  0  0  0  0  0  0  0  0  0  0  0
  151.0801  144.7487  158.3929 H   0  0  0  0  0  0  0  0  0  0  0  0
  151.4253  143.9099  160.7077 H   0  0  0  0  0  0  0  0  0  0  0  0
  153.1173  142.9245  162.6058 H   0  0  0  0  0  0  0  0  0  0  0  0
  154.6001  141.0481  161.2057 H   0  0  0  0  0  0  0  0  0  0  0  0
  1  2  1  0  0  0  0
  1 16  1  0  0  0  0
  1 17  1  0  0  0  0
  1 18  1  0  0  0  0
  2  3  1  0  0  0  0
  2 19  1  0  0  0  0
  2 20  1  0  0  0  0
  3  4  1  0  0  0  0
  3  5  1  0  0  0  0
  3 21  1  0  0  0  0
  4 22  1  0  0  0  0
  5  6  1  0  0  0  0
  5 23  1  0  0  0  0
  5 24  1  0  0  0  0
  6  7  1  0  0  0  0
  6 25  1  0  0  0  0
  7  8  1  0  0  0  0
  7  9  1  0  0  0  0
  7 26  1  0  0  0  0
  8 27  1  0  0  0  0
  8 28  1  0  0  0  0
  8 29  1  0  0  0  0
  9 10  1  0  0  0  0
  9 11  1  0  0  0  0
  9 30  1  0  0  0  0
 10 31  1  0  0  0  0
 10 32  1  0  0  0  0
 10 33  1  0  0  0  0
 11 15  1  0  0  0  0
 11 12  1  0  0  0  0
 12 13  2  0  0  0  0
 12 34  1  0  0  0  0
 13 14  1  0  0  0  0
 13 35  1  0  0  0  0
 14 15  2  0  0  0  0
 14 36  1  0  0  0  0
M  END
> <s_m_source_file>
AV-unprocessed.smi

> <i_m_source_file_index>
3112

> <i_lp_mmshare_version>
43012

> <i_f3d_flags>
0

> <s_epik_input>
W0NIM11bQ0gyXVtDQEhdKFtPSF0pW0NIMl1bTkhdW0NASF0oW0NIM10pW0NASF0oW0NIM10pbjFbY0hdW2NIXVtjSF1uMQ==

> <s_epik_cmdline>
J2VwaWtfcHl0aG9uJywgJy1waCcsICc3LjAnLCAnLXRuJywgJzgnLCAnLW1hJywgJzIwMCcsICctbWV0YWxfYmluZGluZycsICctaW1hZScsICc8aW5maWxlLm1hZT4nLCAnLW9tYWUnLCAnPG91dGZpbGUubWFlPic=

> <r_lp_tautomer_probability>
1

> <r_epik_Ionization_Penalty>
2.16876

> <r_epik_Ionization_Penalty_Charging>
0

> <r_epik_Ionization_Penalty_Neutral>
2.16876

> <r_epik_State_Penalty>
2.30854

> <r_epik_Charging_Adjusted_Penalty>
2.30854

> <i_epik_Tot_Q>
0

> <i_epik_Tot_abs_Q>
0

> <r_epik_Metal_State_Penalty>
2.3073

> <b_epik_Metal_Only>
0

> <s_lp_Force_Field>
OPLS_2005

> <r_lp_Energy>
23.3331

> <b_lp_Chiralities_Consistent>
1

> <s_lp_Variant>
AV-unprocessed.smi:3112-15

> <Gold.Version>
5.8.1

> <Gold.Id.Protein>
6NUR|6NUR_protein|mol2

> <Gold.PLP.Fitness>
46.2959

> <Gold.PLP.PLP>
-40.8382

> <Gold.PLP.part.hbond>
-4.0000

> <Gold.PLP.part.metal>
0.0000

> <Gold.PLP.part.buried>
-4.2120

> <Gold.PLP.part.nonpolar>
-31.3127

> <Gold.PLP.part.repulsive>
0.0000

> <Gold.PLP.ligand.clash>
0.0000

> <Gold.PLP.ligand.torsion>
1.5017

> <Gold.PLP.Chemscore.Hbond>
2.7219

> <Gold.PLP.Chemscore.CHOScore>
0.0000

> <Gold.PLP.Chemscore.Metal>
0.0000

> <Gold.Chemscore.Hbonds>
donor molecule, donor type, donor heavy atom, donor atom, acceptor molecule, acceptor atom, score
      L1  H     4    22       P1  7957  0.80
      L1  H     6    25       P1  8028  0.98
      P1  H  7989  7998       L1     4  0.01
      P1  H  8011  8017       L1     4  0.89

> <Gold.PLP.Chemscore.Internal.Correction>
0.2956

> <Gold.Rescore>
     Score         DG    S(hbond)    S(metal)    S(lipo)     H(rot)  DE(clash)    DE(int)     intcor
     16.76     -18.71       2.35        0.00      96.45       2.31       0.11       1.84       ----

> <Gold.Chemscore.Fitness>
16.7601

> <Gold.Chemscore.DG>
-18.7123

> <Gold.Chemscore.ZeroCoef>
-5.4800

> <Gold.Chemscore.Hbond>
2.3545

> <Gold.Chemscore.Metal>
0.0000

> <Gold.Chemscore.Lipo>
96.4454

> <Gold.Chemscore.Internal_Hbond>
0.0000

> <Gold.Chemscore.DEClash>
0.1129

> <Gold.Chemscore.DEInternal>
1.8393

> <Gold.Chemscore.Rot>
2.3108

> <Gold.Chemscore.Internal.Correction>
   9.000000E+99

> <Gold.Chemscore.Hbonds>
donor molecule, donor type, donor heavy atom, donor atom, acceptor molecule, acceptor atom, score
      L1  H     4    22       P1  7957  0.80
      L1  H     6    25       P1  8028  0.93
      P1  H  8011  8017       L1     4  0.17

> <Gold.Chemscore.Hbond.Weighted>
-7.8639

> <Gold.Chemscore.Metal.Weighted>
-0.0000

> <Gold.Chemscore.Lipo.Weighted>
-11.2841

> <Gold.Chemscore.Internal_Hbond.Weighted>
0.0000

> <Gold.Chemscore.DEClash.Weighted>
0.1129

> <Gold.Chemscore.DEInternal.Weighted>
1.8393

> <Gold.Chemscore.Rot.Weighted>
5.9157

> <Gold.Chemscore.Internal.Correction.Weighted>
   9.000000E+99

> <Gold.Protein.RotatedTorsions>
[ 6907 6896 6895 6894 ] final  -47.11 input  -60.11 | X-H torsion
[ 7974 7965 7964 7962 ] final  113.32 input  175.53 | X-H torsion
[ 8008 7997 7996 7995 ] final  -38.21 input   59.86 | X-H torsion
[ 10167 10162 10161 10158 ] final  -54.00 input  -65.29 | X-H torsion
[ 10718 10713 10712 10709 ] final  119.12 input   66.30 | X-H torsion
[ 10763 10752 10751 10750 ] final   23.09 input  -60.55 | X-H torsion
[ 11005 11000 10999 10996 ] final  161.76 input  -57.11 | X-H torsion

> <Gold.Protein.ActiveResidues>
 VAL166  LYS551  ARG553  GLY616  TRP617  ASP618  TYR619  PRO620  LYS621  CYS622 
 ASP623  PHE694  ASN695  SER759  ASP760  ASP761  ALA762  ILE779  LEU786  VAL792 
 PHE793  MET794  SER795  GLU796  ALA797  LYS798  CYS799  TRP800  GLU811  SER814 

> <Gold.Protein.RotatedAtoms>
  150.9042  134.8456  159.7380 H   0  0  0  0  0  0  0  0  0  0  0  0  # atno 6907 bound_to 6896
  152.4909  134.4457  159.9568 H   0  0  0  0  0  0  0  0  0  0  0  0  # atno 6908 bound_to 6896
  151.4505  133.3579  159.2830 H   0  0  0  0  0  0  0  0  0  0  0  0  # atno 6909 bound_to 6896
  145.2185  139.2873  143.4231 H   0  0  0  0  0  0  0  0  0  0  0  0  # atno 7974 bound_to 7965
  154.4040  140.1584  156.2662 H   0  0  0  0  0  0  0  0  0  0  0  0  # atno 8008 bound_to 7997
  155.8993  140.3434  155.5992 H   0  0  0  0  0  0  0  0  0  0  0  0  # atno 8009 bound_to 7997
  155.7467  140.0799  157.2211 H   0  0  0  0  0  0  0  0  0  0  0  0  # atno 8010 bound_to 7997
  140.6454  143.2532  151.4873 H   0  0  0  0  0  0  0  0  0  0  0  0  # atno 10167 bound_to 10162
  157.5984  131.1055  150.7851 H   0  0  0  0  0  0  0  0  0  0  0  0  # atno 10718 bound_to 10713
  153.0865  135.6634  153.9939 H   0  0  0  0  0  0  0  0  0  0  0  0  # atno 10763 bound_to 10752
  153.9547  135.2980  155.3438 H   0  0  0  0  0  0  0  0  0  0  0  0  # atno 10764 bound_to 10752
  154.7274  135.5138  153.8980 H   0  0  0  0  0  0  0  0  0  0  0  0  # atno 10765 bound_to 10752
  140.2190  134.8211  157.3200 H   0  0  0  0  0  0  0  0  0  0  0  0  # atno 11005 bound_to 11000
  146.3381  140.2483  142.8598 LP  0  0  0  0  0  0  0  0  0  0  0  0  # atno 17320 bound_to 7965
  144.9788  140.8440  143.5410 LP  0  0  0  0  0  0  0  0  0  0  0  0  # atno 17321 bound_to 7965
  139.5665  144.2031  152.1772 LP  0  0  0  0  0  0  0  0  0  0  0  0  # atno 17342 bound_to 10162
  140.1314  144.5285  150.6800 LP  0  0  0  0  0  0  0  0  0  0  0  0  # atno 17343 bound_to 10162
  156.8256  130.4999  149.5337 LP  0  0  0  0  0  0  0  0  0  0  0  0  # atno 17370 bound_to 10713
  156.1051  130.5998  150.9958 LP  0  0  0  0  0  0  0  0  0  0  0  0  # atno 17371 bound_to 10713
  140.1870  134.4419  155.7738 LP  0  0  0  0  0  0  0  0  0  0  0  0  # atno 17394 bound_to 11000
  141.2224  133.7009  156.7964 LP  0  0  0  0  0  0  0  0  0  0  0  0  # atno 17395 bound_to 11000

$$$$
