AV-unprocessed.smi:1046|AV-procd|sdf|4551|dock1
  -GOLD-   22720 2583D 1   1.00000     0.00000
 Structure written by MMmdl.
 53 55  0  0  0  0  0  0  0  0  2 V2000
  152.7183  143.4696  161.6837 C   0  0  0  0  0  0  0  0  0  0  0  0
  152.3730  142.7467  160.3935 C   0  0  0  0  0  0  0  0  0  0  0  0
  152.3987  141.3338  160.3699 C   0  0  0  0  0  0  0  0  0  0  0  0
  152.0838  140.6235  159.1908 C   0  0  0  0  0  0  0  0  0  0  0  0
  152.0450  139.2616  158.9443 N   0  0  0  0  0  0  0  0  0  0  0  0
  151.6863  139.2311  157.6639 C   0  0  0  0  0  0  0  0  0  0  0  0
  151.4883  140.4141  157.0509 N   0  0  0  0  0  0  0  0  0  0  0  0
  151.0937  140.6355  155.6714 C   0  0  0  0  0  0  0  0  0  0  0  0
  149.6649  141.1987  155.5523 C   0  0  1  0  0  0  0  0  0  0  0  0
  149.6880  142.5852  155.8308 O   0  0  0  0  0  0  0  0  0  0  0  0
  149.0887  140.9805  154.1387 C   0  0  0  0  0  0  0  0  0  0  0  0
  147.6913  141.3907  153.9492 N   0  0  0  0  0  0  0  0  0  0  0  0
  147.1256  140.9001  152.6927 C   0  0  0  0  0  0  0  0  0  0  0  0
  146.8563  139.3807  152.6978 C   0  0  0  0  0  0  0  0  0  0  0  0
  145.9592  139.0147  153.8243 N   0  3  0  0  0  0  0  0  0  0  0  0
  145.6172  137.5699  153.8295 C   0  0  0  0  0  0  0  0  0  0  0  0
  144.9389  137.1160  152.5255 C   0  0  0  0  0  0  0  0  0  0  0  0
  143.7121  137.7945  152.3572 O   0  0  0  0  0  0  0  0  0  0  0  0
  146.5100  139.5040  155.1165 C   0  0  0  0  0  0  0  0  0  0  0  0
  146.7848  141.0190  155.0392 C   0  0  0  0  0  0  0  0  0  0  0  0
  151.7396  141.3715  158.0272 C   0  0  0  0  0  0  0  0  0  0  0  0
  151.7111  142.7773  158.0377 C   0  0  0  0  0  0  0  0  0  0  0  0
  152.0291  143.4712  159.2239 C   0  0  0  0  0  0  0  0  0  0  0  0
  151.9971  144.9892  159.2256 C   0  0  0  0  0  0  0  0  0  0  0  0
  152.9472  142.7667  162.4849 H   0  0  0  0  0  0  0  0  0  0  0  0
  151.8825  144.0883  162.0112 H   0  0  0  0  0  0  0  0  0  0  0  0
  153.5891  144.1095  161.5415 H   0  0  0  0  0  0  0  0  0  0  0  0
  152.6611  140.7817  161.2602 H   0  0  0  0  0  0  0  0  0  0  0  0
  151.5620  138.2945  157.1404 H   0  0  0  0  0  0  0  0  0  0  0  0
  151.8138  141.3079  155.2024 H   0  0  0  0  0  0  0  0  0  0  0  0
  151.1676  139.6833  155.1446 H   0  0  0  0  0  0  0  0  0  0  0  0
  149.0433  140.7088  156.3002 H   0  0  0  0  0  0  0  0  0  0  0  0
  149.0375  143.0120  155.2948 H   0  0  0  0  0  0  0  0  0  0  0  0
  149.7168  141.5261  153.4330 H   0  0  0  0  0  0  0  0  0  0  0  0
  149.2035  139.9298  153.8748 H   0  0  0  0  0  0  0  0  0  0  0  0
  146.1887  141.4237  152.4966 H   0  0  0  0  0  0  0  0  0  0  0  0
  147.7859  141.1569  151.8635 H   0  0  0  0  0  0  0  0  0  0  0  0
  146.3892  139.0981  151.7536 H   0  0  0  0  0  0  0  0  0  0  0  0
  147.7888  138.8189  152.7663 H   0  0  0  0  0  0  0  0  0  0  0  0
  146.5235  136.9785  153.9694 H   0  0  0  0  0  0  0  0  0  0  0  0
  144.9766  137.3519  154.6853 H   0  0  0  0  0  0  0  0  0  0  0  0
  145.5788  137.3551  151.6759 H   0  0  0  0  0  0  0  0  0  0  0  0
  144.7727  136.0397  152.4990 H   0  0  0  0  0  0  0  0  0  0  0  0
  143.6599  138.1086  151.4666 H   0  0  0  0  0  0  0  0  0  0  0  0
  145.8002  139.3188  155.9217 H   0  0  0  0  0  0  0  0  0  0  0  0
  147.4181  138.9558  155.3705 H   0  0  0  0  0  0  0  0  0  0  0  0
  147.1598  141.3803  155.9953 H   0  0  0  0  0  0  0  0  0  0  0  0
  145.8348  141.5356  154.8944 H   0  0  0  0  0  0  0  0  0  0  0  0
  151.4472  143.3157  157.1398 H   0  0  0  0  0  0  0  0  0  0  0  0
  151.7296  145.3825  158.2445 H   0  0  0  0  0  0  0  0  0  0  0  0
  152.9745  145.3919  159.4921 H   0  0  0  0  0  0  0  0  0  0  0  0
  151.2636  145.3551  159.9444 H   0  0  0  0  0  0  0  0  0  0  0  0
  145.0939  139.5116  153.6658 H   0  0  0  0  0  0  0  0  0  0  0  0
  1  2  1  0  0  0  0
  1 25  1  0  0  0  0
  1 26  1  0  0  0  0
  1 27  1  0  0  0  0
  2 23  1  0  0  0  0
  2  3  2  0  0  0  0
  3  4  1  0  0  0  0
  3 28  1  0  0  0  0
  4 21  2  0  0  0  0
  4  5  1  0  0  0  0
  5  6  2  0  0  0  0
  6  7  1  0  0  0  0
  6 29  1  0  0  0  0
  7  8  1  0  0  0  0
  7 21  1  0  0  0  0
  8  9  1  0  0  0  0
  8 30  1  0  0  0  0
  8 31  1  0  0  0  0
  9 10  1  0  0  0  0
  9 11  1  0  0  0  0
  9 32  1  0  0  0  0
 10 33  1  0  0  0  0
 11 12  1  0  0  0  0
 11 34  1  0  0  0  0
 11 35  1  0  0  0  0
 12 20  1  0  0  0  0
 12 13  1  0  0  0  0
 13 14  1  0  0  0  0
 13 36  1  0  0  0  0
 13 37  1  0  0  0  0
 14 15  1  0  0  0  0
 14 38  1  0  0  0  0
 14 39  1  0  0  0  0
 15 16  1  0  0  0  0
 15 19  1  0  0  0  0
 15 53  1  0  0  0  0
 16 17  1  0  0  0  0
 16 40  1  0  0  0  0
 16 41  1  0  0  0  0
 17 18  1  0  0  0  0
 17 42  1  0  0  0  0
 17 43  1  0  0  0  0
 18 44  1  0  0  0  0
 19 20  1  0  0  0  0
 19 45  1  0  0  0  0
 19 46  1  0  0  0  0
 20 47  1  0  0  0  0
 20 48  1  0  0  0  0
 21 22  1  0  0  0  0
 22 23  2  0  0  0  0
 22 49  1  0  0  0  0
 23 24  1  0  0  0  0
 24 50  1  0  0  0  0
 24 51  1  0  0  0  0
 24 52  1  0  0  0  0
M  CHG  1  15   1
M  END
> <s_m_source_file>
AV-unprocessed.smi

> <i_m_source_file_index>
1046

> <i_lp_mmshare_version>
43012

> <i_f3d_flags>
0

> <s_epik_input>
W0NIM11jKFtjSF0xKWMoW0NIM10pW2NIXWMoYzEyKW4oW2NIXW4yKVtDSDJdW0NASF0oW09IXSlbQ0gyXU4zW0NIMl1bQ0gyXU4oW0NIMl1bQ0gyXTMpW0NIMl1bQ0gyXVtPSF0=

> <s_epik_cmdline>
J2VwaWtfcHl0aG9uJywgJy1waCcsICc3LjAnLCAnLXRuJywgJzgnLCAnLW1hJywgJzIwMCcsICctbWV0YWxfYmluZGluZycsICctaW1hZScsICc8aW5maWxlLm1hZT4nLCAnLW9tYWUnLCAnPG91dGZpbGUubWFlPic=

> <r_epik_Ionization_Penalty>
0.218081

> <r_epik_Ionization_Penalty_Charging>
0.0909554

> <r_epik_Ionization_Penalty_Neutral>
0.127126

> <r_epik_State_Penalty>
0.825642

> <r_epik_Charging_Adjusted_Penalty>
0.916597

> <i_epik_Tot_Q>
1

> <i_epik_Tot_abs_Q>
1

> <r_epik_Metal_State_Penalty>
0.740189

> <b_epik_Metal_Only>
0

> <s_lp_Force_Field>
OPLS_2005

> <r_lp_Energy>
34.993

> <b_lp_Chiralities_Consistent>
1

> <s_lp_Variant>
AV-unprocessed.smi:1046-4

> <Gold.Version>
5.8.1

> <Gold.Id.Protein>
6NUR|6NUR_protein|mol2

> <Gold.PLP.Fitness>
55.3182

> <Gold.PLP.PLP>
-45.9084

> <Gold.PLP.part.hbond>
-3.1761

> <Gold.PLP.part.metal>
0.0000

> <Gold.PLP.part.buried>
-3.2668

> <Gold.PLP.part.nonpolar>
-37.8796

> <Gold.PLP.part.repulsive>
0.1616

> <Gold.PLP.ligand.clash>
0.0000

> <Gold.PLP.ligand.torsion>
0.3775

> <Gold.PLP.Chemscore.Hbond>
3.2705

> <Gold.PLP.Chemscore.CHOScore>
0.0000

> <Gold.PLP.Chemscore.Metal>
0.0000

> <Gold.Chemscore.Hbonds>
donor molecule, donor type, donor heavy atom, donor atom, acceptor molecule, acceptor atom, score
      L1  H    10    33       P1  8028  0.27
      L1  H    15    53       P1 10175  1.72
      L1  H    18    44       P1 10171  1.00

> <Gold.PLP.Chemscore.Internal.Correction>
0.3534

> <Gold.Rescore>
     Score         DG    S(hbond)    S(metal)    S(lipo)     H(rot)  DE(clash)    DE(int)     intcor
     17.88     -19.57       2.15        0.00     129.12       3.21       0.27       1.42       ----

> <Gold.Chemscore.Fitness>
17.8762

> <Gold.Chemscore.DG>
-19.5703

> <Gold.Chemscore.ZeroCoef>
-5.4800

> <Gold.Chemscore.Hbond>
2.1527

> <Gold.Chemscore.Metal>
0.0000

> <Gold.Chemscore.Lipo>
129.1206

> <Gold.Chemscore.Internal_Hbond>
0.0000

> <Gold.Chemscore.DEClash>
0.2705

> <Gold.Chemscore.DEInternal>
1.4236

> <Gold.Chemscore.Rot>
3.2058

> <Gold.Chemscore.Internal.Correction>
   9.000000E+99

> <Gold.Chemscore.Hbonds>
donor molecule, donor type, donor heavy atom, donor atom, acceptor molecule, acceptor atom, score
      L1  H    10    33       P1  8028  0.26
      L1  H    15    53       P1 10175  0.82
      L1  H    18    44       P1 10171  0.94

> <Gold.Chemscore.Hbond.Weighted>
-7.1900

> <Gold.Chemscore.Metal.Weighted>
-0.0000

> <Gold.Chemscore.Lipo.Weighted>
-15.1071

> <Gold.Chemscore.Internal_Hbond.Weighted>
0.0000

> <Gold.Chemscore.DEClash.Weighted>
0.2705

> <Gold.Chemscore.DEInternal.Weighted>
1.4236

> <Gold.Chemscore.Rot.Weighted>
8.2067

> <Gold.Chemscore.Internal.Correction.Weighted>
   9.000000E+99

> <Gold.Protein.RotatedTorsions>
[ 6907 6896 6895 6894 ] final  168.52 input  -60.11 | X-H torsion
[ 7974 7965 7964 7962 ] final   26.26 input  175.53 | X-H torsion
[ 8008 7997 7996 7995 ] final -155.56 input   59.86 | X-H torsion
[ 10167 10162 10161 10158 ] final -169.10 input  -65.29 | X-H torsion
[ 10718 10713 10712 10709 ] final  -93.41 input   66.30 | X-H torsion
[ 10763 10752 10751 10750 ] final  137.69 input  -60.55 | X-H torsion
[ 11005 11000 10999 10996 ] final   25.71 input  -57.11 | X-H torsion

> <Gold.Protein.ActiveResidues>
 VAL166  LYS551  ARG553  GLY616  TRP617  ASP618  TYR619  PRO620  LYS621  CYS622 
 ASP623  PHE694  ASN695  SER759  ASP760  ASP761  ALA762  ILE779  LEU786  VAL792 
 PHE793  MET794  SER795  GLU796  ALA797  LYS798  CYS799  TRP800  GLU811  SER814 

> <Gold.Protein.RotatedAtoms>
  151.8463  133.3432  159.3658 H   0  0  0  0  0  0  0  0  0  0  0  0  # atno 6907 bound_to 6896
  150.7220  134.5343  159.5725 H   0  0  0  0  0  0  0  0  0  0  0  0  # atno 6908 bound_to 6896
  152.2827  134.7811  160.0444 H   0  0  0  0  0  0  0  0  0  0  0  0  # atno 6909 bound_to 6896
  146.1847  139.7353  142.8875 H   0  0  0  0  0  0  0  0  0  0  0  0  # atno 7974 bound_to 7965
  155.7038  140.0770  157.2399 H   0  0  0  0  0  0  0  0  0  0  0  0  # atno 8008 bound_to 7997
  154.4069  140.1642  156.2273 H   0  0  0  0  0  0  0  0  0  0  0  0  # atno 8009 bound_to 7997
  155.9344  140.3389  155.6278 H   0  0  0  0  0  0  0  0  0  0  0  0  # atno 8010 bound_to 7997
  139.5944  144.1144  152.1672 H   0  0  0  0  0  0  0  0  0  0  0  0  # atno 10167 bound_to 10162
  156.0013  130.5026  150.5773 H   0  0  0  0  0  0  0  0  0  0  0  0  # atno 10718 bound_to 10713
  153.8772  135.3048  155.3444 H   0  0  0  0  0  0  0  0  0  0  0  0  # atno 10763 bound_to 10752
  154.7778  135.4852  153.9784 H   0  0  0  0  0  0  0  0  0  0  0  0  # atno 10764 bound_to 10752
  153.1372  135.6816  153.9181 H   0  0  0  0  0  0  0  0  0  0  0  0  # atno 10765 bound_to 10752
  140.3449  134.2292  155.7686 H   0  0  0  0  0  0  0  0  0  0  0  0  # atno 11005 bound_to 11000
  145.3974  141.0380  143.3089 LP  0  0  0  0  0  0  0  0  0  0  0  0  # atno 17320 bound_to 7965
  144.8376  139.5525  143.6915 LP  0  0  0  0  0  0  0  0  0  0  0  0  # atno 17321 bound_to 7965
  140.0726  144.5767  150.7181 LP  0  0  0  0  0  0  0  0  0  0  0  0  # atno 17342 bound_to 10162
  140.7200  143.2579  151.4311 LP  0  0  0  0  0  0  0  0  0  0  0  0  # atno 17343 bound_to 10162
  157.3658  131.0757  151.1599 LP  0  0  0  0  0  0  0  0  0  0  0  0  # atno 17370 bound_to 10713
  157.2368  130.6551  149.5873 LP  0  0  0  0  0  0  0  0  0  0  0  0  # atno 17371 bound_to 10713
  141.2028  133.7928  157.0371 LP  0  0  0  0  0  0  0  0  0  0  0  0  # atno 17394 bound_to 11000
  140.0750  134.9680  157.1531 LP  0  0  0  0  0  0  0  0  0  0  0  0  # atno 17395 bound_to 11000

$$$$
