AV-unprocessed.smi:2751|AV-procd|sdf|10602|dock4
  -GOLD-   2272015 53D 1   1.00000     0.00000
 Structure written by MMmdl.
 34 35  0  0  0  0  0  0  0  0  1 V2000
  150.6670  139.4927  154.3666 O   0  0  0  0  0  0  0  0  0  0  0  0
  149.8244  140.2020  154.9259 C   0  0  0  0  0  0  0  0  0  0  0  0
  150.0180  140.6726  156.1671 N   0  0  0  0  0  0  0  0  0  0  0  0
  151.1925  140.4199  156.9944 C   0  0  0  0  0  0  0  0  0  0  0  0
  151.0106  140.9750  158.4175 C   0  0  0  0  0  0  0  0  0  0  0  0
  151.8020  142.2697  158.6597 C   0  0  1  0  0  0  0  0  0  0  0  0
  151.3589  143.4005  157.7109 C   0  0  0  0  0  0  0  0  0  0  0  0
  152.1104  144.6983  158.0288 C   0  0  0  0  0  0  0  0  0  0  0  0
  151.9586  145.0317  159.5165 C   0  0  0  0  0  0  0  0  0  0  0  0
  152.3615  143.8243  160.3781 C   0  0  0  0  0  0  0  0  0  0  0  0
  151.5909  142.6850  160.0082 O   0  0  0  0  0  0  0  0  0  0  0  0
  148.5950  140.6283  154.4425 N   0  0  0  0  0  0  0  0  0  0  0  0
  147.9339  139.8916  153.6028 C   0  0  0  0  0  0  0  0  0  0  0  0
  148.1919  138.6561  153.0145 N   0  0  0  0  0  0  0  0  0  0  0  0
  147.1416  138.3450  152.1972 C   0  0  0  0  0  0  0  0  0  0  0  0
  146.2588  139.3368  152.2658 C   0  0  0  0  0  0  0  0  0  0  0  0
  146.7161  140.2970  153.1176 O   0  0  0  0  0  0  0  0  0  0  0  0
  149.2922  141.2473  156.5706 H   0  0  0  0  0  0  0  0  0  0  0  0
  151.4094  139.3508  157.0205 H   0  0  0  0  0  0  0  0  0  0  0  0
  152.0489  140.8973  156.5175 H   0  0  0  0  0  0  0  0  0  0  0  0
  149.9502  141.1661  158.5878 H   0  0  0  0  0  0  0  0  0  0  0  0
  151.3084  140.2259  159.1524 H   0  0  0  0  0  0  0  0  0  0  0  0
  152.8638  142.0663  158.5083 H   0  0  0  0  0  0  0  0  0  0  0  0
  151.5339  143.1147  156.6732 H   0  0  0  0  0  0  0  0  0  0  0  0
  150.2858  143.5675  157.8128 H   0  0  0  0  0  0  0  0  0  0  0  0
  153.1668  144.5806  157.7841 H   0  0  0  0  0  0  0  0  0  0  0  0
  151.7342  145.5167  157.4144 H   0  0  0  0  0  0  0  0  0  0  0  0
  152.5663  145.8995  159.7734 H   0  0  0  0  0  0  0  0  0  0  0  0
  150.9227  145.3000  159.7277 H   0  0  0  0  0  0  0  0  0  0  0  0
  153.4254  143.6070  160.2722 H   0  0  0  0  0  0  0  0  0  0  0  0
  152.1850  144.0413  161.4316 H   0  0  0  0  0  0  0  0  0  0  0  0
  148.9990  138.0615  153.1383 H   0  0  0  0  0  0  0  0  0  0  0  0
  147.1385  137.4209  151.6382 H   0  0  0  0  0  0  0  0  0  0  0  0
  145.3025  139.5018  151.7918 H   0  0  0  0  0  0  0  0  0  0  0  0
  1  2  2  0  0  0  0
  2 12  1  0  0  0  0
  2  3  1  0  0  0  0
  3  4  1  0  0  0  0
  3 18  1  0  0  0  0
  4  5  1  0  0  0  0
  4 19  1  0  0  0  0
  4 20  1  0  0  0  0
  5  6  1  0  0  0  0
  5 21  1  0  0  0  0
  5 22  1  0  0  0  0
  6 11  1  0  0  0  0
  6  7  1  0  0  0  0
  6 23  1  0  0  0  0
  7  8  1  0  0  0  0
  7 24  1  0  0  0  0
  7 25  1  0  0  0  0
  8  9  1  0  0  0  0
  8 26  1  0  0  0  0
  8 27  1  0  0  0  0
  9 10  1  0  0  0  0
  9 28  1  0  0  0  0
  9 29  1  0  0  0  0
 10 11  1  0  0  0  0
 10 30  1  0  0  0  0
 10 31  1  0  0  0  0
 12 13  2  0  0  0  0
 13 17  1  0  0  0  0
 13 14  1  0  0  0  0
 14 32  1  0  0  0  0
 14 15  1  0  0  0  0
 15 33  1  0  0  0  0
 15 16  2  0  0  0  0
 16 34  1  0  0  0  0
 16 17  1  0  0  0  0
M  END
> <s_m_source_file>
AV-unprocessed.smi

> <i_m_source_file_index>
2751

> <i_lp_mmshare_version>
43012

> <i_f3d_flags>
0

> <s_epik_input>
bzFbY0hdW2NIXW5jMVtOSF1DKD1PKVtOSF1bQ0gyXVtDSDJdW0NAQEhdMltDSDJdW0NIMl1bQ0gyXVtDSDJdTzI=

> <s_epik_cmdline>
J2VwaWtfcHl0aG9uJywgJy1waCcsICc3LjAnLCAnLXRuJywgJzgnLCAnLW1hJywgJzIwMCcsICctbWV0YWxfYmluZGluZycsICctaW1hZScsICc8aW5maWxlLm1hZT4nLCAnLW9tYWUnLCAnPG91dGZpbGUubWFlPic=

> <r_lp_tautomer_probability>
0.107061

> <r_epik_Ionization_Penalty>
1.421

> <r_epik_Ionization_Penalty_Charging>
1.42064

> <r_epik_Ionization_Penalty_Neutral>
0.0003614

> <r_epik_State_Penalty>
2.61489

> <r_epik_Charging_Adjusted_Penalty>
4.03553

> <i_epik_Tot_Q>
0

> <i_epik_Tot_abs_Q>
0

> <r_epik_Metal_State_Penalty>
3.57288

> <b_epik_Metal_Only>
0

> <s_lp_Force_Field>
OPLS_2005

> <r_lp_Energy>
32.5629

> <b_lp_Chiralities_Consistent>
1

> <s_lp_Variant>
AV-unprocessed.smi:2751-8

> <Gold.Version>
5.8.1

> <Gold.Id.Protein>
6NUR|6NUR_protein|mol2

> <Gold.PLP.Fitness>
41.1157

> <Gold.PLP.PLP>
-31.3476

> <Gold.PLP.part.hbond>
-3.4511

> <Gold.PLP.part.metal>
0.0000

> <Gold.PLP.part.buried>
3.6253

> <Gold.PLP.part.nonpolar>
-32.3756

> <Gold.PLP.part.repulsive>
0.6357

> <Gold.PLP.ligand.clash>
0.0000

> <Gold.PLP.ligand.torsion>
0.5318

> <Gold.PLP.Chemscore.Hbond>
1.0581

> <Gold.PLP.Chemscore.CHOScore>
2.5479

> <Gold.PLP.Chemscore.Metal>
0.0000

> <Gold.Chemscore.Hbonds>
donor molecule, donor type, donor heavy atom, donor atom, acceptor molecule, acceptor atom, score
      L1  H    14    32       P1  7948  0.15
      P1  H  7989  7998       L1     1  0.90
      L1  C    15    33       P1  7948  0.70
      L1  C    16    34       P1 10171  0.87
      L1  C    16    34       P1 10175  0.89

> <Gold.PLP.Chemscore.Internal.Correction>
0.0138

> <Gold.Rescore>
     Score         DG    S(hbond)    S(metal)    S(lipo)     H(rot)  DE(clash)    DE(int)     intcor
      9.93     -12.01       0.07        0.00      89.46       1.63       1.53       0.55       ----

> <Gold.Chemscore.Fitness>
9.9251

> <Gold.Chemscore.DG>
-12.0072

> <Gold.Chemscore.ZeroCoef>
-5.4800

> <Gold.Chemscore.Hbond>
0.0719

> <Gold.Chemscore.Metal>
0.0000

> <Gold.Chemscore.Lipo>
89.4621

> <Gold.Chemscore.Internal_Hbond>
0.0000

> <Gold.Chemscore.DEClash>
1.5330

> <Gold.Chemscore.DEInternal>
0.5491

> <Gold.Chemscore.Rot>
1.6328

> <Gold.Chemscore.Internal.Correction>
   9.000000E+99

> <Gold.Chemscore.Hbonds>
donor molecule, donor type, donor heavy atom, donor atom, acceptor molecule, acceptor atom, score
      L1  H    14    32       P1  7948  0.16
      P1  H  7989  7998       L1     1  0.18

> <Gold.Chemscore.Hbond.Weighted>
-0.2401

> <Gold.Chemscore.Metal.Weighted>
-0.0000

> <Gold.Chemscore.Lipo.Weighted>
-10.4671

> <Gold.Chemscore.Internal_Hbond.Weighted>
0.0000

> <Gold.Chemscore.DEClash.Weighted>
1.5330

> <Gold.Chemscore.DEInternal.Weighted>
0.5491

> <Gold.Chemscore.Rot.Weighted>
4.1799

> <Gold.Chemscore.Internal.Correction.Weighted>
   9.000000E+99

> <Gold.Protein.RotatedTorsions>
[ 6907 6896 6895 6894 ] final -138.43 input  -60.11 | X-H torsion
[ 7974 7965 7964 7962 ] final -163.61 input  175.53 | X-H torsion
[ 8008 7997 7996 7995 ] final   93.90 input   59.86 | X-H torsion
[ 10167 10162 10161 10158 ] final -125.74 input  -65.29 | X-H torsion
[ 10718 10713 10712 10709 ] final  176.02 input   66.30 | X-H torsion
[ 10763 10752 10751 10750 ] final  -22.25 input  -60.55 | X-H torsion
[ 11005 11000 10999 10996 ] final  138.84 input  -57.11 | X-H torsion

> <Gold.Protein.ActiveResidues>
 VAL166  LYS551  ARG553  GLY616  TRP617  ASP618  TYR619  PRO620  LYS621  CYS622 
 ASP623  PHE694  ASN695  SER759  ASP760  ASP761  ALA762  ILE779  LEU786  VAL792 
 PHE793  MET794  SER795  GLU796  ALA797  LYS798  CYS799  TRP800  GLU811  SER814 

> <Gold.Protein.RotatedAtoms>
  151.0350  133.5757  159.2656 H   0  0  0  0  0  0  0  0  0  0  0  0  # atno 6907 bound_to 6896
  151.2824  135.0717  159.9184 H   0  0  0  0  0  0  0  0  0  0  0  0  # atno 6908 bound_to 6896
  152.5352  134.0062  159.7971 H   0  0  0  0  0  0  0  0  0  0  0  0  # atno 6909 bound_to 6896
  144.7321  140.3082  143.6192 H   0  0  0  0  0  0  0  0  0  0  0  0  # atno 7974 bound_to 7965
  156.0519  140.3307  155.7361 H   0  0  0  0  0  0  0  0  0  0  0  0  # atno 8008 bound_to 7997
  155.5587  140.0617  157.2851 H   0  0  0  0  0  0  0  0  0  0  0  0  # atno 8009 bound_to 7997
  154.4440  140.1881  156.0749 H   0  0  0  0  0  0  0  0  0  0  0  0  # atno 8010 bound_to 7997
  139.9789  143.5764  152.2385 H   0  0  0  0  0  0  0  0  0  0  0  0  # atno 10167 bound_to 10162
  156.9263  130.9957  151.2995 H   0  0  0  0  0  0  0  0  0  0  0  0  # atno 10718 bound_to 10713
  153.6489  135.6982  153.5215 H   0  0  0  0  0  0  0  0  0  0  0  0  # atno 10763 bound_to 10752
  153.2722  135.4211  155.0998 H   0  0  0  0  0  0  0  0  0  0  0  0  # atno 10764 bound_to 10752
  154.8481  135.3581  154.6034 H   0  0  0  0  0  0  0  0  0  0  0  0  # atno 10765 bound_to 10752
  140.0212  134.9396  157.0478 H   0  0  0  0  0  0  0  0  0  0  0  0  # atno 11005 bound_to 11000
  145.7692  139.1851  143.2222 LP  0  0  0  0  0  0  0  0  0  0  0  0  # atno 17320 bound_to 7965
  146.0925  140.7639  142.9588 LP  0  0  0  0  0  0  0  0  0  0  0  0  # atno 17321 bound_to 7965
  139.6424  144.7656  151.2311 LP  0  0  0  0  0  0  0  0  0  0  0  0  # atno 17342 bound_to 10162
  140.7496  143.6294  150.8437 LP  0  0  0  0  0  0  0  0  0  0  0  0  # atno 17343 bound_to 10162
  157.5875  130.8420  149.8611 LP  0  0  0  0  0  0  0  0  0  0  0  0  # atno 17370 bound_to 10713
  156.0467  130.3726  150.1299 LP  0  0  0  0  0  0  0  0  0  0  0  0  # atno 17371 bound_to 10713
  140.4384  134.1707  155.7172 LP  0  0  0  0  0  0  0  0  0  0  0  0  # atno 17394 bound_to 11000
  141.1775  133.8484  157.1372 LP  0  0  0  0  0  0  0  0  0  0  0  0  # atno 17395 bound_to 11000

$$$$
