AV-unprocessed.smi:798|AV-procd|sdf|3772|dock2
  -GOLD-   22720 1203D 1   1.00000     0.00000
 Structure written by MMmdl.
 34 36  0  0  0  0  0  0  0  0  1 V2000
  144.2235  136.8756  155.0803 O   0  0  0  0  0  0  0  0  0  0  0  0
  144.0028  137.8240  154.3268 C   0  0  0  0  0  0  0  0  0  0  0  0
  142.8233  138.0922  153.7396 N   0  0  0  0  0  0  0  0  0  0  0  0
  141.6067  137.3656  153.8315 C   0  0  0  0  0  0  0  0  0  0  0  0
  141.5099  136.1393  154.3686 N   0  0  0  0  0  0  0  0  0  0  0  0
  140.2080  135.6568  154.3302 N   0  0  0  0  0  0  0  0  0  0  0  0
  139.3755  136.5363  153.7657 C   0  0  0  0  0  0  0  0  0  0  0  0
  140.1008  138.0401  153.2249 S   0  0  0  0  0  0  0  0  0  0  0  0
  144.9251  138.7355  153.9875 N   0  0  0  0  0  0  0  0  0  0  0  0
  146.3202  138.7565  154.4334 C   0  0  1  0  0  0  0  0  0  0  0  0
  147.3039  139.0824  153.2814 C   0  0  1  0  0  0  0  0  0  0  0  0
  146.8548  140.3315  152.4930 C   0  0  0  0  0  0  0  0  0  0  0  0
  147.0963  141.4684  153.5022 C   0  0  0  0  0  0  0  0  0  0  0  0
  147.6905  140.7300  154.7204 C   0  0  2  0  0  0  0  0  0  0  0  0
  148.5068  139.6395  154.0363 C   0  0  0  0  0  0  0  0  0  0  0  0
  146.6302  139.8800  155.4630 C   0  0  1  0  0  0  0  0  0  0  0  0
  145.4274  140.6518  156.0513 C   0  0  0  0  0  0  0  0  0  0  0  0
  144.5372  141.0313  155.0232 O   0  0  0  0  0  0  0  0  0  0  0  0
  142.7920  138.9131  153.1535 H   0  0  0  0  0  0  0  0  0  0  0  0
  138.3270  136.2976  153.6670 H   0  0  0  0  0  0  0  0  0  0  0  0
  144.6455  139.4777  153.3632 H   0  0  0  0  0  0  0  0  0  0  0  0
  146.5985  137.7959  154.8712 H   0  0  0  0  0  0  0  0  0  0  0  0
  147.5236  138.2254  152.6439 H   0  0  0  0  0  0  0  0  0  0  0  0
  147.4842  140.4702  151.6128 H   0  0  0  0  0  0  0  0  0  0  0  0
  145.8232  140.2886  152.1441 H   0  0  0  0  0  0  0  0  0  0  0  0
  147.8167  142.1814  153.0994 H   0  0  0  0  0  0  0  0  0  0  0  0
  146.1897  142.0245  153.7353 H   0  0  0  0  0  0  0  0  0  0  0  0
  148.2681  141.3771  155.3812 H   0  0  0  0  0  0  0  0  0  0  0  0
  148.9507  138.9254  154.7323 H   0  0  0  0  0  0  0  0  0  0  0  0
  149.2888  140.0287  153.3814 H   0  0  0  0  0  0  0  0  0  0  0  0
  147.1335  139.4066  156.3083 H   0  0  0  0  0  0  0  0  0  0  0  0
  144.8866  140.0701  156.7967 H   0  0  0  0  0  0  0  0  0  0  0  0
  145.7746  141.5574  156.5494 H   0  0  0  0  0  0  0  0  0  0  0  0
  144.6196  140.4153  154.3113 H   0  0  0  0  0  0  0  0  0  0  0  0
  1  2  2  0  0  0  0
  2  3  1  0  0  0  0
  2  9  1  0  0  0  0
  3  4  1  0  0  0  0
  3 19  1  0  0  0  0
  4  8  1  0  0  0  0
  4  5  2  0  0  0  0
  5  6  1  0  0  0  0
  6  7  2  0  0  0  0
  7  8  1  0  0  0  0
  7 20  1  0  0  0  0
  9 10  1  0  0  0  0
  9 21  1  0  0  0  0
 10 16  1  0  0  0  0
 10 11  1  0  0  0  0
 10 22  1  0  0  0  0
 11 15  1  0  0  0  0
 11 12  1  0  0  0  0
 11 23  1  0  0  0  0
 12 13  1  0  0  0  0
 12 24  1  0  0  0  0
 12 25  1  0  0  0  0
 13 14  1  0  0  0  0
 13 26  1  0  0  0  0
 13 27  1  0  0  0  0
 14 15  1  0  0  0  0
 14 16  1  0  0  0  0
 14 28  1  0  0  0  0
 15 29  1  0  0  0  0
 15 30  1  0  0  0  0
 16 17  1  0  0  0  0
 16 31  1  0  0  0  0
 17 18  1  0  0  0  0
 17 32  1  0  0  0  0
 17 33  1  0  0  0  0
 18 34  1  0  0  0  0
M  END
> <s_m_source_file>
AV-unprocessed.smi

> <i_m_source_file_index>
798

> <i_lp_mmshare_version>
43012

> <i_f3d_flags>
0

> <s_epik_input>
W0NIMl0xW0NIMl1bQ0BASF0oW0NIMl0yKVtDQEBIXShbQ0gyXVtPSF0pW0NAQEhdKFtDQEhdMTIpW05IXUMoPU8pW05IXWMzbm5bY0hdczM=

> <s_epik_cmdline>
J2VwaWtfcHl0aG9uJywgJy1waCcsICc3LjAnLCAnLXRuJywgJzgnLCAnLW1hJywgJzIwMCcsICctbWV0YWxfYmluZGluZycsICctaW1hZScsICc8aW5maWxlLm1hZT4nLCAnLW9tYWUnLCAnPG91dGZpbGUubWFlPic=

> <r_lp_tautomer_probability>
1

> <r_epik_Ionization_Penalty>
0.000329046

> <r_epik_Ionization_Penalty_Charging>
0

> <r_epik_Ionization_Penalty_Neutral>
0.000329046

> <r_epik_State_Penalty>
-0

> <r_epik_Charging_Adjusted_Penalty>
0

> <i_epik_Tot_Q>
0

> <i_epik_Tot_abs_Q>
0

> <r_epik_Metal_State_Penalty>
0.173433

> <b_epik_Metal_Only>
0

> <s_lp_Force_Field>
OPLS_2005

> <r_lp_Energy>
50.8233

> <b_lp_Chiralities_Consistent>
1

> <s_lp_Variant>
AV-unprocessed.smi:798-4

> <Gold.Version>
5.8.1

> <Gold.Id.Protein>
6NUR|6NUR_protein|mol2

> <Gold.PLP.Fitness>
34.8194

> <Gold.PLP.PLP>
-24.8524

> <Gold.PLP.part.hbond>
-4.6526

> <Gold.PLP.part.metal>
0.0000

> <Gold.PLP.part.buried>
-1.8666

> <Gold.PLP.part.nonpolar>
-17.4366

> <Gold.PLP.part.repulsive>
0.1885

> <Gold.PLP.ligand.clash>
0.0000

> <Gold.PLP.ligand.torsion>
0.3070

> <Gold.PLP.Chemscore.Hbond>
3.5234

> <Gold.PLP.Chemscore.CHOScore>
0.0000

> <Gold.PLP.Chemscore.Metal>
0.0000

> <Gold.Chemscore.Hbonds>
donor molecule, donor type, donor heavy atom, donor atom, acceptor molecule, acceptor atom, score
      L1  H     3    19       P1 10175  1.00
      L1  H     9    21       P1 10175  1.00
      L1  H    18    34       P1 10175  0.51
      P1  H 11000 11005       L1     6  1.00

> <Gold.PLP.Chemscore.Internal.Correction>
0.0108

> <Gold.Rescore>
     Score         DG    S(hbond)    S(metal)    S(lipo)     H(rot)  DE(clash)    DE(int)     intcor
     13.43     -17.93       3.25        0.00      56.14       1.94       0.19       4.31       ----

> <Gold.Chemscore.Fitness>
13.4253

> <Gold.Chemscore.DG>
-17.9252

> <Gold.Chemscore.ZeroCoef>
-5.4800

> <Gold.Chemscore.Hbond>
3.2495

> <Gold.Chemscore.Metal>
0.0000

> <Gold.Chemscore.Lipo>
56.1445

> <Gold.Chemscore.Internal_Hbond>
0.0000

> <Gold.Chemscore.DEClash>
0.1869

> <Gold.Chemscore.DEInternal>
4.3130

> <Gold.Chemscore.Rot>
1.9442

> <Gold.Chemscore.Internal.Correction>
   9.000000E+99

> <Gold.Chemscore.Hbonds>
donor molecule, donor type, donor heavy atom, donor atom, acceptor molecule, acceptor atom, score
      L1  H     3    19       P1 10175  0.95
      L1  H     9    21       P1 10175  0.99
      L1  H    18    34       P1 10175  0.49
      P1  H 11000 11005       L1     6  0.45

> <Gold.Chemscore.Hbond.Weighted>
-10.8534

> <Gold.Chemscore.Metal.Weighted>
-0.0000

> <Gold.Chemscore.Lipo.Weighted>
-6.5689

> <Gold.Chemscore.Internal_Hbond.Weighted>
0.0000

> <Gold.Chemscore.DEClash.Weighted>
0.1869

> <Gold.Chemscore.DEInternal.Weighted>
4.3130

> <Gold.Chemscore.Rot.Weighted>
4.9771

> <Gold.Chemscore.Internal.Correction.Weighted>
   9.000000E+99

> <Gold.Protein.RotatedTorsions>
[ 6907 6896 6895 6894 ] final -137.34 input  -60.11 | X-H torsion
[ 7974 7965 7964 7962 ] final   23.15 input  175.53 | X-H torsion
[ 8008 7997 7996 7995 ] final   78.18 input   59.86 | X-H torsion
[ 10167 10162 10161 10158 ] final  129.93 input  -65.29 | X-H torsion
[ 10718 10713 10712 10709 ] final   28.13 input   66.30 | X-H torsion
[ 10763 10752 10751 10750 ] final -147.41 input  -60.55 | X-H torsion
[ 11005 11000 10999 10996 ] final   53.65 input  -57.11 | X-H torsion

> <Gold.Protein.ActiveResidues>
 VAL166  LYS551  ARG553  GLY616  TRP617  ASP618  TYR619  PRO620  LYS621  CYS622 
 ASP623  PHE694  ASN695  SER759  ASP760  ASP761  ALA762  ILE779  LEU786  VAL792 
 PHE793  MET794  SER795  GLU796  ALA797  LYS798  CYS799  TRP800  GLU811  SER814 

> <Gold.Protein.RotatedAtoms>
  151.0212  133.5875  159.2670 H   0  0  0  0  0  0  0  0  0  0  0  0  # atno 6907 bound_to 6896
  151.2991  135.0762  159.9241 H   0  0  0  0  0  0  0  0  0  0  0  0  # atno 6908 bound_to 6896
  152.5323  133.9897  159.7899 H   0  0  0  0  0  0  0  0  0  0  0  0  # atno 6909 bound_to 6896
  146.1997  139.7785  142.8771 H   0  0  0  0  0  0  0  0  0  0  0  0  # atno 7974 bound_to 7965
  155.8520  140.3457  155.5700 H   0  0  0  0  0  0  0  0  0  0  0  0  # atno 8008 bound_to 7997
  155.8027  140.0887  157.1968 H   0  0  0  0  0  0  0  0  0  0  0  0  # atno 8009 bound_to 7997
  154.4008  140.1462  156.3281 H   0  0  0  0  0  0  0  0  0  0  0  0  # atno 8010 bound_to 7997
  139.5454  144.6768  151.4491 H   0  0  0  0  0  0  0  0  0  0  0  0  # atno 10167 bound_to 10162
  157.2293  130.7016  149.6306 H   0  0  0  0  0  0  0  0  0  0  0  0  # atno 10718 bound_to 10713
  154.8287  135.3361  154.6814 H   0  0  0  0  0  0  0  0  0  0  0  0  # atno 10763 bound_to 10752
  153.7436  135.6944  153.4966 H   0  0  0  0  0  0  0  0  0  0  0  0  # atno 10764 bound_to 10752
  153.2226  135.4444  155.0457 H   0  0  0  0  0  0  0  0  0  0  0  0  # atno 10765 bound_to 10752
  140.0749  134.5418  155.9006 H   0  0  0  0  0  0  0  0  0  0  0  0  # atno 11005 bound_to 11000
  145.3525  141.0310  143.3330 LP  0  0  0  0  0  0  0  0  0  0  0  0  # atno 17320 bound_to 7965
  144.8656  139.5112  143.6791 LP  0  0  0  0  0  0  0  0  0  0  0  0  # atno 17321 bound_to 7965
  140.6700  143.8315  150.6987 LP  0  0  0  0  0  0  0  0  0  0  0  0  # atno 17342 bound_to 10162
  140.1736  143.4174  152.1983 LP  0  0  0  0  0  0  0  0  0  0  0  0  # atno 17343 bound_to 10162
  155.9676  130.4494  150.5657 LP  0  0  0  0  0  0  0  0  0  0  0  0  # atno 17370 bound_to 10713
  157.3495  131.0731  151.1725 LP  0  0  0  0  0  0  0  0  0  0  0  0  # atno 17371 bound_to 10713
  141.2026  133.6626  156.6014 LP  0  0  0  0  0  0  0  0  0  0  0  0  # atno 17394 bound_to 11000
  140.3572  134.7719  157.4508 LP  0  0  0  0  0  0  0  0  0  0  0  0  # atno 17395 bound_to 11000

$$$$
