AV-unprocessed.smi:3348|AV-procd|sdf|12928|dock9
  -GOLD-   2272019353D 1   1.00000     0.00000
 Structure written by MMmdl.
 46 47  0  0  0  0  0  0  0  0  1 V2000
  145.6153  135.9729  151.0233 C   0  0  0  0  0  0  0  0  0  0  0  0
  145.5147  135.5576  152.5064 C   0  0  1  0  0  0  0  0  0  0  0  0
  144.5513  134.3706  152.7134 C   0  0  0  0  0  0  0  0  0  0  0  0
  144.7562  133.3008  151.7527 N   0  0  0  0  0  0  0  0  0  0  0  0
  143.8611  132.7970  150.8329 C   0  0  0  0  0  0  0  0  0  0  0  0
  144.4972  131.8000  150.1504 C   0  0  0  0  0  0  0  0  0  0  0  0
  145.7940  131.7646  150.7351 C   0  0  0  0  0  0  0  0  0  0  0  0
  145.9452  132.6620  151.6956 N   0  0  0  0  0  0  0  0  0  0  0  0
  146.8249  135.2098  153.0655 N   0  0  0  0  0  0  0  0  0  0  0  0
  146.9585  135.3645  154.5136 C   0  0  0  0  0  0  0  0  0  0  0  0
  146.7014  134.0350  155.2292 C   0  0  0  0  0  0  0  0  0  0  0  0
  147.9106  133.6102  155.8399 O   0  0  0  0  0  0  0  0  0  0  0  0
  149.0390  133.5923  154.9722 C   0  0  2  0  0  0  0  0  0  0  0  0
  148.8158  132.5774  153.8311 C   0  0  0  0  0  0  0  0  0  0  0  0
  148.7253  131.1370  154.3617 C   0  0  0  0  0  0  0  0  0  0  0  0
  149.9660  130.7694  155.1898 C   0  0  0  0  0  0  0  0  0  0  0  0
  150.1956  131.7746  156.3298 C   0  0  0  0  0  0  0  0  0  0  0  0
  150.2895  133.2194  155.7994 C   0  0  2  0  0  0  0  0  0  0  0  0
  150.5557  134.2282  156.9276 C   0  0  0  0  0  0  0  0  0  0  0  0
  144.6366  136.2137  150.6088 H   0  0  0  0  0  0  0  0  0  0  0  0
  146.0421  135.1736  150.4168 H   0  0  0  0  0  0  0  0  0  0  0  0
  146.2293  136.8622  150.8873 H   0  0  0  0  0  0  0  0  0  0  0  0
  145.1152  136.4062  153.0633 H   0  0  0  0  0  0  0  0  0  0  0  0
  144.6549  133.9676  153.7224 H   0  0  0  0  0  0  0  0  0  0  0  0
  143.5176  134.7066  152.6193 H   0  0  0  0  0  0  0  0  0  0  0  0
  142.8584  133.1876  150.7411 H   0  0  0  0  0  0  0  0  0  0  0  0
  144.0973  131.1887  149.3552 H   0  0  0  0  0  0  0  0  0  0  0  0
  146.6238  131.1173  150.4925 H   0  0  0  0  0  0  0  0  0  0  0  0
  147.5485  135.7515  152.6030 H   0  0  0  0  0  0  0  0  0  0  0  0
  147.9496  135.7259  154.7854 H   0  0  0  0  0  0  0  0  0  0  0  0
  146.2424  136.1069  154.8675 H   0  0  0  0  0  0  0  0  0  0  0  0
  145.9312  134.1804  155.9865 H   0  0  0  0  0  0  0  0  0  0  0  0
  146.3331  133.2827  154.5294 H   0  0  0  0  0  0  0  0  0  0  0  0
  149.1948  134.5858  154.5479 H   0  0  0  0  0  0  0  0  0  0  0  0
  147.9178  132.8208  153.2642 H   0  0  0  0  0  0  0  0  0  0  0  0
  149.6435  132.6464  153.1243 H   0  0  0  0  0  0  0  0  0  0  0  0
  147.8304  131.0286  154.9760 H   0  0  0  0  0  0  0  0  0  0  0  0
  148.6140  130.4409  153.5302 H   0  0  0  0  0  0  0  0  0  0  0  0
  149.8564  129.7639  155.5975 H   0  0  0  0  0  0  0  0  0  0  0  0
  150.8430  130.7458  154.5419 H   0  0  0  0  0  0  0  0  0  0  0  0
  149.3831  131.6968  157.0536 H   0  0  0  0  0  0  0  0  0  0  0  0
  151.1090  131.5143  156.8655 H   0  0  0  0  0  0  0  0  0  0  0  0
  151.1483  133.2638  155.1277 H   0  0  0  0  0  0  0  0  0  0  0  0
  149.7458  134.2349  157.6575 H   0  0  0  0  0  0  0  0  0  0  0  0
  150.6566  135.2398  156.5336 H   0  0  0  0  0  0  0  0  0  0  0  0
  151.4775  133.9880  157.4580 H   0  0  0  0  0  0  0  0  0  0  0  0
  1  2  1  0  0  0  0
  1 20  1  0  0  0  0
  1 21  1  0  0  0  0
  1 22  1  0  0  0  0
  2  3  1  0  0  0  0
  2  9  1  0  0  0  0
  2 23  1  0  0  0  0
  3  4  1  0  0  0  0
  3 24  1  0  0  0  0
  3 25  1  0  0  0  0
  4  8  1  0  0  0  0
  4  5  1  0  0  0  0
  5  6  2  0  0  0  0
  5 26  1  0  0  0  0
  6  7  1  0  0  0  0
  6 27  1  0  0  0  0
  7  8  2  0  0  0  0
  7 28  1  0  0  0  0
  9 10  1  0  0  0  0
  9 29  1  0  0  0  0
 10 11  1  0  0  0  0
 10 30  1  0  0  0  0
 10 31  1  0  0  0  0
 11 12  1  0  0  0  0
 11 32  1  0  0  0  0
 11 33  1  0  0  0  0
 12 13  1  0  0  0  0
 13 18  1  0  0  0  0
 13 14  1  0  0  0  0
 13 34  1  0  0  0  0
 14 15  1  0  0  0  0
 14 35  1  0  0  0  0
 14 36  1  0  0  0  0
 15 16  1  0  0  0  0
 15 37  1  0  0  0  0
 15 38  1  0  0  0  0
 16 17  1  0  0  0  0
 16 39  1  0  0  0  0
 16 40  1  0  0  0  0
 17 18  1  0  0  0  0
 17 41  1  0  0  0  0
 17 42  1  0  0  0  0
 18 19  1  0  0  0  0
 18 43  1  0  0  0  0
 19 44  1  0  0  0  0
 19 45  1  0  0  0  0
 19 46  1  0  0  0  0
M  END
> <s_m_source_file>
AV-unprocessed.smi

> <i_m_source_file_index>
3348

> <i_lp_mmshare_version>
43012

> <i_f3d_flags>
0

> <s_epik_input>
bjFbY0hdW2NIXVtjSF1uMVtDSDJdW0NAQEhdKFtDSDNdKVtOSF1bQ0gyXVtDSDJdT1tDQEBIXTJbQ0gyXVtDSDJdW0NIMl1bQ0gyXVtDQEhdMltDSDNd

> <s_epik_cmdline>
J2VwaWtfcHl0aG9uJywgJy1waCcsICc3LjAnLCAnLXRuJywgJzgnLCAnLW1hJywgJzIwMCcsICctbWV0YWxfYmluZGluZycsICctaW1hZScsICc8aW5maWxlLm1hZT4nLCAnLW9tYWUnLCAnPG91dGZpbGUubWFlPic=

> <r_lp_tautomer_probability>
1

> <r_epik_Ionization_Penalty>
2.46945

> <r_epik_Ionization_Penalty_Charging>
0

> <r_epik_Ionization_Penalty_Neutral>
2.46945

> <r_epik_State_Penalty>
2.6322

> <r_epik_Charging_Adjusted_Penalty>
2.6322

> <i_epik_Tot_Q>
0

> <i_epik_Tot_abs_Q>
0

> <r_epik_Metal_State_Penalty>
2.63217

> <b_epik_Metal_Only>
0

> <s_lp_Force_Field>
OPLS_2005

> <r_lp_Energy>
17.7248

> <b_lp_Chiralities_Consistent>
1

> <s_lp_Variant>
AV-unprocessed.smi:3348-14

> <Gold.Version>
5.8.1

> <Gold.Id.Protein>
6NUR|6NUR_protein|mol2

> <Gold.PLP.Fitness>
41.5365

> <Gold.PLP.PLP>
-34.3525

> <Gold.PLP.part.hbond>
-1.0000

> <Gold.PLP.part.metal>
0.0000

> <Gold.PLP.part.buried>
-4.7017

> <Gold.PLP.part.nonpolar>
-29.0581

> <Gold.PLP.part.repulsive>
0.1385

> <Gold.PLP.ligand.clash>
0.0000

> <Gold.PLP.ligand.torsion>
1.0051

> <Gold.PLP.Chemscore.Hbond>
1.0000

> <Gold.PLP.Chemscore.CHOScore>
2.0000

> <Gold.PLP.Chemscore.Metal>
0.0000

> <Gold.Chemscore.Hbonds>
donor molecule, donor type, donor heavy atom, donor atom, acceptor molecule, acceptor atom, score
      L1  H     9    29       P1  7948  1.00
      L1  C     5    26       P1 10186  1.00
      L1  C     7    28       P1 10747  1.00

> <Gold.PLP.Chemscore.Internal.Correction>
0.1943

> <Gold.Rescore>
     Score         DG    S(hbond)    S(metal)    S(lipo)     H(rot)  DE(clash)    DE(int)     intcor
     13.60     -14.56       0.99        0.00      87.12       1.72       0.08       0.88       ----

> <Gold.Chemscore.Fitness>
13.6033

> <Gold.Chemscore.DG>
-14.5589

> <Gold.Chemscore.ZeroCoef>
-5.4800

> <Gold.Chemscore.Hbond>
0.9875

> <Gold.Chemscore.Metal>
0.0000

> <Gold.Chemscore.Lipo>
87.1216

> <Gold.Chemscore.Internal_Hbond>
0.0000

> <Gold.Chemscore.DEClash>
0.0800

> <Gold.Chemscore.DEInternal>
0.8757

> <Gold.Chemscore.Rot>
1.7237

> <Gold.Chemscore.Internal.Correction>
   9.000000E+99

> <Gold.Chemscore.Hbonds>
donor molecule, donor type, donor heavy atom, donor atom, acceptor molecule, acceptor atom, score
      L1  H     9    29       P1  7948  1.00

> <Gold.Chemscore.Hbond.Weighted>
-3.2983

> <Gold.Chemscore.Metal.Weighted>
-0.0000

> <Gold.Chemscore.Lipo.Weighted>
-10.1932

> <Gold.Chemscore.Internal_Hbond.Weighted>
0.0000

> <Gold.Chemscore.DEClash.Weighted>
0.0800

> <Gold.Chemscore.DEInternal.Weighted>
0.8757

> <Gold.Chemscore.Rot.Weighted>
4.4126

> <Gold.Chemscore.Internal.Correction.Weighted>
   9.000000E+99

> <Gold.Protein.RotatedTorsions>
[ 6907 6896 6895 6894 ] final  -49.12 input  -60.11 | X-H torsion
[ 7974 7965 7964 7962 ] final   45.75 input  175.53 | X-H torsion
[ 8008 7997 7996 7995 ] final   66.84 input   59.86 | X-H torsion
[ 10167 10162 10161 10158 ] final  110.54 input  -65.29 | X-H torsion
[ 10718 10713 10712 10709 ] final -169.69 input   66.30 | X-H torsion
[ 10763 10752 10751 10750 ] final   84.05 input  -60.55 | X-H torsion
[ 11005 11000 10999 10996 ] final   -1.91 input  -57.11 | X-H torsion

> <Gold.Protein.ActiveResidues>
 VAL166  LYS551  ARG553  GLY616  TRP617  ASP618  TYR619  PRO620  LYS621  CYS622 
 ASP623  PHE694  ASN695  SER759  ASP760  ASP761  ALA762  ILE779  LEU786  VAL792 
 PHE793  MET794  SER795  GLU796  ALA797  LYS798  CYS799  TRP800  GLU811  SER814 

> <Gold.Protein.RotatedAtoms>
  150.8837  134.8232  159.7243 H   0  0  0  0  0  0  0  0  0  0  0  0  # atno 6907 bound_to 6896
  152.4794  134.4756  159.9659 H   0  0  0  0  0  0  0  0  0  0  0  0  # atno 6908 bound_to 6896
  151.4828  133.3504  159.2876 H   0  0  0  0  0  0  0  0  0  0  0  0  # atno 6909 bound_to 6896
  146.0452  139.4930  142.9753 H   0  0  0  0  0  0  0  0  0  0  0  0  # atno 7974 bound_to 7965
  155.6836  140.3496  155.4865 H   0  0  0  0  0  0  0  0  0  0  0  0  # atno 8008 bound_to 7997
  155.9585  140.1133  157.0938 H   0  0  0  0  0  0  0  0  0  0  0  0  # atno 8009 bound_to 7997
  154.4137  140.1180  156.5133 H   0  0  0  0  0  0  0  0  0  0  0  0  # atno 8010 bound_to 7997
  139.6680  144.7126  151.1740 H   0  0  0  0  0  0  0  0  0  0  0  0  # atno 10167 bound_to 10162
  156.7152  130.9249  151.3093 H   0  0  0  0  0  0  0  0  0  0  0  0  # atno 10718 bound_to 10713
  153.1346  135.4668  154.9402 H   0  0  0  0  0  0  0  0  0  0  0  0  # atno 10763 bound_to 10752
  154.7694  135.3154  154.8222 H   0  0  0  0  0  0  0  0  0  0  0  0  # atno 10764 bound_to 10752
  153.8757  135.6899  153.4825 H   0  0  0  0  0  0  0  0  0  0  0  0  # atno 10765 bound_to 10752
  140.6525  133.9391  155.8388 H   0  0  0  0  0  0  0  0  0  0  0  0  # atno 11005 bound_to 11000
  145.6818  141.0189  143.1602 LP  0  0  0  0  0  0  0  0  0  0  0  0  # atno 17320 bound_to 7965
  144.7094  139.8430  143.7419 LP  0  0  0  0  0  0  0  0  0  0  0  0  # atno 17321 bound_to 7965
  140.7607  143.5888  150.8817 LP  0  0  0  0  0  0  0  0  0  0  0  0  # atno 17342 bound_to 10162
  139.9551  143.6227  152.3018 LP  0  0  0  0  0  0  0  0  0  0  0  0  # atno 17343 bound_to 10162
  157.6920  130.9243  150.0540 LP  0  0  0  0  0  0  0  0  0  0  0  0  # atno 17370 bound_to 10713
  156.1633  130.3644  149.9269 LP  0  0  0  0  0  0  0  0  0  0  0  0  # atno 17371 bound_to 10713
  141.0526  134.0463  157.3764 LP  0  0  0  0  0  0  0  0  0  0  0  0  # atno 17394 bound_to 11000
  139.9041  135.0174  156.7404 LP  0  0  0  0  0  0  0  0  0  0  0  0  # atno 17395 bound_to 11000

$$$$
