AV-unprocessed.smi:89|AV-procd|sdf|826|dock4
  -GOLD-   2262017243D 1   1.00000     0.00000
 Structure written by MMmdl.
 54 56  0  0  0  0  0  0  0  0  1 V2000
  150.0550  134.8534  155.3133 C   0  0  0  0  0  0  0  0  0  0  0  0
  148.7307  135.5441  155.6822 C   0  0  0  0  0  0  0  0  0  0  0  0
  148.8919  136.7064  156.5591 N   0  0  0  0  0  0  0  0  0  0  0  0
  149.5723  137.7618  156.0356 C   0  0  0  0  0  0  0  0  0  0  0  0
  149.8414  137.7994  154.7040 N   0  0  0  0  0  0  0  0  0  0  0  0
  150.5117  138.8273  154.1766 C   0  0  0  0  0  0  0  0  0  0  0  0
  150.9978  139.9077  154.7893 N   0  0  0  0  0  0  0  0  0  0  0  0
  150.7358  139.8765  156.1271 C   0  0  0  0  0  0  0  0  0  0  0  0
  150.0439  138.8476  156.8270 C   0  0  0  0  0  0  0  0  0  0  0  0
  149.9704  139.1655  158.1780 N   0  0  0  0  0  0  0  0  0  0  0  0
  150.5816  140.3142  158.2710 C   0  0  0  0  0  0  0  0  0  0  0  0
  151.0636  140.8197  157.0852 N   0  0  0  0  0  0  0  0  0  0  0  0
  151.7662  142.0799  156.8988 C   0  0  0  0  0  0  0  0  0  0  0  0
  151.3541  143.1642  157.9214 C   0  0  2  0  0  0  0  0  0  0  0  0
  149.9441  143.3080  157.8964 O   0  0  0  0  0  0  0  0  0  0  0  0
  151.9849  144.5310  157.6708 C   0  0  0  0  0  0  0  0  0  0  0  0
  152.1125  145.1068  159.0740 C   0  0  0  0  0  0  0  0  0  0  0  0
  152.5027  143.9773  159.8364 O   0  0  0  0  0  0  0  0  0  0  0  0
  151.7839  142.8410  159.3663 C   0  0  0  0  0  0  0  0  0  0  0  0
  147.9752  136.8670  157.7004 C   0  0  2  0  0  0  0  0  0  0  0  0
  147.2184  138.2088  157.6834 C   0  0  0  0  0  0  0  0  0  0  0  0
  148.6185  136.5826  159.0789 C   0  0  0  0  0  0  0  0  0  0  0  0
  147.3519  136.3941  160.4132 S   0  0  0  0  0  0  0  0  0  0  0  0
  147.6875  137.3363  161.4919 O   0  0  0  0  0  0  0  0  0  0  0  0
  146.0141  136.4353  159.8042 O   0  0  0  0  0  0  0  0  0  0  0  0
  147.6532  134.6727  161.0092 C   0  0  0  0  0  0  0  0  0  0  0  0
  146.8552  134.3475  162.2777 C   0  0  0  0  0  0  0  0  0  0  0  0
  149.8766  134.0373  154.6130 H   0  0  0  0  0  0  0  0  0  0  0  0
  150.5439  134.4278  156.1899 H   0  0  0  0  0  0  0  0  0  0  0  0
  150.7548  135.5432  154.8434 H   0  0  0  0  0  0  0  0  0  0  0  0
  148.2366  135.8621  154.7639 H   0  0  0  0  0  0  0  0  0  0  0  0
  148.0518  134.8268  156.1415 H   0  0  0  0  0  0  0  0  0  0  0  0
  150.6816  138.7772  153.1113 H   0  0  0  0  0  0  0  0  0  0  0  0
  150.6891  140.8336  159.2121 H   0  0  0  0  0  0  0  0  0  0  0  0
  152.8384  141.8882  156.9592 H   0  0  0  0  0  0  0  0  0  0  0  0
  151.5757  142.4304  155.8835 H   0  0  0  0  0  0  0  0  0  0  0  0
  149.7214  143.9607  157.2503 H   0  0  0  0  0  0  0  0  0  0  0  0
  152.9848  144.4138  157.2521 H   0  0  0  0  0  0  0  0  0  0  0  0
  151.4127  145.1651  156.9918 H   0  0  0  0  0  0  0  0  0  0  0  0
  152.8479  145.9091  159.1369 H   0  0  0  0  0  0  0  0  0  0  0  0
  151.1541  145.4842  159.4342 H   0  0  0  0  0  0  0  0  0  0  0  0
  150.9291  142.6528  160.0181 H   0  0  0  0  0  0  0  0  0  0  0  0
  152.4320  141.9657  159.4202 H   0  0  0  0  0  0  0  0  0  0  0  0
  147.2119  136.0987  157.5724 H   0  0  0  0  0  0  0  0  0  0  0  0
  146.4952  138.2542  158.4977 H   0  0  0  0  0  0  0  0  0  0  0  0
  146.6596  138.3389  156.7576 H   0  0  0  0  0  0  0  0  0  0  0  0
  147.8856  139.0624  157.7961 H   0  0  0  0  0  0  0  0  0  0  0  0
  149.2593  135.7026  159.0786 H   0  0  0  0  0  0  0  0  0  0  0  0
  149.2493  137.4255  159.3563 H   0  0  0  0  0  0  0  0  0  0  0  0
  147.3670  133.9929  160.2066 H   0  0  0  0  0  0  0  0  0  0  0  0
  148.7233  134.5482  161.1761 H   0  0  0  0  0  0  0  0  0  0  0  0
  147.0109  133.3098  162.5730 H   0  0  0  0  0  0  0  0  0  0  0  0
  145.7860  134.4885  162.1197 H   0  0  0  0  0  0  0  0  0  0  0  0
  147.1578  134.9736  163.1159 H   0  0  0  0  0  0  0  0  0  0  0  0
  1  2  1  0  0  0  0
  1 28  1  0  0  0  0
  1 29  1  0  0  0  0
  1 30  1  0  0  0  0
  2  3  1  0  0  0  0
  2 31  1  0  0  0  0
  2 32  1  0  0  0  0
  3  4  1  0  0  0  0
  3 20  1  0  0  0  0
  4  9  1  0  0  0  0
  4  5  2  0  0  0  0
  5  6  1  0  0  0  0
  6  7  2  0  0  0  0
  6 33  1  0  0  0  0
  7  8  1  0  0  0  0
  8 12  1  0  0  0  0
  8  9  2  0  0  0  0
  9 10  1  0  0  0  0
 10 11  2  0  0  0  0
 11 12  1  0  0  0  0
 11 34  1  0  0  0  0
 12 13  1  0  0  0  0
 13 14  1  0  0  0  0
 13 35  1  0  0  0  0
 13 36  1  0  0  0  0
 14 19  1  0  0  0  0
 14 15  1  0  0  0  0
 14 16  1  0  0  0  0
 15 37  1  0  0  0  0
 16 17  1  0  0  0  0
 16 38  1  0  0  0  0
 16 39  1  0  0  0  0
 17 18  1  0  0  0  0
 17 40  1  0  0  0  0
 17 41  1  0  0  0  0
 18 19  1  0  0  0  0
 19 42  1  0  0  0  0
 19 43  1  0  0  0  0
 20 21  1  0  0  0  0
 20 22  1  0  0  0  0
 20 44  1  0  0  0  0
 21 45  1  0  0  0  0
 21 46  1  0  0  0  0
 21 47  1  0  0  0  0
 22 23  1  0  0  0  0
 22 48  1  0  0  0  0
 22 49  1  0  0  0  0
 23 24  2  0  0  0  0
 23 25  2  0  0  0  0
 23 26  1  0  0  0  0
 26 27  1  0  0  0  0
 26 50  1  0  0  0  0
 26 51  1  0  0  0  0
 27 52  1  0  0  0  0
 27 53  1  0  0  0  0
 27 54  1  0  0  0  0
M  END
> <s_m_source_file>
AV-unprocessed.smi

> <i_m_source_file_index>
89

> <i_lp_mmshare_version>
43012

> <i_f3d_flags>
0

> <s_epik_input>
W0NIM11bQ0gyXVMoPU8pKD1PKVtDSDJdW0NAQEhdKFtDSDNdKU4oW0NIMl1bQ0gzXSljKG5bY0hdbjEpYyhjMTIpbltjSF1uMltDSDJdW0NAQF0zKFtPSF0pW0NIMl1bQ0gyXU9bQ0gyXTM=

> <s_epik_cmdline>
J2VwaWtfcHl0aG9uJywgJy1waCcsICc3LjAnLCAnLXRuJywgJzgnLCAnLW1hJywgJzIwMCcsICctbWV0YWxfYmluZGluZycsICctaW1hZScsICc8aW5maWxlLm1hZT4nLCAnLW9tYWUnLCAnPG91dGZpbGUubWFlPic=

> <r_lp_tautomer_probability>
1

> <r_epik_Ionization_Penalty>
0.00103773

> <r_epik_Ionization_Penalty_Charging>
0

> <r_epik_Ionization_Penalty_Neutral>
0.00103773

> <r_epik_State_Penalty>
0.000558914

> <r_epik_Charging_Adjusted_Penalty>
0.000558914

> <i_epik_Tot_Q>
0

> <i_epik_Tot_abs_Q>
0

> <r_epik_Metal_State_Penalty>
-0

> <b_epik_Metal_Only>
0

> <s_lp_Force_Field>
OPLS_2005

> <r_lp_Energy>
26.3336

> <b_lp_Chiralities_Consistent>
1

> <s_lp_Variant>
AV-unprocessed.smi:89-2

> <Gold.Version>
5.8.1

> <Gold.Id.Protein>
6NUR|6NUR_protein|mol2

> <Gold.PLP.Fitness>
53.6797

> <Gold.PLP.PLP>
-41.1190

> <Gold.PLP.part.hbond>
-4.0000

> <Gold.PLP.part.metal>
0.0000

> <Gold.PLP.part.buried>
-7.5819

> <Gold.PLP.part.nonpolar>
-29.6322

> <Gold.PLP.part.repulsive>
0.2626

> <Gold.PLP.ligand.clash>
0.0000

> <Gold.PLP.ligand.torsion>
1.4200

> <Gold.PLP.Chemscore.Hbond>
3.7520

> <Gold.PLP.Chemscore.CHOScore>
1.0000

> <Gold.PLP.Chemscore.Metal>
0.0000

> <Gold.Chemscore.Hbonds>
donor molecule, donor type, donor heavy atom, donor atom, acceptor molecule, acceptor atom, score
      L1  H    15    37       P1  8028  1.00
      P1  H  6931  6943       L1    24  0.93
      P1  H  6934  6947       L1    24  0.75
      P1  H  7989  7998       L1     7  1.00
      L1  C     6    33       P1  7957  0.98

> <Gold.PLP.Chemscore.Internal.Correction>
1.1448

> <Gold.Rescore>
     Score         DG    S(hbond)    S(metal)    S(lipo)     H(rot)  DE(clash)    DE(int)     intcor
     15.07     -20.02       3.66        0.00      88.54       3.14       1.54       3.41       ----

> <Gold.Chemscore.Fitness>
15.0653

> <Gold.Chemscore.DG>
-20.0193

> <Gold.Chemscore.ZeroCoef>
-5.4800

> <Gold.Chemscore.Hbond>
3.6571

> <Gold.Chemscore.Metal>
0.0000

> <Gold.Chemscore.Lipo>
88.5424

> <Gold.Chemscore.Internal_Hbond>
0.0000

> <Gold.Chemscore.DEClash>
1.5422

> <Gold.Chemscore.DEInternal>
3.4118

> <Gold.Chemscore.Rot>
3.1386

> <Gold.Chemscore.Internal.Correction>
   9.000000E+99

> <Gold.Chemscore.Hbonds>
donor molecule, donor type, donor heavy atom, donor atom, acceptor molecule, acceptor atom, score
      L1  H    15    37       P1  8028  0.64
      P1  H  6931  6943       L1    24  0.89
      P1  H  6934  6947       L1    24  0.48
      P1  H  7989  7998       L1     7  0.45

> <Gold.Chemscore.Hbond.Weighted>
-12.2148

> <Gold.Chemscore.Metal.Weighted>
-0.0000

> <Gold.Chemscore.Lipo.Weighted>
-10.3595

> <Gold.Chemscore.Internal_Hbond.Weighted>
0.0000

> <Gold.Chemscore.DEClash.Weighted>
1.5422

> <Gold.Chemscore.DEInternal.Weighted>
3.4118

> <Gold.Chemscore.Rot.Weighted>
8.0349

> <Gold.Chemscore.Internal.Correction.Weighted>
   9.000000E+99

> <Gold.Protein.RotatedTorsions>
[ 6907 6896 6895 6894 ] final   19.41 input  -60.11 | X-H torsion
[ 7974 7965 7964 7962 ] final  -68.86 input  175.53 | X-H torsion
[ 8008 7997 7996 7995 ] final  125.48 input   59.86 | X-H torsion
[ 10167 10162 10161 10158 ] final  153.89 input  -65.29 | X-H torsion
[ 10718 10713 10712 10709 ] final   95.53 input   66.30 | X-H torsion
[ 10763 10752 10751 10750 ] final   -6.18 input  -60.55 | X-H torsion
[ 11005 11000 10999 10996 ] final  122.70 input  -57.11 | X-H torsion

> <Gold.Protein.ActiveResidues>
 VAL166  LYS551  ARG553  GLY616  TRP617  ASP618  TYR619  PRO620  LYS621  CYS622 
 ASP623  PHE694  ASN695  SER759  ASP760  ASP761  ALA762  ILE779  LEU786  VAL792 
 PHE793  MET794  SER795  GLU796  ALA797  LYS798  CYS799  TRP800  GLU811  SER814 

> <Gold.Protein.RotatedAtoms>
  151.8804  135.0456  160.0487 H   0  0  0  0  0  0  0  0  0  0  0  0  # atno 6907 bound_to 6896
  152.2517  133.5216  159.5338 H   0  0  0  0  0  0  0  0  0  0  0  0  # atno 6908 bound_to 6896
  150.7086  134.0867  159.3959 H   0  0  0  0  0  0  0  0  0  0  0  0  # atno 6909 bound_to 6896
  145.7112  140.9077  143.0680 H   0  0  0  0  0  0  0  0  0  0  0  0  # atno 7974 bound_to 7965
  156.2835  140.2715  156.1957 H   0  0  0  0  0  0  0  0  0  0  0  0  # atno 8008 bound_to 7997
  155.0413  140.0386  157.2528 H   0  0  0  0  0  0  0  0  0  0  0  0  # atno 8009 bound_to 7997
  154.7272  140.2699  155.6493 H   0  0  0  0  0  0  0  0  0  0  0  0  # atno 8010 bound_to 7997
  139.4825  144.5234  151.7840 H   0  0  0  0  0  0  0  0  0  0  0  0  # atno 10167 bound_to 10162
  157.6937  131.0548  150.4352 H   0  0  0  0  0  0  0  0  0  0  0  0  # atno 10718 bound_to 10713
  153.4088  135.7007  153.6374 H   0  0  0  0  0  0  0  0  0  0  0  0  # atno 10763 bound_to 10752
  153.4876  135.3680  155.2475 H   0  0  0  0  0  0  0  0  0  0  0  0  # atno 10764 bound_to 10752
  154.8715  135.4081  154.3436 H   0  0  0  0  0  0  0  0  0  0  0  0  # atno 10765 bound_to 10752
  139.9280  134.9641  156.8149 H   0  0  0  0  0  0  0  0  0  0  0  0  # atno 11005 bound_to 11000
  144.6941  139.9077  143.7462 LP  0  0  0  0  0  0  0  0  0  0  0  0  # atno 17320 bound_to 7965
  146.0711  139.3700  143.0522 LP  0  0  0  0  0  0  0  0  0  0  0  0  # atno 17321 bound_to 7965
  140.4750  144.1531  150.5923 LP  0  0  0  0  0  0  0  0  0  0  0  0  # atno 17342 bound_to 10162
  140.4340  143.2555  151.9559 LP  0  0  0  0  0  0  0  0  0  0  0  0  # atno 17343 bound_to 10162
  156.4715  130.4054  149.6515 LP  0  0  0  0  0  0  0  0  0  0  0  0  # atno 17370 bound_to 10713
  156.3594  130.7473  151.2443 LP  0  0  0  0  0  0  0  0  0  0  0  0  # atno 17371 bound_to 10713
  140.6282  133.9931  155.7649 LP  0  0  0  0  0  0  0  0  0  0  0  0  # atno 17394 bound_to 11000
  141.0850  134.0004  157.3327 LP  0  0  0  0  0  0  0  0  0  0  0  0  # atno 17395 bound_to 11000

$$$$
