AV-unprocessed.smi:2618|AV-procd|sdf|10221|dock9
  -GOLD-   2272014223D 1   1.00000     0.00000
 Structure written by MMmdl.
 38 39  0  0  0  0  0  0  0  0  2 V2000
  149.1681  140.9540  154.3192 C   0  0  0  0  0  0  0  0  0  0  0  0
  150.4284  140.3251  154.4726 O   0  0  0  0  0  0  0  0  0  0  0  0
  150.3241  138.9126  154.5431 C   0  0  0  0  0  0  0  0  0  0  0  0
  151.7305  138.3192  154.7381 C   0  0  0  0  0  0  0  0  0  0  0  0
  152.1437  138.1966  156.1840 C   0  0  0  0  0  0  0  0  0  0  0  0
  152.4267  139.1896  156.9452 N   0  0  0  0  0  0  0  0  0  0  0  0
  152.7591  138.7866  158.1732 N   0  0  0  0  0  0  0  0  0  0  0  0
  153.1844  139.7011  159.1588 C   0  0  0  0  0  0  0  0  0  0  0  0
  152.9604  141.0176  158.9921 N   0  0  0  0  0  0  0  0  0  0  0  0
  153.3866  141.8617  159.9544 C   0  0  0  0  0  0  0  0  0  0  0  0
  153.1049  143.3328  159.7378 C   0  0  0  0  0  0  0  0  0  0  0  0
  154.0612  141.3995  161.1016 C   0  0  0  0  0  0  0  0  0  0  0  0
  154.2580  140.0068  161.1802 C   0  0  0  0  0  0  0  0  0  0  0  0
  154.9750  139.3728  162.3527 C   0  0  0  0  0  0  0  0  0  0  0  0
  153.8217  139.1697  160.2151 N   0  0  0  0  0  0  0  0  0  0  0  0
  152.7158  137.3111  158.2768 C   0  0  2  0  0  0  0  0  0  0  0  0
  151.8055  136.9151  159.1383 O   0  5  0  0  0  0  0  0  0  0  0  0
  154.0979  136.7010  158.6442 C   0  0  0  0  0  0  0  0  0  0  0  0
  154.1594  135.4302  158.2413 F   0  0  0  0  0  0  0  0  0  0  0  0
  155.1045  137.3633  158.0717 F   0  0  0  0  0  0  0  0  0  0  0  0
  154.2812  136.7249  159.9663 F   0  0  0  0  0  0  0  0  0  0  0  0
  152.2627  136.8848  156.8730 C   0  0  0  0  0  0  0  0  0  0  0  0
  149.3011  142.0348  154.2705 H   0  0  0  0  0  0  0  0  0  0  0  0
  148.5121  140.7332  155.1622 H   0  0  0  0  0  0  0  0  0  0  0  0
  148.6768  140.6332  153.3998 H   0  0  0  0  0  0  0  0  0  0  0  0
  149.6747  138.6334  155.3750 H   0  0  0  0  0  0  0  0  0  0  0  0
  149.8730  138.5314  153.6250 H   0  0  0  0  0  0  0  0  0  0  0  0
  151.7769  137.3355  154.2702 H   0  0  0  0  0  0  0  0  0  0  0  0
  152.4568  138.9422  154.2152 H   0  0  0  0  0  0  0  0  0  0  0  0
  153.3415  143.9143  160.6291 H   0  0  0  0  0  0  0  0  0  0  0  0
  152.0518  143.4874  159.5003 H   0  0  0  0  0  0  0  0  0  0  0  0
  153.7039  143.7130  158.9102 H   0  0  0  0  0  0  0  0  0  0  0  0
  154.4075  142.0723  161.8723 H   0  0  0  0  0  0  0  0  0  0  0  0
  155.2229  140.1157  163.1114 H   0  0  0  0  0  0  0  0  0  0  0  0
  155.9004  138.9021  162.0197 H   0  0  0  0  0  0  0  0  0  0  0  0
  154.3476  138.6100  162.8144 H   0  0  0  0  0  0  0  0  0  0  0  0
  151.3072  136.3566  156.8558 H   0  0  0  0  0  0  0  0  0  0  0  0
  152.9997  136.2582  156.3700 H   0  0  0  0  0  0  0  0  0  0  0  0
  1  2  1  0  0  0  0
  1 23  1  0  0  0  0
  1 24  1  0  0  0  0
  1 25  1  0  0  0  0
  2  3  1  0  0  0  0
  3  4  1  0  0  0  0
  3 26  1  0  0  0  0
  3 27  1  0  0  0  0
  4  5  1  0  0  0  0
  4 28  1  0  0  0  0
  4 29  1  0  0  0  0
  5 22  1  0  0  0  0
  5  6  2  0  0  0  0
  6  7  1  0  0  0  0
  7  8  1  0  0  0  0
  7 16  1  0  0  0  0
  8 15  1  0  0  0  0
  8  9  2  0  0  0  0
  9 10  1  0  0  0  0
 10 11  1  0  0  0  0
 10 12  2  0  0  0  0
 11 30  1  0  0  0  0
 11 31  1  0  0  0  0
 11 32  1  0  0  0  0
 12 13  1  0  0  0  0
 12 33  1  0  0  0  0
 13 14  1  0  0  0  0
 13 15  2  0  0  0  0
 14 34  1  0  0  0  0
 14 35  1  0  0  0  0
 14 36  1  0  0  0  0
 16 17  1  0  0  0  0
 16 18  1  0  0  0  0
 16 22  1  0  0  0  0
 18 19  1  0  0  0  0
 18 20  1  0  0  0  0
 18 21  1  0  0  0  0
 22 37  1  0  0  0  0
 22 38  1  0  0  0  0
M  CHG  1  17  -1
M  END
> <s_m_source_file>
AV-unprocessed.smi

> <i_m_source_file_index>
2618

> <i_lp_mmshare_version>
43012

> <i_f3d_flags>
0

> <s_epik_input>
W0NIM11PW0NIMl1bQ0gyXUMoW0NIMl0xKT1OTihbQ0BAXTEoW09IXSlDKEYpKEYpRiljMm5jKFtDSDNdKVtjSF1jKG4yKVtDSDNd

> <s_epik_cmdline>
J2VwaWtfcHl0aG9uJywgJy1waCcsICc3LjAnLCAnLXRuJywgJzgnLCAnLW1hJywgJzIwMCcsICctbWV0YWxfYmluZGluZycsICctaW1hZScsICc8aW5maWxlLm1hZT4nLCAnLW9tYWUnLCAnPG91dGZpbGUubWFlPic=

> <r_lp_tautomer_probability>
1

> <r_epik_Ionization_Penalty>
1.35617

> <r_epik_Ionization_Penalty_Charging>
1.35566

> <r_epik_Ionization_Penalty_Neutral>
0.000506926

> <r_epik_State_Penalty>
1.43411

> <r_epik_Charging_Adjusted_Penalty>
2.78977

> <i_epik_Tot_Q>
-1

> <i_epik_Tot_abs_Q>
1

> <r_epik_Metal_State_Penalty>
1.43499

> <b_epik_Metal_Only>
0

> <s_epik_Chemistry_Notes>
This compound has an imine and may undergo hydrolysis.

> <s_lp_Force_Field>
OPLS_2005

> <r_lp_Energy>
21.8368

> <b_lp_Chiralities_Consistent>
1

> <s_lp_Variant>
AV-unprocessed.smi:2618-4

> <Gold.Version>
5.8.1

> <Gold.Id.Protein>
6NUR|6NUR_protein|mol2

> <Gold.PLP.Fitness>
45.5586

> <Gold.PLP.PLP>
-36.8844

> <Gold.PLP.part.hbond>
-2.8834

> <Gold.PLP.part.metal>
0.0000

> <Gold.PLP.part.buried>
-4.9176

> <Gold.PLP.part.nonpolar>
-29.1633

> <Gold.PLP.part.repulsive>
0.1097

> <Gold.PLP.ligand.clash>
0.0019

> <Gold.PLP.ligand.torsion>
1.2497

> <Gold.PLP.Chemscore.Hbond>
3.6787

> <Gold.PLP.Chemscore.CHOScore>
0.0000

> <Gold.PLP.Chemscore.Metal>
0.0000

> <Gold.Chemscore.Hbonds>
donor molecule, donor type, donor heavy atom, donor atom, acceptor molecule, acceptor atom, score
      P1  H  6896  6909       L1    17  2.00
      P1  H  7989  7998       L1     2  1.00
      P1  H  7997  8008       L1     6  0.49

> <Gold.PLP.Chemscore.Internal.Correction>
0.1394

> <Gold.Rescore>
     Score         DG    S(hbond)    S(metal)    S(lipo)     H(rot)  DE(clash)    DE(int)     intcor
     14.06     -17.83       1.86        0.00      84.57       1.47       0.03       3.74       ----

> <Gold.Chemscore.Fitness>
14.0581

> <Gold.Chemscore.DG>
-17.8299

> <Gold.Chemscore.ZeroCoef>
-5.4800

> <Gold.Chemscore.Hbond>
1.8650

> <Gold.Chemscore.Metal>
0.0000

> <Gold.Chemscore.Lipo>
84.5719

> <Gold.Chemscore.Internal_Hbond>
0.0000

> <Gold.Chemscore.DEClash>
0.0294

> <Gold.Chemscore.DEInternal>
3.7424

> <Gold.Chemscore.Rot>
1.4742

> <Gold.Chemscore.Internal.Correction>
   9.000000E+99

> <Gold.Chemscore.Hbonds>
donor molecule, donor type, donor heavy atom, donor atom, acceptor molecule, acceptor atom, score
      P1  H  6896  6909       L1    17  0.95
      P1  H  7989  7998       L1     2  0.80
      P1  H  7997  8008       L1     6  0.05

> <Gold.Chemscore.Hbond.Weighted>
-6.2290

> <Gold.Chemscore.Metal.Weighted>
-0.0000

> <Gold.Chemscore.Lipo.Weighted>
-9.8949

> <Gold.Chemscore.Internal_Hbond.Weighted>
0.0000

> <Gold.Chemscore.DEClash.Weighted>
0.0294

> <Gold.Chemscore.DEInternal.Weighted>
3.7424

> <Gold.Chemscore.Rot.Weighted>
3.7740

> <Gold.Chemscore.Internal.Correction.Weighted>
   9.000000E+99

> <Gold.Protein.RotatedTorsions>
[ 6907 6896 6895 6894 ] final  117.94 input  -60.11 | X-H torsion
[ 7974 7965 7964 7962 ] final  -61.52 input  175.53 | X-H torsion
[ 8008 7997 7996 7995 ] final  -51.95 input   59.86 | X-H torsion
[ 10167 10162 10161 10158 ] final   -0.28 input  -65.29 | X-H torsion
[ 10718 10713 10712 10709 ] final  -92.06 input   66.30 | X-H torsion
[ 10763 10752 10751 10750 ] final    5.11 input  -60.55 | X-H torsion
[ 11005 11000 10999 10996 ] final   70.89 input  -57.11 | X-H torsion

> <Gold.Protein.ActiveResidues>
 VAL166  LYS551  ARG553  GLY616  TRP617  ASP618  TYR619  PRO620  LYS621  CYS622 
 ASP623  PHE694  ASN695  SER759  ASP760  ASP761  ALA762  ILE779  LEU786  VAL792 
 PHE793  MET794  SER795  GLU796  ALA797  LYS798  CYS799  TRP800  GLU811  SER814 

> <Gold.Protein.RotatedAtoms>
  152.4578  133.7759  159.6823 H   0  0  0  0  0  0  0  0  0  0  0  0  # atno 6907 bound_to 6896
  150.8510  133.7777  159.3032 H   0  0  0  0  0  0  0  0  0  0  0  0  # atno 6908 bound_to 6896
  151.5372  135.1071  159.9969 H   0  0  0  0  0  0  0  0  0  0  0  0  # atno 6909 bound_to 6896
  145.8025  140.8647  143.0224 H   0  0  0  0  0  0  0  0  0  0  0  0  # atno 7974 bound_to 7965
  154.4095  140.1235  156.4911 H   0  0  0  0  0  0  0  0  0  0  0  0  # atno 8008 bound_to 7997
  155.6989  140.3495  155.4905 H   0  0  0  0  0  0  0  0  0  0  0  0  # atno 8009 bound_to 7997
  155.9403  140.1086  157.1051 H   0  0  0  0  0  0  0  0  0  0  0  0  # atno 8010 bound_to 7997
  140.6760  143.6913  150.8025 H   0  0  0  0  0  0  0  0  0  0  0  0  # atno 10167 bound_to 10162
  155.9999  130.4972  150.5568 H   0  0  0  0  0  0  0  0  0  0  0  0  # atno 10718 bound_to 10713
  153.2632  135.6925  153.7556 H   0  0  0  0  0  0  0  0  0  0  0  0  # atno 10763 bound_to 10752
  153.6608  135.3361  155.3127 H   0  0  0  0  0  0  0  0  0  0  0  0  # atno 10764 bound_to 10752
  154.8438  135.4476  154.1630 H   0  0  0  0  0  0  0  0  0  0  0  0  # atno 10765 bound_to 10752
  139.9573  134.7122  156.0724 H   0  0  0  0  0  0  0  0  0  0  0  0  # atno 11005 bound_to 11000
  144.6767  140.0279  143.7483 LP  0  0  0  0  0  0  0  0  0  0  0  0  # atno 17320 bound_to 7965
  145.9863  139.2980  143.1011 LP  0  0  0  0  0  0  0  0  0  0  0  0  # atno 17321 bound_to 7965
  140.0606  143.5158  152.2629 LP  0  0  0  0  0  0  0  0  0  0  0  0  # atno 17342 bound_to 10162
  139.6054  144.7594  151.3075 LP  0  0  0  0  0  0  0  0  0  0  0  0  # atno 17343 bound_to 10162
  157.3483  131.0729  151.1733 LP  0  0  0  0  0  0  0  0  0  0  0  0  # atno 17370 bound_to 10713
  157.2558  130.6635  149.5952 LP  0  0  0  0  0  0  0  0  0  0  0  0  # atno 17371 bound_to 10713
  141.1246  133.6603  156.3303 LP  0  0  0  0  0  0  0  0  0  0  0  0  # atno 17394 bound_to 11000
  140.5580  134.5962  157.5426 LP  0  0  0  0  0  0  0  0  0  0  0  0  # atno 17395 bound_to 11000

$$$$
