AV-unprocessed.smi:2839|AV-procd|sdf|10930|dock5
  -GOLD-   2272015373D 1   1.00000     0.00000
 Structure written by MMmdl.
 32 33  0  0  0  0  0  0  0  0  1 V2000
  148.0611  141.6831  154.0352 C   0  0  0  0  0  0  0  0  0  0  0  0
  148.9460  140.9432  154.9258 N   0  0  0  0  0  0  0  0  0  0  0  0
  149.9110  140.0692  154.4808 C   0  0  0  0  0  0  0  0  0  0  0  0
  150.5538  139.5272  155.4579 N   0  0  0  0  0  0  0  0  0  0  0  0
  149.9692  140.0834  156.5522 N   0  0  0  0  0  0  0  0  0  0  0  0
  150.4503  139.7199  157.8862 C   0  0  0  0  0  0  0  0  0  0  0  0
  151.6902  140.5126  158.3220 C   0  0  0  0  0  0  0  0  0  0  0  0
  152.8165  140.1869  157.9436 O   0  0  0  0  0  0  0  0  0  0  0  0
  151.4627  141.5526  159.1382 N   0  0  0  0  0  0  0  0  0  0  0  0
  152.4911  142.4404  159.6744 C   0  0  0  0  0  0  0  0  0  0  0  0
  152.4783  142.4265  161.2154 C   0  0  0  0  0  0  0  0  0  0  0  0
  152.4838  143.8922  161.6537 C   0  0  0  0  0  0  0  0  0  0  0  0
  151.7785  144.6285  160.5195 C   0  0  0  0  0  0  0  0  0  0  0  0
  152.2463  143.9045  159.2571 C   0  0  0  0  0  0  0  0  0  0  0  0
  148.9830  140.9411  156.2536 C   0  0  0  0  0  0  0  0  0  0  0  0
  148.2733  141.5794  157.0307 O   0  0  0  0  0  0  0  0  0  0  0  0
  148.4756  141.7642  153.0293 H   0  0  0  0  0  0  0  0  0  0  0  0
  147.8967  142.6944  154.4096 H   0  0  0  0  0  0  0  0  0  0  0  0
  147.0939  141.1843  153.9668 H   0  0  0  0  0  0  0  0  0  0  0  0
  150.0476  139.9123  153.4095 H   0  0  0  0  0  0  0  0  0  0  0  0
  149.6473  139.8795  158.6077 H   0  0  0  0  0  0  0  0  0  0  0  0
  150.6890  138.6558  157.9197 H   0  0  0  0  0  0  0  0  0  0  0  0
  150.5084  141.7479  159.4035 H   0  0  0  0  0  0  0  0  0  0  0  0
  153.4720  142.1200  159.3178 H   0  0  0  0  0  0  0  0  0  0  0  0
  151.5713  141.9489  161.5894 H   0  0  0  0  0  0  0  0  0  0  0  0
  153.3239  141.8758  161.6286 H   0  0  0  0  0  0  0  0  0  0  0  0
  151.9999  144.0443  162.6188 H   0  0  0  0  0  0  0  0  0  0  0  0
  153.5116  144.2476  161.7366 H   0  0  0  0  0  0  0  0  0  0  0  0
  150.6982  144.5203  160.6263 H   0  0  0  0  0  0  0  0  0  0  0  0
  152.0082  145.6941  160.5020 H   0  0  0  0  0  0  0  0  0  0  0  0
  153.1869  144.3420  158.9203 H   0  0  0  0  0  0  0  0  0  0  0  0
  151.5339  144.0119  158.4377 H   0  0  0  0  0  0  0  0  0  0  0  0
  1  2  1  0  0  0  0
  1 17  1  0  0  0  0
  1 18  1  0  0  0  0
  1 19  1  0  0  0  0
  2 15  1  0  0  0  0
  2  3  1  0  0  0  0
  3  4  2  0  0  0  0
  3 20  1  0  0  0  0
  4  5  1  0  0  0  0
  5  6  1  0  0  0  0
  5 15  1  0  0  0  0
  6  7  1  0  0  0  0
  6 21  1  0  0  0  0
  6 22  1  0  0  0  0
  7  8  2  0  0  0  0
  7  9  1  0  0  0  0
  9 10  1  0  0  0  0
  9 23  1  0  0  0  0
 10 14  1  0  0  0  0
 10 11  1  0  0  0  0
 10 24  1  0  0  0  0
 11 12  1  0  0  0  0
 11 25  1  0  0  0  0
 11 26  1  0  0  0  0
 12 13  1  0  0  0  0
 12 27  1  0  0  0  0
 12 28  1  0  0  0  0
 13 14  1  0  0  0  0
 13 29  1  0  0  0  0
 13 30  1  0  0  0  0
 14 31  1  0  0  0  0
 14 32  1  0  0  0  0
 15 16  2  0  0  0  0
M  END
> <s_m_source_file>
AV-unprocessed.smi

> <i_m_source_file_index>
2839

> <i_lp_mmshare_version>
43012

> <i_f3d_flags>
0

> <s_epik_input>
W0NIM11uMVtjSF1ubihjMT1PKVtDSDJdQyg9TylbTkhdW0NIXTJbQ0gyXVtDSDJdW0NIMl1bQ0gyXTI=

> <s_epik_cmdline>
J2VwaWtfcHl0aG9uJywgJy1waCcsICc3LjAnLCAnLXRuJywgJzgnLCAnLW1hJywgJzIwMCcsICctbWV0YWxfYmluZGluZycsICctaW1hZScsICc8aW5maWxlLm1hZT4nLCAnLW9tYWUnLCAnPG91dGZpbGUubWFlPic=

> <r_lp_tautomer_probability>
1

> <r_epik_Ionization_Penalty>
1.58668e-07

> <r_epik_Ionization_Penalty_Charging>
8.23952e-09

> <r_epik_Ionization_Penalty_Neutral>
1.50429e-07

> <r_epik_State_Penalty>
-0

> <r_epik_Charging_Adjusted_Penalty>
8.23952e-09

> <i_epik_Tot_Q>
0

> <i_epik_Tot_abs_Q>
0

> <r_epik_Metal_State_Penalty>
-0

> <b_epik_Metal_Only>
0

> <s_lp_Force_Field>
OPLS_2005

> <r_lp_Energy>
35.3478

> <b_lp_Chiralities_Consistent>
1

> <s_lp_Variant>
AV-unprocessed.smi:2839-1

> <Gold.Version>
5.8.1

> <Gold.Id.Protein>
6NUR|6NUR_protein|mol2

> <Gold.PLP.Fitness>
38.2949

> <Gold.PLP.PLP>
-33.5644

> <Gold.PLP.part.hbond>
-1.0000

> <Gold.PLP.part.metal>
0.0000

> <Gold.PLP.part.buried>
-3.3290

> <Gold.PLP.part.nonpolar>
-28.9258

> <Gold.PLP.part.repulsive>
0.2963

> <Gold.PLP.ligand.clash>
0.0000

> <Gold.PLP.ligand.torsion>
0.6247

> <Gold.PLP.Chemscore.Hbond>
0.9920

> <Gold.PLP.Chemscore.CHOScore>
1.0000

> <Gold.PLP.Chemscore.Metal>
0.0000

> <Gold.Chemscore.Hbonds>
donor molecule, donor type, donor heavy atom, donor atom, acceptor molecule, acceptor atom, score
      P1  H  7997  8008       L1     8  0.99
      L1  C     3    20       P1  7957  1.00

> <Gold.PLP.Chemscore.Internal.Correction>
0.0039

> <Gold.Rescore>
     Score         DG    S(hbond)    S(metal)    S(lipo)     H(rot)  DE(clash)    DE(int)     intcor
     11.90     -12.46       0.93        0.00      70.80       1.72       0.02       0.54       ----

> <Gold.Chemscore.Fitness>
11.9021

> <Gold.Chemscore.DG>
-12.4643

> <Gold.Chemscore.ZeroCoef>
-5.4800

> <Gold.Chemscore.Hbond>
0.9294

> <Gold.Chemscore.Metal>
0.0000

> <Gold.Chemscore.Lipo>
70.7997

> <Gold.Chemscore.Internal_Hbond>
0.0000

> <Gold.Chemscore.DEClash>
0.0183

> <Gold.Chemscore.DEInternal>
0.5439

> <Gold.Chemscore.Rot>
1.7201

> <Gold.Chemscore.Internal.Correction>
   9.000000E+99

> <Gold.Chemscore.Hbonds>
donor molecule, donor type, donor heavy atom, donor atom, acceptor molecule, acceptor atom, score
      P1  H  7997  8008       L1     8  0.92

> <Gold.Chemscore.Hbond.Weighted>
-3.1041

> <Gold.Chemscore.Metal.Weighted>
-0.0000

> <Gold.Chemscore.Lipo.Weighted>
-8.2836

> <Gold.Chemscore.Internal_Hbond.Weighted>
0.0000

> <Gold.Chemscore.DEClash.Weighted>
0.0183

> <Gold.Chemscore.DEInternal.Weighted>
0.5439

> <Gold.Chemscore.Rot.Weighted>
4.4033

> <Gold.Chemscore.Internal.Correction.Weighted>
   9.000000E+99

> <Gold.Protein.RotatedTorsions>
[ 6907 6896 6895 6894 ] final  140.34 input  -60.11 | X-H torsion
[ 7974 7965 7964 7962 ] final  -41.91 input  175.53 | X-H torsion
[ 8008 7997 7996 7995 ] final  -78.01 input   59.86 | X-H torsion
[ 10167 10162 10161 10158 ] final    0.70 input  -65.29 | X-H torsion
[ 10718 10713 10712 10709 ] final -150.56 input   66.30 | X-H torsion
[ 10763 10752 10751 10750 ] final    4.32 input  -60.55 | X-H torsion
[ 11005 11000 10999 10996 ] final  116.90 input  -57.11 | X-H torsion

> <Gold.Protein.ActiveResidues>
 VAL166  LYS551  ARG553  GLY616  TRP617  ASP618  TYR619  PRO620  LYS621  CYS622 
 ASP623  PHE694  ASN695  SER759  ASP760  ASP761  ALA762  ILE779  LEU786  VAL792 
 PHE793  MET794  SER795  GLU796  ALA797  LYS798  CYS799  TRP800  GLU811  SER814 

> <Gold.Protein.RotatedAtoms>
  152.2441  133.5160  159.5287 H   0  0  0  0  0  0  0  0  0  0  0  0  # atno 6907 bound_to 6896
  150.7073  134.1049  159.3988 H   0  0  0  0  0  0  0  0  0  0  0  0  # atno 6908 bound_to 6896
  151.8969  135.0394  160.0553 H   0  0  0  0  0  0  0  0  0  0  0  0  # atno 6909 bound_to 6896
  146.0166  140.6900  142.9198 H   0  0  0  0  0  0  0  0  0  0  0  0  # atno 7974 bound_to 7965
  154.5649  140.0701  156.8876 H   0  0  0  0  0  0  0  0  0  0  0  0  # atno 8008 bound_to 7997
  155.2742  140.3367  155.4245 H   0  0  0  0  0  0  0  0  0  0  0  0  # atno 8009 bound_to 7997
  156.2072  140.1745  156.7759 H   0  0  0  0  0  0  0  0  0  0  0  0  # atno 8010 bound_to 7997
  140.6717  143.7031  150.7936 H   0  0  0  0  0  0  0  0  0  0  0  0  # atno 10167 bound_to 10162
  156.4478  130.8153  151.2383 H   0  0  0  0  0  0  0  0  0  0  0  0  # atno 10718 bound_to 10713
  153.2726  135.6933  153.7465 H   0  0  0  0  0  0  0  0  0  0  0  0  # atno 10763 bound_to 10752
  153.6482  135.3381  155.3093 H   0  0  0  0  0  0  0  0  0  0  0  0  # atno 10764 bound_to 10752
  154.8469  135.4448  154.1754 H   0  0  0  0  0  0  0  0  0  0  0  0  # atno 10765 bound_to 10752
  139.9056  134.9604  156.7268 H   0  0  0  0  0  0  0  0  0  0  0  0  # atno 11005 bound_to 11000
  144.6973  140.3492  143.7185 LP  0  0  0  0  0  0  0  0  0  0  0  0  # atno 17320 bound_to 7965
  145.7259  139.1722  143.2458 LP  0  0  0  0  0  0  0  0  0  0  0  0  # atno 17321 bound_to 7965
  140.0717  143.5054  152.2576 LP  0  0  0  0  0  0  0  0  0  0  0  0  # atno 17342 bound_to 10162
  139.5988  144.7576  151.3221 LP  0  0  0  0  0  0  0  0  0  0  0  0  # atno 17343 bound_to 10162
  157.7504  131.0148  150.3477 LP  0  0  0  0  0  0  0  0  0  0  0  0  # atno 17370 bound_to 10713
  156.3849  130.3887  149.7073 LP  0  0  0  0  0  0  0  0  0  0  0  0  # atno 17371 bound_to 10713
  140.6957  133.9351  155.7993 LP  0  0  0  0  0  0  0  0  0  0  0  0  # atno 17394 bound_to 11000
  141.0409  134.0623  157.3903 LP  0  0  0  0  0  0  0  0  0  0  0  0  # atno 17395 bound_to 11000

$$$$
