AV-unprocessed.smi:1563|AV-procd|sdf|6292|dock10
  -GOLD-   22720 6493D 1   1.00000     0.00000
 Structure written by MMmdl.
 44 45  0  0  0  0  0  0  0  0  2 V2000
  146.4685  135.1827  161.9038 C   0  0  0  0  0  0  0  0  0  0  0  0
  147.3401  136.2763  161.2967 C   0  0  0  0  0  0  0  0  0  0  0  0
  147.5577  137.3124  161.9251 O   0  0  0  0  0  0  0  0  0  0  0  0
  147.8292  136.0341  160.0708 N   0  0  0  0  0  0  0  0  0  0  0  0
  148.6781  136.9476  159.3146 C   0  0  1  0  0  0  0  0  0  0  0  0
  150.1406  136.4458  159.2820 C   0  0  0  0  0  0  0  0  0  0  0  0
  151.0238  137.2949  158.3443 C   0  0  0  0  0  0  0  0  0  0  0  0
  150.3506  137.4947  156.9733 C   0  0  0  0  0  0  0  0  0  0  0  0
  149.0149  138.0725  157.1913 N   0  0  0  0  0  0  0  0  0  0  0  0
  148.6758  139.3794  157.0640 C   0  0  0  0  0  0  0  0  0  0  0  0
  147.5413  139.8047  157.2866 O   0  0  0  0  0  0  0  0  0  0  0  0
  149.6998  140.1985  156.7636 N   0  0  0  0  0  0  0  0  0  0  0  0
  149.6521  141.6592  156.7941 C   0  0  0  0  0  0  0  0  0  0  0  0
  151.0558  142.2937  156.6898 C   0  0  0  0  0  0  0  0  0  0  0  0
  151.3834  143.2646  157.8132 C   0  0  0  0  0  0  0  0  0  0  0  0
  152.3781  142.9906  158.7780 C   0  0  0  0  0  0  0  0  0  0  0  0
  152.6040  143.9155  159.8187 C   0  0  0  0  0  0  0  0  0  0  0  0
  151.8324  145.0942  159.8731 C   0  0  0  0  0  0  0  0  0  0  0  0
  150.8594  145.3227  158.8787 C   0  0  0  0  0  0  0  0  0  0  0  0
  150.6747  144.4139  157.8960 N   0  3  0  0  0  0  0  0  0  0  0  0
  148.1375  137.1207  157.8811 C   0  0  0  0  0  0  0  0  0  0  0  0
  146.9286  134.2034  161.7698 H   0  0  0  0  0  0  0  0  0  0  0  0
  145.4885  135.1722  161.4266 H   0  0  0  0  0  0  0  0  0  0  0  0
  146.3277  135.3486  162.9723 H   0  0  0  0  0  0  0  0  0  0  0  0
  147.5965  135.1553  159.6311 H   0  0  0  0  0  0  0  0  0  0  0  0
  148.6556  137.9276  159.7933 H   0  0  0  0  0  0  0  0  0  0  0  0
  150.5640  136.4404  160.2870 H   0  0  0  0  0  0  0  0  0  0  0  0
  150.1572  135.4114  158.9358 H   0  0  0  0  0  0  0  0  0  0  0  0
  151.2090  138.2671  158.8013 H   0  0  0  0  0  0  0  0  0  0  0  0
  151.9983  136.8222  158.2201 H   0  0  0  0  0  0  0  0  0  0  0  0
  150.9820  138.0969  156.3193 H   0  0  0  0  0  0  0  0  0  0  0  0
  150.2489  136.5334  156.4674 H   0  0  0  0  0  0  0  0  0  0  0  0
  150.6008  139.7774  156.5893 H   0  0  0  0  0  0  0  0  0  0  0  0
  149.0328  142.0020  155.9650 H   0  0  0  0  0  0  0  0  0  0  0  0
  149.1550  142.0045  157.7021 H   0  0  0  0  0  0  0  0  0  0  0  0
  151.8074  141.5033  156.6835 H   0  0  0  0  0  0  0  0  0  0  0  0
  151.1556  142.8108  155.7348 H   0  0  0  0  0  0  0  0  0  0  0  0
  152.9534  142.0777  158.7318 H   0  0  0  0  0  0  0  0  0  0  0  0
  153.3518  143.7186  160.5728 H   0  0  0  0  0  0  0  0  0  0  0  0
  151.9832  145.8097  160.6684 H   0  0  0  0  0  0  0  0  0  0  0  0
  150.2232  146.1947  158.8439 H   0  0  0  0  0  0  0  0  0  0  0  0
  148.1346  136.1665  157.3517 H   0  0  0  0  0  0  0  0  0  0  0  0
  147.0973  137.4500  157.9030 H   0  0  0  0  0  0  0  0  0  0  0  0
  149.9557  144.5949  157.1952 H   0  0  0  0  0  0  0  0  0  0  0  0
  1  2  1  0  0  0  0
  1 22  1  0  0  0  0
  1 23  1  0  0  0  0
  1 24  1  0  0  0  0
  2  3  2  0  0  0  0
  2  4  1  0  0  0  0
  4  5  1  0  0  0  0
  4 25  1  0  0  0  0
  5 21  1  0  0  0  0
  5  6  1  0  0  0  0
  5 26  1  0  0  0  0
  6  7  1  0  0  0  0
  6 27  1  0  0  0  0
  6 28  1  0  0  0  0
  7  8  1  0  0  0  0
  7 29  1  0  0  0  0
  7 30  1  0  0  0  0
  8  9  1  0  0  0  0
  8 31  1  0  0  0  0
  8 32  1  0  0  0  0
  9 10  1  0  0  0  0
  9 21  1  0  0  0  0
 10 11  2  0  0  0  0
 10 12  1  0  0  0  0
 12 13  1  0  0  0  0
 12 33  1  0  0  0  0
 13 14  1  0  0  0  0
 13 34  1  0  0  0  0
 13 35  1  0  0  0  0
 14 15  1  0  0  0  0
 14 36  1  0  0  0  0
 14 37  1  0  0  0  0
 15 20  1  0  0  0  0
 15 16  2  0  0  0  0
 16 17  1  0  0  0  0
 16 38  1  0  0  0  0
 17 18  2  0  0  0  0
 17 39  1  0  0  0  0
 18 19  1  0  0  0  0
 18 40  1  0  0  0  0
 19 20  2  0  0  0  0
 19 41  1  0  0  0  0
 20 44  1  0  0  0  0
 21 42  1  0  0  0  0
 21 43  1  0  0  0  0
M  CHG  1  20   1
M  END
> <s_m_source_file>
AV-unprocessed.smi

> <i_m_source_file_index>
1563

> <i_lp_mmshare_version>
43012

> <i_f3d_flags>
0

> <s_epik_input>
W0NIM11DKD1PKVtOSF1bQ0BASF0xW0NIMl1bQ0gyXVtDSDJdTihbQ0gyXTEpQyg9TylbTkhdW0NIMl1bQ0gyXWMyW2NIXVtjSF1bY0hdW2NIXW4y

> <s_epik_cmdline>
J2VwaWtfcHl0aG9uJywgJy1waCcsICc3LjAnLCAnLXRuJywgJzgnLCAnLW1hJywgJzIwMCcsICctbWV0YWxfYmluZGluZycsICctaW1hZScsICc8aW5maWxlLm1hZT4nLCAnLW9tYWUnLCAnPG91dGZpbGUubWFlPic=

> <r_epik_Ionization_Penalty>
1.56048

> <r_epik_Ionization_Penalty_Charging>
1.56043

> <r_epik_Ionization_Penalty_Neutral>
4.90601e-05

> <r_epik_State_Penalty>
1.65539

> <r_epik_Charging_Adjusted_Penalty>
3.21583

> <i_epik_Tot_Q>
1

> <i_epik_Tot_abs_Q>
1

> <r_epik_Metal_State_Penalty>
1.6969

> <b_epik_Metal_Only>
0

> <s_lp_Force_Field>
OPLS_2005

> <r_lp_Energy>
29.938

> <b_lp_Chiralities_Consistent>
1

> <s_lp_Variant>
AV-unprocessed.smi:1563-4

> <Gold.Version>
5.8.1

> <Gold.Id.Protein>
6NUR|6NUR_protein|mol2

> <Gold.PLP.Fitness>
43.7703

> <Gold.PLP.PLP>
-34.3246

> <Gold.PLP.part.hbond>
-3.2450

> <Gold.PLP.part.metal>
0.0000

> <Gold.PLP.part.buried>
-1.7922

> <Gold.PLP.part.nonpolar>
-28.7845

> <Gold.PLP.part.repulsive>
0.2280

> <Gold.PLP.ligand.clash>
0.0000

> <Gold.PLP.ligand.torsion>
0.6676

> <Gold.PLP.Chemscore.Hbond>
3.5676

> <Gold.PLP.Chemscore.CHOScore>
0.0000

> <Gold.PLP.Chemscore.Metal>
0.0000

> <Gold.Chemscore.Hbonds>
donor molecule, donor type, donor heavy atom, donor atom, acceptor molecule, acceptor atom, score
      L1  H    20    44       P1  8028  2.00
      P1  H  6931  6943       L1     3  0.90
      P1  H  6934  6947       L1     3  0.66

> <Gold.PLP.Chemscore.Internal.Correction>
0.0780

> <Gold.Rescore>
     Score         DG    S(hbond)    S(metal)    S(lipo)     H(rot)  DE(clash)    DE(int)     intcor
     18.64     -20.66       2.50        0.00      96.96       1.77       1.40       0.62       ----

> <Gold.Chemscore.Fitness>
18.6410

> <Gold.Chemscore.DG>
-20.6560

> <Gold.Chemscore.ZeroCoef>
-5.4800

> <Gold.Chemscore.Hbond>
2.5010

> <Gold.Chemscore.Metal>
0.0000

> <Gold.Chemscore.Lipo>
96.9563

> <Gold.Chemscore.Internal_Hbond>
0.0000

> <Gold.Chemscore.DEClash>
1.3967

> <Gold.Chemscore.DEInternal>
0.6184

> <Gold.Chemscore.Rot>
1.7661

> <Gold.Chemscore.Internal.Correction>
   9.000000E+99

> <Gold.Chemscore.Hbonds>
donor molecule, donor type, donor heavy atom, donor atom, acceptor molecule, acceptor atom, score
      L1  H    20    44       P1  8028  0.30
      P1  H  6931  6943       L1     3  0.88
      P1  H  6934  6947       L1     3  0.59

> <Gold.Chemscore.Hbond.Weighted>
-8.3533

> <Gold.Chemscore.Metal.Weighted>
-0.0000

> <Gold.Chemscore.Lipo.Weighted>
-11.3439

> <Gold.Chemscore.Internal_Hbond.Weighted>
0.0000

> <Gold.Chemscore.DEClash.Weighted>
1.3967

> <Gold.Chemscore.DEInternal.Weighted>
0.6184

> <Gold.Chemscore.Rot.Weighted>
4.5211

> <Gold.Chemscore.Internal.Correction.Weighted>
   9.000000E+99

> <Gold.Protein.RotatedTorsions>
[ 6907 6896 6895 6894 ] final -118.43 input  -60.11 | X-H torsion
[ 7974 7965 7964 7962 ] final -153.55 input  175.53 | X-H torsion
[ 8008 7997 7996 7995 ] final   87.17 input   59.86 | X-H torsion
[ 10167 10162 10161 10158 ] final  117.86 input  -65.29 | X-H torsion
[ 10718 10713 10712 10709 ] final   -4.23 input   66.30 | X-H torsion
[ 10763 10752 10751 10750 ] final   11.73 input  -60.55 | X-H torsion
[ 11005 11000 10999 10996 ] final  -72.75 input  -57.11 | X-H torsion

> <Gold.Protein.ActiveResidues>
 VAL166  LYS551  ARG553  GLY616  TRP617  ASP618  TYR619  PRO620  LYS621  CYS622 
 ASP623  PHE694  ASN695  SER759  ASP760  ASP761  ALA762  ILE779  LEU786  VAL792 
 PHE793  MET794  SER795  GLU796  ALA797  LYS798  CYS799  TRP800  GLU811  SER814 

> <Gold.Protein.RotatedAtoms>
  150.8219  133.8237  159.3134 H   0  0  0  0  0  0  0  0  0  0  0  0  # atno 6907 bound_to 6896
  151.5993  135.1046  160.0066 H   0  0  0  0  0  0  0  0  0  0  0  0  # atno 6908 bound_to 6896
  152.4308  133.7233  159.6602 H   0  0  0  0  0  0  0  0  0  0  0  0  # atno 6909 bound_to 6896
  144.7735  140.4510  143.5890 H   0  0  0  0  0  0  0  0  0  0  0  0  # atno 7974 bound_to 7965
  155.9720  140.3385  155.6584 H   0  0  0  0  0  0  0  0  0  0  0  0  # atno 8008 bound_to 7997
  155.6662  140.0721  157.2555 H   0  0  0  0  0  0  0  0  0  0  0  0  # atno 8009 bound_to 7997
  154.4169  140.1700  156.1817 H   0  0  0  0  0  0  0  0  0  0  0  0  # atno 8010 bound_to 7997
  139.6150  144.7090  151.2759 H   0  0  0  0  0  0  0  0  0  0  0  0  # atno 10167 bound_to 10162
  156.7644  130.5280  149.5779 H   0  0  0  0  0  0  0  0  0  0  0  0  # atno 10718 bound_to 10713
  153.1896  135.6840  153.8370 H   0  0  0  0  0  0  0  0  0  0  0  0  # atno 10763 bound_to 10752
  153.7674  135.3201  155.3348 H   0  0  0  0  0  0  0  0  0  0  0  0  # atno 10764 bound_to 10752
  154.8109  135.4718  154.0612 H   0  0  0  0  0  0  0  0  0  0  0  0  # atno 10765 bound_to 10752
  141.1613  133.6856  156.7106 H   0  0  0  0  0  0  0  0  0  0  0  0  # atno 11005 bound_to 11000
  145.6255  139.1529  143.2998 LP  0  0  0  0  0  0  0  0  0  0  0  0  # atno 17320 bound_to 7965
  146.1898  140.6362  142.9151 LP  0  0  0  0  0  0  0  0  0  0  0  0  # atno 17321 bound_to 7965
  140.7345  143.6765  150.8037 LP  0  0  0  0  0  0  0  0  0  0  0  0  # atno 17342 bound_to 10162
  140.0366  143.5389  152.2736 LP  0  0  0  0  0  0  0  0  0  0  0  0  # atno 17343 bound_to 10162
  156.1318  130.6183  151.0344 LP  0  0  0  0  0  0  0  0  0  0  0  0  # atno 17370 bound_to 10713
  157.6720  131.0859  150.7589 LP  0  0  0  0  0  0  0  0  0  0  0  0  # atno 17371 bound_to 10713
  140.2890  134.8256  157.4000 LP  0  0  0  0  0  0  0  0  0  0  0  0  # atno 17394 bound_to 11000
  140.1364  134.5028  155.8065 LP  0  0  0  0  0  0  0  0  0  0  0  0  # atno 17395 bound_to 11000

$$$$
