AV-unprocessed.smi:865|AV-procd|sdf|3991|dock7
  -GOLD-   22720 1473D 1   1.00000     0.00000
 Structure written by MMmdl.
 36 36  0  0  0  0  0  0  0  0  1 V2000
  146.3044  129.1909  152.6753 C   0  0  0  0  0  0  0  0  0  0  0  0
  145.2317  129.7686  151.7398 C   0  0  0  0  0  0  0  0  0  0  0  0
  145.0999  131.3129  151.7777 C   0  0  0  0  0  0  0  0  0  0  0  0
  144.1406  131.8263  150.6723 C   0  0  0  0  0  0  0  0  0  0  0  0
  144.1134  133.3540  150.5149 C   0  0  0  0  0  0  0  0  0  0  0  0
  146.4807  132.0278  151.7445 C   0  0  1  0  0  0  0  0  0  0  0  0
  146.8926  132.1757  150.3989 O   0  0  0  0  0  0  0  0  0  0  0  0
  146.4713  133.4165  152.4224 C   0  0  0  0  0  0  0  0  0  0  0  0
  147.8139  133.8329  152.8114 N   0  0  0  0  0  0  0  0  0  0  0  0
  148.6073  133.1779  153.6725 C   0  0  0  0  0  0  0  0  0  0  0  0
  148.3002  132.1140  154.2093 O   0  0  0  0  0  0  0  0  0  0  0  0
  149.9522  133.8304  153.9885 C   0  0  0  0  0  0  0  0  0  0  0  0
  150.1044  134.0206  155.4180 N   0  0  0  0  0  0  0  0  0  0  0  0
  150.1348  133.1408  156.4212 C   0  0  0  0  0  0  0  0  0  0  0  0
  150.2765  133.7410  157.5931 N   0  0  0  0  0  0  0  0  0  0  0  0
  150.3332  135.0831  157.2549 N   0  0  0  0  0  0  0  0  0  0  0  0
  150.2310  135.2552  155.9656 N   0  0  0  0  0  0  0  0  0  0  0  0
  146.2495  128.1023  152.6931 H   0  0  0  0  0  0  0  0  0  0  0  0
  146.1696  129.5444  153.6977 H   0  0  0  0  0  0  0  0  0  0  0  0
  147.3114  129.4546  152.3541 H   0  0  0  0  0  0  0  0  0  0  0  0
  145.4178  129.4305  150.7202 H   0  0  0  0  0  0  0  0  0  0  0  0
  144.2845  129.3167  152.0299 H   0  0  0  0  0  0  0  0  0  0  0  0
  144.6431  131.5656  152.7358 H   0  0  0  0  0  0  0  0  0  0  0  0
  144.4319  131.4150  149.7068 H   0  0  0  0  0  0  0  0  0  0  0  0
  143.1292  131.4623  150.8563 H   0  0  0  0  0  0  0  0  0  0  0  0
  143.4968  133.6397  149.6626 H   0  0  0  0  0  0  0  0  0  0  0  0
  145.1145  133.7508  150.3440 H   0  0  0  0  0  0  0  0  0  0  0  0
  143.6984  133.8493  151.3917 H   0  0  0  0  0  0  0  0  0  0  0  0
  147.2143  131.4070  152.2581 H   0  0  0  0  0  0  0  0  0  0  0  0
  147.6799  131.6695  150.2692 H   0  0  0  0  0  0  0  0  0  0  0  0
  145.9830  134.1703  151.8020 H   0  0  0  0  0  0  0  0  0  0  0  0
  145.8950  133.3667  153.3465 H   0  0  0  0  0  0  0  0  0  0  0  0
  148.1516  134.7015  152.4225 H   0  0  0  0  0  0  0  0  0  0  0  0
  150.7656  133.1989  153.6294 H   0  0  0  0  0  0  0  0  0  0  0  0
  150.0410  134.7924  153.4807 H   0  0  0  0  0  0  0  0  0  0  0  0
  150.0502  132.0715  156.2938 H   0  0  0  0  0  0  0  0  0  0  0  0
  1  2  1  0  0  0  0
  1 18  1  0  0  0  0
  1 19  1  0  0  0  0
  1 20  1  0  0  0  0
  2  3  1  0  0  0  0
  2 21  1  0  0  0  0
  2 22  1  0  0  0  0
  3  4  1  0  0  0  0
  3  6  1  0  0  0  0
  3 23  1  0  0  0  0
  4  5  1  0  0  0  0
  4 24  1  0  0  0  0
  4 25  1  0  0  0  0
  5 26  1  0  0  0  0
  5 27  1  0  0  0  0
  5 28  1  0  0  0  0
  6  7  1  0  0  0  0
  6  8  1  0  0  0  0
  6 29  1  0  0  0  0
  7 30  1  0  0  0  0
  8  9  1  0  0  0  0
  8 31  1  0  0  0  0
  8 32  1  0  0  0  0
  9 10  1  0  0  0  0
  9 33  1  0  0  0  0
 10 11  2  0  0  0  0
 10 12  1  0  0  0  0
 12 13  1  0  0  0  0
 12 34  1  0  0  0  0
 12 35  1  0  0  0  0
 13 17  1  0  0  0  0
 13 14  1  0  0  0  0
 14 15  2  0  0  0  0
 14 36  1  0  0  0  0
 15 16  1  0  0  0  0
 16 17  2  0  0  0  0
M  END
> <s_m_source_file>
AV-unprocessed.smi

> <i_m_source_file_index>
865

> <i_lp_mmshare_version>
43012

> <i_f3d_flags>
0

> <s_epik_input>
W0NIM11bQ0gyXVtDSF0oW0NIMl1bQ0gzXSlbQ0BIXShbT0hdKVtDSDJdW05IXUMoPU8pW0NIMl1uMVtjSF1ubm4x

> <s_epik_cmdline>
J2VwaWtfcHl0aG9uJywgJy1waCcsICc3LjAnLCAnLXRuJywgJzgnLCAnLW1hJywgJzIwMCcsICctbWV0YWxfYmluZGluZycsICctaW1hZScsICc8aW5maWxlLm1hZT4nLCAnLW9tYWUnLCAnPG91dGZpbGUubWFlPic=

> <r_lp_tautomer_probability>
1

> <r_epik_Ionization_Penalty>
9.39891e-07

> <r_epik_Ionization_Penalty_Charging>
0

> <r_epik_Ionization_Penalty_Neutral>
9.39891e-07

> <r_epik_State_Penalty>
-0

> <r_epik_Charging_Adjusted_Penalty>
0

> <i_epik_Tot_Q>
0

> <i_epik_Tot_abs_Q>
0

> <r_epik_Metal_State_Penalty>
-0

> <b_epik_Metal_Only>
0

> <s_lp_Force_Field>
OPLS_2005

> <r_lp_Energy>
13.5174

> <b_lp_Chiralities_Consistent>
1

> <s_lp_Variant>
AV-unprocessed.smi:865-2

> <Gold.Version>
5.8.1

> <Gold.Id.Protein>
6NUR|6NUR_protein|mol2

> <Gold.PLP.Fitness>
38.6644

> <Gold.PLP.PLP>
-31.1583

> <Gold.PLP.part.hbond>
-3.9090

> <Gold.PLP.part.metal>
0.0000

> <Gold.PLP.part.buried>
-5.2488

> <Gold.PLP.part.nonpolar>
-21.6770

> <Gold.PLP.part.repulsive>
0.0836

> <Gold.PLP.ligand.clash>
0.0000

> <Gold.PLP.ligand.torsion>
0.8484

> <Gold.PLP.Chemscore.Hbond>
3.0000

> <Gold.PLP.Chemscore.CHOScore>
0.0000

> <Gold.PLP.Chemscore.Metal>
0.0000

> <Gold.Chemscore.Hbonds>
donor molecule, donor type, donor heavy atom, donor atom, acceptor molecule, acceptor atom, score
      L1  H     7    30       P1 10747  0.98
      L1  H     9    33       P1  7948  1.00
      P1  H  6896  6907       L1    15  0.96

> <Gold.PLP.Chemscore.Internal.Correction>
0.2029

> <Gold.Rescore>
     Score         DG    S(hbond)    S(metal)    S(lipo)     H(rot)  DE(clash)    DE(int)     intcor
      9.73     -12.50       2.84        0.00      61.87       3.80       0.10       2.67       ----

> <Gold.Chemscore.Fitness>
9.7290

> <Gold.Chemscore.DG>
-12.4991

> <Gold.Chemscore.ZeroCoef>
-5.4800

> <Gold.Chemscore.Hbond>
2.8439

> <Gold.Chemscore.Metal>
0.0000

> <Gold.Chemscore.Lipo>
61.8727

> <Gold.Chemscore.Internal_Hbond>
0.0000

> <Gold.Chemscore.DEClash>
0.1045

> <Gold.Chemscore.DEInternal>
2.6656

> <Gold.Chemscore.Rot>
3.7964

> <Gold.Chemscore.Internal.Correction>
   9.000000E+99

> <Gold.Chemscore.Hbonds>
donor molecule, donor type, donor heavy atom, donor atom, acceptor molecule, acceptor atom, score
      L1  H     7    30       P1 10747  0.92
      L1  H     9    33       P1  7948  0.40
      P1  H  6896  6907       L1    15  0.32

> <Gold.Chemscore.Hbond.Weighted>
-9.4988

> <Gold.Chemscore.Metal.Weighted>
-0.0000

> <Gold.Chemscore.Lipo.Weighted>
-7.2391

> <Gold.Chemscore.Internal_Hbond.Weighted>
0.0000

> <Gold.Chemscore.DEClash.Weighted>
0.1045

> <Gold.Chemscore.DEInternal.Weighted>
2.6656

> <Gold.Chemscore.Rot.Weighted>
9.7188

> <Gold.Chemscore.Internal.Correction.Weighted>
   9.000000E+99

> <Gold.Protein.RotatedTorsions>
[ 6907 6896 6895 6894 ] final -122.68 input  -60.11 | X-H torsion
[ 7974 7965 7964 7962 ] final  -14.57 input  175.53 | X-H torsion
[ 8008 7997 7996 7995 ] final -118.43 input   59.86 | X-H torsion
[ 10167 10162 10161 10158 ] final  -73.47 input  -65.29 | X-H torsion
[ 10718 10713 10712 10709 ] final   88.63 input   66.30 | X-H torsion
[ 10763 10752 10751 10750 ] final -134.50 input  -60.55 | X-H torsion
[ 11005 11000 10999 10996 ] final -106.24 input  -57.11 | X-H torsion

> <Gold.Protein.ActiveResidues>
 VAL166  LYS551  ARG553  GLY616  TRP617  ASP618  TYR619  PRO620  LYS621  CYS622 
 ASP623  PHE694  ASN695  SER759  ASP760  ASP761  ALA762  ILE779  LEU786  VAL792 
 PHE793  MET794  SER795  GLU796  ALA797  LYS798  CYS799  TRP800  GLU811  SER814 

> <Gold.Protein.RotatedAtoms>
  150.8598  133.7660  159.2995 H   0  0  0  0  0  0  0  0  0  0  0  0  # atno 6907 bound_to 6896
  151.5306  135.1066  159.9911 H   0  0  0  0  0  0  0  0  0  0  0  0  # atno 6908 bound_to 6896
  152.4618  133.7794  159.6898 H   0  0  0  0  0  0  0  0  0  0  0  0  # atno 6909 bound_to 6896
  146.2068  140.3368  142.8404 H   0  0  0  0  0  0  0  0  0  0  0  0  # atno 7974 bound_to 7965
  155.0996  140.0396  157.2693 H   0  0  0  0  0  0  0  0  0  0  0  0  # atno 8008 bound_to 7997
  154.6768  140.2624  155.6924 H   0  0  0  0  0  0  0  0  0  0  0  0  # atno 8009 bound_to 7997
  156.2680  140.2786  156.1298 H   0  0  0  0  0  0  0  0  0  0  0  0  # atno 8010 bound_to 7997
  140.5107  143.2345  151.7598 H   0  0  0  0  0  0  0  0  0  0  0  0  # atno 10167 bound_to 10162
  157.6950  131.0302  150.3303 H   0  0  0  0  0  0  0  0  0  0  0  0  # atno 10718 bound_to 10713
  154.8718  135.3733  154.4745 H   0  0  0  0  0  0  0  0  0  0  0  0  # atno 10763 bound_to 10752
  153.5403  135.7026  153.5645 H   0  0  0  0  0  0  0  0  0  0  0  0  # atno 10764 bound_to 10752
  153.3810  135.3997  155.1821 H   0  0  0  0  0  0  0  0  0  0  0  0  # atno 10765 bound_to 10752
  141.1014  133.8877  157.1832 H   0  0  0  0  0  0  0  0  0  0  0  0  # atno 11005 bound_to 11000
  144.8814  140.7405  143.5984 LP  0  0  0  0  0  0  0  0  0  0  0  0  # atno 17320 bound_to 7965
  145.3288  139.1766  143.4548 LP  0  0  0  0  0  0  0  0  0  0  0  0  # atno 17321 bound_to 7965
  139.4895  144.4394  151.9782 LP  0  0  0  0  0  0  0  0  0  0  0  0  # atno 17342 bound_to 10162
  140.3486  144.3116  150.5953 LP  0  0  0  0  0  0  0  0  0  0  0  0  # atno 17343 bound_to 10162
  156.3778  130.3875  149.7125 LP  0  0  0  0  0  0  0  0  0  0  0  0  # atno 17370 bound_to 10713
  156.4518  130.7910  151.2931 LP  0  0  0  0  0  0  0  0  0  0  0  0  # atno 17371 bound_to 10713
  139.9867  135.0079  156.9879 LP  0  0  0  0  0  0  0  0  0  0  0  0  # atno 17394 bound_to 11000
  140.5012  134.1095  155.7251 LP  0  0  0  0  0  0  0  0  0  0  0  0  # atno 17395 bound_to 11000

$$$$
