#       Name:                AV-unprocessed.smi:525
#       Creating user name   scv26
#       Creation time:       Thu Mar 26 23:28:57 2020


#       File generated by GOLD software.
#

@<TRIPOS>MOLECULE
AV-unprocessed.smi:525
    48    50     1
SMALL
NO_CHARGES


@<TRIPOS>ATOM
      1 ****        -2.8935   2.4324  -2.1008 C.3            1 S1                 0.0000
      2 ****        -2.1494   1.2980  -2.5075 O.3            1 S1                 0.0000
      3 ****        -2.5396   0.1189  -1.8224 C.3            1 S1                 0.0000
      4 ****        -1.6449  -1.0520  -2.2518 C.3            1 S1                 0.0000
      5 ****        -0.2222  -0.7726  -2.0100 N.pl3          1 S1                 0.0000
      6 ****         0.5120  -0.8979  -0.8710 C.2            1 S1                 0.0000
      7 ****        -0.0812  -1.4613   0.6909 S.3            1 S1                 0.0000
      8 ****         0.7034  -0.3805   1.9303 C.3            1 S1                 0.0000
      9 ****         0.3336   1.1075   1.7962 C.2            1 S1                 0.0000
     10 ****         0.9913   1.9668   2.5795 N.am           1 S1                 0.0000
     11 ****        -0.5174   1.4857   0.9929 O.2            1 S1                 0.0000
     12 ****         0.3727  -0.8953   3.3268 C.ar           1 S1                 0.0000
     13 ****        -0.9661  -0.9601   3.7765 C.ar           1 S1                 0.0000
     14 ****        -1.2605  -1.4405   5.0671 C.ar           1 S1                 0.0000
     15 ****        -0.2197  -1.8600   5.9172 C.ar           1 S1                 0.0000
     16 ****         1.1157  -1.7995   5.4755 C.ar           1 S1                 0.0000
     17 ****         1.4109  -1.3203   4.1845 C.ar           1 S1                 0.0000
     18 ****         1.7809  -0.4892  -1.1470 N.pl3          1 S1                 1.0000
     19 ****         1.8592  -0.0879  -2.4814 C.ar           1 S1                 0.0000
     20 ****         2.9293   0.4060  -3.2211 C.ar           1 S1                 0.0000
     21 ****         2.6694   0.7352  -4.5676 C.ar           1 S1                 0.0000
     22 ****         1.3863   0.5719  -5.1288 C.ar           1 S1                 0.0000
     23 ****         0.3094   0.0681  -4.3701 C.ar           1 S1                 0.0000
     24 ****         0.5748  -0.2604  -3.0408 C.ar           1 S1                 0.0000
     25 ****        -2.5628   3.3071  -2.6606 H              1 S1                 0.0000
     26 ****        -2.7482   2.6383  -1.0395 H              1 S1                 0.0000
     27 ****        -3.9586   2.2938  -2.2896 H              1 S1                 0.0000
     28 ****        -2.4571   0.2690  -0.7448 H              1 S1                 0.0000
     29 ****        -3.5834  -0.1121  -2.0389 H              1 S1                 0.0000
     30 ****        -1.9072  -1.9491  -1.6902 H              1 S1                 0.0000
     31 ****        -1.7949  -1.2950  -3.3033 H              1 S1                 0.0000
     32 ****         1.7801  -0.4609   1.7758 H              1 S1                 0.0000
     33 ****         0.8019   2.9567   2.5156 H              1 S1                 0.0000
     34 ****         1.6932   1.6243   3.2197 H              1 S1                 0.0000
     35 ****        -1.7722  -0.6410   3.1316 H              1 S1                 0.0000
     36 ****        -2.2853  -1.4873   5.4046 H              1 S1                 0.0000
     37 ****        -0.4454  -2.2283   6.9072 H              1 S1                 0.0000
     38 ****         1.9144  -2.1219   6.1273 H              1 S1                 0.0000
     39 ****         2.4394  -1.2803   3.8574 H              1 S1                 0.0000
     40 ****         3.9120   0.5369  -2.7922 H              1 S1                 0.0000
     41 ****         3.4690   1.1242  -5.1813 H              1 S1                 0.0000
     42 ****         1.2232   0.8402  -6.1625 H              1 S1                 0.0000
     43 ****        -0.6701  -0.0458  -4.8101 H              1 S1                 0.0000
     44 ****         2.5335  -0.4821  -0.4713 H              1 S1                 0.0000
     45 ****        -1.1807   1.4682  -2.3270 LP             1 S1                 0.0000
     46 ****        -2.2864   1.1593  -3.4883 LP             1 S1                 0.0000
     47 ****        -0.9850   0.8212   0.4099 LP             1 S1                 0.0000
     48 ****        -0.7418   2.4577   0.9227 LP             1 S1                 0.0000
@<TRIPOS>BOND
    1    1    2 1     
    2    1   25 1     
    3    1   26 1     
    4    1   27 1     
    5    2    3 1     
    6    3    4 1     
    7    3   28 1     
    8    3   29 1     
    9    4    5 1     
   10    4   30 1     
   11    4   31 1     
   12    5   24 1     
   13    5    6 1     
   14    6    7 1     
   15    6   18 2     
   16    7    8 1     
   17    8    9 1     
   18    8   12 1     
   19    8   32 1     
   20    9   10 am    
   21    9   11 2     
   22   10   33 1     
   23   10   34 1     
   24   12   17 ar    
   25   12   13 ar    
   26   13   14 ar    
   27   13   35 1     
   28   14   15 ar    
   29   14   36 1     
   30   15   16 ar    
   31   15   37 1     
   32   16   17 ar    
   33   16   38 1     
   34   17   39 1     
   35   18   19 1     
   36   18   44 1     
   37   19   24 ar    
   38   19   20 ar    
   39   20   21 ar    
   40   20   40 1     
   41   21   22 ar    
   42   21   41 1     
   43   22   23 ar    
   44   22   42 1     
   45   23   24 ar    
   46   23   43 1     
   47    2   45 1     
   48    2   46 1     
   49   11   47 1     
   50   11   48 1     
@<TRIPOS>SUBSTRUCTURE
      1 S1             1
@<TRIPOS>SET
LONE_PAIRS      STATIC     ATOMS    <user>   **** ""
4 45 46 47 48
DONOR_HYDROGENS      STATIC     ATOMS    <user>   **** ""
3 33 34 44
ATOM$BLUE        STATIC     ATOMS    COLORGROUP SYSTEM
4 45 46 47 48
ATOM$RED        STATIC     ATOMS    COLORGROUP SYSTEM
3 33 34 44
