AV-unprocessed.smi:3117|AV-procd|sdf|11880|dock8
  -GOLD-   2272017263D 1   1.00000     0.00000
 Structure written by MMmdl.
 37 37  0  0  0  0  0  0  0  0  2 V2000
  145.6319  136.1484  150.4267 C   0  0  0  0  0  0  0  0  0  0  0  0
  145.6271  135.7961  151.9254 C   0  0  2  0  0  0  0  0  0  0  0  0
  146.5652  136.6982  152.6296 N   0  3  0  0  0  0  0  0  0  0  0  0
  146.3426  138.1411  152.3938 C   0  0  0  0  0  0  0  0  0  0  0  0
  147.2379  139.0236  153.2893 C   0  0  0  0  0  0  0  0  0  0  0  0
  147.0791  140.5050  152.9084 C   0  0  0  0  0  0  0  0  0  0  0  0
  146.9392  138.8224  154.7867 C   0  0  0  0  0  0  0  0  0  0  0  0
  148.5888  138.6804  153.0476 O   0  0  0  0  0  0  0  0  0  0  0  0
  145.9937  134.3156  152.2089 C   0  0  1  0  0  0  0  0  0  0  0  0
  145.7101  133.8952  153.6628 C   0  0  0  0  0  0  0  0  0  0  0  0
  145.3216  133.4052  151.2899 N   0  0  0  0  0  0  0  0  0  0  0  0
  145.8641  132.3909  150.5253 C   0  0  0  0  0  0  0  0  0  0  0  0
  144.8407  131.8070  149.8357 C   0  0  0  0  0  0  0  0  0  0  0  0
  143.6929  132.5377  150.2515 C   0  0  0  0  0  0  0  0  0  0  0  0
  143.9837  133.4908  151.1220 N   0  0  0  0  0  0  0  0  0  0  0  0
  144.8812  135.5835  149.8736 H   0  0  0  0  0  0  0  0  0  0  0  0
  146.6027  135.9428  149.9742 H   0  0  0  0  0  0  0  0  0  0  0  0
  145.4112  137.2052  150.2732 H   0  0  0  0  0  0  0  0  0  0  0  0
  144.6143  135.9762  152.2910 H   0  0  0  0  0  0  0  0  0  0  0  0
  146.4963  136.5189  153.6211 H   0  0  0  0  0  0  0  0  0  0  0  0
  146.5324  138.3546  151.3407 H   0  0  0  0  0  0  0  0  0  0  0  0
  145.2938  138.3765  152.5797 H   0  0  0  0  0  0  0  0  0  0  0  0
  146.0548  140.8450  153.0661 H   0  0  0  0  0  0  0  0  0  0  0  0
  147.3235  140.6757  151.8588 H   0  0  0  0  0  0  0  0  0  0  0  0
  147.7320  141.1434  153.5050 H   0  0  0  0  0  0  0  0  0  0  0  0
  145.9006  139.0641  155.0153 H   0  0  0  0  0  0  0  0  0  0  0  0
  147.5684  139.4625  155.4063 H   0  0  0  0  0  0  0  0  0  0  0  0
  147.1143  137.7935  155.1023 H   0  0  0  0  0  0  0  0  0  0  0  0
  148.9169  139.2210  152.3445 H   0  0  0  0  0  0  0  0  0  0  0  0
  147.0677  134.2029  152.0453 H   0  0  0  0  0  0  0  0  0  0  0  0
  146.3066  134.4715  154.3700 H   0  0  0  0  0  0  0  0  0  0  0  0
  145.9546  132.8440  153.8197 H   0  0  0  0  0  0  0  0  0  0  0  0
  144.6604  134.0343  153.9232 H   0  0  0  0  0  0  0  0  0  0  0  0
  146.9214  132.1710  150.5353 H   0  0  0  0  0  0  0  0  0  0  0  0
  144.9023  130.9823  149.1410 H   0  0  0  0  0  0  0  0  0  0  0  0
  142.6644  132.4043  149.9499 H   0  0  0  0  0  0  0  0  0  0  0  0
  147.5057  136.4788  152.3332 H   0  0  0  0  0  0  0  0  0  0  0  0
  1  2  1  0  0  0  0
  1 16  1  0  0  0  0
  1 17  1  0  0  0  0
  1 18  1  0  0  0  0
  2  3  1  0  0  0  0
  2  9  1  0  0  0  0
  2 19  1  0  0  0  0
  3  4  1  0  0  0  0
  3 20  1  0  0  0  0
  3 37  1  0  0  0  0
  4  5  1  0  0  0  0
  4 21  1  0  0  0  0
  4 22  1  0  0  0  0
  5  6  1  0  0  0  0
  5  7  1  0  0  0  0
  5  8  1  0  0  0  0
  6 23  1  0  0  0  0
  6 24  1  0  0  0  0
  6 25  1  0  0  0  0
  7 26  1  0  0  0  0
  7 27  1  0  0  0  0
  7 28  1  0  0  0  0
  8 29  1  0  0  0  0
  9 10  1  0  0  0  0
  9 11  1  0  0  0  0
  9 30  1  0  0  0  0
 10 31  1  0  0  0  0
 10 32  1  0  0  0  0
 10 33  1  0  0  0  0
 11 15  1  0  0  0  0
 11 12  1  0  0  0  0
 12 13  2  0  0  0  0
 12 34  1  0  0  0  0
 13 14  1  0  0  0  0
 13 35  1  0  0  0  0
 14 15  2  0  0  0  0
 14 36  1  0  0  0  0
M  CHG  1   3   1
M  END
> <s_m_source_file>
AV-unprocessed.smi

> <i_m_source_file_index>
3117

> <i_lp_mmshare_version>
43012

> <i_f3d_flags>
0

> <s_epik_input>
W0NIM11DKFtDSDNdKShbT0hdKVtDSDJdW05IXVtDQEBIXShbQ0gzXSlbQ0BIXShbQ0gzXSluMVtjSF1bY0hdW2NIXW4x

> <s_epik_cmdline>
J2VwaWtfcHl0aG9uJywgJy1waCcsICc3LjAnLCAnLXRuJywgJzgnLCAnLW1hJywgJzIwMCcsICctbWV0YWxfYmluZGluZycsICctaW1hZScsICc8aW5maWxlLm1hZT4nLCAnLW9tYWUnLCAnPG91dGZpbGUubWFlPic=

> <r_lp_tautomer_probability>
1

> <r_epik_Ionization_Penalty>
0.0164263

> <r_epik_Ionization_Penalty_Charging>
0.0164138

> <r_epik_Ionization_Penalty_Neutral>
1.24697e-05

> <r_epik_State_Penalty>
0.0129543

> <r_epik_Charging_Adjusted_Penalty>
0.0293681

> <i_epik_Tot_Q>
1

> <i_epik_Tot_abs_Q>
1

> <r_epik_Metal_State_Penalty>
0.0129806

> <b_epik_Metal_Only>
0

> <s_lp_Force_Field>
OPLS_2005

> <r_lp_Energy>
14.6887

> <b_lp_Chiralities_Consistent>
1

> <s_lp_Variant>
AV-unprocessed.smi:3117-3

> <Gold.Version>
5.8.1

> <Gold.Id.Protein>
6NUR|6NUR_protein|mol2

> <Gold.PLP.Fitness>
42.1130

> <Gold.PLP.PLP>
-27.3209

> <Gold.PLP.part.hbond>
-2.8761

> <Gold.PLP.part.metal>
0.0000

> <Gold.PLP.part.buried>
-1.3019

> <Gold.PLP.part.nonpolar>
-23.8880

> <Gold.PLP.part.repulsive>
0.1959

> <Gold.PLP.ligand.clash>
0.0000

> <Gold.PLP.ligand.torsion>
0.4722

> <Gold.PLP.Chemscore.Hbond>
3.0000

> <Gold.PLP.Chemscore.CHOScore>
2.2200

> <Gold.PLP.Chemscore.Metal>
0.0000

> <Gold.Chemscore.Hbonds>
donor molecule, donor type, donor heavy atom, donor atom, acceptor molecule, acceptor atom, score
      L1  H     3    37       P1  7948  2.00
      L1  H     8    29       P1  7957  1.00
      L1  C    12    34       P1 10747  1.00
      L1  C    14    36       P1 10186  0.65
      L1  C    14    36       P1 10952  0.37

> <Gold.PLP.Chemscore.Internal.Correction>
0.0763

> <Gold.Rescore>
     Score         DG    S(hbond)    S(metal)    S(lipo)     H(rot)  DE(clash)    DE(int)     intcor
     14.64     -14.97       2.00        0.00      73.87       2.27       0.01       0.32       ----

> <Gold.Chemscore.Fitness>
14.6375

> <Gold.Chemscore.DG>
-14.9713

> <Gold.Chemscore.ZeroCoef>
-5.4800

> <Gold.Chemscore.Hbond>
1.9957

> <Gold.Chemscore.Metal>
0.0000

> <Gold.Chemscore.Lipo>
73.8748

> <Gold.Chemscore.Internal_Hbond>
0.0000

> <Gold.Chemscore.DEClash>
0.0137

> <Gold.Chemscore.DEInternal>
0.3200

> <Gold.Chemscore.Rot>
2.2725

> <Gold.Chemscore.Internal.Correction>
   9.000000E+99

> <Gold.Chemscore.Hbonds>
donor molecule, donor type, donor heavy atom, donor atom, acceptor molecule, acceptor atom, score
      L1  H     3    37       P1  7948  0.93
      L1  H     8    29       P1  7957  0.98

> <Gold.Chemscore.Hbond.Weighted>
-6.6655

> <Gold.Chemscore.Metal.Weighted>
-0.0000

> <Gold.Chemscore.Lipo.Weighted>
-8.6434

> <Gold.Chemscore.Internal_Hbond.Weighted>
0.0000

> <Gold.Chemscore.DEClash.Weighted>
0.0137

> <Gold.Chemscore.DEInternal.Weighted>
0.3200

> <Gold.Chemscore.Rot.Weighted>
5.8176

> <Gold.Chemscore.Internal.Correction.Weighted>
   9.000000E+99

> <Gold.Protein.RotatedTorsions>
[ 6907 6896 6895 6894 ] final  -70.34 input  -60.11 | X-H torsion
[ 7974 7965 7964 7962 ] final  124.30 input  175.53 | X-H torsion
[ 8008 7997 7996 7995 ] final  101.24 input   59.86 | X-H torsion
[ 10167 10162 10161 10158 ] final  177.15 input  -65.29 | X-H torsion
[ 10718 10713 10712 10709 ] final  169.93 input   66.30 | X-H torsion
[ 10763 10752 10751 10750 ] final   89.41 input  -60.55 | X-H torsion
[ 11005 11000 10999 10996 ] final  -49.45 input  -57.11 | X-H torsion

> <Gold.Protein.ActiveResidues>
 VAL166  LYS551  ARG553  GLY616  TRP617  ASP618  TYR619  PRO620  LYS621  CYS622 
 ASP623  PHE694  ASN695  SER759  ASP760  ASP761  ALA762  ILE779  LEU786  VAL792 
 PHE793  MET794  SER795  GLU796  ALA797  LYS798  CYS799  TRP800  GLU811  SER814 

> <Gold.Protein.RotatedAtoms>
  150.7262  134.5466  159.5773 H   0  0  0  0  0  0  0  0  0  0  0  0  # atno 6907 bound_to 6896
  152.2964  134.7659  160.0376 H   0  0  0  0  0  0  0  0  0  0  0  0  # atno 6908 bound_to 6896
  151.8255  133.3365  159.3634 H   0  0  0  0  0  0  0  0  0  0  0  0  # atno 6909 bound_to 6896
  145.0860  139.3622  143.4885 H   0  0  0  0  0  0  0  0  0  0  0  0  # atno 7974 bound_to 7965
  156.1280  140.3200  155.8307 H   0  0  0  0  0  0  0  0  0  0  0  0  # atno 8008 bound_to 7997
  155.4383  140.0523  157.3030 H   0  0  0  0  0  0  0  0  0  0  0  0  # atno 8009 bound_to 7997
  154.4878  140.2079  155.9630 H   0  0  0  0  0  0  0  0  0  0  0  0  # atno 8010 bound_to 7997
  139.5242  144.2832  152.0529 H   0  0  0  0  0  0  0  0  0  0  0  0  # atno 10167 bound_to 10162
  157.0156  131.0217  151.2790 H   0  0  0  0  0  0  0  0  0  0  0  0  # atno 10718 bound_to 10713
  153.1869  135.4471  155.0099 H   0  0  0  0  0  0  0  0  0  0  0  0  # atno 10763 bound_to 10752
  154.8066  135.3277  154.7419 H   0  0  0  0  0  0  0  0  0  0  0  0  # atno 10764 bound_to 10752
  153.7877  135.6972  153.4932 H   0  0  0  0  0  0  0  0  0  0  0  0  # atno 10765 bound_to 10752
  141.0760  133.6666  156.3588 H   0  0  0  0  0  0  0  0  0  0  0  0  # atno 11005 bound_to 11000
  146.3531  140.0672  142.8625 LP  0  0  0  0  0  0  0  0  0  0  0  0  # atno 17320 bound_to 7965
  145.1122  140.9412  143.4650 LP  0  0  0  0  0  0  0  0  0  0  0  0  # atno 17321 bound_to 7965
  140.2286  144.4392  150.6310 LP  0  0  0  0  0  0  0  0  0  0  0  0  # atno 17342 bound_to 10162
  140.6370  143.2196  151.6372 LP  0  0  0  0  0  0  0  0  0  0  0  0  # atno 17343 bound_to 10162
  157.5288  130.8045  149.7893 LP  0  0  0  0  0  0  0  0  0  0  0  0  # atno 17370 bound_to 10713
  156.0120  130.3829  150.2232 LP  0  0  0  0  0  0  0  0  0  0  0  0  # atno 17371 bound_to 10713
  140.5572  134.5969  157.5424 LP  0  0  0  0  0  0  0  0  0  0  0  0  # atno 17394 bound_to 11000
  139.9572  134.7514  156.0315 LP  0  0  0  0  0  0  0  0  0  0  0  0  # atno 17395 bound_to 11000

$$$$
