AV-unprocessed.smi:1388|AV-procd|sdf|5645|dock3
  -GOLD-   22720 5263D 1   1.00000     0.00000
 Structure written by MMmdl.
 45 46  0  0  0  0  0  0  0  0  3 V2000
  143.8846  146.0041  156.7999 C   0  0  0  0  0  0  0  0  0  0  0  0
  143.6538  144.7390  156.1122 N   0  5  0  0  0  0  0  0  0  0  0  0
  144.2449  143.5676  156.4767 C   0  0  0  0  0  0  0  0  0  0  0  0
  144.9978  143.3043  157.4195 O   0  0  0  0  0  0  0  0  0  0  0  0
  143.8677  142.4363  155.5122 C   0  0  0  0  0  0  0  0  0  0  0  0
  145.0623  141.9419  154.7803 N   0  3  2  0  0  0  0  0  0  0  0  0
  145.8630  140.9860  155.5860 C   0  0  0  0  0  0  0  0  0  0  0  0
  147.0073  140.3760  154.7558 C   0  0  0  0  0  0  0  0  0  0  0  0
  147.9092  141.4560  154.1342 C   0  0  2  0  0  0  0  0  0  0  0  0
  148.7114  142.1076  155.1690 N   0  0  0  0  0  0  0  0  0  0  0  0
  149.6467  141.5080  155.9202 C   0  0  0  0  0  0  0  0  0  0  0  0
  149.9457  140.3189  155.8088 O   0  0  0  0  0  0  0  0  0  0  0  0
  150.1982  142.3739  156.7890 N   0  0  0  0  0  0  0  0  0  0  0  0
  151.2072  142.1308  157.7633 C   0  0  0  0  0  0  0  0  0  0  0  0
  151.5017  140.8867  158.2171 N   0  0  0  0  0  0  0  0  0  0  0  0
  152.4678  140.7282  159.1448 C   0  0  0  0  0  0  0  0  0  0  0  0
  153.2026  141.8006  159.6785 C   0  0  0  0  0  0  0  0  0  0  0  0
  152.9113  143.0960  159.2181 C   0  0  0  0  0  0  0  0  0  0  0  0
  151.9019  143.2714  158.2477 C   0  0  0  0  0  0  0  0  0  0  0  0
  151.5856  144.6721  157.7488 C   0  0  0  0  0  0  0  0  0  0  0  0
  147.0450  142.4684  153.3572 C   0  0  0  0  0  0  0  0  0  0  0  0
  145.9026  143.0336  154.2197 C   0  0  0  0  0  0  0  0  0  0  0  0
  143.3683  146.8300  156.3113 H   0  0  0  0  0  0  0  0  0  0  0  0
  144.9404  146.2754  156.8291 H   0  0  0  0  0  0  0  0  0  0  0  0
  143.5338  145.9864  157.8321 H   0  0  0  0  0  0  0  0  0  0  0  0
  143.3840  141.6172  156.0469 H   0  0  0  0  0  0  0  0  0  0  0  0
  143.1285  142.8294  154.8121 H   0  0  0  0  0  0  0  0  0  0  0  0
  146.2584  141.4938  156.4668 H   0  0  0  0  0  0  0  0  0  0  0  0
  145.2194  140.1827  155.9468 H   0  0  0  0  0  0  0  0  0  0  0  0
  147.5984  139.6979  155.3727 H   0  0  0  0  0  0  0  0  0  0  0  0
  146.5806  139.7652  153.9589 H   0  0  0  0  0  0  0  0  0  0  0  0
  148.5908  140.9660  153.4364 H   0  0  0  0  0  0  0  0  0  0  0  0
  148.5307  143.0870  155.3335 H   0  0  0  0  0  0  0  0  0  0  0  0
  149.8518  143.3210  156.7564 H   0  0  0  0  0  0  0  0  0  0  0  0
  152.6596  139.7166  159.4705 H   0  0  0  0  0  0  0  0  0  0  0  0
  153.9692  141.6336  160.4208 H   0  0  0  0  0  0  0  0  0  0  0  0
  153.4579  143.9423  159.6071 H   0  0  0  0  0  0  0  0  0  0  0  0
  152.2206  145.4172  158.2290 H   0  0  0  0  0  0  0  0  0  0  0  0
  150.5476  144.9286  157.9626 H   0  0  0  0  0  0  0  0  0  0  0  0
  151.7459  144.7393  156.6725 H   0  0  0  0  0  0  0  0  0  0  0  0
  147.6597  143.2817  152.9695 H   0  0  0  0  0  0  0  0  0  0  0  0
  146.6161  141.9749  152.4839 H   0  0  0  0  0  0  0  0  0  0  0  0
  145.2933  143.6979  153.6063 H   0  0  0  0  0  0  0  0  0  0  0  0
  146.3057  143.6400  155.0323 H   0  0  0  0  0  0  0  0  0  0  0  0
  144.6951  141.4195  153.9965 H   0  0  0  0  0  0  0  0  0  0  0  0
  1  2  1  0  0  0  0
  1 23  1  0  0  0  0
  1 24  1  0  0  0  0
  1 25  1  0  0  0  0
  2  3  1  0  0  0  0
  3  4  2  0  0  0  0
  3  5  1  0  0  0  0
  5  6  1  0  0  0  0
  5 26  1  0  0  0  0
  5 27  1  0  0  0  0
  6 22  1  0  0  0  0
  6  7  1  0  0  0  0
  6 45  1  0  0  0  0
  7  8  1  0  0  0  0
  7 28  1  0  0  0  0
  7 29  1  0  0  0  0
  8  9  1  0  0  0  0
  8 30  1  0  0  0  0
  8 31  1  0  0  0  0
  9 10  1  0  0  0  0
  9 21  1  0  0  0  0
  9 32  1  0  0  0  0
 10 11  1  0  0  0  0
 10 33  1  0  0  0  0
 11 12  2  0  0  0  0
 11 13  1  0  0  0  0
 13 14  1  0  0  0  0
 13 34  1  0  0  0  0
 14 19  1  0  0  0  0
 14 15  2  0  0  0  0
 15 16  1  0  0  0  0
 16 17  2  0  0  0  0
 16 35  1  0  0  0  0
 17 18  1  0  0  0  0
 17 36  1  0  0  0  0
 18 19  2  0  0  0  0
 18 37  1  0  0  0  0
 19 20  1  0  0  0  0
 20 38  1  0  0  0  0
 20 39  1  0  0  0  0
 20 40  1  0  0  0  0
 21 22  1  0  0  0  0
 21 41  1  0  0  0  0
 21 42  1  0  0  0  0
 22 43  1  0  0  0  0
 22 44  1  0  0  0  0
M  CHG  1   2  -1
M  CHG  1   6   1
M  END
> <s_m_source_file>
AV-unprocessed.smi

> <i_m_source_file_index>
1388

> <i_lp_mmshare_version>
43012

> <i_f3d_flags>
0

> <s_epik_input>
W0NIM11bTkhdQyg9TylbQ0gyXU4xW0NIMl1bQ0gyXVtDSF0oW0NIMl1bQ0gyXTEpW05IXUMoPU8pW05IXWMybltjSF1bY0hdW2NIXWMyW0NIM10=

> <s_epik_cmdline>
J2VwaWtfcHl0aG9uJywgJy1waCcsICc3LjAnLCAnLXRuJywgJzgnLCAnLW1hJywgJzIwMCcsICctbWV0YWxfYmluZGluZycsICctaW1hZScsICc8aW5maWxlLm1hZT4nLCAnLW9tYWUnLCAnPG91dGZpbGUubWFlPic=

> <r_epik_Ionization_Penalty>
6.13951

> <r_epik_Ionization_Penalty_Charging>
6.13946

> <r_epik_Ionization_Penalty_Neutral>
4.54304e-05

> <r_epik_State_Penalty>
6.9595

> <r_epik_Charging_Adjusted_Penalty>
13.099

> <i_epik_Tot_Q>
0

> <i_epik_Tot_abs_Q>
2

> <r_epik_Metal_State_Penalty>
2.89141

> <b_epik_Metal_Only>
1

> <s_lp_Force_Field>
OPLS_2005

> <r_lp_Energy>
12.9207

> <b_lp_Chiralities_Consistent>
1

> <s_lp_Variant>
AV-unprocessed.smi:1388-5

> <Gold.Version>
5.8.1

> <Gold.Id.Protein>
6NUR|6NUR_protein|mol2

> <Gold.PLP.Fitness>
49.1974

> <Gold.PLP.PLP>
-37.7369

> <Gold.PLP.part.hbond>
-3.0000

> <Gold.PLP.part.metal>
0.0000

> <Gold.PLP.part.buried>
-7.7504

> <Gold.PLP.part.nonpolar>
-27.5639

> <Gold.PLP.part.repulsive>
0.3785

> <Gold.PLP.ligand.clash>
0.0000

> <Gold.PLP.ligand.torsion>
0.2789

> <Gold.PLP.Chemscore.Hbond>
3.9760

> <Gold.PLP.Chemscore.CHOScore>
0.0000

> <Gold.PLP.Chemscore.Metal>
0.0000

> <Gold.Chemscore.Hbonds>
donor molecule, donor type, donor heavy atom, donor atom, acceptor molecule, acceptor atom, score
      L1  H     6    45       P1 10175  2.00
      L1  H    10    33       P1  8028  1.00
      L1  H    13    34       P1  8028  0.94

> <Gold.PLP.Chemscore.Internal.Correction>
0.0902

> <Gold.Rescore>
     Score         DG    S(hbond)    S(metal)    S(lipo)     H(rot)  DE(clash)    DE(int)     intcor
     17.72     -21.23       2.75        0.00      91.90       1.63       1.94       1.57       ----

> <Gold.Chemscore.Fitness>
17.7178

> <Gold.Chemscore.DG>
-21.2316

> <Gold.Chemscore.ZeroCoef>
-5.4800

> <Gold.Chemscore.Hbond>
2.7464

> <Gold.Chemscore.Metal>
0.0000

> <Gold.Chemscore.Lipo>
91.8988

> <Gold.Chemscore.Internal_Hbond>
0.0000

> <Gold.Chemscore.DEClash>
1.9415

> <Gold.Chemscore.DEInternal>
1.5723

> <Gold.Chemscore.Rot>
1.6303

> <Gold.Chemscore.Internal.Correction>
   9.000000E+99

> <Gold.Chemscore.Hbonds>
donor molecule, donor type, donor heavy atom, donor atom, acceptor molecule, acceptor atom, score
      L1  H     6    45       P1 10175  0.32
      L1  H    10    33       P1  8028  0.99
      L1  H    13    34       P1  8028  0.86

> <Gold.Chemscore.Hbond.Weighted>
-9.1729

> <Gold.Chemscore.Metal.Weighted>
-0.0000

> <Gold.Chemscore.Lipo.Weighted>
-10.7522

> <Gold.Chemscore.Internal_Hbond.Weighted>
0.0000

> <Gold.Chemscore.DEClash.Weighted>
1.9415

> <Gold.Chemscore.DEInternal.Weighted>
1.5723

> <Gold.Chemscore.Rot.Weighted>
4.1735

> <Gold.Chemscore.Internal.Correction.Weighted>
   9.000000E+99

> <Gold.Protein.RotatedTorsions>
[ 6907 6896 6895 6894 ] final -179.47 input  -60.11 | X-H torsion
[ 7974 7965 7964 7962 ] final  169.05 input  175.53 | X-H torsion
[ 8008 7997 7996 7995 ] final  169.21 input   59.86 | X-H torsion
[ 10167 10162 10161 10158 ] final   49.79 input  -65.29 | X-H torsion
[ 10718 10713 10712 10709 ] final   61.82 input   66.30 | X-H torsion
[ 10763 10752 10751 10750 ] final   48.69 input  -60.55 | X-H torsion
[ 11005 11000 10999 10996 ] final  -62.89 input  -57.11 | X-H torsion

> <Gold.Protein.ActiveResidues>
 VAL166  LYS551  ARG553  GLY616  TRP617  ASP618  TYR619  PRO620  LYS621  CYS622 
 ASP623  PHE694  ASN695  SER759  ASP760  ASP761  ALA762  ILE779  LEU786  VAL792 
 PHE793  MET794  SER795  GLU796  ALA797  LYS798  CYS799  TRP800  GLU811  SER814 

> <Gold.Protein.RotatedAtoms>
  151.6539  133.3319  159.3157 H   0  0  0  0  0  0  0  0  0  0  0  0  # atno 6907 bound_to 6896
  150.7947  134.7001  159.6554 H   0  0  0  0  0  0  0  0  0  0  0  0  # atno 6908 bound_to 6896
  152.4032  134.6255  160.0113 H   0  0  0  0  0  0  0  0  0  0  0  0  # atno 6909 bound_to 6896
  144.7368  139.8997  143.6408 H   0  0  0  0  0  0  0  0  0  0  0  0  # atno 7974 bound_to 7965
  156.1477  140.1570  156.8820 H   0  0  0  0  0  0  0  0  0  0  0  0  # atno 8008 bound_to 7997
  154.5043  140.0817  156.7900 H   0  0  0  0  0  0  0  0  0  0  0  0  # atno 8009 bound_to 7997
  155.3956  140.3412  155.4256 H   0  0  0  0  0  0  0  0  0  0  0  0  # atno 8010 bound_to 7997
  140.2792  144.3176  150.6269 H   0  0  0  0  0  0  0  0  0  0  0  0  # atno 10167 bound_to 10162
  157.5856  130.9016  149.9509 H   0  0  0  0  0  0  0  0  0  0  0  0  # atno 10718 bound_to 10713
  152.9790  135.5936  154.3968 H   0  0  0  0  0  0  0  0  0  0  0  0  # atno 10763 bound_to 10752
  154.3617  135.2767  155.2318 H   0  0  0  0  0  0  0  0  0  0  0  0  # atno 10764 bound_to 10752
  154.4312  135.6036  153.6125 H   0  0  0  0  0  0  0  0  0  0  0  0  # atno 10765 bound_to 10752
  141.1375  133.6645  156.5597 H   0  0  0  0  0  0  0  0  0  0  0  0  # atno 11005 bound_to 11000
  146.1081  139.4083  143.0305 LP  0  0  0  0  0  0  0  0  0  0  0  0  # atno 17320 bound_to 7965
  145.7483  140.9982  143.1264 LP  0  0  0  0  0  0  0  0  0  0  0  0  # atno 17321 bound_to 7965
  140.5825  143.2172  151.7402 LP  0  0  0  0  0  0  0  0  0  0  0  0  # atno 17342 bound_to 10162
  139.4967  144.4059  152.0133 LP  0  0  0  0  0  0  0  0  0  0  0  0  # atno 17343 bound_to 10162
  156.0905  130.3664  150.0405 LP  0  0  0  0  0  0  0  0  0  0  0  0  # atno 17370 bound_to 10713
  156.8536  130.9467  151.3623 LP  0  0  0  0  0  0  0  0  0  0  0  0  # atno 17371 bound_to 10713
  140.3998  134.7366  157.4773 LP  0  0  0  0  0  0  0  0  0  0  0  0  # atno 17394 bound_to 11000
  140.0504  134.6138  155.8868 LP  0  0  0  0  0  0  0  0  0  0  0  0  # atno 17395 bound_to 11000

$$$$
