AV-unprocessed.smi:72|AV-procd|sdf|750|dock3
  -GOLD-   2262017 83D 1   1.00000     0.00000
 Structure written by MMmdl.
 29 30  0  0  0  0  0  0  0  0  1 V2000
  154.1821  138.6009  160.6411 N   0  0  0  0  0  0  0  0  0  0  0  0
  153.1867  138.5799  159.6867 C   0  0  0  0  0  0  0  0  0  0  0  0
  153.2139  139.6080  158.7339 N   0  0  0  0  0  0  0  0  0  0  0  0
  152.2765  139.5945  157.8399 C   0  0  0  0  0  0  0  0  0  0  0  0
  151.2502  138.5673  157.8394 N   0  0  0  0  0  0  0  0  0  0  0  0
  150.1566  138.5522  156.7917 C   0  0  1  0  0  0  0  0  0  0  0  0
  149.8252  139.8666  156.4711 O   0  0  0  0  0  0  0  0  0  0  0  0
  149.3914  139.9074  155.1208 C   0  0  1  0  0  0  0  0  0  0  0  0
  149.4934  141.3427  154.5831 C   0  0  0  0  0  0  0  0  0  0  0  0
  149.1317  141.3740  153.2192 O   0  0  0  0  0  0  0  0  0  0  0  0
  150.3449  138.9252  154.4310 C   0  0  2  0  0  0  0  0  0  0  0  0
  149.7402  138.3903  153.2702 O   0  0  0  0  0  0  0  0  0  0  0  0
  150.5584  137.8374  155.4807 C   0  0  1  0  0  0  0  0  0  0  0  0
  151.8946  137.3684  155.4509 O   0  0  0  0  0  0  0  0  0  0  0  0
  151.2950  137.5419  158.8228 C   0  0  0  0  0  0  0  0  0  0  0  0
  150.4569  136.6403  158.8182 O   0  0  0  0  0  0  0  0  0  0  0  0
  152.3257  137.6061  159.7681 N   0  0  0  0  0  0  0  0  0  0  0  0
  149.2785  138.1032  157.2585 H   0  0  0  0  0  0  0  0  0  0  0  0
  148.3664  139.5338  155.0650 H   0  0  0  0  0  0  0  0  0  0  0  0
  151.2851  139.4216  154.1837 H   0  0  0  0  0  0  0  0  0  0  0  0
  149.8755  136.9982  155.3390 H   0  0  0  0  0  0  0  0  0  0  0  0
  154.2636  137.9121  161.3746 H   0  0  0  0  0  0  0  0  0  0  0  0
  154.9026  139.3071  160.6779 H   0  0  0  0  0  0  0  0  0  0  0  0
  152.1997  140.3335  157.0409 H   0  0  0  0  0  0  0  0  0  0  0  0
  148.8708  142.0281  155.1588 H   0  0  0  0  0  0  0  0  0  0  0  0
  150.5213  141.6987  154.6568 H   0  0  0  0  0  0  0  0  0  0  0  0
  149.4483  140.5840  152.8082 H   0  0  0  0  0  0  0  0  0  0  0  0
  149.9333  138.9602  152.5417 H   0  0  0  0  0  0  0  0  0  0  0  0
  152.4366  138.0328  155.0537 H   0  0  0  0  0  0  0  0  0  0  0  0
  1  2  1  0  0  0  0
  1 22  1  0  0  0  0
  1 23  1  0  0  0  0
  2 17  2  0  0  0  0
  2  3  1  0  0  0  0
  3  4  2  0  0  0  0
  4  5  1  0  0  0  0
  4 24  1  0  0  0  0
  5  6  1  0  0  0  0
  5 15  1  0  0  0  0
  6 18  1  0  0  0  0
  6 13  1  0  0  0  0
  6  7  1  0  0  0  0
  7  8  1  0  0  0  0
  8 19  1  0  0  0  0
  8  9  1  0  0  0  0
  8 11  1  0  0  0  0
  9 10  1  0  0  0  0
  9 25  1  0  0  0  0
  9 26  1  0  0  0  0
 10 27  1  0  0  0  0
 11 20  1  0  0  0  0
 11 12  1  0  0  0  0
 11 13  1  0  0  0  0
 12 28  1  0  0  0  0
 13 21  1  0  0  0  0
 13 14  1  0  0  0  0
 14 29  1  0  0  0  0
 15 16  2  0  0  0  0
 15 17  1  0  0  0  0
M  END
> <s_m_source_file>
AV-unprocessed.smi

> <i_m_source_file_index>
72

> <i_lp_mmshare_version>
43012

> <i_f3d_flags>
0

> <s_epik_input>
W05IMl1jMW5bY0hdbihjKD1PKW4xKVtDQEBIXTJPW0NASF0oW0NIMl1bT0hdKVtDQEBIXShbT0hdKVtDQEhdMltPSF0=

> <s_epik_cmdline>
J2VwaWtfcHl0aG9uJywgJy1waCcsICc3LjAnLCAnLXRuJywgJzgnLCAnLW1hJywgJzIwMCcsICctbWV0YWxfYmluZGluZycsICctaW1hZScsICc8aW5maWxlLm1hZT4nLCAnLW9tYWUnLCAnPG91dGZpbGUubWFlPic=

> <r_lp_tautomer_probability>
4.77166e-05

> <r_epik_Ionization_Penalty>
1.3546

> <r_epik_Ionization_Penalty_Charging>
1.46833e-10

> <r_epik_Ionization_Penalty_Neutral>
1.3546

> <r_epik_State_Penalty>
3.51908

> <r_epik_Charging_Adjusted_Penalty>
3.51908

> <i_epik_Tot_Q>
0

> <i_epik_Tot_abs_Q>
0

> <r_epik_Metal_State_Penalty>
3.44088

> <b_epik_Metal_Only>
1

> <s_epik_Chemistry_Notes>
This compound contains an acetal/aminal-like group ( X-CH(R)-Y where X, Y are N, S, or O) that may be acid/base labile, releasing an aldehyde.

> <s_lp_Force_Field>
OPLS_2005

> <r_lp_Energy>
31.5358

> <b_lp_Chiralities_Consistent>
1

> <s_lp_Variant>
AV-unprocessed.smi:72-88

> <Gold.Version>
5.8.1

> <Gold.Id.Protein>
6NUR|6NUR_protein|mol2

> <Gold.PLP.Fitness>
35.5677

> <Gold.PLP.PLP>
-22.2658

> <Gold.PLP.part.hbond>
-8.2313

> <Gold.PLP.part.metal>
0.0000

> <Gold.PLP.part.buried>
-2.1242

> <Gold.PLP.part.nonpolar>
-11.5772

> <Gold.PLP.part.repulsive>
0.0279

> <Gold.PLP.ligand.clash>
0.0000

> <Gold.PLP.ligand.torsion>
0.7214

> <Gold.PLP.Chemscore.Hbond>
4.8355

> <Gold.PLP.Chemscore.CHOScore>
0.0000

> <Gold.PLP.Chemscore.Metal>
0.0000

> <Gold.Chemscore.Hbonds>
donor molecule, donor type, donor heavy atom, donor atom, acceptor molecule, acceptor atom, score
      L1  H    10    27       P1  7957  0.69
      L1  H    12    28       P1  7957  1.00
      P1  H  6896  6907       L1    16  0.39
      P1  H  7997  8010       L1     3  0.05
      P1  H  8011  8017       L1    10  0.98
      P1  H 10752 10763       L1    14  0.38

> <Gold.PLP.Chemscore.Internal.Correction>
0.2382

> <Gold.Rescore>
     Score         DG    S(hbond)    S(metal)    S(lipo)     H(rot)  DE(clash)    DE(int)     intcor
      8.21      -9.06       3.30        0.00      25.09       4.06       0.11       0.74       ----

> <Gold.Chemscore.Fitness>
8.2084

> <Gold.Chemscore.DG>
-9.0592

> <Gold.Chemscore.ZeroCoef>
-5.4800

> <Gold.Chemscore.Hbond>
3.3045

> <Gold.Chemscore.Metal>
0.0000

> <Gold.Chemscore.Lipo>
25.0929

> <Gold.Chemscore.Internal_Hbond>
0.0000

> <Gold.Chemscore.DEClash>
0.1103

> <Gold.Chemscore.DEInternal>
0.7406

> <Gold.Chemscore.Rot>
4.0600

> <Gold.Chemscore.Internal.Correction>
   9.000000E+99

> <Gold.Chemscore.Hbonds>
donor molecule, donor type, donor heavy atom, donor atom, acceptor molecule, acceptor atom, score
      L1  H    10    27       P1  7957  0.68
      L1  H    12    28       P1  7957  0.60
      P1  H  6896  6907       L1    16  0.09
      P1  H  7997  8010       L1     3  0.02
      P1  H  8011  8017       L1    10  0.21
      P1  H 10752 10763       L1    14  0.10

> <Gold.Chemscore.Hbond.Weighted>
-11.0369

> <Gold.Chemscore.Metal.Weighted>
-0.0000

> <Gold.Chemscore.Lipo.Weighted>
-2.9359

> <Gold.Chemscore.Internal_Hbond.Weighted>
0.0000

> <Gold.Chemscore.DEClash.Weighted>
0.1103

> <Gold.Chemscore.DEInternal.Weighted>
0.7406

> <Gold.Chemscore.Rot.Weighted>
10.3936

> <Gold.Chemscore.Internal.Correction.Weighted>
   9.000000E+99

> <Gold.Protein.RotatedTorsions>
[ 6907 6896 6895 6894 ] final   -0.16 input  -60.11 | X-H torsion
[ 7974 7965 7964 7962 ] final  -13.05 input  175.53 | X-H torsion
[ 8008 7997 7996 7995 ] final   -2.94 input   59.86 | X-H torsion
[ 10167 10162 10161 10158 ] final   24.65 input  -65.29 | X-H torsion
[ 10718 10713 10712 10709 ] final    4.16 input   66.30 | X-H torsion
[ 10763 10752 10751 10750 ] final   82.37 input  -60.55 | X-H torsion
[ 11005 11000 10999 10996 ] final   14.45 input  -57.11 | X-H torsion

> <Gold.Protein.ActiveResidues>
 VAL166  LYS551  ARG553  GLY616  TRP617  ASP618  TYR619  PRO620  LYS621  CYS622 
 ASP623  PHE694  ASN695  SER759  ASP760  ASP761  ALA762  ILE779  LEU786  VAL792 
 PHE793  MET794  SER795  GLU796  ALA797  LYS798  CYS799  TRP800  GLU811  SER814 

> <Gold.Protein.RotatedAtoms>
  151.5668  135.1064  159.9985 H   0  0  0  0  0  0  0  0  0  0  0  0  # atno 6907 bound_to 6896
  152.4420  133.7462  159.6679 H   0  0  0  0  0  0  0  0  0  0  0  0  # atno 6908 bound_to 6896
  150.8328  133.7995  159.3115 H   0  0  0  0  0  0  0  0  0  0  0  0  # atno 6909 bound_to 6896
  146.2129  140.3147  142.8385 H   0  0  0  0  0  0  0  0  0  0  0  0  # atno 7974 bound_to 7965
  154.6302  140.2521  155.7443 H   0  0  0  0  0  0  0  0  0  0  0  0  # atno 8008 bound_to 7997
  156.2475  140.2908  156.0571 H   0  0  0  0  0  0  0  0  0  0  0  0  # atno 8009 bound_to 7997
  155.1757  140.0387  157.2862 H   0  0  0  0  0  0  0  0  0  0  0  0  # atno 8010 bound_to 7997
  140.5170  144.0065  150.6399 H   0  0  0  0  0  0  0  0  0  0  0  0  # atno 10167 bound_to 10162
  156.8885  130.5679  149.5650 H   0  0  0  0  0  0  0  0  0  0  0  0  # atno 10718 bound_to 10713
  153.1196  135.4731  154.9174 H   0  0  0  0  0  0  0  0  0  0  0  0  # atno 10763 bound_to 10752
  154.7563  135.3119  154.8466 H   0  0  0  0  0  0  0  0  0  0  0  0  # atno 10764 bound_to 10752
  153.9034  135.6872  153.4808 H   0  0  0  0  0  0  0  0  0  0  0  0  # atno 10765 bound_to 10752
  140.4694  134.1047  155.7730 H   0  0  0  0  0  0  0  0  0  0  0  0  # atno 11005 bound_to 11000
  144.8963  140.7587  143.5895 LP  0  0  0  0  0  0  0  0  0  0  0  0  # atno 17320 bound_to 7965
  145.3071  139.1831  143.4658 LP  0  0  0  0  0  0  0  0  0  0  0  0  # atno 17321 bound_to 7965
  140.3404  143.3023  152.0594 LP  0  0  0  0  0  0  0  0  0  0  0  0  # atno 17342 bound_to 10162
  139.4912  144.6447  151.6804 LP  0  0  0  0  0  0  0  0  0  0  0  0  # atno 17343 bound_to 10162
  156.0641  130.5688  150.9252 LP  0  0  0  0  0  0  0  0  0  0  0  0  # atno 17370 bound_to 10713
  157.6098  131.0937  150.8815 LP  0  0  0  0  0  0  0  0  0  0  0  0  # atno 17371 bound_to 10713
  141.1584  133.8839  157.1914 LP  0  0  0  0  0  0  0  0  0  0  0  0  # atno 17394 bound_to 11000
  139.9895  135.0070  156.9941 LP  0  0  0  0  0  0  0  0  0  0  0  0  # atno 17395 bound_to 11000

$$$$
