#       Name:                AV-unprocessed.smi:1002
#       Creating user name   scv26
#       Creation time:       Fri Mar 27 02:25:59 2020


#       File generated by GOLD software.
#

@<TRIPOS>MOLECULE
AV-unprocessed.smi:1002
    43    44     1
SMALL
NO_CHARGES


@<TRIPOS>ATOM
      1 ****         0.3784   2.4269  -1.5461 O.2            1 S1                 0.0000
      2 ****         1.0415   1.5436  -1.0031 C.2            1 S1                 0.0000
      3 ****         2.5567   1.7101  -0.8555 C.3            1 S1                 0.0000
      4 ****         2.9892   1.6033   0.5979 C.ar           1 S1                 0.0000
      5 ****         2.8821   2.7097   1.4667 C.ar           1 S1                 0.0000
      6 ****         3.2975   2.5570   2.8047 C.ar           1 S1                 0.0000
      7 ****         3.7959   1.4036   3.2998 N.ar           1 S1                 0.0000
      8 ****         3.8982   0.3492   2.4624 C.ar           1 S1                 0.0000
      9 ****         3.5117   0.3959   1.1080 C.ar           1 S1                 0.0000
     10 ****         0.5116   0.4021  -0.5347 N.am           1 S1                 0.0000
     11 ****        -0.8990   0.0324  -0.5884 C.3            1 S1                 0.0000
     12 ****        -1.2428  -0.8460   0.6294 C.3            1 S1                 0.0000
     13 ****        -2.6972  -1.3406   0.5775 C.3            1 S1                 0.0000
     14 ****        -2.9779  -2.0991  -0.7359 C.3            1 S1                 0.0000
     15 ****        -4.4371  -2.5743  -0.7792 C.2            1 S1                 0.0000
     16 ****        -5.3344  -1.7022  -0.7943 O.co2          1 S1                 0.0000
     17 ****        -4.6303  -3.8097  -0.7928 O.co2          1 S1                -1.0000
     18 ****        -2.6589  -1.2049  -1.9525 C.3            1 S1                 0.0000
     19 ****        -1.2059  -0.7053  -1.9075 C.3            1 S1                 0.0000
     20 ****         3.0614   0.9501  -1.4531 H              1 S1                 0.0000
     21 ****         2.8637   2.6784  -1.2536 H              1 S1                 0.0000
     22 ****         2.4882   3.6532   1.1184 H              1 S1                 0.0000
     23 ****         3.2274   3.3840   3.4956 H              1 S1                 0.0000
     24 ****         4.3000  -0.5603   2.8842 H              1 S1                 0.0000
     25 ****         3.6135  -0.4764   0.4791 H              1 S1                 0.0000
     26 ****         1.1363  -0.2653  -0.1055 H              1 S1                 0.0000
     27 ****        -1.5142   0.9330  -0.5375 H              1 S1                 0.0000
     28 ****        -0.5727  -1.7062   0.6676 H              1 S1                 0.0000
     29 ****        -1.0792  -0.2865   1.5513 H              1 S1                 0.0000
     30 ****        -2.8943  -1.9858   1.4347 H              1 S1                 0.0000
     31 ****        -3.3696  -0.4863   0.6726 H              1 S1                 0.0000
     32 ****        -2.3330  -2.9790  -0.7736 H              1 S1                 0.0000
     33 ****        -2.8265  -1.7565  -2.8785 H              1 S1                 0.0000
     34 ****        -3.3305  -0.3452  -1.9791 H              1 S1                 0.0000
     35 ****        -1.0196  -0.0476  -2.7573 H              1 S1                 0.0000
     36 ****        -0.5308  -1.5547  -2.0211 H              1 S1                 0.0000
     37 ****         0.8292   3.2508  -1.8896 LP             1 S1                 0.0000
     38 ****        -0.6111   2.3207  -1.6438 LP             1 S1                 0.0000
     39 ****         4.0801   1.3326   4.2559 LP             1 S1                 0.0000
     40 ****        -6.2962  -1.9748  -0.8193 LP             1 S1                 0.0000
     41 ****        -5.0896  -0.7327  -0.7814 LP             1 S1                 0.0000
     42 ****        -5.5629  -4.1697  -0.8177 LP             1 S1                 0.0000
     43 ****        -3.8522  -4.4377  -0.7788 LP             1 S1                 0.0000
@<TRIPOS>BOND
    1    1    2 2     
    2    2    3 1     
    3    2   10 am    
    4    3    4 1     
    5    3   20 1     
    6    3   21 1     
    7    4    9 ar    
    8    4    5 ar    
    9    5    6 ar    
   10    5   22 1     
   11    6    7 ar    
   12    6   23 1     
   13    7    8 ar    
   14    8    9 ar    
   15    8   24 1     
   16    9   25 1     
   17   10   11 1     
   18   10   26 1     
   19   11   19 1     
   20   11   12 1     
   21   11   27 1     
   22   12   13 1     
   23   12   28 1     
   24   12   29 1     
   25   13   14 1     
   26   13   30 1     
   27   13   31 1     
   28   14   15 1     
   29   14   18 1     
   30   14   32 1     
   31   15   16 ar    
   32   15   17 ar    
   33   18   19 1     
   34   18   33 1     
   35   18   34 1     
   36   19   35 1     
   37   19   36 1     
   38    1   37 1     
   39    1   38 1     
   40    7   39 1     
   41   16   40 1     
   42   16   41 1     
   43   17   42 1     
   44   17   43 1     
@<TRIPOS>SUBSTRUCTURE
      1 S1             1
@<TRIPOS>SET
LONE_PAIRS      STATIC     ATOMS    <user>   **** ""
7 37 38 39 40 41 42 43
DONOR_HYDROGENS      STATIC     ATOMS    <user>   **** ""
1 26
ATOM$BLUE        STATIC     ATOMS    COLORGROUP SYSTEM
7 37 38 39 40 41 42 43
ATOM$RED        STATIC     ATOMS    COLORGROUP SYSTEM
1 26
