#       Name:                AV-unprocessed.smi:798
#       Creating user name   scv26
#       Creation time:       Fri Mar 27 01:21:19 2020


#       File generated by GOLD software.
#

@<TRIPOS>MOLECULE
AV-unprocessed.smi:798
    40    42     1
SMALL
NO_CHARGES


@<TRIPOS>ATOM
      1 ****        -1.1932   1.9504  -0.4637 O.2            1 S1                 0.0000
      2 ****        -1.7235   0.8516  -0.6424 C.2            1 S1                 0.0000
      3 ****        -3.0461   0.6153  -0.7983 N.pl3          1 S1                -1.0000
      4 ****        -3.9212   1.6336  -0.7619 C.2            1 S1                 0.0000
      5 ****        -4.4366   2.1771  -1.8761 N.2            1 S1                 0.0000
      6 ****        -5.3296   3.2085  -1.6183 N.2            1 S1                 0.0000
      7 ****        -5.4710   3.4124  -0.3088 C.2            1 S1                 0.0000
      8 ****        -4.5279   2.3627   0.7278 S.3            1 S1                 0.0000
      9 ****        -0.9699  -0.2555  -0.6927 N.am           1 S1                 0.0000
     10 ****         0.4824  -0.3139  -0.5400 C.3            1 S1                 0.0000
     11 ****         1.0215  -1.6734  -1.0368 C.3            1 S1                 0.0000
     12 ****         2.5440  -1.5619  -1.2350 C.3            1 S1                 0.0000
     13 ****         3.0660  -1.5220   0.2134 C.3            1 S1                 0.0000
     14 ****         1.7708  -1.5942   1.0506 C.3            1 S1                 0.0000
     15 ****         0.9353  -2.5505   0.2091 C.3            1 S1                 0.0000
     16 ****         0.9329  -0.2951   0.9440 C.3            1 S1                 0.0000
     17 ****         1.6401   1.0063   1.3701 C.3            1 S1                 0.0000
     18 ****         2.0489   0.9295   2.7197 O.3            1 S1                 0.0000
     19 ****        -6.1371   4.1834   0.0491 H              1 S1                 0.0000
     20 ****        -1.4469  -1.1322  -0.8429 H              1 S1                 0.0000
     21 ****         0.9336   0.4987  -1.1131 H              1 S1                 0.0000
     22 ****         0.5026  -2.0631  -1.9136 H              1 S1                 0.0000
     23 ****         2.9332  -2.4360  -1.7585 H              1 S1                 0.0000
     24 ****         2.8274  -0.6771  -1.8062 H              1 S1                 0.0000
     25 ****         3.6921  -2.3930   0.4104 H              1 S1                 0.0000
     26 ****         3.6701  -0.6404   0.4224 H              1 S1                 0.0000
     27 ****         1.9342  -1.9221   2.0777 H              1 S1                 0.0000
     28 ****        -0.0832  -2.6804   0.5797 H              1 S1                 0.0000
     29 ****         1.3950  -3.5321   0.0806 H              1 S1                 0.0000
     30 ****         0.0577  -0.4171   1.5860 H              1 S1                 0.0000
     31 ****         2.5004   1.2285   0.7399 H              1 S1                 0.0000
     32 ****         0.9566   1.8493   1.2689 H              1 S1                 0.0000
     33 ****         2.4427   1.7542   2.9603 H              1 S1                 0.0000
     34 ****        -1.7556   2.7762  -0.4228 LP             1 S1                 0.0000
     35 ****        -0.2008   2.0156  -0.3597 LP             1 S1                 0.0000
     36 ****        -3.3730  -0.3190  -0.9409 LP             1 S1                 0.0000
     37 ****        -4.2012   1.8701  -2.7983 LP             1 S1                 0.0000
     38 ****        -5.8060   3.7316  -2.3250 LP             1 S1                 0.0000
     39 ****         2.7158   0.1924   2.8289 LP             1 S1                 0.0000
     40 ****         1.2563   0.7510   3.3028 LP             1 S1                 0.0000
@<TRIPOS>BOND
    1    1    2 2     
    2    2    3 1     
    3    2    9 am    
    4    3    4 1     
    5    4    8 1     
    6    4    5 2     
    7    5    6 1     
    8    6    7 2     
    9    7    8 1     
   10    7   19 1     
   11    9   10 1     
   12    9   20 1     
   13   10   16 1     
   14   10   11 1     
   15   10   21 1     
   16   11   15 1     
   17   11   12 1     
   18   11   22 1     
   19   12   13 1     
   20   12   23 1     
   21   12   24 1     
   22   13   14 1     
   23   13   25 1     
   24   13   26 1     
   25   14   15 1     
   26   14   16 1     
   27   14   27 1     
   28   15   28 1     
   29   15   29 1     
   30   16   17 1     
   31   16   30 1     
   32   17   18 1     
   33   17   31 1     
   34   17   32 1     
   35   18   33 1     
   36    1   34 1     
   37    1   35 1     
   38    3   36 1     
   39    5   37 1     
   40    6   38 1     
   41   18   39 1     
   42   18   40 1     
@<TRIPOS>SUBSTRUCTURE
      1 S1             1
@<TRIPOS>SET
LONE_PAIRS      STATIC     ATOMS    <user>   **** ""
7 34 35 36 37 38 39 40
DONOR_HYDROGENS      STATIC     ATOMS    <user>   **** ""
2 20 33
ATOM$BLUE        STATIC     ATOMS    COLORGROUP SYSTEM
7 34 35 36 37 38 39 40
ATOM$RED        STATIC     ATOMS    COLORGROUP SYSTEM
2 20 33
