AV-unprocessed.smi:529|AV-procd|sdf|2839|dock4
  -GOLD-   2262023333D 1   1.00000     0.00000
 Structure written by MMmdl.
 31 32  0  0  0  0  0  0  0  0  2 V2000
  149.6203  138.3975  153.7647 N   0  0  0  0  0  0  0  0  0  0  0  0
  148.7207  139.3824  153.8236 C   0  0  0  0  0  0  0  0  0  0  0  0
  147.1342  139.3134  153.1166 S   0  0  0  0  0  0  0  0  0  0  0  0
  146.8009  140.9216  153.6846 C   0  0  0  0  0  0  0  0  0  0  0  0
  147.8671  141.4427  154.3689 C   0  0  0  0  0  0  0  0  0  0  0  0
  148.9442  140.5614  154.4413 N   0  3  0  0  0  0  0  0  0  0  0  0
  150.2095  140.8979  155.1204 C   0  0  0  0  0  0  0  0  0  0  0  0
  149.9640  141.5880  156.4650 C   0  0  0  0  0  0  0  0  0  0  0  0
  148.8362  141.5953  156.9582 O   0  0  0  0  0  0  0  0  0  0  0  0
  151.0262  142.1734  157.0385 N   0  0  0  0  0  0  0  0  0  0  0  0
  150.9990  142.9104  158.2989 C   0  0  0  0  0  0  0  0  0  0  0  0
  151.4024  144.3811  158.0816 C   0  0  0  0  0  0  0  0  0  0  0  0
  152.4227  144.7041  159.1740 C   0  0  0  0  0  0  0  0  0  0  0  0
  153.1205  143.3742  159.4410 C   0  0  0  0  0  0  0  0  0  0  0  0
  152.0061  142.3343  159.3146 C   0  0  0  0  0  0  0  0  0  0  0  0
  150.5354  138.4752  154.1843 H   0  0  0  0  0  0  0  0  0  0  0  0
  145.8468  141.3843  153.4788 H   0  0  0  0  0  0  0  0  0  0  0  0
  147.9625  142.4148  154.8316 H   0  0  0  0  0  0  0  0  0  0  0  0
  150.7657  139.9750  155.2896 H   0  0  0  0  0  0  0  0  0  0  0  0
  150.8181  141.5142  154.4564 H   0  0  0  0  0  0  0  0  0  0  0  0
  151.9184  142.1079  156.5700 H   0  0  0  0  0  0  0  0  0  0  0  0
  149.9946  142.8724  158.7248 H   0  0  0  0  0  0  0  0  0  0  0  0
  151.8766  144.5106  157.1073 H   0  0  0  0  0  0  0  0  0  0  0  0
  150.5444  145.0534  158.1128 H   0  0  0  0  0  0  0  0  0  0  0  0
  153.1166  145.4926  158.8813 H   0  0  0  0  0  0  0  0  0  0  0  0
  151.9048  145.0335  160.0760 H   0  0  0  0  0  0  0  0  0  0  0  0
  153.8783  143.1972  158.6765 H   0  0  0  0  0  0  0  0  0  0  0  0
  153.6138  143.3456  160.4129 H   0  0  0  0  0  0  0  0  0  0  0  0
  151.5121  142.2174  160.2800 H   0  0  0  0  0  0  0  0  0  0  0  0
  152.3944  141.3536  159.0355 H   0  0  0  0  0  0  0  0  0  0  0  0
  149.4443  137.5340  153.2709 H   0  0  0  0  0  0  0  0  0  0  0  0
  1  2  1  0  0  0  0
  1 16  1  0  0  0  0
  1 31  1  0  0  0  0
  2  6  2  0  0  0  0
  2  3  1  0  0  0  0
  3  4  1  0  0  0  0
  4  5  2  0  0  0  0
  4 17  1  0  0  0  0
  5  6  1  0  0  0  0
  5 18  1  0  0  0  0
  6  7  1  0  0  0  0
  7  8  1  0  0  0  0
  7 19  1  0  0  0  0
  7 20  1  0  0  0  0
  8  9  2  0  0  0  0
  8 10  1  0  0  0  0
 10 11  1  0  0  0  0
 10 21  1  0  0  0  0
 11 15  1  0  0  0  0
 11 12  1  0  0  0  0
 11 22  1  0  0  0  0
 12 13  1  0  0  0  0
 12 23  1  0  0  0  0
 12 24  1  0  0  0  0
 13 14  1  0  0  0  0
 13 25  1  0  0  0  0
 13 26  1  0  0  0  0
 14 15  1  0  0  0  0
 14 27  1  0  0  0  0
 14 28  1  0  0  0  0
 15 29  1  0  0  0  0
 15 30  1  0  0  0  0
M  CHG  1   6   1
M  END
> <s_m_source_file>
AV-unprocessed.smi

> <i_m_source_file_index>
529

> <i_lp_mmshare_version>
43012

> <i_f3d_flags>
0

> <s_epik_input>
W0hdL049YzFcc1tjSF1bY0hdbjFbQ0gyXUMoPU8pW05IXVtDSF0yW0NIMl1bQ0gyXVtDSDJdW0NIMl0y

> <s_epik_cmdline>
J2VwaWtfcHl0aG9uJywgJy1waCcsICc3LjAnLCAnLXRuJywgJzgnLCAnLW1hJywgJzIwMCcsICctbWV0YWxfYmluZGluZycsICctaW1hZScsICc8aW5maWxlLm1hZT4nLCAnLW9tYWUnLCAnPG91dGZpbGUubWFlPic=

> <r_lp_tautomer_probability>
1

> <r_epik_Ionization_Penalty>
0.0151346

> <r_epik_Ionization_Penalty_Charging>
0

> <r_epik_Ionization_Penalty_Neutral>
0.0151346

> <r_epik_State_Penalty>
0.0235202

> <r_epik_Charging_Adjusted_Penalty>
0.0235202

> <i_epik_Tot_Q>
1

> <i_epik_Tot_abs_Q>
1

> <r_epik_Metal_State_Penalty>
0.0235202

> <b_epik_Metal_Only>
0

> <s_lp_Force_Field>
OPLS_2005

> <r_lp_Energy>
21.8229

> <b_lp_Chiralities_Consistent>
1

> <s_lp_Variant>
AV-unprocessed.smi:529-1

> <Gold.Version>
5.8.1

> <Gold.Id.Protein>
6NUR|6NUR_protein|mol2

> <Gold.PLP.Fitness>
41.9587

> <Gold.PLP.PLP>
-33.7554

> <Gold.PLP.part.hbond>
-1.7756

> <Gold.PLP.part.metal>
0.0000

> <Gold.PLP.part.buried>
-0.6350

> <Gold.PLP.part.nonpolar>
-32.5303

> <Gold.PLP.part.repulsive>
0.2302

> <Gold.PLP.ligand.clash>
0.0000

> <Gold.PLP.ligand.torsion>
0.3673

> <Gold.PLP.Chemscore.Hbond>
2.0000

> <Gold.PLP.Chemscore.CHOScore>
0.9781

> <Gold.PLP.Chemscore.Metal>
0.0000

> <Gold.Chemscore.Hbonds>
donor molecule, donor type, donor heavy atom, donor atom, acceptor molecule, acceptor atom, score
      L1  H     1    31       P1  7948  2.00
      L1  C     4    17       P1 10175  0.98

> <Gold.PLP.Chemscore.Internal.Correction>
0.0035

> <Gold.Rescore>
     Score         DG    S(hbond)    S(metal)    S(lipo)     H(rot)  DE(clash)    DE(int)     intcor
     12.79     -14.64       0.96        0.00      86.01       1.61       0.09       1.77       ----

> <Gold.Chemscore.Fitness>
12.7875

> <Gold.Chemscore.DG>
-14.6432

> <Gold.Chemscore.ZeroCoef>
-5.4800

> <Gold.Chemscore.Hbond>
0.9636

> <Gold.Chemscore.Metal>
0.0000

> <Gold.Chemscore.Lipo>
86.0140

> <Gold.Chemscore.Internal_Hbond>
0.0000

> <Gold.Chemscore.DEClash>
0.0859

> <Gold.Chemscore.DEInternal>
1.7699

> <Gold.Chemscore.Rot>
1.6089

> <Gold.Chemscore.Internal.Correction>
   9.000000E+99

> <Gold.Chemscore.Hbonds>
donor molecule, donor type, donor heavy atom, donor atom, acceptor molecule, acceptor atom, score
      L1  H     1    31       P1  7948  0.91

> <Gold.Chemscore.Hbond.Weighted>
-3.2184

> <Gold.Chemscore.Metal.Weighted>
-0.0000

> <Gold.Chemscore.Lipo.Weighted>
-10.0636

> <Gold.Chemscore.Internal_Hbond.Weighted>
0.0000

> <Gold.Chemscore.DEClash.Weighted>
0.0859

> <Gold.Chemscore.DEInternal.Weighted>
1.7699

> <Gold.Chemscore.Rot.Weighted>
4.1188

> <Gold.Chemscore.Internal.Correction.Weighted>
   9.000000E+99

> <Gold.Protein.RotatedTorsions>
[ 6907 6896 6895 6894 ] final   56.88 input  -60.11 | X-H torsion
[ 7974 7965 7964 7962 ] final  110.47 input  175.53 | X-H torsion
[ 8008 7997 7996 7995 ] final -127.60 input   59.86 | X-H torsion
[ 10167 10162 10161 10158 ] final -140.20 input  -65.29 | X-H torsion
[ 10718 10713 10712 10709 ] final -138.06 input   66.30 | X-H torsion
[ 10763 10752 10751 10750 ] final  113.03 input  -60.55 | X-H torsion
[ 11005 11000 10999 10996 ] final  -93.42 input  -57.11 | X-H torsion

> <Gold.Protein.ActiveResidues>
 VAL166  LYS551  ARG553  GLY616  TRP617  ASP618  TYR619  PRO620  LYS621  CYS622 
 ASP623  PHE694  ASN695  SER759  ASP760  ASP761  ALA762  ILE779  LEU786  VAL792 
 PHE793  MET794  SER795  GLU796  ALA797  LYS798  CYS799  TRP800  GLU811  SER814 

> <Gold.Protein.RotatedAtoms>
  152.3679  134.6777  160.0185 H   0  0  0  0  0  0  0  0  0  0  0  0  # atno 6907 bound_to 6896
  151.7080  133.3306  159.3291 H   0  0  0  0  0  0  0  0  0  0  0  0  # atno 6908 bound_to 6896
  150.7651  134.6492  159.6323 H   0  0  0  0  0  0  0  0  0  0  0  0  # atno 6909 bound_to 6896
  145.2546  139.2726  143.4049 H   0  0  0  0  0  0  0  0  0  0  0  0  # atno 7974 bound_to 7965
  155.2489  140.0431  157.2984 H   0  0  0  0  0  0  0  0  0  0  0  0  # atno 8008 bound_to 7997
  154.5781  140.2393  155.8063 H   0  0  0  0  0  0  0  0  0  0  0  0  # atno 8009 bound_to 7997
  156.2173  140.2981  155.9877 H   0  0  0  0  0  0  0  0  0  0  0  0  # atno 8010 bound_to 7997
  139.8305  143.7454  152.2666 H   0  0  0  0  0  0  0  0  0  0  0  0  # atno 10167 bound_to 10162
  156.2950  130.7397  151.1433 H   0  0  0  0  0  0  0  0  0  0  0  0  # atno 10718 bound_to 10713
  153.4866  135.3668  155.2470 H   0  0  0  0  0  0  0  0  0  0  0  0  # atno 10763 bound_to 10752
  154.8753  135.3967  154.3638 H   0  0  0  0  0  0  0  0  0  0  0  0  # atno 10764 bound_to 10752
  153.4250  135.7081  153.6334 H   0  0  0  0  0  0  0  0  0  0  0  0  # atno 10765 bound_to 10752
  141.1497  133.7886  157.0156 H   0  0  0  0  0  0  0  0  0  0  0  0  # atno 11005 bound_to 11000
  146.3293  140.2946  142.8617 LP  0  0  0  0  0  0  0  0  0  0  0  0  # atno 17320 bound_to 7965
  144.9473  140.8141  143.5594 LP  0  0  0  0  0  0  0  0  0  0  0  0  # atno 17321 bound_to 7965
  139.7660  144.7492  151.0294 LP  0  0  0  0  0  0  0  0  0  0  0  0  # atno 17342 bound_to 10162
  140.7807  143.4698  151.0162 LP  0  0  0  0  0  0  0  0  0  0  0  0  # atno 17343 bound_to 10162
  157.7353  131.0574  150.5478 LP  0  0  0  0  0  0  0  0  0  0  0  0  # atno 17370 bound_to 10713
  156.5599  130.4253  149.6068 LP  0  0  0  0  0  0  0  0  0  0  0  0  # atno 17371 bound_to 10713
  140.0849  134.9627  157.1684 LP  0  0  0  0  0  0  0  0  0  0  0  0  # atno 17394 bound_to 11000
  140.3526  134.2582  155.7196 LP  0  0  0  0  0  0  0  0  0  0  0  0  # atno 17395 bound_to 11000

$$$$
