AV-unprocessed.smi:1654|AV-procd|sdf|6642|dock7
  -GOLD-   22720 7343D 1   1.00000     0.00000
 Structure written by MMmdl.
 40 41  0  0  0  0  0  0  0  0  1 V2000
  149.8423  139.7832  157.2433 O   0  0  0  0  0  0  0  0  0  0  0  0
  150.0258  141.0777  156.5692 S   0  0  0  0  0  0  0  0  0  0  0  0
  150.4566  141.1468  155.1644 O   0  0  0  0  0  0  0  0  0  0  0  0
  148.5618  141.9704  156.7400 N   0  0  0  0  0  0  0  0  0  0  0  0
  148.1097  142.3052  158.0871 C   0  0  0  0  0  0  0  0  0  0  0  0
  146.6960  142.8982  158.0411 C   0  0  0  0  0  0  0  0  0  0  0  0
  146.1945  143.2800  159.4198 C   0  0  0  0  0  0  0  0  0  0  0  0
  145.2052  142.5126  160.0684 C   0  0  0  0  0  0  0  0  0  0  0  0
  144.7667  142.9115  161.3458 C   0  0  0  0  0  0  0  0  0  0  0  0
  145.3378  144.0642  161.9213 C   0  0  0  0  0  0  0  0  0  0  0  0
  146.2856  144.8066  161.3094 N   0  0  0  0  0  0  0  0  0  0  0  0
  146.7003  144.4175  160.0845 C   0  0  0  0  0  0  0  0  0  0  0  0
  151.0755  142.0777  157.5215 N   0  0  0  0  0  0  0  0  0  0  0  0
  151.3848  143.4297  157.0172 C   0  0  0  0  0  0  0  0  0  0  0  0
  151.2428  144.4783  158.1306 C   0  0  0  0  0  0  0  0  0  0  0  0
  152.5183  144.7176  158.9571 C   0  0  0  0  0  0  0  0  0  0  0  0
  153.3670  143.4703  159.2581 C   0  0  0  0  0  0  0  0  0  0  0  0
  152.5575  142.1989  159.5550 C   0  0  0  0  0  0  0  0  0  0  0  0
  152.1465  141.4188  158.2910 C   0  0  0  0  0  0  0  0  0  0  0  0
  148.5295  142.7680  156.1055 H   0  0  0  0  0  0  0  0  0  0  0  0
  148.1277  141.4050  158.7026 H   0  0  0  0  0  0  0  0  0  0  0  0
  148.8075  143.0168  158.5300 H   0  0  0  0  0  0  0  0  0  0  0  0
  146.6801  143.7816  157.4012 H   0  0  0  0  0  0  0  0  0  0  0  0
  146.0030  142.1825  157.5964 H   0  0  0  0  0  0  0  0  0  0  0  0
  144.7873  141.6356  159.5958 H   0  0  0  0  0  0  0  0  0  0  0  0
  144.0100  142.3484  161.8719 H   0  0  0  0  0  0  0  0  0  0  0  0
  145.0242  144.3995  162.8989 H   0  0  0  0  0  0  0  0  0  0  0  0
  147.4567  145.0337  159.6210 H   0  0  0  0  0  0  0  0  0  0  0  0
  152.3740  143.4497  156.5579 H   0  0  0  0  0  0  0  0  0  0  0  0
  150.6850  143.6801  156.2199 H   0  0  0  0  0  0  0  0  0  0  0  0
  150.9454  145.4299  157.6887 H   0  0  0  0  0  0  0  0  0  0  0  0
  150.4192  144.1986  158.7895 H   0  0  0  0  0  0  0  0  0  0  0  0
  153.1498  145.4424  158.4419 H   0  0  0  0  0  0  0  0  0  0  0  0
  152.2313  145.1934  159.8954 H   0  0  0  0  0  0  0  0  0  0  0  0
  154.0486  143.2778  158.4287 H   0  0  0  0  0  0  0  0  0  0  0  0
  154.0078  143.6949  160.1116 H   0  0  0  0  0  0  0  0  0  0  0  0
  153.1858  141.5385  160.1537 H   0  0  0  0  0  0  0  0  0  0  0  0
  151.6903  142.4231  160.1775 H   0  0  0  0  0  0  0  0  0  0  0  0
  151.8013  140.4346  158.6063 H   0  0  0  0  0  0  0  0  0  0  0  0
  153.0046  141.2437  157.6410 H   0  0  0  0  0  0  0  0  0  0  0  0
  1  2  2  0  0  0  0
  2  3  2  0  0  0  0
  2  4  1  0  0  0  0
  2 13  1  0  0  0  0
  4  5  1  0  0  0  0
  4 20  1  0  0  0  0
  5  6  1  0  0  0  0
  5 21  1  0  0  0  0
  5 22  1  0  0  0  0
  6  7  1  0  0  0  0
  6 23  1  0  0  0  0
  6 24  1  0  0  0  0
  7 12  1  0  0  0  0
  7  8  2  0  0  0  0
  8  9  1  0  0  0  0
  8 25  1  0  0  0  0
  9 10  2  0  0  0  0
  9 26  1  0  0  0  0
 10 11  1  0  0  0  0
 10 27  1  0  0  0  0
 11 12  2  0  0  0  0
 12 28  1  0  0  0  0
 13 19  1  0  0  0  0
 13 14  1  0  0  0  0
 14 15  1  0  0  0  0
 14 29  1  0  0  0  0
 14 30  1  0  0  0  0
 15 16  1  0  0  0  0
 15 31  1  0  0  0  0
 15 32  1  0  0  0  0
 16 17  1  0  0  0  0
 16 33  1  0  0  0  0
 16 34  1  0  0  0  0
 17 18  1  0  0  0  0
 17 35  1  0  0  0  0
 17 36  1  0  0  0  0
 18 19  1  0  0  0  0
 18 37  1  0  0  0  0
 18 38  1  0  0  0  0
 19 39  1  0  0  0  0
 19 40  1  0  0  0  0
M  END
> <s_m_source_file>
AV-unprocessed.smi

> <i_m_source_file_index>
1654

> <i_lp_mmshare_version>
43012

> <i_f3d_flags>
0

> <s_epik_input>
W0NIMl0xW0NIMl1bQ0gyXVtDSDJdW0NIMl1bQ0gyXU4xUyg9TykoPU8pW05IXVtDSDJdW0NIMl1jMltjSF1bY0hdW2NIXW5bY0hdMg==

> <s_epik_cmdline>
J2VwaWtfcHl0aG9uJywgJy1waCcsICc3LjAnLCAnLXRuJywgJzgnLCAnLW1hJywgJzIwMCcsICctbWV0YWxfYmluZGluZycsICctaW1hZScsICc8aW5maWxlLm1hZT4nLCAnLW9tYWUnLCAnPG91dGZpbGUubWFlPic=

> <r_lp_tautomer_probability>
1

> <r_epik_Ionization_Penalty>
0.00688973

> <r_epik_Ionization_Penalty_Charging>
0

> <r_epik_Ionization_Penalty_Neutral>
0.00688973

> <r_epik_State_Penalty>
-0

> <r_epik_Charging_Adjusted_Penalty>
0

> <i_epik_Tot_Q>
0

> <i_epik_Tot_abs_Q>
0

> <r_epik_Metal_State_Penalty>
0.361675

> <b_epik_Metal_Only>
0

> <s_lp_Force_Field>
OPLS_2005

> <r_lp_Energy>
15.461

> <b_lp_Chiralities_Consistent>
1

> <s_lp_Variant>
AV-unprocessed.smi:1654-1

> <Gold.Version>
5.8.1

> <Gold.Id.Protein>
6NUR|6NUR_protein|mol2

> <Gold.PLP.Fitness>
44.4636

> <Gold.PLP.PLP>
-37.2549

> <Gold.PLP.part.hbond>
-2.0000

> <Gold.PLP.part.metal>
0.0000

> <Gold.PLP.part.buried>
-4.1318

> <Gold.PLP.part.nonpolar>
-29.8449

> <Gold.PLP.part.repulsive>
0.2048

> <Gold.PLP.ligand.clash>
0.0000

> <Gold.PLP.ligand.torsion>
1.3904

> <Gold.PLP.Chemscore.Hbond>
1.6289

> <Gold.PLP.Chemscore.CHOScore>
1.0000

> <Gold.PLP.Chemscore.Metal>
0.0000

> <Gold.Chemscore.Hbonds>
donor molecule, donor type, donor heavy atom, donor atom, acceptor molecule, acceptor atom, score
      L1  H     4    20       P1  8028  1.00
      P1  H  7989  7998       L1     3  0.61
      L1  C    12    28       P1  8029  0.96

> <Gold.PLP.Chemscore.Internal.Correction>
2.1026

> <Gold.Rescore>
     Score         DG    S(hbond)    S(metal)    S(lipo)     H(rot)  DE(clash)    DE(int)     intcor
     15.90     -17.48       1.68        0.00      86.84       1.47       0.09       1.49       ----

> <Gold.Chemscore.Fitness>
15.8995

> <Gold.Chemscore.DG>
-17.4810

> <Gold.Chemscore.ZeroCoef>
-5.4800

> <Gold.Chemscore.Hbond>
1.6798

> <Gold.Chemscore.Metal>
0.0000

> <Gold.Chemscore.Lipo>
86.8404

> <Gold.Chemscore.Internal_Hbond>
0.0000

> <Gold.Chemscore.DEClash>
0.0937

> <Gold.Chemscore.DEInternal>
1.4878

> <Gold.Chemscore.Rot>
1.4725

> <Gold.Chemscore.Internal.Correction>
   9.000000E+99

> <Gold.Chemscore.Hbonds>
donor molecule, donor type, donor heavy atom, donor atom, acceptor molecule, acceptor atom, score
      L1  H     4    20       P1  8028  0.88
      P1  H  7989  7998       L1     3  0.58

> <Gold.Chemscore.Hbond.Weighted>
-5.6104

> <Gold.Chemscore.Metal.Weighted>
-0.0000

> <Gold.Chemscore.Lipo.Weighted>
-10.1603

> <Gold.Chemscore.Internal_Hbond.Weighted>
0.0000

> <Gold.Chemscore.DEClash.Weighted>
0.0937

> <Gold.Chemscore.DEInternal.Weighted>
1.4878

> <Gold.Chemscore.Rot.Weighted>
3.7697

> <Gold.Chemscore.Internal.Correction.Weighted>
   9.000000E+99

> <Gold.Protein.RotatedTorsions>
[ 6907 6896 6895 6894 ] final  165.47 input  -60.11 | X-H torsion
[ 7974 7965 7964 7962 ] final -122.85 input  175.53 | X-H torsion
[ 8008 7997 7996 7995 ] final -145.59 input   59.86 | X-H torsion
[ 10167 10162 10161 10158 ] final  149.94 input  -65.29 | X-H torsion
[ 10718 10713 10712 10709 ] final   29.04 input   66.30 | X-H torsion
[ 10763 10752 10751 10750 ] final   66.45 input  -60.55 | X-H torsion
[ 11005 11000 10999 10996 ] final   58.42 input  -57.11 | X-H torsion

> <Gold.Protein.ActiveResidues>
 VAL166  LYS551  ARG553  GLY616  TRP617  ASP618  TYR619  PRO620  LYS621  CYS622 
 ASP623  PHE694  ASN695  SER759  ASP760  ASP761  ALA762  ILE779  LEU786  VAL792 
 PHE793  MET794  SER795  GLU796  ALA797  LYS798  CYS799  TRP800  GLU811  SER814 

> <Gold.Protein.RotatedAtoms>
  151.8939  133.3522  159.3807 H   0  0  0  0  0  0  0  0  0  0  0  0  # atno 6907 bound_to 6896
  150.7096  134.4896  159.5519 H   0  0  0  0  0  0  0  0  0  0  0  0  # atno 6908 bound_to 6896
  152.2472  134.8170  160.0502 H   0  0  0  0  0  0  0  0  0  0  0  0  # atno 6909 bound_to 6896
  145.0249  140.8020  143.4358 H   0  0  0  0  0  0  0  0  0  0  0  0  # atno 7974 bound_to 7965
  155.5457  140.0612  157.2861 H   0  0  0  0  0  0  0  0  0  0  0  0  # atno 8008 bound_to 7997
  154.4437  140.1911  156.0679 H   0  0  0  0  0  0  0  0  0  0  0  0  # atno 8009 bound_to 7997
  156.0553  140.3279  155.7402 H   0  0  0  0  0  0  0  0  0  0  0  0  # atno 8010 bound_to 7997
  139.4855  144.5562  151.7314 H   0  0  0  0  0  0  0  0  0  0  0  0  # atno 10167 bound_to 10162
  157.2414  130.7071  149.6360 H   0  0  0  0  0  0  0  0  0  0  0  0  # atno 10718 bound_to 10713
  153.0140  135.5320  154.6825 H   0  0  0  0  0  0  0  0  0  0  0  0  # atno 10763 bound_to 10752
  154.5981  135.2865  155.0566 H   0  0  0  0  0  0  0  0  0  0  0  0  # atno 10764 bound_to 10752
  154.1634  135.6544  153.5044 H   0  0  0  0  0  0  0  0  0  0  0  0  # atno 10765 bound_to 10752
  140.0379  134.5916  155.9420 H   0  0  0  0  0  0  0  0  0  0  0  0  # atno 11005 bound_to 11000
  145.1846  139.2333  143.5274 LP  0  0  0  0  0  0  0  0  0  0  0  0  # atno 17320 bound_to 7965
  146.3491  140.1628  142.8590 LP  0  0  0  0  0  0  0  0  0  0  0  0  # atno 17321 bound_to 7965
  140.5124  144.1005  150.5999 LP  0  0  0  0  0  0  0  0  0  0  0  0  # atno 17342 bound_to 10162
  140.3935  143.2740  152.0032 LP  0  0  0  0  0  0  0  0  0  0  0  0  # atno 17343 bound_to 10162
  155.9670  130.4457  150.5511 LP  0  0  0  0  0  0  0  0  0  0  0  0  # atno 17370 bound_to 10713
  157.3375  131.0711  151.1814 LP  0  0  0  0  0  0  0  0  0  0  0  0  # atno 17371 bound_to 10713
  141.1867  133.6558  156.5251 LP  0  0  0  0  0  0  0  0  0  0  0  0  # atno 17394 bound_to 11000
  140.4118  134.7266  157.4840 LP  0  0  0  0  0  0  0  0  0  0  0  0  # atno 17395 bound_to 11000

$$$$
