#       Name:                AV-unprocessed.smi:316
#       Creating user name   scv26
#       Creation time:       Thu Mar 26 22:22:41 2020


#       File generated by GOLD software.
#

@<TRIPOS>MOLECULE
AV-unprocessed.smi:316
    48    49     1
SMALL
NO_CHARGES


@<TRIPOS>ATOM
      1 ****        -3.7118   5.9436  -0.8630 C.3            1 S1                 0.0000
      2 ****        -3.0245   4.6729  -0.6921 N.am           1 S1                 0.0000
      3 ****        -2.5394   4.2282   0.4761 C.2            1 S1                 0.0000
      4 ****        -2.6374   4.8569   1.5301 O.2            1 S1                 0.0000
      5 ****        -1.8429   2.8657   0.4522 C.3            1 S1                 0.0000
      6 ****        -0.4807   2.8938   1.1720 C.3            1 S1                 0.0000
      7 ****         0.1969   1.6045   1.0960 N.am           1 S1                 0.0000
      8 ****         0.8502   1.1424   0.0206 C.2            1 S1                 0.0000
      9 ****         0.9417   1.7643  -1.0380 O.2            1 S1                 0.0000
     10 ****         1.3625  -0.0779   0.2509 N.am           1 S1                 0.0000
     11 ****         2.0501  -0.9295  -0.6597 C.ar           1 S1                 0.0000
     12 ****         2.8790  -0.4083  -1.6834 C.ar           1 S1                 0.0000
     13 ****         3.5860  -1.2925  -2.5159 C.ar           1 S1                 0.0000
     14 ****         3.4539  -2.6717  -2.2849 C.ar           1 S1                 0.0000
     15 ****         2.6824  -3.1837  -1.3055 N.ar           1 S1                 0.0000
     16 ****         1.9821  -2.3439  -0.5036 C.ar           1 S1                 0.0000
     17 ****         1.1767  -2.9377   0.4952 N.3            1 S1                 0.0000
     18 ****         1.3562  -4.3403   0.8557 C.3            1 S1                 0.0000
     19 ****         0.0948  -4.7141   1.6288 C.3            1 S1                 0.0000
     20 ****        -0.9786  -3.9000   0.9129 C.3            1 S1                 0.0000
     21 ****        -0.2475  -2.6159   0.5065 C.3            1 S1                 0.0000
     22 ****        -3.9839   6.0813  -1.9095 H              1 S1                 0.0000
     23 ****        -3.0714   6.7750  -0.5653 H              1 S1                 0.0000
     24 ****        -4.6239   5.9745  -0.2659 H              1 S1                 0.0000
     25 ****        -2.9031   4.0980  -1.5135 H              1 S1                 0.0000
     26 ****        -2.4999   2.1341   0.9237 H              1 S1                 0.0000
     27 ****        -1.7132   2.5456  -0.5830 H              1 S1                 0.0000
     28 ****         0.1609   3.6719   0.7538 H              1 S1                 0.0000
     29 ****        -0.6160   3.1366   2.2265 H              1 S1                 0.0000
     30 ****         0.1690   1.0257   1.9228 H              1 S1                 0.0000
     31 ****         1.1345  -0.4947   1.1417 H              1 S1                 0.0000
     32 ****         3.0029   0.6536  -1.8304 H              1 S1                 0.0000
     33 ****         4.2245  -0.9213  -3.3038 H              1 S1                 0.0000
     34 ****         3.9865  -3.3834  -2.8981 H              1 S1                 0.0000
     35 ****         1.4324  -4.9648  -0.0355 H              1 S1                 0.0000
     36 ****         2.2564  -4.4845   1.4537 H              1 S1                 0.0000
     37 ****        -0.1050  -5.7859   1.6240 H              1 S1                 0.0000
     38 ****         0.1807  -4.3872   2.6661 H              1 S1                 0.0000
     39 ****        -1.3070  -4.4340   0.0202 H              1 S1                 0.0000
     40 ****        -1.8554  -3.7107   1.5328 H              1 S1                 0.0000
     41 ****        -0.4252  -1.8378   1.2490 H              1 S1                 0.0000
     42 ****        -0.5954  -2.2477  -0.4597 H              1 S1                 0.0000
     43 ****        -3.0968   5.7450   1.5417 LP             1 S1                 0.0000
     44 ****        -2.2575   4.4794   2.3746 LP             1 S1                 0.0000
     45 ****         0.5154   2.6644  -1.1276 LP             1 S1                 0.0000
     46 ****         1.4425   1.3693  -1.8083 LP             1 S1                 0.0000
     47 ****         2.6268  -4.1732  -1.1716 LP             1 S1                 0.0000
     48 ****         1.6313  -2.4220   1.2214 LP             1 S1                 0.0000
@<TRIPOS>BOND
    1    1    2 1     
    2    1   22 1     
    3    1   23 1     
    4    1   24 1     
    5    2    3 am    
    6    2   25 1     
    7    3    4 2     
    8    3    5 1     
    9    5    6 1     
   10    5   26 1     
   11    5   27 1     
   12    6    7 1     
   13    6   28 1     
   14    6   29 1     
   15    7    8 am    
   16    7   30 1     
   17    8    9 2     
   18    8   10 am    
   19   10   11 1     
   20   10   31 1     
   21   11   16 ar    
   22   11   12 ar    
   23   12   13 ar    
   24   12   32 1     
   25   13   14 ar    
   26   13   33 1     
   27   14   15 ar    
   28   14   34 1     
   29   15   16 ar    
   30   16   17 1     
   31   17   21 1     
   32   17   18 1     
   33   18   19 1     
   34   18   35 1     
   35   18   36 1     
   36   19   20 1     
   37   19   37 1     
   38   19   38 1     
   39   20   21 1     
   40   20   39 1     
   41   20   40 1     
   42   21   41 1     
   43   21   42 1     
   44    4   43 1     
   45    4   44 1     
   46    9   45 1     
   47    9   46 1     
   48   15   47 1     
   49   17   48 1     
@<TRIPOS>SUBSTRUCTURE
      1 S1             1
@<TRIPOS>SET
LONE_PAIRS      STATIC     ATOMS    <user>   **** ""
6 43 44 45 46 47 48
DONOR_HYDROGENS      STATIC     ATOMS    <user>   **** ""
3 25 30 31
ATOM$BLUE        STATIC     ATOMS    COLORGROUP SYSTEM
6 43 44 45 46 47 48
ATOM$RED        STATIC     ATOMS    COLORGROUP SYSTEM
3 25 30 31
