AV-unprocessed.smi:3181|AV-procd|sdf|12135|dock8
  -GOLD-   2272017573D 1   1.00000     0.00000
 Structure written by MMmdl.
 42 43  0  0  0  0  0  0  0  0  2 V2000
  150.2422  141.0544  155.2112 C   0  0  0  0  0  0  0  0  0  0  0  0
  148.9222  141.3215  155.9532 C   0  0  2  0  0  0  0  0  0  0  0  0
  147.7532  141.6474  155.0015 C   0  0  0  0  0  0  0  0  0  0  0  0
  147.1699  140.4650  154.3948 N   0  0  0  0  0  0  0  0  0  0  0  0
  147.1640  140.0499  153.1268 C   0  0  0  0  0  0  0  0  0  0  0  0
  146.5165  138.9084  152.9410 N   0  0  0  0  0  0  0  0  0  0  0  0
  146.1138  138.6622  154.2233 C   0  0  0  0  0  0  0  0  0  0  0  0
  146.4782  139.5661  155.1332 N   0  0  0  0  0  0  0  0  0  0  0  0
  149.1056  142.4318  156.9153 N   0  3  0  0  0  0  0  0  0  0  0  0
  150.4373  142.5150  157.5554 C   0  0  2  0  0  0  0  0  0  0  0  0
  150.8157  141.1490  158.1546 C   0  0  0  0  0  0  0  0  0  0  0  0
  152.1729  141.2000  158.8741 C   0  0  0  0  0  0  0  0  0  0  0  0
  152.1937  142.2919  159.9616 C   0  0  1  0  0  0  0  0  0  0  0  0
  153.5163  142.2935  160.7455 C   0  0  0  0  0  0  0  0  0  0  0  0
  151.8200  143.6805  159.3828 C   0  0  1  0  0  0  0  0  0  0  0  0
  152.9113  144.3092  158.4929 C   0  0  0  0  0  0  0  0  0  0  0  0
  150.4631  143.6044  158.6513 C   0  0  0  0  0  0  0  0  0  0  0  0
  150.1632  140.1900  154.5515 H   0  0  0  0  0  0  0  0  0  0  0  0
  151.0508  140.8495  155.9136 H   0  0  0  0  0  0  0  0  0  0  0  0
  150.5374  141.9110  154.6045 H   0  0  0  0  0  0  0  0  0  0  0  0
  148.6648  140.4122  156.4983 H   0  0  0  0  0  0  0  0  0  0  0  0
  146.9647  142.1768  155.5384 H   0  0  0  0  0  0  0  0  0  0  0  0
  148.0880  142.3118  154.2035 H   0  0  0  0  0  0  0  0  0  0  0  0
  147.6447  140.5902  152.3244 H   0  0  0  0  0  0  0  0  0  0  0  0
  145.5345  137.7916  154.4940 H   0  0  0  0  0  0  0  0  0  0  0  0
  148.9216  143.3064  156.4450 H   0  0  0  0  0  0  0  0  0  0  0  0
  151.1661  142.7543  156.7794 H   0  0  0  0  0  0  0  0  0  0  0  0
  150.0472  140.8288  158.8599 H   0  0  0  0  0  0  0  0  0  0  0  0
  150.8476  140.3919  157.3703 H   0  0  0  0  0  0  0  0  0  0  0  0
  152.3787  140.2276  159.3229 H   0  0  0  0  0  0  0  0  0  0  0  0
  152.9692  141.3731  158.1494 H   0  0  0  0  0  0  0  0  0  0  0  0
  151.4157  142.0344  160.6823 H   0  0  0  0  0  0  0  0  0  0  0  0
  154.3738  142.4574  160.0928 H   0  0  0  0  0  0  0  0  0  0  0  0
  153.6702  141.3394  161.2501 H   0  0  0  0  0  0  0  0  0  0  0  0
  153.5206  143.0717  161.5090 H   0  0  0  0  0  0  0  0  0  0  0  0
  151.6861  144.3595  160.2262 H   0  0  0  0  0  0  0  0  0  0  0  0
  153.1709  143.6745  157.6463 H   0  0  0  0  0  0  0  0  0  0  0  0
  153.8252  144.4989  159.0555 H   0  0  0  0  0  0  0  0  0  0  0  0
  152.5826  145.2691  158.0938 H   0  0  0  0  0  0  0  0  0  0  0  0
  150.2217  144.5813  158.2315 H   0  0  0  0  0  0  0  0  0  0  0  0
  149.6798  143.3940  159.3814 H   0  0  0  0  0  0  0  0  0  0  0  0
  148.4176  142.3147  157.6454 H   0  0  0  0  0  0  0  0  0  0  0  0
  1  2  1  0  0  0  0
  1 18  1  0  0  0  0
  1 19  1  0  0  0  0
  1 20  1  0  0  0  0
  2  3  1  0  0  0  0
  2  9  1  0  0  0  0
  2 21  1  0  0  0  0
  3  4  1  0  0  0  0
  3 22  1  0  0  0  0
  3 23  1  0  0  0  0
  4  8  1  0  0  0  0
  4  5  1  0  0  0  0
  5  6  2  0  0  0  0
  5 24  1  0  0  0  0
  6  7  1  0  0  0  0
  7  8  2  0  0  0  0
  7 25  1  0  0  0  0
  9 10  1  0  0  0  0
  9 26  1  0  0  0  0
  9 42  1  0  0  0  0
 10 17  1  0  0  0  0
 10 11  1  0  0  0  0
 10 27  1  0  0  0  0
 11 12  1  0  0  0  0
 11 28  1  0  0  0  0
 11 29  1  0  0  0  0
 12 13  1  0  0  0  0
 12 30  1  0  0  0  0
 12 31  1  0  0  0  0
 13 14  1  0  0  0  0
 13 15  1  0  0  0  0
 13 32  1  0  0  0  0
 14 33  1  0  0  0  0
 14 34  1  0  0  0  0
 14 35  1  0  0  0  0
 15 16  1  0  0  0  0
 15 17  1  0  0  0  0
 15 36  1  0  0  0  0
 16 37  1  0  0  0  0
 16 38  1  0  0  0  0
 16 39  1  0  0  0  0
 17 40  1  0  0  0  0
 17 41  1  0  0  0  0
M  CHG  1   9   1
M  END
> <s_m_source_file>
AV-unprocessed.smi

> <i_m_source_file_index>
3181

> <i_lp_mmshare_version>
43012

> <i_f3d_flags>
0

> <s_epik_input>
bjFbY0hdbltjSF1uMVtDSDJdW0NAQEhdKFtDSDNdKVtOSF1bQ0BASF0yW0NIMl1bQ0gyXVtDQEBIXShbQ0gzXSlbQ0BASF0oW0NIM10pW0NIMl0y

> <s_epik_cmdline>
J2VwaWtfcHl0aG9uJywgJy1waCcsICc3LjAnLCAnLXRuJywgJzgnLCAnLW1hJywgJzIwMCcsICctbWV0YWxfYmluZGluZycsICctaW1hZScsICc8aW5maWxlLm1hZT4nLCAnLW9tYWUnLCAnPG91dGZpbGUubWFlPic=

> <r_lp_tautomer_probability>
1

> <r_epik_Ionization_Penalty>
0.000617007

> <r_epik_Ionization_Penalty_Charging>
0.000616215

> <r_epik_Ionization_Penalty_Neutral>
7.92544e-07

> <r_epik_State_Penalty>
0.000388807

> <r_epik_Charging_Adjusted_Penalty>
0.00100502

> <i_epik_Tot_Q>
1

> <i_epik_Tot_abs_Q>
1

> <r_epik_Metal_State_Penalty>
-0

> <b_epik_Metal_Only>
0

> <s_lp_Force_Field>
OPLS_2005

> <r_lp_Energy>
21.1585

> <b_lp_Chiralities_Consistent>
1

> <s_lp_Variant>
AV-unprocessed.smi:3181-1

> <Gold.Version>
5.8.1

> <Gold.Id.Protein>
6NUR|6NUR_protein|mol2

> <Gold.PLP.Fitness>
40.5278

> <Gold.PLP.PLP>
-32.5908

> <Gold.PLP.part.hbond>
-1.0000

> <Gold.PLP.part.metal>
0.0000

> <Gold.PLP.part.buried>
-2.4591

> <Gold.PLP.part.nonpolar>
-29.6503

> <Gold.PLP.part.repulsive>
0.3247

> <Gold.PLP.ligand.clash>
0.0000

> <Gold.PLP.ligand.torsion>
0.5447

> <Gold.PLP.Chemscore.Hbond>
2.0000

> <Gold.PLP.Chemscore.CHOScore>
1.0000

> <Gold.PLP.Chemscore.Metal>
0.0000

> <Gold.Chemscore.Hbonds>
donor molecule, donor type, donor heavy atom, donor atom, acceptor molecule, acceptor atom, score
      L1  H     9    26       P1  8028  2.00
      L1  C     5    24       P1  7957  0.99

> <Gold.PLP.Chemscore.Internal.Correction>
0.0265

> <Gold.Rescore>
     Score         DG    S(hbond)    S(metal)    S(lipo)     H(rot)  DE(clash)    DE(int)     intcor
     14.09     -14.95       0.97        0.00      99.31       2.11       0.42       0.44       ----

> <Gold.Chemscore.Fitness>
14.0867

> <Gold.Chemscore.DG>
-14.9522

> <Gold.Chemscore.ZeroCoef>
-5.4800

> <Gold.Chemscore.Hbond>
0.9740

> <Gold.Chemscore.Metal>
0.0000

> <Gold.Chemscore.Lipo>
99.3100

> <Gold.Chemscore.Internal_Hbond>
0.0000

> <Gold.Chemscore.DEClash>
0.4240

> <Gold.Chemscore.DEInternal>
0.4414

> <Gold.Chemscore.Rot>
2.1095

> <Gold.Chemscore.Internal.Correction>
   9.000000E+99

> <Gold.Chemscore.Hbonds>
donor molecule, donor type, donor heavy atom, donor atom, acceptor molecule, acceptor atom, score
      L1  H     9    26       P1  8028  0.96

> <Gold.Chemscore.Hbond.Weighted>
-3.2532

> <Gold.Chemscore.Metal.Weighted>
-0.0000

> <Gold.Chemscore.Lipo.Weighted>
-11.6193

> <Gold.Chemscore.Internal_Hbond.Weighted>
0.0000

> <Gold.Chemscore.DEClash.Weighted>
0.4240

> <Gold.Chemscore.DEInternal.Weighted>
0.4414

> <Gold.Chemscore.Rot.Weighted>
5.4003

> <Gold.Chemscore.Internal.Correction.Weighted>
   9.000000E+99

> <Gold.Protein.RotatedTorsions>
[ 6907 6896 6895 6894 ] final  154.03 input  -60.11 | X-H torsion
[ 7974 7965 7964 7962 ] final  -61.99 input  175.53 | X-H torsion
[ 8008 7997 7996 7995 ] final -148.74 input   59.86 | X-H torsion
[ 10167 10162 10161 10158 ] final   95.62 input  -65.29 | X-H torsion
[ 10718 10713 10712 10709 ] final -151.53 input   66.30 | X-H torsion
[ 10763 10752 10751 10750 ] final  121.07 input  -60.55 | X-H torsion
[ 11005 11000 10999 10996 ] final -157.07 input  -57.11 | X-H torsion

> <Gold.Protein.ActiveResidues>
 VAL166  LYS551  ARG553  GLY616  TRP617  ASP618  TYR619  PRO620  LYS621  CYS622 
 ASP623  PHE694  ASN695  SER759  ASP760  ASP761  ALA762  ILE779  LEU786  VAL792 
 PHE793  MET794  SER795  GLU796  ALA797  LYS798  CYS799  TRP800  GLU811  SER814 

> <Gold.Protein.RotatedAtoms>
  152.0643  133.4076  159.4431 H   0  0  0  0  0  0  0  0  0  0  0  0  # atno 6907 bound_to 6896
  150.6865  134.3165  159.4777 H   0  0  0  0  0  0  0  0  0  0  0  0  # atno 6908 bound_to 6896
  152.0989  134.9355  160.0620 H   0  0  0  0  0  0  0  0  0  0  0  0  # atno 6909 bound_to 6896
  145.7967  140.8678  143.0252 H   0  0  0  0  0  0  0  0  0  0  0  0  # atno 7974 bound_to 7965
  155.5964  140.0657  157.2745 H   0  0  0  0  0  0  0  0  0  0  0  0  # atno 8008 bound_to 7997
  154.4291  140.1826  156.1175 H   0  0  0  0  0  0  0  0  0  0  0  0  # atno 8009 bound_to 7997
  156.0193  140.3318  155.7025 H   0  0  0  0  0  0  0  0  0  0  0  0  # atno 8010 bound_to 7997
  139.7971  144.6829  150.9814 H   0  0  0  0  0  0  0  0  0  0  0  0  # atno 10167 bound_to 10162
  156.4604  130.8211  151.2441 H   0  0  0  0  0  0  0  0  0  0  0  0  # atno 10718 bound_to 10713
  153.6084  135.3435  155.2970 H   0  0  0  0  0  0  0  0  0  0  0  0  # atno 10763 bound_to 10752
  154.8623  135.4244  154.2336 H   0  0  0  0  0  0  0  0  0  0  0  0  # atno 10764 bound_to 10752
  153.3181  135.7036  153.7127 H   0  0  0  0  0  0  0  0  0  0  0  0  # atno 10765 bound_to 10752
  140.6686  134.4271  157.5232 H   0  0  0  0  0  0  0  0  0  0  0  0  # atno 11005 bound_to 11000
  144.6774  140.0201  143.7484 LP  0  0  0  0  0  0  0  0  0  0  0  0  # atno 17320 bound_to 7965
  145.9920  139.3023  143.0979 LP  0  0  0  0  0  0  0  0  0  0  0  0  # atno 17321 bound_to 7965
  140.7820  143.4320  151.0681 LP  0  0  0  0  0  0  0  0  0  0  0  0  # atno 17342 bound_to 10162
  139.7993  143.8106  152.3161 LP  0  0  0  0  0  0  0  0  0  0  0  0  # atno 17343 bound_to 10162
  157.7498  131.0109  150.3323 LP  0  0  0  0  0  0  0  0  0  0  0  0  # atno 17370 bound_to 10713
  156.3722  130.3865  149.7166 LP  0  0  0  0  0  0  0  0  0  0  0  0  # atno 17371 bound_to 10713
  139.8989  134.8603  156.1983 LP  0  0  0  0  0  0  0  0  0  0  0  0  # atno 17394 bound_to 11000
  141.0409  133.6938  156.1597 LP  0  0  0  0  0  0  0  0  0  0  0  0  # atno 17395 bound_to 11000

$$$$
