#       Name:                AV-unprocessed.smi:2194
#       Creating user name   scv26
#       Creation time:       Fri Mar 27 12:11:48 2020


#       File generated by GOLD software.
#

@<TRIPOS>MOLECULE
AV-unprocessed.smi:2194
    54    56     1
SMALL
NO_CHARGES


@<TRIPOS>ATOM
      1 ****        -7.7133   1.6062   1.5973 C.3            1 S1                 0.0000
      2 ****        -6.2234   1.3430   1.5241 C.ar           1 S1                 0.0000
      3 ****        -5.3056   2.3447   1.8971 C.ar           1 S1                 0.0000
      4 ****        -3.9214   2.0951   1.8288 C.ar           1 S1                 0.0000
      5 ****        -3.4326   0.8471   1.3907 C.ar           1 S1                 0.0000
      6 ****        -2.0637   0.6890   1.3548 O.3            1 S1                 0.0000
      7 ****        -1.5416  -0.5546   0.9061 C.3            1 S1                 0.0000
      8 ****        -0.0073  -0.4926   0.9337 C.3            1 S1                 0.0000
      9 ****         0.4942  -1.7950   0.7064 O.3            1 S1                 0.0000
     10 ****         0.5596   0.4921  -0.1093 C.3            1 S1                 0.0000
     11 ****         2.0139   0.5464  -0.0950 N.pl3          1 S1                 0.0000
     12 ****         2.7694   1.3068   0.7229 C.2            1 S1                 0.0000
     13 ****         4.0878   1.1888   0.5637 N.2            1 S1                 0.0000
     14 ****         4.1751   0.2559  -0.4641 C.2            1 S1                 0.0000
     15 ****         2.9451  -0.1406  -0.8740 C.2            1 S1                 0.0000
     16 ****         2.7394  -1.1267  -1.9406 C.2            1 S1                 0.0000
     17 ****         1.6096  -1.4746  -2.2868 O.2            1 S1                 0.0000
     18 ****         3.9000  -1.6075  -2.4862 N.am           1 S1                 0.0000
     19 ****         3.7553  -2.6081  -3.5609 C.3            1 S1                 0.0000
     20 ****         5.1768  -1.2530  -2.0835 C.2            1 S1                 0.0000
     21 ****         6.1777  -1.7681  -2.5892 O.2            1 S1                 0.0000
     22 ****         5.3130  -0.3102  -1.0949 N.am           1 S1                 0.0000
     23 ****         6.6490   0.1047  -0.6575 C.3            1 S1                 0.0000
     24 ****        -4.3620  -0.1577   1.0200 C.ar           1 S1                 0.0000
     25 ****        -5.7467   0.0913   1.0874 C.ar           1 S1                 0.0000
     26 ****        -7.9273   2.6709   1.4984 H              1 S1                 0.0000
     27 ****        -8.1094   1.2629   2.5532 H              1 S1                 0.0000
     28 ****        -8.2390   1.0812   0.7989 H              1 S1                 0.0000
     29 ****        -5.6590   3.3074   2.2368 H              1 S1                 0.0000
     30 ****        -3.2267   2.8707   2.1165 H              1 S1                 0.0000
     31 ****        -1.8879  -1.3498   1.5687 H              1 S1                 0.0000
     32 ****        -1.8889  -0.7801  -0.1038 H              1 S1                 0.0000
     33 ****         0.3180  -0.1912   1.9303 H              1 S1                 0.0000
     34 ****         0.1566  -2.3682   1.3777 H              1 S1                 0.0000
     35 ****         0.2127   0.2451  -1.1117 H              1 S1                 0.0000
     36 ****         0.1861   1.4966   0.0933 H              1 S1                 0.0000
     37 ****         2.3380   1.9653   1.4625 H              1 S1                 0.0000
     38 ****         4.6296  -2.6935  -4.2071 H              1 S1                 0.0000
     39 ****         2.9267  -2.3737  -4.2316 H              1 S1                 0.0000
     40 ****         3.5674  -3.5918  -3.1288 H              1 S1                 0.0000
     41 ****         7.2492   0.4364  -1.5061 H              1 S1                 0.0000
     42 ****         7.1665  -0.7268  -0.1773 H              1 S1                 0.0000
     43 ****         6.6221   0.9292   0.0548 H              1 S1                 0.0000
     44 ****        -4.0385  -1.1300   0.6810 H              1 S1                 0.0000
     45 ****        -6.4428  -0.6841   0.8025 H              1 S1                 0.0000
     46 ****        -1.7242   0.8350   2.2840 LP             1 S1                 0.0000
     47 ****        -1.6993   1.3984   0.7515 LP             1 S1                 0.0000
     48 ****         1.4934  -1.7830   0.7444 LP             1 S1                 0.0000
     49 ****         0.1987  -2.1179  -0.1927 LP             1 S1                 0.0000
     50 ****         4.8244   1.6520   1.0565 LP             1 S1                 0.0000
     51 ****         0.8063  -1.0830  -1.8380 LP             1 S1                 0.0000
     52 ****         1.4956  -2.1486  -3.0166 LP             1 S1                 0.0000
     53 ****         6.0769  -2.4577  -3.3063 LP             1 S1                 0.0000
     54 ****         7.0895  -1.4959  -2.2819 LP             1 S1                 0.0000
@<TRIPOS>BOND
    1    1    2 1     
    2    1   26 1     
    3    1   27 1     
    4    1   28 1     
    5    2   25 ar    
    6    2    3 ar    
    7    3    4 ar    
    8    3   29 1     
    9    4    5 ar    
   10    4   30 1     
   11    5    6 1     
   12    5   24 ar    
   13    6    7 1     
   14    7    8 1     
   15    7   31 1     
   16    7   32 1     
   17    8    9 1     
   18    8   10 1     
   19    8   33 1     
   20    9   34 1     
   21   10   11 1     
   22   10   35 1     
   23   10   36 1     
   24   11   15 1     
   25   11   12 1     
   26   12   13 2     
   27   12   37 1     
   28   13   14 1     
   29   14   22 1     
   30   14   15 2     
   31   15   16 1     
   32   16   17 2     
   33   16   18 am    
   34   18   19 1     
   35   18   20 am    
   36   19   38 1     
   37   19   39 1     
   38   19   40 1     
   39   20   21 2     
   40   20   22 am    
   41   22   23 1     
   42   23   41 1     
   43   23   42 1     
   44   23   43 1     
   45   24   25 ar    
   46   24   44 1     
   47   25   45 1     
   48    6   46 1     
   49    6   47 1     
   50    9   48 1     
   51    9   49 1     
   52   13   50 1     
   53   17   51 1     
   54   17   52 1     
   55   21   53 1     
   56   21   54 1     
@<TRIPOS>SUBSTRUCTURE
      1 S1             1
@<TRIPOS>SET
LONE_PAIRS      STATIC     ATOMS    <user>   **** ""
9 46 47 48 49 50 51 52 53 54
DONOR_HYDROGENS      STATIC     ATOMS    <user>   **** ""
1 34
ATOM$BLUE        STATIC     ATOMS    COLORGROUP SYSTEM
9 46 47 48 49 50 51 52 53 54
ATOM$RED        STATIC     ATOMS    COLORGROUP SYSTEM
1 34
