AV-unprocessed.smi:3115|AV-procd|sdf|11858|dock5
  -GOLD-   2272017243D 1   1.00000     0.00000
 Structure written by MMmdl.
 33 34  0  0  0  0  0  0  0  0  2 V2000
  151.5111  145.2303  159.3283 C   0  0  0  0  0  0  0  0  0  0  0  0
  152.0871  143.8443  159.0205 C   0  0  2  0  0  0  0  0  0  0  0  0
  151.3135  143.1309  157.8944 C   0  0  0  0  0  0  0  0  0  0  0  0
  151.8406  141.7859  157.6982 N   0  0  0  0  0  0  0  0  0  0  0  0
  151.2668  141.1121  156.6105 C   0  0  0  0  0  0  0  0  0  0  0  0
  151.9250  139.9814  156.0820 C   0  0  0  0  0  0  0  0  0  0  0  0
  151.3413  139.3044  154.9915 C   0  0  0  0  0  0  0  0  0  0  0  0
  152.0129  138.0894  154.3862 C   0  0  0  0  0  0  0  0  0  0  0  0
  151.0334  137.0161  154.1537 N   0  3  0  0  0  0  0  0  0  0  0  0
  150.1240  139.7862  154.4695 C   0  0  0  0  0  0  0  0  0  0  0  0
  149.5433  140.9232  155.0647 C   0  0  0  0  0  0  0  0  0  0  0  0
  150.0967  141.5755  156.1089 N   0  0  0  0  0  0  0  0  0  0  0  0
  151.8400  141.0048  158.9289 C   0  0  0  0  0  0  0  0  0  0  0  0
  152.5936  141.7640  160.0340 C   0  0  0  0  0  0  0  0  0  0  0  0
  152.0154  143.0551  160.2060 O   0  0  0  0  0  0  0  0  0  0  0  0
  151.5547  145.8770  158.4516 H   0  0  0  0  0  0  0  0  0  0  0  0
  152.0712  145.7161  160.1275 H   0  0  0  0  0  0  0  0  0  0  0  0
  150.4696  145.1636  159.6441 H   0  0  0  0  0  0  0  0  0  0  0  0
  153.1335  143.9595  158.7316 H   0  0  0  0  0  0  0  0  0  0  0  0
  150.2534  143.0778  158.1471 H   0  0  0  0  0  0  0  0  0  0  0  0
  151.3965  143.6956  156.9650 H   0  0  0  0  0  0  0  0  0  0  0  0
  152.8579  139.6412  156.5083 H   0  0  0  0  0  0  0  0  0  0  0  0
  152.4889  138.3560  153.4420 H   0  0  0  0  0  0  0  0  0  0  0  0
  152.7963  137.7261  155.0524 H   0  0  0  0  0  0  0  0  0  0  0  0
  151.3438  136.1694  154.6085 H   0  0  0  0  0  0  0  0  0  0  0  0
  150.9440  136.8536  153.1608 H   0  0  0  0  0  0  0  0  0  0  0  0
  149.6421  139.2994  153.6343 H   0  0  0  0  0  0  0  0  0  0  0  0
  148.6102  141.3191  154.6921 H   0  0  0  0  0  0  0  0  0  0  0  0
  150.8136  140.8146  159.2462 H   0  0  0  0  0  0  0  0  0  0  0  0
  152.3091  140.0360  158.7529 H   0  0  0  0  0  0  0  0  0  0  0  0
  152.5303  141.2180  160.9753 H   0  0  0  0  0  0  0  0  0  0  0  0
  153.6531  141.8579  159.7901 H   0  0  0  0  0  0  0  0  0  0  0  0
  150.1380  137.2931  154.5299 H   0  0  0  0  0  0  0  0  0  0  0  0
  1  2  1  0  0  0  0
  1 16  1  0  0  0  0
  1 17  1  0  0  0  0
  1 18  1  0  0  0  0
  2 15  1  0  0  0  0
  2  3  1  0  0  0  0
  2 19  1  0  0  0  0
  3  4  1  0  0  0  0
  3 20  1  0  0  0  0
  3 21  1  0  0  0  0
  4  5  1  0  0  0  0
  4 13  1  0  0  0  0
  5 12  1  0  0  0  0
  5  6  2  0  0  0  0
  6  7  1  0  0  0  0
  6 22  1  0  0  0  0
  7  8  1  0  0  0  0
  7 10  2  0  0  0  0
  8  9  1  0  0  0  0
  8 23  1  0  0  0  0
  8 24  1  0  0  0  0
  9 25  1  0  0  0  0
  9 26  1  0  0  0  0
  9 33  1  0  0  0  0
 10 11  1  0  0  0  0
 10 27  1  0  0  0  0
 11 12  2  0  0  0  0
 11 28  1  0  0  0  0
 13 14  1  0  0  0  0
 13 29  1  0  0  0  0
 13 30  1  0  0  0  0
 14 15  1  0  0  0  0
 14 31  1  0  0  0  0
 14 32  1  0  0  0  0
M  CHG  1   9   1
M  END
> <s_m_source_file>
AV-unprocessed.smi

> <i_m_source_file_index>
3115

> <i_lp_mmshare_version>
43012

> <i_f3d_flags>
0

> <s_epik_input>
W0NIM11bQ0BASF0xW0NIMl1OKFtDSDJdW0NIMl1PMSljMltjSF1jKFtDSDJdW05IMl0pW2NIXVtjSF1uMg==

> <s_epik_cmdline>
J2VwaWtfcHl0aG9uJywgJy1waCcsICc3LjAnLCAnLXRuJywgJzgnLCAnLW1hJywgJzIwMCcsICctbWV0YWxfYmluZGluZycsICctaW1hZScsICc8aW5maWxlLm1hZT4nLCAnLW9tYWUnLCAnPG91dGZpbGUubWFlPic=

> <r_lp_tautomer_probability>
1

> <r_epik_Ionization_Penalty>
0.0768907

> <r_epik_Ionization_Penalty_Charging>
0.0768864

> <r_epik_Ionization_Penalty_Neutral>
4.339e-06

> <r_epik_State_Penalty>
0.0093217

> <r_epik_Charging_Adjusted_Penalty>
0.0862081

> <i_epik_Tot_Q>
1

> <i_epik_Tot_abs_Q>
1

> <r_epik_Metal_State_Penalty>
0.0096683

> <b_epik_Metal_Only>
0

> <s_lp_Force_Field>
OPLS_2005

> <r_lp_Energy>
14.5686

> <b_lp_Chiralities_Consistent>
1

> <s_lp_Variant>
AV-unprocessed.smi:3115-1

> <Gold.Version>
5.8.1

> <Gold.Id.Protein>
6NUR|6NUR_protein|mol2

> <Gold.PLP.Fitness>
40.6843

> <Gold.PLP.PLP>
-35.5387

> <Gold.PLP.part.hbond>
-1.5901

> <Gold.PLP.part.metal>
0.0000

> <Gold.PLP.part.buried>
-2.4842

> <Gold.PLP.part.nonpolar>
-31.2539

> <Gold.PLP.part.repulsive>
0.2220

> <Gold.PLP.ligand.clash>
0.0000

> <Gold.PLP.ligand.torsion>
0.4765

> <Gold.PLP.Chemscore.Hbond>
2.0000

> <Gold.PLP.Chemscore.CHOScore>
0.0000

> <Gold.PLP.Chemscore.Metal>
0.0000

> <Gold.Chemscore.Hbonds>
donor molecule, donor type, donor heavy atom, donor atom, acceptor molecule, acceptor atom, score
      L1  H     9    26       P1  7949  1.90

> <Gold.PLP.Chemscore.Internal.Correction>
0.0986

> <Gold.Rescore>
     Score         DG    S(hbond)    S(metal)    S(lipo)     H(rot)  DE(clash)    DE(int)     intcor
     14.49     -14.98       0.78        0.00      87.34       1.30       0.03       0.47       ----

> <Gold.Chemscore.Fitness>
14.4856

> <Gold.Chemscore.DG>
-14.9791

> <Gold.Chemscore.ZeroCoef>
-5.4800

> <Gold.Chemscore.Hbond>
0.7844

> <Gold.Chemscore.Metal>
0.0000

> <Gold.Chemscore.Lipo>
87.3387

> <Gold.Chemscore.Internal_Hbond>
0.0000

> <Gold.Chemscore.DEClash>
0.0281

> <Gold.Chemscore.DEInternal>
0.4653

> <Gold.Chemscore.Rot>
1.3045

> <Gold.Chemscore.Internal.Correction>
   9.000000E+99

> <Gold.Chemscore.Hbonds>
donor molecule, donor type, donor heavy atom, donor atom, acceptor molecule, acceptor atom, score
      L1  H     9    26       P1  7949  0.21

> <Gold.Chemscore.Hbond.Weighted>
-2.6199

> <Gold.Chemscore.Metal.Weighted>
-0.0000

> <Gold.Chemscore.Lipo.Weighted>
-10.2186

> <Gold.Chemscore.Internal_Hbond.Weighted>
0.0000

> <Gold.Chemscore.DEClash.Weighted>
0.0281

> <Gold.Chemscore.DEInternal.Weighted>
0.4653

> <Gold.Chemscore.Rot.Weighted>
3.3395

> <Gold.Chemscore.Internal.Correction.Weighted>
   9.000000E+99

> <Gold.Protein.RotatedTorsions>
[ 6907 6896 6895 6894 ] final -164.90 input  -60.11 | X-H torsion
[ 7974 7965 7964 7962 ] final   16.24 input  175.53 | X-H torsion
[ 8008 7997 7996 7995 ] final  101.47 input   59.86 | X-H torsion
[ 10167 10162 10161 10158 ] final  146.45 input  -65.29 | X-H torsion
[ 10718 10713 10712 10709 ] final -127.37 input   66.30 | X-H torsion
[ 10763 10752 10751 10750 ] final -104.30 input  -60.55 | X-H torsion
[ 11005 11000 10999 10996 ] final  -47.95 input  -57.11 | X-H torsion

> <Gold.Protein.ActiveResidues>
 VAL166  LYS551  ARG553  GLY616  TRP617  ASP618  TYR619  PRO620  LYS621  CYS622 
 ASP623  PHE694  ASN695  SER759  ASP760  ASP761  ALA762  ILE779  LEU786  VAL792 
 PHE793  MET794  SER795  GLU796  ALA797  LYS798  CYS799  TRP800  GLU811  SER814 

> <Gold.Protein.RotatedAtoms>
  151.4192  133.3703  159.2753 H   0  0  0  0  0  0  0  0  0  0  0  0  # atno 6907 bound_to 6896
  150.9306  134.8722  159.7559 H   0  0  0  0  0  0  0  0  0  0  0  0  # atno 6908 bound_to 6896
  152.5026  134.4136  159.9509 H   0  0  0  0  0  0  0  0  0  0  0  0  # atno 6909 bound_to 6896
  146.2255  139.8777  142.8576 H   0  0  0  0  0  0  0  0  0  0  0  0  # atno 7974 bound_to 7965
  156.1302  140.3197  155.8337 H   0  0  0  0  0  0  0  0  0  0  0  0  # atno 8008 bound_to 7997
  155.4346  140.0521  157.3033 H   0  0  0  0  0  0  0  0  0  0  0  0  # atno 8009 bound_to 7997
  154.4893  140.2086  155.9597 H   0  0  0  0  0  0  0  0  0  0  0  0  # atno 8010 bound_to 7997
  139.4907  144.5828  151.6837 H   0  0  0  0  0  0  0  0  0  0  0  0  # atno 10167 bound_to 10162
  156.1851  130.6758  151.0354 H   0  0  0  0  0  0  0  0  0  0  0  0  # atno 10718 bound_to 10713
  154.7868  135.4791  153.9964 H   0  0  0  0  0  0  0  0  0  0  0  0  # atno 10763 bound_to 10752
  153.1572  135.6802  153.8802 H   0  0  0  0  0  0  0  0  0  0  0  0  # atno 10764 bound_to 10752
  153.8427  135.3177  155.3405 H   0  0  0  0  0  0  0  0  0  0  0  0  # atno 10765 bound_to 10752
  141.0671  133.6690  156.3371 H   0  0  0  0  0  0  0  0  0  0  0  0  # atno 11005 bound_to 11000
  145.2544  141.0055  143.3862 LP  0  0  0  0  0  0  0  0  0  0  0  0  # atno 17320 bound_to 7965
  144.9349  139.4256  143.6477 LP  0  0  0  0  0  0  0  0  0  0  0  0  # atno 17321 bound_to 7965
  140.5438  144.0536  150.6099 LP  0  0  0  0  0  0  0  0  0  0  0  0  # atno 17342 bound_to 10162
  140.3567  143.2931  152.0428 LP  0  0  0  0  0  0  0  0  0  0  0  0  # atno 17343 bound_to 10162
  157.6893  131.0815  150.7152 LP  0  0  0  0  0  0  0  0  0  0  0  0  # atno 17370 bound_to 10713
  156.7209  130.4680  149.5523 LP  0  0  0  0  0  0  0  0  0  0  0  0  # atno 17371 bound_to 10713
  140.5750  134.5803  157.5466 LP  0  0  0  0  0  0  0  0  0  0  0  0  # atno 17394 bound_to 11000
  139.9487  134.7655  156.0499 LP  0  0  0  0  0  0  0  0  0  0  0  0  # atno 17395 bound_to 11000

$$$$
