AV-unprocessed.smi:3061|AV-procd|sdf|11681|dock6
  -GOLD-   2272017 83D 1   1.00000     0.00000
 Structure written by MMmdl.
 35 36  0  0  0  0  0  0  0  0  1 V2000
  147.5639  132.4769  152.6491 C   0  0  0  0  0  0  0  0  0  0  0  0
  146.6993  133.7311  152.8331 C   0  0  2  0  0  0  0  0  0  0  0  0
  146.1638  134.2490  151.4811 C   0  0  0  0  0  0  0  0  0  0  0  0
  145.3453  133.2681  150.7898 N   0  0  0  0  0  0  0  0  0  0  0  0
  145.6646  132.0809  150.2719 C   0  0  0  0  0  0  0  0  0  0  0  0
  144.6399  131.4432  149.7233 N   0  0  0  0  0  0  0  0  0  0  0  0
  143.6520  132.3587  149.9528 C   0  0  0  0  0  0  0  0  0  0  0  0
  144.0226  133.4721  150.5851 N   0  0  0  0  0  0  0  0  0  0  0  0
  147.4897  134.7602  153.5077 N   0  0  0  0  0  0  0  0  0  0  0  0
  147.3230  135.1675  154.7762 C   0  0  0  0  0  0  0  0  0  0  0  0
  146.4956  134.6733  155.5432 O   0  0  0  0  0  0  0  0  0  0  0  0
  148.2127  136.3284  155.2452 C   0  0  1  0  0  0  0  0  0  0  0  0
  147.9654  136.6521  156.7329 C   0  0  0  0  0  0  0  0  0  0  0  0
  149.2599  136.2466  157.4175 C   0  0  0  0  0  0  0  0  0  0  0  0
  149.4045  136.2659  158.6390 O   0  0  0  0  0  0  0  0  0  0  0  0
  150.1774  135.8719  156.5217 N   0  0  0  0  0  0  0  0  0  0  0  0
  151.5241  135.4080  156.8249 C   0  0  0  0  0  0  0  0  0  0  0  0
  149.7181  135.9968  155.1491 C   0  0  0  0  0  0  0  0  0  0  0  0
  146.9971  131.6765  152.1726 H   0  0  0  0  0  0  0  0  0  0  0  0
  147.9192  132.1008  153.6091 H   0  0  0  0  0  0  0  0  0  0  0  0
  148.4362  132.6821  152.0275 H   0  0  0  0  0  0  0  0  0  0  0  0
  145.8501  133.4462  153.4571 H   0  0  0  0  0  0  0  0  0  0  0  0
  145.5835  135.1625  151.6233 H   0  0  0  0  0  0  0  0  0  0  0  0
  146.9954  134.5084  150.8251 H   0  0  0  0  0  0  0  0  0  0  0  0
  146.6635  131.6713  150.3054 H   0  0  0  0  0  0  0  0  0  0  0  0
  142.6292  132.2005  149.6436 H   0  0  0  0  0  0  0  0  0  0  0  0
  148.1933  135.2264  152.9531 H   0  0  0  0  0  0  0  0  0  0  0  0
  147.9976  137.2089  154.6373 H   0  0  0  0  0  0  0  0  0  0  0  0
  147.7947  137.7187  156.8801 H   0  0  0  0  0  0  0  0  0  0  0  0
  147.1205  136.1136  157.1657 H   0  0  0  0  0  0  0  0  0  0  0  0
  152.0525  136.1362  157.4411 H   0  0  0  0  0  0  0  0  0  0  0  0
  152.1016  135.2555  155.9128 H   0  0  0  0  0  0  0  0  0  0  0  0
  151.4874  134.4613  157.3652 H   0  0  0  0  0  0  0  0  0  0  0  0
  149.9207  135.0795  154.5931 H   0  0  0  0  0  0  0  0  0  0  0  0
  150.2616  136.8051  154.6585 H   0  0  0  0  0  0  0  0  0  0  0  0
  1  2  1  0  0  0  0
  1 19  1  0  0  0  0
  1 20  1  0  0  0  0
  1 21  1  0  0  0  0
  2  3  1  0  0  0  0
  2  9  1  0  0  0  0
  2 22  1  0  0  0  0
  3  4  1  0  0  0  0
  3 23  1  0  0  0  0
  3 24  1  0  0  0  0
  4  8  1  0  0  0  0
  4  5  1  0  0  0  0
  5  6  2  0  0  0  0
  5 25  1  0  0  0  0
  6  7  1  0  0  0  0
  7  8  2  0  0  0  0
  7 26  1  0  0  0  0
  9 10  1  0  0  0  0
  9 27  1  0  0  0  0
 10 11  2  0  0  0  0
 10 12  1  0  0  0  0
 12 18  1  0  0  0  0
 12 13  1  0  0  0  0
 12 28  1  0  0  0  0
 13 14  1  0  0  0  0
 13 29  1  0  0  0  0
 13 30  1  0  0  0  0
 14 15  2  0  0  0  0
 14 16  1  0  0  0  0
 16 17  1  0  0  0  0
 16 18  1  0  0  0  0
 17 31  1  0  0  0  0
 17 32  1  0  0  0  0
 17 33  1  0  0  0  0
 18 34  1  0  0  0  0
 18 35  1  0  0  0  0
M  END
> <s_m_source_file>
AV-unprocessed.smi

> <i_m_source_file_index>
3061

> <i_lp_mmshare_version>
43012

> <i_f3d_flags>
0

> <s_epik_input>
bjFbY0hdbltjSF1uMVtDSDJdW0NAQEhdKFtDSDNdKVtOSF1DKD1PKVtDQEBIXTJbQ0gyXUMoPU8pTihbQ0gzXSlbQ0gyXTI=

> <s_epik_cmdline>
J2VwaWtfcHl0aG9uJywgJy1waCcsICc3LjAnLCAnLXRuJywgJzgnLCAnLW1hJywgJzIwMCcsICctbWV0YWxfYmluZGluZycsICctaW1hZScsICc8aW5maWxlLm1hZT4nLCAnLW9tYWUnLCAnPG91dGZpbGUubWFlPic=

> <r_lp_tautomer_probability>
1

> <r_epik_Ionization_Penalty>
4.97611e-05

> <r_epik_Ionization_Penalty_Charging>
0

> <r_epik_Ionization_Penalty_Neutral>
4.97611e-05

> <r_epik_State_Penalty>
-0

> <r_epik_Charging_Adjusted_Penalty>
0

> <i_epik_Tot_Q>
0

> <i_epik_Tot_abs_Q>
0

> <r_epik_Metal_State_Penalty>
-0

> <b_epik_Metal_Only>
0

> <s_lp_Force_Field>
OPLS_2005

> <r_lp_Energy>
12.1986

> <b_lp_Chiralities_Consistent>
1

> <s_lp_Variant>
AV-unprocessed.smi:3061-3

> <Gold.Version>
5.8.1

> <Gold.Id.Protein>
6NUR|6NUR_protein|mol2

> <Gold.PLP.Fitness>
34.4522

> <Gold.PLP.PLP>
-20.4763

> <Gold.PLP.part.hbond>
-3.0000

> <Gold.PLP.part.metal>
0.0000

> <Gold.PLP.part.buried>
-1.2185

> <Gold.PLP.part.nonpolar>
-17.1932

> <Gold.PLP.part.repulsive>
0.3395

> <Gold.PLP.ligand.clash>
0.0000

> <Gold.PLP.ligand.torsion>
0.1432

> <Gold.PLP.Chemscore.Hbond>
2.3159

> <Gold.PLP.Chemscore.CHOScore>
2.4301

> <Gold.PLP.Chemscore.Metal>
0.0000

> <Gold.Chemscore.Hbonds>
donor molecule, donor type, donor heavy atom, donor atom, acceptor molecule, acceptor atom, score
      L1  H     9    27       P1  7948  1.00
      P1  H  6896  6909       L1    15  0.42
      P1  H 10785 10796       L1     6  0.14
      L1  C     5    25       P1 10747  1.00
      L1  C     7    26       P1 10186  0.35
      L1  C     7    26       P1 10952  0.86

> <Gold.PLP.Chemscore.Internal.Correction>
0.0242

> <Gold.Rescore>
     Score         DG    S(hbond)    S(metal)    S(lipo)     H(rot)  DE(clash)    DE(int)     intcor
      8.73      -9.06       2.01        0.00      26.12       2.42       0.00       0.33       ----

> <Gold.Chemscore.Fitness>
8.7287

> <Gold.Chemscore.DG>
-9.0580

> <Gold.Chemscore.ZeroCoef>
-5.4800

> <Gold.Chemscore.Hbond>
2.0108

> <Gold.Chemscore.Metal>
0.0000

> <Gold.Chemscore.Lipo>
26.1230

> <Gold.Chemscore.Internal_Hbond>
0.0000

> <Gold.Chemscore.DEClash>
0.0029

> <Gold.Chemscore.DEInternal>
0.3264

> <Gold.Chemscore.Rot>
2.4197

> <Gold.Chemscore.Internal.Correction>
   9.000000E+99

> <Gold.Chemscore.Hbonds>
donor molecule, donor type, donor heavy atom, donor atom, acceptor molecule, acceptor atom, score
      L1  H     9    27       P1  7948  0.97
      P1  H  6896  6909       L1    15  0.42
      P1  H 10785 10796       L1     6  0.01

> <Gold.Chemscore.Hbond.Weighted>
-6.7161

> <Gold.Chemscore.Metal.Weighted>
-0.0000

> <Gold.Chemscore.Lipo.Weighted>
-3.0564

> <Gold.Chemscore.Internal_Hbond.Weighted>
0.0000

> <Gold.Chemscore.DEClash.Weighted>
0.0029

> <Gold.Chemscore.DEInternal.Weighted>
0.3264

> <Gold.Chemscore.Rot.Weighted>
6.1945

> <Gold.Chemscore.Internal.Correction.Weighted>
   9.000000E+99

> <Gold.Protein.RotatedTorsions>
[ 6907 6896 6895 6894 ] final   59.04 input  -60.11 | X-H torsion
[ 7974 7965 7964 7962 ] final  -79.77 input  175.53 | X-H torsion
[ 8008 7997 7996 7995 ] final -100.87 input   59.86 | X-H torsion
[ 10167 10162 10161 10158 ] final   30.23 input  -65.29 | X-H torsion
[ 10718 10713 10712 10709 ] final   80.46 input   66.30 | X-H torsion
[ 10763 10752 10751 10750 ] final  112.70 input  -60.55 | X-H torsion
[ 11005 11000 10999 10996 ] final  141.61 input  -57.11 | X-H torsion

> <Gold.Protein.ActiveResidues>
 VAL166  LYS551  ARG553  GLY616  TRP617  ASP618  TYR619  PRO620  LYS621  CYS622 
 ASP623  PHE694  ASN695  SER759  ASP760  ASP761  ALA762  ILE779  LEU786  VAL792 
 PHE793  MET794  SER795  GLU796  ALA797  LYS798  CYS799  TRP800  GLU811  SER814 

> <Gold.Protein.RotatedAtoms>
  152.3879  134.6488  160.0118 H   0  0  0  0  0  0  0  0  0  0  0  0  # atno 6907 bound_to 6896
  151.6731  133.3308  159.3209 H   0  0  0  0  0  0  0  0  0  0  0  0  # atno 6908 bound_to 6896
  150.7801  134.6782  159.6474 H   0  0  0  0  0  0  0  0  0  0  0  0  # atno 6909 bound_to 6896
  145.5688  140.9469  143.1407 H   0  0  0  0  0  0  0  0  0  0  0  0  # atno 7974 bound_to 7965
  154.8347  140.0438  157.1501 H   0  0  0  0  0  0  0  0  0  0  0  0  # atno 8008 bound_to 7997
  154.9113  140.3014  155.5244 H   0  0  0  0  0  0  0  0  0  0  0  0  # atno 8009 bound_to 7997
  156.2989  140.2357  156.4153 H   0  0  0  0  0  0  0  0  0  0  0  0  # atno 8010 bound_to 7997
  140.4696  144.0783  150.6233 H   0  0  0  0  0  0  0  0  0  0  0  0  # atno 10167 bound_to 10162
  157.6806  130.9960  150.2082 H   0  0  0  0  0  0  0  0  0  0  0  0  # atno 10718 bound_to 10713
  153.4817  135.3678  155.2445 H   0  0  0  0  0  0  0  0  0  0  0  0  # atno 10763 bound_to 10752
  154.8755  135.3956  154.3693 H   0  0  0  0  0  0  0  0  0  0  0  0  # atno 10764 bound_to 10752
  153.4297  135.7082  153.6304 H   0  0  0  0  0  0  0  0  0  0  0  0  # atno 10765 bound_to 10752
  140.0415  134.9302  157.0851 H   0  0  0  0  0  0  0  0  0  0  0  0  # atno 11005 bound_to 11000
  144.7448  139.7351  143.7297 LP  0  0  0  0  0  0  0  0  0  0  0  0  # atno 17320 bound_to 7965
  146.1799  139.4987  142.9873 LP  0  0  0  0  0  0  0  0  0  0  0  0  # atno 17321 bound_to 7965
  140.3994  143.2712  151.9966 LP  0  0  0  0  0  0  0  0  0  0  0  0  # atno 17342 bound_to 10162
  139.4816  144.6011  151.7604 LP  0  0  0  0  0  0  0  0  0  0  0  0  # atno 17343 bound_to 10162
  156.2759  130.3727  149.7984 LP  0  0  0  0  0  0  0  0  0  0  0  0  # atno 17370 bound_to 10713
  156.5688  130.8415  151.3350 LP  0  0  0  0  0  0  0  0  0  0  0  0  # atno 17371 bound_to 10713
  140.4062  134.2030  155.7163 LP  0  0  0  0  0  0  0  0  0  0  0  0  # atno 17394 bound_to 11000
  141.1885  133.8258  157.0992 LP  0  0  0  0  0  0  0  0  0  0  0  0  # atno 17395 bound_to 11000

$$$$
