AV-unprocessed.smi:2134|AV-procd|sdf|8697|dock2
  -GOLD-   2272011453D 1   1.00000     0.00000
 Structure written by MMmdl.
 35 36  0  0  0  0  0  0  0  0  3 V2000
  149.7454  137.1333  159.6886 C   0  0  0  0  0  0  0  0  0  0  0  0
  150.0431  136.9618  158.2670 N   0  0  0  0  0  0  0  0  0  0  0  0
  150.6911  138.0423  157.7066 N   0  0  0  0  0  0  0  0  0  0  0  0
  151.2449  137.9911  156.5349 C   0  0  0  0  0  0  0  0  0  0  0  0
  151.9609  139.1899  156.0067 C   0  0  0  0  0  0  0  0  0  0  0  0
  151.8011  139.4129  154.8007 O   0  0  0  0  0  0  0  0  0  0  0  0
  152.7276  139.9222  156.8684 N   0  5  0  0  0  0  0  0  0  0  0  0
  152.6999  139.8157  158.3273 C   0  0  0  0  0  0  0  0  0  0  0  0
  151.5037  140.6172  158.8859 C   0  0  0  0  0  0  0  0  0  0  0  0
  151.5568  142.1129  158.5900 C   0  0  0  0  0  0  0  0  0  0  0  0
  152.6164  142.9120  159.0778 C   0  0  0  0  0  0  0  0  0  0  0  0
  152.6311  144.2935  158.7939 C   0  0  0  0  0  0  0  0  0  0  0  0
  151.5869  144.8479  158.0259 C   0  0  0  0  0  0  0  0  0  0  0  0
  150.5929  144.0549  157.5701 N   0  3  0  0  0  0  0  0  0  0  0  0
  150.5447  142.7281  157.8169 C   0  0  0  0  0  0  0  0  0  0  0  0
  151.2043  136.7082  155.7255 C   0  0  0  0  0  0  0  0  0  0  0  0
  149.9856  135.8359  156.0838 C   0  0  0  0  0  0  0  0  0  0  0  0
  149.6869  135.8430  157.5856 C   0  0  0  0  0  0  0  0  0  0  0  0
  149.1311  134.8706  158.0962 O   0  0  0  0  0  0  0  0  0  0  0  0
  149.1827  136.3070  160.1248 H   0  0  0  0  0  0  0  0  0  0  0  0
  149.1607  138.0410  159.8430 H   0  0  0  0  0  0  0  0  0  0  0  0
  150.6730  137.2327  160.2535 H   0  0  0  0  0  0  0  0  0  0  0  0
  152.6140  138.7813  158.6631 H   0  0  0  0  0  0  0  0  0  0  0  0
  153.6188  140.1997  158.7708 H   0  0  0  0  0  0  0  0  0  0  0  0
  150.5791  140.2153  158.4704 H   0  0  0  0  0  0  0  0  0  0  0  0
  151.4316  140.4723  159.9649 H   0  0  0  0  0  0  0  0  0  0  0  0
  153.4052  142.4720  159.6706 H   0  0  0  0  0  0  0  0  0  0  0  0
  153.4298  144.9188  159.1646 H   0  0  0  0  0  0  0  0  0  0  0  0
  151.5162  145.8938  157.7659 H   0  0  0  0  0  0  0  0  0  0  0  0
  149.6939  142.2016  157.4089 H   0  0  0  0  0  0  0  0  0  0  0  0
  151.1634  136.9263  154.6579 H   0  0  0  0  0  0  0  0  0  0  0  0
  152.1257  136.1489  155.8916 H   0  0  0  0  0  0  0  0  0  0  0  0
  149.1002  136.2150  155.5721 H   0  0  0  0  0  0  0  0  0  0  0  0
  150.1361  134.8136  155.7354 H   0  0  0  0  0  0  0  0  0  0  0  0
  149.8442  144.4753  157.0194 H   0  0  0  0  0  0  0  0  0  0  0  0
  1  2  1  0  0  0  0
  1 20  1  0  0  0  0
  1 21  1  0  0  0  0
  1 22  1  0  0  0  0
  2 18  1  0  0  0  0
  2  3  1  0  0  0  0
  3  4  2  0  0  0  0
  4  5  1  0  0  0  0
  4 16  1  0  0  0  0
  5  6  2  0  0  0  0
  5  7  1  0  0  0  0
  7  8  1  0  0  0  0
  8  9  1  0  0  0  0
  8 23  1  0  0  0  0
  8 24  1  0  0  0  0
  9 10  1  0  0  0  0
  9 25  1  0  0  0  0
  9 26  1  0  0  0  0
 10 15  1  0  0  0  0
 10 11  2  0  0  0  0
 11 12  1  0  0  0  0
 11 27  1  0  0  0  0
 12 13  2  0  0  0  0
 12 28  1  0  0  0  0
 13 14  1  0  0  0  0
 13 29  1  0  0  0  0
 14 15  2  0  0  0  0
 14 35  1  0  0  0  0
 15 30  1  0  0  0  0
 16 17  1  0  0  0  0
 16 31  1  0  0  0  0
 16 32  1  0  0  0  0
 17 18  1  0  0  0  0
 17 33  1  0  0  0  0
 17 34  1  0  0  0  0
 18 19  2  0  0  0  0
M  CHG  1   7  -1
M  CHG  1  14   1
M  END
> <s_m_source_file>
AV-unprocessed.smi

> <i_m_source_file_index>
2134

> <i_lp_mmshare_version>
43012

> <i_f3d_flags>
0

> <s_epik_input>
Tz1DMVtDSDJdW0NIMl1DKD1OTjFbQ0gzXSlDKD1PKVtOSF1bQ0gyXVtDSDJdYzJbY0hdW2NIXVtjSF1uW2NIXTI=

> <s_epik_cmdline>
J2VwaWtfcHl0aG9uJywgJy1waCcsICc3LjAnLCAnLXRuJywgJzgnLCAnLW1hJywgJzIwMCcsICctbWV0YWxfYmluZGluZycsICctaW1hZScsICc8aW5maWxlLm1hZT4nLCAnLW9tYWUnLCAnPG91dGZpbGUubWFlPic=

> <r_epik_Ionization_Penalty>
7.05425

> <r_epik_Ionization_Penalty_Charging>
7.05425

> <r_epik_Ionization_Penalty_Neutral>
3.33049e-09

> <r_epik_State_Penalty>
7.67337

> <r_epik_Charging_Adjusted_Penalty>
14.7276

> <i_epik_Tot_Q>
0

> <i_epik_Tot_abs_Q>
2

> <r_epik_Metal_State_Penalty>
3.75463

> <b_epik_Metal_Only>
1

> <s_epik_Chemistry_Notes>
This compound has an imine and may undergo hydrolysis.

> <s_lp_Force_Field>
OPLS_2005

> <r_lp_Energy>
23.3893

> <b_lp_Chiralities_Consistent>
1

> <s_lp_Variant>
AV-unprocessed.smi:2134-4

> <Gold.Version>
5.8.1

> <Gold.Id.Protein>
6NUR|6NUR_protein|mol2

> <Gold.PLP.Fitness>
48.1119

> <Gold.PLP.PLP>
-31.7216

> <Gold.PLP.part.hbond>
-4.0000

> <Gold.PLP.part.metal>
0.0000

> <Gold.PLP.part.buried>
-1.5239

> <Gold.PLP.part.nonpolar>
-25.3460

> <Gold.PLP.part.repulsive>
0.0714

> <Gold.PLP.ligand.clash>
0.0000

> <Gold.PLP.ligand.torsion>
0.8283

> <Gold.PLP.Chemscore.Hbond>
5.9913

> <Gold.PLP.Chemscore.CHOScore>
0.0000

> <Gold.PLP.Chemscore.Metal>
0.0000

> <Gold.Chemscore.Hbonds>
donor molecule, donor type, donor heavy atom, donor atom, acceptor molecule, acceptor atom, score
      L1  H    14    35       P1  8028  2.00
      P1  H  6896  6908       L1    19  0.84
      P1  H  7989  7998       L1     6  1.00
      P1  H  7997  8009       L1     7  2.00

> <Gold.PLP.Chemscore.Internal.Correction>
0.0732

> <Gold.Rescore>
     Score         DG    S(hbond)    S(metal)    S(lipo)     H(rot)  DE(clash)    DE(int)     intcor
     17.77     -20.78       2.72        0.00      85.53       1.49       0.00       3.01       ----

> <Gold.Chemscore.Fitness>
17.7656

> <Gold.Chemscore.DG>
-20.7771

> <Gold.Chemscore.ZeroCoef>
-5.4800

> <Gold.Chemscore.Hbond>
2.7224

> <Gold.Chemscore.Metal>
0.0000

> <Gold.Chemscore.Lipo>
85.5301

> <Gold.Chemscore.Internal_Hbond>
0.0000

> <Gold.Chemscore.DEClash>
0.0038

> <Gold.Chemscore.DEInternal>
3.0077

> <Gold.Chemscore.Rot>
1.4854

> <Gold.Chemscore.Internal.Correction>
   9.000000E+99

> <Gold.Chemscore.Hbonds>
donor molecule, donor type, donor heavy atom, donor atom, acceptor molecule, acceptor atom, score
      L1  H    14    35       P1  8028  0.44
      P1  H  6896  6908       L1    19  0.21
      P1  H  7989  7998       L1     6  0.95
      P1  H  7997  8009       L1     7  0.34

> <Gold.Chemscore.Hbond.Weighted>
-9.0927

> <Gold.Chemscore.Metal.Weighted>
-0.0000

> <Gold.Chemscore.Lipo.Weighted>
-10.0070

> <Gold.Chemscore.Internal_Hbond.Weighted>
0.0000

> <Gold.Chemscore.DEClash.Weighted>
0.0038

> <Gold.Chemscore.DEInternal.Weighted>
3.0077

> <Gold.Chemscore.Rot.Weighted>
3.8026

> <Gold.Chemscore.Internal.Correction.Weighted>
   9.000000E+99

> <Gold.Protein.RotatedTorsions>
[ 6907 6896 6895 6894 ] final  146.76 input  -60.11 | X-H torsion
[ 7974 7965 7964 7962 ] final -169.90 input  175.53 | X-H torsion
[ 8008 7997 7996 7995 ] final -176.10 input   59.86 | X-H torsion
[ 10167 10162 10161 10158 ] final  -59.89 input  -65.29 | X-H torsion
[ 10718 10713 10712 10709 ] final  -62.67 input   66.30 | X-H torsion
[ 10763 10752 10751 10750 ] final  138.12 input  -60.55 | X-H torsion
[ 11005 11000 10999 10996 ] final  -23.35 input  -57.11 | X-H torsion

> <Gold.Protein.ActiveResidues>
 VAL166  LYS551  ARG553  GLY616  TRP617  ASP618  TYR619  PRO620  LYS621  CYS622 
 ASP623  PHE694  ASN695  SER759  ASP760  ASP761  ALA762  ILE779  LEU786  VAL792 
 PHE793  MET794  SER795  GLU796  ALA797  LYS798  CYS799  TRP800  GLU811  SER814 

> <Gold.Protein.RotatedAtoms>
  152.1637  133.4598  159.4873 H   0  0  0  0  0  0  0  0  0  0  0  0  # atno 6907 bound_to 6896
  150.6910  134.2039  159.4342 H   0  0  0  0  0  0  0  0  0  0  0  0  # atno 6908 bound_to 6896
  151.9943  134.9962  160.0613 H   0  0  0  0  0  0  0  0  0  0  0  0  # atno 6909 bound_to 6896
  144.7178  140.2152  143.6322 H   0  0  0  0  0  0  0  0  0  0  0  0  # atno 7974 bound_to 7965
  155.9907  140.1200  157.0641 H   0  0  0  0  0  0  0  0  0  0  0  0  # atno 8008 bound_to 7997
  154.4210  140.1126  156.5630 H   0  0  0  0  0  0  0  0  0  0  0  0  # atno 8009 bound_to 7997
  155.6346  140.3473  155.4696 H   0  0  0  0  0  0  0  0  0  0  0  0  # atno 8010 bound_to 7997
  140.6106  143.2386  151.5717 H   0  0  0  0  0  0  0  0  0  0  0  0  # atno 10167 bound_to 10162
  156.0840  130.4212  150.1168 H   0  0  0  0  0  0  0  0  0  0  0  0  # atno 10718 bound_to 10713
  153.8843  135.3040  155.3446 H   0  0  0  0  0  0  0  0  0  0  0  0  # atno 10763 bound_to 10752
  154.7746  135.4868  153.9722 H   0  0  0  0  0  0  0  0  0  0  0  0  # atno 10764 bound_to 10752
  153.1333  135.6808  153.9240 H   0  0  0  0  0  0  0  0  0  0  0  0  # atno 10765 bound_to 10752
  140.8744  133.7698  156.0225 H   0  0  0  0  0  0  0  0  0  0  0  0  # atno 11005 bound_to 11000
  145.8553  139.2195  143.1748 LP  0  0  0  0  0  0  0  0  0  0  0  0  # atno 17320 bound_to 7965
  146.0223  140.8336  142.9917 LP  0  0  0  0  0  0  0  0  0  0  0  0  # atno 17321 bound_to 7965
  139.5358  144.2784  152.1249 LP  0  0  0  0  0  0  0  0  0  0  0  0  # atno 17342 bound_to 10162
  140.1983  144.4684  150.6444 LP  0  0  0  0  0  0  0  0  0  0  0  0  # atno 17343 bound_to 10162
  156.9193  130.9678  151.3551 LP  0  0  0  0  0  0  0  0  0  0  0  0  # atno 17370 bound_to 10713
  157.5967  130.8483  149.8740 LP  0  0  0  0  0  0  0  0  0  0  0  0  # atno 17371 bound_to 10713
  140.8536  134.2925  157.5265 LP  0  0  0  0  0  0  0  0  0  0  0  0  # atno 17394 bound_to 11000
  139.8714  134.9481  156.3985 LP  0  0  0  0  0  0  0  0  0  0  0  0  # atno 17395 bound_to 11000

$$$$
