AV-unprocessed.smi:1525|AV-procd|sdf|6143|dock2
  -GOLD-   22720 6283D 1   1.00000     0.00000
 Structure written by MMmdl.
 49 51  0  0  0  0  0  0  0  0  2 V2000
  147.2796  141.2643  158.6881 O   0  0  0  0  0  0  0  0  0  0  0  0
  147.4835  142.3714  158.1901 C   0  0  0  0  0  0  0  0  0  0  0  0
  148.4320  142.6095  157.2737 N   0  0  0  0  0  0  0  0  0  0  0  0
  149.3580  141.6117  156.7522 C   0  0  0  0  0  0  0  0  0  0  0  0
  150.8146  142.1016  156.8525 C   0  0  0  0  0  0  0  0  0  0  0  0
  151.3271  142.2381  158.2143 N   0  0  0  0  0  0  0  0  0  0  0  0
  152.1388  141.0828  158.5831 C   0  0  0  0  0  0  0  0  0  0  0  0
  152.6950  141.2009  160.0127 C   0  0  0  0  0  0  0  0  0  0  0  0
  153.4492  142.4025  160.1315 O   0  0  0  0  0  0  0  0  0  0  0  0
  152.6828  143.5625  159.8247 C   0  0  0  0  0  0  0  0  0  0  0  0
  152.1216  143.4514  158.3959 C   0  0  0  0  0  0  0  0  0  0  0  0
  146.8142  143.4936  158.5026 N   0  0  0  0  0  0  0  0  0  0  0  0
  145.7529  143.6479  159.4396 C   0  0  0  0  0  0  0  0  0  0  0  0
  145.1351  142.5336  160.0631 C   0  0  0  0  0  0  0  0  0  0  0  0
  144.0837  142.7367  160.9776 C   0  0  0  0  0  0  0  0  0  0  0  0
  143.6588  144.0495  161.2482 C   0  0  0  0  0  0  0  0  0  0  0  0
  144.2557  145.0871  160.6259 N   0  3  0  0  0  0  0  0  0  0  0  0
  145.2723  144.9524  159.7384 C   0  0  0  0  0  0  0  0  0  0  0  0
  145.8029  146.1093  159.1286 N   0  0  0  0  0  0  0  0  0  0  0  0
  144.8793  146.7769  158.2146 C   0  0  0  0  0  0  0  0  0  0  0  0
  145.0911  148.2814  158.4012 C   0  0  0  0  0  0  0  0  0  0  0  0
  145.6251  148.3849  159.8245 C   0  0  0  0  0  0  0  0  0  0  0  0
  146.4688  147.1185  159.9507 C   0  0  0  0  0  0  0  0  0  0  0  0
  148.5312  143.5490  156.9185 H   0  0  0  0  0  0  0  0  0  0  0  0
  149.2150  140.6703  157.2841 H   0  0  0  0  0  0  0  0  0  0  0  0
  149.1007  141.4230  155.7098 H   0  0  0  0  0  0  0  0  0  0  0  0
  151.4400  141.3878  156.3144 H   0  0  0  0  0  0  0  0  0  0  0  0
  150.9224  143.0504  156.3243 H   0  0  0  0  0  0  0  0  0  0  0  0
  151.5444  140.1719  158.5035 H   0  0  0  0  0  0  0  0  0  0  0  0
  152.9688  140.9756  157.8828 H   0  0  0  0  0  0  0  0  0  0  0  0
  151.8859  141.1959  160.7446 H   0  0  0  0  0  0  0  0  0  0  0  0
  153.3392  140.3517  160.2408 H   0  0  0  0  0  0  0  0  0  0  0  0
  151.8745  143.6739  160.5491 H   0  0  0  0  0  0  0  0  0  0  0  0
  153.3177  144.4438  159.9153 H   0  0  0  0  0  0  0  0  0  0  0  0
  152.9470  143.4636  157.6823 H   0  0  0  0  0  0  0  0  0  0  0  0
  151.5180  144.3350  158.1916 H   0  0  0  0  0  0  0  0  0  0  0  0
  147.1620  144.3474  158.0918 H   0  0  0  0  0  0  0  0  0  0  0  0
  145.4431  141.5224  159.8448 H   0  0  0  0  0  0  0  0  0  0  0  0
  143.6073  141.8958  161.4603 H   0  0  0  0  0  0  0  0  0  0  0  0
  142.8599  144.2997  161.9311 H   0  0  0  0  0  0  0  0  0  0  0  0
  145.0638  146.4784  157.1824 H   0  0  0  0  0  0  0  0  0  0  0  0
  143.8491  146.5134  158.4601 H   0  0  0  0  0  0  0  0  0  0  0  0
  145.8452  148.6395  157.6989 H   0  0  0  0  0  0  0  0  0  0  0  0
  144.1809  148.8604  158.2426 H   0  0  0  0  0  0  0  0  0  0  0  0
  146.1967  149.2964  160.0029 H   0  0  0  0  0  0  0  0  0  0  0  0
  144.7987  148.3562  160.5358 H   0  0  0  0  0  0  0  0  0  0  0  0
  146.6173  146.8327  160.9920 H   0  0  0  0  0  0  0  0  0  0  0  0
  147.4591  147.2894  159.5276 H   0  0  0  0  0  0  0  0  0  0  0  0
  143.9184  146.0275  160.8322 H   0  0  0  0  0  0  0  0  0  0  0  0
  1  2  2  0  0  0  0
  2  3  1  0  0  0  0
  2 12  1  0  0  0  0
  3  4  1  0  0  0  0
  3 24  1  0  0  0  0
  4  5  1  0  0  0  0
  4 25  1  0  0  0  0
  4 26  1  0  0  0  0
  5  6  1  0  0  0  0
  5 27  1  0  0  0  0
  5 28  1  0  0  0  0
  6 11  1  0  0  0  0
  6  7  1  0  0  0  0
  7  8  1  0  0  0  0
  7 29  1  0  0  0  0
  7 30  1  0  0  0  0
  8  9  1  0  0  0  0
  8 31  1  0  0  0  0
  8 32  1  0  0  0  0
  9 10  1  0  0  0  0
 10 11  1  0  0  0  0
 10 33  1  0  0  0  0
 10 34  1  0  0  0  0
 11 35  1  0  0  0  0
 11 36  1  0  0  0  0
 12 13  1  0  0  0  0
 12 37  1  0  0  0  0
 13 18  1  0  0  0  0
 13 14  2  0  0  0  0
 14 15  1  0  0  0  0
 14 38  1  0  0  0  0
 15 16  2  0  0  0  0
 15 39  1  0  0  0  0
 16 17  1  0  0  0  0
 16 40  1  0  0  0  0
 17 18  2  0  0  0  0
 17 49  1  0  0  0  0
 18 19  1  0  0  0  0
 19 23  1  0  0  0  0
 19 20  1  0  0  0  0
 20 21  1  0  0  0  0
 20 41  1  0  0  0  0
 20 42  1  0  0  0  0
 21 22  1  0  0  0  0
 21 43  1  0  0  0  0
 21 44  1  0  0  0  0
 22 23  1  0  0  0  0
 22 45  1  0  0  0  0
 22 46  1  0  0  0  0
 23 47  1  0  0  0  0
 23 48  1  0  0  0  0
M  CHG  1  17   1
M  END
> <s_m_source_file>
AV-unprocessed.smi

> <i_m_source_file_index>
1525

> <i_lp_mmshare_version>
43012

> <i_f3d_flags>
0

> <s_epik_input>
W0NIMl0xW0NIMl1PW0NIMl1bQ0gyXU4xW0NIMl1bQ0gyXVtOSF1DKD1PKVtOSF1jMltjSF1bY0hdW2NIXW5jMk4zW0NIMl1bQ0gyXVtDSDJdW0NIMl0z

> <s_epik_cmdline>
J2VwaWtfcHl0aG9uJywgJy1waCcsICc3LjAnLCAnLXRuJywgJzgnLCAnLW1hJywgJzIwMCcsICctbWV0YWxfYmluZGluZycsICctaW1hZScsICc8aW5maWxlLm1hZT4nLCAnLW9tYWUnLCAnPG91dGZpbGUubWFlPic=

> <r_epik_Ionization_Penalty>
1.38385

> <r_epik_Ionization_Penalty_Charging>
1.11784

> <r_epik_Ionization_Penalty_Neutral>
0.26601

> <r_epik_State_Penalty>
1.46794

> <r_epik_Charging_Adjusted_Penalty>
2.58578

> <i_epik_Tot_Q>
1

> <i_epik_Tot_abs_Q>
1

> <r_epik_Metal_State_Penalty>
1.54909

> <b_epik_Metal_Only>
0

> <s_lp_Force_Field>
OPLS_2005

> <r_lp_Energy>
56.1891

> <b_lp_Chiralities_Consistent>
1

> <s_lp_Variant>
AV-unprocessed.smi:1525-3

> <Gold.Version>
5.8.1

> <Gold.Id.Protein>
6NUR|6NUR_protein|mol2

> <Gold.PLP.Fitness>
41.3608

> <Gold.PLP.PLP>
-36.2671

> <Gold.PLP.part.hbond>
-4.0602

> <Gold.PLP.part.metal>
0.0000

> <Gold.PLP.part.buried>
-5.4868

> <Gold.PLP.part.nonpolar>
-29.4054

> <Gold.PLP.part.repulsive>
2.4787

> <Gold.PLP.ligand.clash>
0.0000

> <Gold.PLP.ligand.torsion>
0.7089

> <Gold.PLP.Chemscore.Hbond>
2.1060

> <Gold.PLP.Chemscore.CHOScore>
0.0000

> <Gold.PLP.Chemscore.Metal>
0.0000

> <Gold.Chemscore.Hbonds>
donor molecule, donor type, donor heavy atom, donor atom, acceptor molecule, acceptor atom, score
      L1  H     3    24       P1  8028  0.90
      L1  H    12    37       P1  8029  1.00
      P1  H  6934  6946       L1     1  0.23

> <Gold.PLP.Chemscore.Internal.Correction>
0.1936

> <Gold.Rescore>
     Score         DG    S(hbond)    S(metal)    S(lipo)     H(rot)  DE(clash)    DE(int)     intcor
     12.77     -16.62       1.24        0.00      95.66       1.63       1.78       2.08       ----

> <Gold.Chemscore.Fitness>
12.7654

> <Gold.Chemscore.DG>
-16.6208

> <Gold.Chemscore.ZeroCoef>
-5.4800

> <Gold.Chemscore.Hbond>
1.2356

> <Gold.Chemscore.Metal>
0.0000

> <Gold.Chemscore.Lipo>
95.6631

> <Gold.Chemscore.Internal_Hbond>
0.0000

> <Gold.Chemscore.DEClash>
1.7795

> <Gold.Chemscore.DEInternal>
2.0759

> <Gold.Chemscore.Rot>
1.6323

> <Gold.Chemscore.Internal.Correction>
   9.000000E+99

> <Gold.Chemscore.Hbonds>
donor molecule, donor type, donor heavy atom, donor atom, acceptor molecule, acceptor atom, score
      L1  H     3    24       P1  8028  0.18
      L1  H    12    37       P1  8029  0.50
      P1  H  6934  6946       L1     1  0.23

> <Gold.Chemscore.Hbond.Weighted>
-4.1268

> <Gold.Chemscore.Metal.Weighted>
-0.0000

> <Gold.Chemscore.Lipo.Weighted>
-11.1926

> <Gold.Chemscore.Internal_Hbond.Weighted>
0.0000

> <Gold.Chemscore.DEClash.Weighted>
1.7795

> <Gold.Chemscore.DEInternal.Weighted>
2.0759

> <Gold.Chemscore.Rot.Weighted>
4.1786

> <Gold.Chemscore.Internal.Correction.Weighted>
   9.000000E+99

> <Gold.Protein.RotatedTorsions>
[ 6907 6896 6895 6894 ] final  -36.30 input  -60.11 | X-H torsion
[ 7974 7965 7964 7962 ] final  -20.77 input  175.53 | X-H torsion
[ 8008 7997 7996 7995 ] final -120.17 input   59.86 | X-H torsion
[ 10167 10162 10161 10158 ] final   43.58 input  -65.29 | X-H torsion
[ 10718 10713 10712 10709 ] final  -85.78 input   66.30 | X-H torsion
[ 10763 10752 10751 10750 ] final -115.06 input  -60.55 | X-H torsion
[ 11005 11000 10999 10996 ] final  -52.60 input  -57.11 | X-H torsion

> <Gold.Protein.ActiveResidues>
 VAL166  LYS551  ARG553  GLY616  TRP617  ASP618  TYR619  PRO620  LYS621  CYS622 
 ASP623  PHE694  ASN695  SER759  ASP760  ASP761  ALA762  ILE779  LEU786  VAL792 
 PHE793  MET794  SER795  GLU796  ALA797  LYS798  CYS799  TRP800  GLU811  SER814 

> <Gold.Protein.RotatedAtoms>
  151.0288  134.9524  159.8099 H   0  0  0  0  0  0  0  0  0  0  0  0  # atno 6907 bound_to 6896
  152.5341  134.2807  159.9016 H   0  0  0  0  0  0  0  0  0  0  0  0  # atno 6908 bound_to 6896
  151.2816  133.4165  159.2661 H   0  0  0  0  0  0  0  0  0  0  0  0  # atno 6909 bound_to 6896
  146.1770  140.4248  142.8509 H   0  0  0  0  0  0  0  0  0  0  0  0  # atno 7974 bound_to 7965
  155.1275  140.0399  157.2766 H   0  0  0  0  0  0  0  0  0  0  0  0  # atno 8008 bound_to 7997
  154.6567  140.2581  155.7127 H   0  0  0  0  0  0  0  0  0  0  0  0  # atno 8009 bound_to 7997
  156.2601  140.2825  156.1023 H   0  0  0  0  0  0  0  0  0  0  0  0  # atno 8010 bound_to 7997
  140.3430  144.2447  150.6153 H   0  0  0  0  0  0  0  0  0  0  0  0  # atno 10167 bound_to 10162
  155.9994  130.4743  150.4615 H   0  0  0  0  0  0  0  0  0  0  0  0  # atno 10718 bound_to 10713
  154.8466  135.4395  154.1604 H   0  0  0  0  0  0  0  0  0  0  0  0  # atno 10763 bound_to 10752
  153.2742  135.6948  153.7456 H   0  0  0  0  0  0  0  0  0  0  0  0  # atno 10764 bound_to 10752
  153.6684  135.3423  155.3122 H   0  0  0  0  0  0  0  0  0  0  0  0  # atno 10765 bound_to 10752
  141.0933  133.6629  156.4049 H   0  0  0  0  0  0  0  0  0  0  0  0  # atno 11005 bound_to 11000
  144.8252  140.6617  143.6327 LP  0  0  0  0  0  0  0  0  0  0  0  0  # atno 17320 bound_to 7965
  145.4183  139.1568  143.4088 LP  0  0  0  0  0  0  0  0  0  0  0  0  # atno 17321 bound_to 7965
  140.5291  143.2247  151.8267 LP  0  0  0  0  0  0  0  0  0  0  0  0  # atno 17342 bound_to 10162
  139.4837  144.4742  151.9387 LP  0  0  0  0  0  0  0  0  0  0  0  0  # atno 17343 bound_to 10162
  157.2639  131.0572  151.2303 LP  0  0  0  0  0  0  0  0  0  0  0  0  # atno 17370 bound_to 10713
  157.3408  130.7032  149.6380 LP  0  0  0  0  0  0  0  0  0  0  0  0  # atno 17371 bound_to 10713
  140.5201  134.6313  157.5315 LP  0  0  0  0  0  0  0  0  0  0  0  0  # atno 17394 bound_to 11000
  139.9763  134.7209  155.9943 LP  0  0  0  0  0  0  0  0  0  0  0  0  # atno 17395 bound_to 11000

$$$$
