#       Name:                AV-unprocessed.smi:1368
#       Creating user name   scv26
#       Creation time:       Fri Mar 27 05:17:20 2020


#       File generated by GOLD software.
#

@<TRIPOS>MOLECULE
AV-unprocessed.smi:1368
    53    55     1
SMALL
NO_CHARGES


@<TRIPOS>ATOM
      1 ****        -8.7587   1.7272   0.3672 C.3            1 S1                 0.0000
      2 ****        -7.3765   1.0814   0.3693 C.2            1 S1                 0.0000
      3 ****        -7.2862  -0.1448   0.4101 O.2            1 S1                 0.0000
      4 ****        -6.3342   1.9332   0.3518 N.am           1 S1                 0.0000
      5 ****        -4.9423   1.6427   0.3338 C.ar           1 S1                 0.0000
      6 ****        -4.0655   2.6650   0.7481 C.ar           1 S1                 0.0000
      7 ****        -2.6728   2.4604   0.7388 C.ar           1 S1                 0.0000
      8 ****        -2.1255   1.2357   0.3077 C.ar           1 S1                 0.0000
      9 ****        -0.7518   1.1201   0.3290 O.3            1 S1                 0.0000
     10 ****        -0.1740  -0.1073  -0.0963 C.3            1 S1                 0.0000
     11 ****         1.3546  -0.0120   0.0306 C.3            1 S1                 0.0000
     12 ****         1.8566   0.6694  -1.1024 O.3            1 S1                 0.0000
     13 ****         2.0075  -1.4063   0.1181 C.3            1 S1                 0.0000
     14 ****         3.4712  -1.3490   0.2654 N.pl3          1 S1                 0.0000
     15 ****         4.2309  -1.2030   1.3882 C.2            1 S1                 0.0000
     16 ****         3.7332  -1.0591   2.7871 C.3            1 S1                 0.0000
     17 ****         5.5366  -1.2164   0.9982 N.pl3          1 S1                 1.0000
     18 ****         5.6139  -1.3710  -0.3867 C.ar           1 S1                 0.0000
     19 ****         6.7150  -1.4409  -1.2347 C.ar           1 S1                 0.0000
     20 ****         6.4457  -1.5986  -2.6100 C.ar           1 S1                 0.0000
     21 ****         5.1241  -1.6796  -3.0945 C.ar           1 S1                 0.0000
     22 ****         4.0160  -1.6087  -2.2248 C.ar           1 S1                 0.0000
     23 ****         4.2902  -1.4550  -0.8657 C.ar           1 S1                 0.0000
     24 ****        -3.0059   0.2119  -0.1218 C.ar           1 S1                 0.0000
     25 ****        -4.3996   0.4147  -0.1137 C.ar           1 S1                 0.0000
     26 ****        -8.7422   2.6951  -0.1356 H              1 S1                 0.0000
     27 ****        -9.1060   1.8758   1.3898 H              1 S1                 0.0000
     28 ****        -9.4773   1.0904  -0.1497 H              1 S1                 0.0000
     29 ****        -6.5684   2.9137   0.4097 H              1 S1                 0.0000
     30 ****        -4.4587   3.6146   1.0807 H              1 S1                 0.0000
     31 ****        -2.0167   3.2541   1.0653 H              1 S1                 0.0000
     32 ****        -0.5399  -0.9015   0.5567 H              1 S1                 0.0000
     33 ****        -0.4627  -0.3570  -1.1190 H              1 S1                 0.0000
     34 ****         1.6125   0.5557   0.9254 H              1 S1                 0.0000
     35 ****         1.4557   1.5249  -1.1383 H              1 S1                 0.0000
     36 ****         1.6207  -1.9414   0.9862 H              1 S1                 0.0000
     37 ****         1.7540  -2.0183  -0.7478 H              1 S1                 0.0000
     38 ****         4.5626  -0.8949   3.4753 H              1 S1                 0.0000
     39 ****         3.2034  -1.9620   3.0909 H              1 S1                 0.0000
     40 ****         3.0505  -0.2126   2.8598 H              1 S1                 0.0000
     41 ****         7.7283  -1.3769  -0.8659 H              1 S1                 0.0000
     42 ****         7.2690  -1.6567  -3.3074 H              1 S1                 0.0000
     43 ****         4.9559  -1.7966  -4.1552 H              1 S1                 0.0000
     44 ****         3.0083  -1.6647  -2.6088 H              1 S1                 0.0000
     45 ****        -2.6377  -0.7412  -0.4693 H              1 S1                 0.0000
     46 ****        -5.0296  -0.3847  -0.4708 H              1 S1                 0.0000
     47 ****         6.3173  -1.1253   1.6354 H              1 S1                 0.0000
     48 ****        -8.1131  -0.7063   0.4414 LP             1 S1                 0.0000
     49 ****        -6.3859  -0.5801   0.4120 LP             1 S1                 0.0000
     50 ****        -0.4558   1.2763   1.2713 LP             1 S1                 0.0000
     51 ****        -0.3846   1.8403  -0.2596 LP             1 S1                 0.0000
     52 ****         1.6330   0.1566  -1.9313 LP             1 S1                 0.0000
     53 ****         2.8492   0.7645  -1.0269 LP             1 S1                 0.0000
@<TRIPOS>BOND
    1    1    2 1     
    2    1   26 1     
    3    1   27 1     
    4    1   28 1     
    5    2    3 2     
    6    2    4 am    
    7    4    5 1     
    8    4   29 1     
    9    5   25 ar    
   10    5    6 ar    
   11    6    7 ar    
   12    6   30 1     
   13    7    8 ar    
   14    7   31 1     
   15    8    9 1     
   16    8   24 ar    
   17    9   10 1     
   18   10   11 1     
   19   10   32 1     
   20   10   33 1     
   21   11   12 1     
   22   11   13 1     
   23   11   34 1     
   24   12   35 1     
   25   13   14 1     
   26   13   36 1     
   27   13   37 1     
   28   14   23 1     
   29   14   15 1     
   30   15   16 1     
   31   15   17 2     
   32   16   38 1     
   33   16   39 1     
   34   16   40 1     
   35   17   18 1     
   36   17   47 1     
   37   18   23 ar    
   38   18   19 ar    
   39   19   20 ar    
   40   19   41 1     
   41   20   21 ar    
   42   20   42 1     
   43   21   22 ar    
   44   21   43 1     
   45   22   23 ar    
   46   22   44 1     
   47   24   25 ar    
   48   24   45 1     
   49   25   46 1     
   50    3   48 1     
   51    3   49 1     
   52    9   50 1     
   53    9   51 1     
   54   12   52 1     
   55   12   53 1     
@<TRIPOS>SUBSTRUCTURE
      1 S1             1
@<TRIPOS>SET
LONE_PAIRS      STATIC     ATOMS    <user>   **** ""
6 48 49 50 51 52 53
DONOR_HYDROGENS      STATIC     ATOMS    <user>   **** ""
3 29 35 47
ATOM$BLUE        STATIC     ATOMS    COLORGROUP SYSTEM
6 48 49 50 51 52 53
ATOM$RED        STATIC     ATOMS    COLORGROUP SYSTEM
3 29 35 47
