AV-unprocessed.smi:249|AV-procd|sdf|1907|dock4
  -GOLD-   2262020593D 1   1.00000     0.00000
 Structure written by MMmdl.
 64 67  0  0  0  0  0  0  0  0  2 V2000
  144.6329  132.7718  151.1407 C   0  0  0  0  0  0  0  0  0  0  0  0
  143.9254  133.9906  151.7528 C   0  0  0  0  0  0  0  0  0  0  0  0
  143.9611  134.0020  153.2450 N   0  3  1  0  0  0  0  0  0  0  0  0
  145.3282  133.8614  153.8226 C   0  0  0  0  0  0  0  0  0  0  0  0
  146.1616  135.1461  153.6499 C   0  0  0  0  0  0  0  0  0  0  0  0
  145.4317  136.3568  154.2612 C   0  0  1  0  0  0  0  0  0  0  0  0
  146.1890  137.6002  154.0979 N   0  0  0  0  0  0  0  0  0  0  0  0
  146.2813  138.2677  152.8014 C   0  0  0  0  0  0  0  0  0  0  0  0
  146.9621  138.0604  155.1165 C   0  0  0  0  0  0  0  0  0  0  0  0
  147.2639  137.2113  156.1341 N   0  0  0  0  0  0  0  0  0  0  0  0
  148.0077  137.6239  157.1642 C   0  0  0  0  0  0  0  0  0  0  0  0
  148.5519  138.8235  157.3716 N   0  0  0  0  0  0  0  0  0  0  0  0
  148.2733  139.6767  156.3457 C   0  0  0  0  0  0  0  0  0  0  0  0
  147.4925  139.3828  155.1908 C   0  0  0  0  0  0  0  0  0  0  0  0
  147.4404  140.5015  154.3654 N   0  0  0  0  0  0  0  0  0  0  0  0
  148.1337  141.4053  155.0017 C   0  0  0  0  0  0  0  0  0  0  0  0
  148.6859  140.9891  156.1913 N   0  0  0  0  0  0  0  0  0  0  0  0
  149.4890  141.7888  157.1002 C   0  0  0  0  0  0  0  0  0  0  0  0
  150.9098  142.1497  156.5824 C   0  0  2  0  0  0  0  0  0  0  0  0
  151.6144  140.8586  156.0994 C   0  0  0  0  0  0  0  0  0  0  0  0
  150.9307  140.2746  155.0094 O   0  0  0  0  0  0  0  0  0  0  0  0
  151.7715  142.9106  157.6344 C   0  0  1  0  0  0  0  0  0  0  0  0
  151.2865  144.3129  157.9734 C   0  0  0  0  0  0  0  0  0  0  0  0
  151.9921  144.5927  159.2917 C   0  0  0  0  0  0  0  0  0  0  0  0
  151.9597  143.3520  159.9777 O   0  0  0  0  0  0  0  0  0  0  0  0
  151.8126  142.2886  159.0413 C   0  0  0  0  0  0  0  0  0  0  0  0
  144.0009  136.4687  153.7004 C   0  0  0  0  0  0  0  0  0  0  0  0
  143.2376  135.1414  153.8893 C   0  0  1  0  0  0  0  0  0  0  0  0
  141.7585  135.2461  153.4772 C   0  0  0  0  0  0  0  0  0  0  0  0
  144.4472  132.7242  150.0674 H   0  0  0  0  0  0  0  0  0  0  0  0
  144.2698  131.8414  151.5781 H   0  0  0  0  0  0  0  0  0  0  0  0
  145.7136  132.8128  151.2725 H   0  0  0  0  0  0  0  0  0  0  0  0
  144.3435  134.9104  151.3444 H   0  0  0  0  0  0  0  0  0  0  0  0
  142.8934  133.9491  151.4103 H   0  0  0  0  0  0  0  0  0  0  0  0
  145.2282  133.6405  154.8862 H   0  0  0  0  0  0  0  0  0  0  0  0
  145.8532  133.0059  153.4010 H   0  0  0  0  0  0  0  0  0  0  0  0
  147.1311  135.0192  154.1331 H   0  0  0  0  0  0  0  0  0  0  0  0
  146.3702  135.3107  152.5928 H   0  0  0  0  0  0  0  0  0  0  0  0
  145.3487  136.1327  155.3238 H   0  0  0  0  0  0  0  0  0  0  0  0
  146.2711  139.3515  152.9233 H   0  0  0  0  0  0  0  0  0  0  0  0
  145.4469  137.9993  152.1544 H   0  0  0  0  0  0  0  0  0  0  0  0
  147.2044  137.9867  152.2933 H   0  0  0  0  0  0  0  0  0  0  0  0
  148.1936  136.8872  157.9317 H   0  0  0  0  0  0  0  0  0  0  0  0
  148.2723  142.4032  154.6115 H   0  0  0  0  0  0  0  0  0  0  0  0
  148.9394  142.7014  157.3352 H   0  0  0  0  0  0  0  0  0  0  0  0
  149.5533  141.2278  158.0327 H   0  0  0  0  0  0  0  0  0  0  0  0
  150.8087  142.7980  155.7111 H   0  0  0  0  0  0  0  0  0  0  0  0
  152.6268  141.0601  155.7521 H   0  0  0  0  0  0  0  0  0  0  0  0
  151.6911  140.1319  156.9087 H   0  0  0  0  0  0  0  0  0  0  0  0
  150.0044  140.2797  155.1966 H   0  0  0  0  0  0  0  0  0  0  0  0
  152.7945  142.9950  157.2633 H   0  0  0  0  0  0  0  0  0  0  0  0
  151.5364  145.0529  157.2127 H   0  0  0  0  0  0  0  0  0  0  0  0
  150.2051  144.3202  158.1201 H   0  0  0  0  0  0  0  0  0  0  0  0
  153.0313  144.8751  159.1176 H   0  0  0  0  0  0  0  0  0  0  0  0
  151.5133  145.3837  159.8688 H   0  0  0  0  0  0  0  0  0  0  0  0
  150.8826  141.7682  159.2720 H   0  0  0  0  0  0  0  0  0  0  0  0
  152.6338  141.5821  159.1544 H   0  0  0  0  0  0  0  0  0  0  0  0
  143.4718  137.2721  154.2145 H   0  0  0  0  0  0  0  0  0  0  0  0
  144.0174  136.7432  152.6457 H   0  0  0  0  0  0  0  0  0  0  0  0
  143.2288  134.9232  154.9586 H   0  0  0  0  0  0  0  0  0  0  0  0
  141.2299  135.9452  154.1259 H   0  0  0  0  0  0  0  0  0  0  0  0
  141.2551  134.2822  153.5582 H   0  0  0  0  0  0  0  0  0  0  0  0
  141.6377  135.6101  152.4570 H   0  0  0  0  0  0  0  0  0  0  0  0
  143.4579  133.1719  153.5245 H   0  0  0  0  0  0  0  0  0  0  0  0
  1  2  1  0  0  0  0
  1 30  1  0  0  0  0
  1 31  1  0  0  0  0
  1 32  1  0  0  0  0
  2  3  1  0  0  0  0
  2 33  1  0  0  0  0
  2 34  1  0  0  0  0
  3 28  1  0  0  0  0
  3  4  1  0  0  0  0
  3 64  1  0  0  0  0
  4  5  1  0  0  0  0
  4 35  1  0  0  0  0
  4 36  1  0  0  0  0
  5  6  1  0  0  0  0
  5 37  1  0  0  0  0
  5 38  1  0  0  0  0
  6  7  1  0  0  0  0
  6 27  1  0  0  0  0
  6 39  1  0  0  0  0
  7  8  1  0  0  0  0
  7  9  1  0  0  0  0
  8 40  1  0  0  0  0
  8 41  1  0  0  0  0
  8 42  1  0  0  0  0
  9 14  1  0  0  0  0
  9 10  2  0  0  0  0
 10 11  1  0  0  0  0
 11 12  2  0  0  0  0
 11 43  1  0  0  0  0
 12 13  1  0  0  0  0
 13 17  1  0  0  0  0
 13 14  2  0  0  0  0
 14 15  1  0  0  0  0
 15 16  2  0  0  0  0
 16 17  1  0  0  0  0
 16 44  1  0  0  0  0
 17 18  1  0  0  0  0
 18 19  1  0  0  0  0
 18 45  1  0  0  0  0
 18 46  1  0  0  0  0
 19 20  1  0  0  0  0
 19 22  1  0  0  0  0
 19 47  1  0  0  0  0
 20 21  1  0  0  0  0
 20 48  1  0  0  0  0
 20 49  1  0  0  0  0
 21 50  1  0  0  0  0
 22 26  1  0  0  0  0
 22 23  1  0  0  0  0
 22 51  1  0  0  0  0
 23 24  1  0  0  0  0
 23 52  1  0  0  0  0
 23 53  1  0  0  0  0
 24 25  1  0  0  0  0
 24 54  1  0  0  0  0
 24 55  1  0  0  0  0
 25 26  1  0  0  0  0
 26 56  1  0  0  0  0
 26 57  1  0  0  0  0
 27 28  1  0  0  0  0
 27 58  1  0  0  0  0
 27 59  1  0  0  0  0
 28 29  1  0  0  0  0
 28 60  1  0  0  0  0
 29 61  1  0  0  0  0
 29 62  1  0  0  0  0
 29 63  1  0  0  0  0
M  CHG  1   3   1
M  END
> <s_m_source_file>
AV-unprocessed.smi

> <i_m_source_file_index>
249

> <i_lp_mmshare_version>
43012

> <i_f3d_flags>
0

> <s_epik_input>
W0NIM11bQ0gyXU4xW0NIMl1bQ0gyXVtDQEhdKFtDSDJdW0NASF0xW0NIM10pTihbQ0gzXSljKG5bY0hdbjIpYyhjMjMpbltjSF1uM1tDSDJdW0NASF0oW0NIMl1bT0hdKVtDQEBIXTRbQ0gyXVtDSDJdT1tDSDJdNA==

> <s_epik_cmdline>
J2VwaWtfcHl0aG9uJywgJy1waCcsICc3LjAnLCAnLXRuJywgJzgnLCAnLW1hJywgJzIwMCcsICctbWV0YWxfYmluZGluZycsICctaW1hZScsICc8aW5maWxlLm1hZT4nLCAnLW9tYWUnLCAnPG91dGZpbGUubWFlPic=

> <r_lp_tautomer_probability>
1

> <r_epik_Ionization_Penalty>
0.00294688

> <r_epik_Ionization_Penalty_Charging>
0.00169971

> <r_epik_Ionization_Penalty_Neutral>
0.00124717

> <r_epik_State_Penalty>
-0

> <r_epik_Charging_Adjusted_Penalty>
0.00169971

> <i_epik_Tot_Q>
1

> <i_epik_Tot_abs_Q>
1

> <r_epik_Metal_State_Penalty>
-0

> <b_epik_Metal_Only>
0

> <s_lp_Force_Field>
OPLS_2005

> <r_lp_Energy>
54.7906

> <b_lp_Chiralities_Consistent>
1

> <s_lp_Variant>
AV-unprocessed.smi:249-10

> <Gold.Version>
5.8.1

> <Gold.Id.Protein>
6NUR|6NUR_protein|mol2

> <Gold.PLP.Fitness>
49.3485

> <Gold.PLP.PLP>
-38.8594

> <Gold.PLP.part.hbond>
-2.0000

> <Gold.PLP.part.metal>
0.0000

> <Gold.PLP.part.buried>
-9.4117

> <Gold.PLP.part.nonpolar>
-28.5777

> <Gold.PLP.part.repulsive>
0.1433

> <Gold.PLP.ligand.clash>
0.0000

> <Gold.PLP.ligand.torsion>
0.8332

> <Gold.PLP.Chemscore.Hbond>
3.0000

> <Gold.PLP.Chemscore.CHOScore>
0.8473

> <Gold.PLP.Chemscore.Metal>
0.0000

> <Gold.Chemscore.Hbonds>
donor molecule, donor type, donor heavy atom, donor atom, acceptor molecule, acceptor atom, score
      L1  H     3    64       P1 10957  1.95
      P1  H  7989  7998       L1    21  1.00
      L1  C    16    44       P1  8028  0.85

> <Gold.PLP.Chemscore.Internal.Correction>
0.6137

> <Gold.Rescore>
     Score         DG    S(hbond)    S(metal)    S(lipo)     H(rot)  DE(clash)    DE(int)     intcor
     13.58     -16.77       1.88        0.00     100.89       2.65       0.14       3.05       ----

> <Gold.Chemscore.Fitness>
13.5784

> <Gold.Chemscore.DG>
-16.7676

> <Gold.Chemscore.ZeroCoef>
-5.4800

> <Gold.Chemscore.Hbond>
1.8778

> <Gold.Chemscore.Metal>
0.0000

> <Gold.Chemscore.Lipo>
100.8869

> <Gold.Chemscore.Internal_Hbond>
0.0000

> <Gold.Chemscore.DEClash>
0.1437

> <Gold.Chemscore.DEInternal>
3.0455

> <Gold.Chemscore.Rot>
2.6515

> <Gold.Chemscore.Internal.Correction>
   9.000000E+99

> <Gold.Chemscore.Hbonds>
donor molecule, donor type, donor heavy atom, donor atom, acceptor molecule, acceptor atom, score
      L1  H     3    64       P1 10957  0.87
      P1  H  7989  7998       L1    21  0.69

> <Gold.Chemscore.Hbond.Weighted>
-6.2718

> <Gold.Chemscore.Metal.Weighted>
-0.0000

> <Gold.Chemscore.Lipo.Weighted>
-11.8038

> <Gold.Chemscore.Internal_Hbond.Weighted>
0.0000

> <Gold.Chemscore.DEClash.Weighted>
0.1437

> <Gold.Chemscore.DEInternal.Weighted>
3.0455

> <Gold.Chemscore.Rot.Weighted>
6.7880

> <Gold.Chemscore.Internal.Correction.Weighted>
   9.000000E+99

> <Gold.Protein.RotatedTorsions>
[ 6907 6896 6895 6894 ] final   80.23 input  -60.11 | X-H torsion
[ 7974 7965 7964 7962 ] final -113.34 input  175.53 | X-H torsion
[ 8008 7997 7996 7995 ] final   35.10 input   59.86 | X-H torsion
[ 10167 10162 10161 10158 ] final  -18.69 input  -65.29 | X-H torsion
[ 10718 10713 10712 10709 ] final  -85.50 input   66.30 | X-H torsion
[ 10763 10752 10751 10750 ] final   81.59 input  -60.55 | X-H torsion
[ 11005 11000 10999 10996 ] final  151.03 input  -57.11 | X-H torsion

> <Gold.Protein.ActiveResidues>
 VAL166  LYS551  ARG553  GLY616  TRP617  ASP618  TYR619  PRO620  LYS621  CYS622 
 ASP623  PHE694  ASN695  SER759  ASP760  ASP761  ALA762  ILE779  LEU786  VAL792 
 PHE793  MET794  SER795  GLU796  ALA797  LYS798  CYS799  TRP800  GLU811  SER814 

> <Gold.Protein.RotatedAtoms>
  152.5227  134.3390  159.9209 H   0  0  0  0  0  0  0  0  0  0  0  0  # atno 6907 bound_to 6896
  151.3339  133.3983  159.2673 H   0  0  0  0  0  0  0  0  0  0  0  0  # atno 6908 bound_to 6896
  150.9858  134.9221  159.7928 H   0  0  0  0  0  0  0  0  0  0  0  0  # atno 6909 bound_to 6896
  145.1331  140.8736  143.3746 H   0  0  0  0  0  0  0  0  0  0  0  0  # atno 7974 bound_to 7965
  155.1655  140.3287  155.4403 H   0  0  0  0  0  0  0  0  0  0  0  0  # atno 8008 bound_to 7997
  156.2528  140.1952  156.6711 H   0  0  0  0  0  0  0  0  0  0  0  0  # atno 8009 bound_to 7997
  154.6374  140.0574  156.9791 H   0  0  0  0  0  0  0  0  0  0  0  0  # atno 8010 bound_to 7997
  140.7261  143.4892  151.0015 H   0  0  0  0  0  0  0  0  0  0  0  0  # atno 10167 bound_to 10162
  155.9996  130.4733  150.4571 H   0  0  0  0  0  0  0  0  0  0  0  0  # atno 10718 bound_to 10713
  153.1130  135.4760  154.9067 H   0  0  0  0  0  0  0  0  0  0  0  0  # atno 10763 bound_to 10752
  154.7500  135.3103  154.8578 H   0  0  0  0  0  0  0  0  0  0  0  0  # atno 10764 bound_to 10752
  153.9162  135.6860  153.4803 H   0  0  0  0  0  0  0  0  0  0  0  0  # atno 10765 bound_to 10752
  140.1183  134.8880  157.2036 H   0  0  0  0  0  0  0  0  0  0  0  0  # atno 11005 bound_to 11000
  145.0613  139.3103  143.5879 LP  0  0  0  0  0  0  0  0  0  0  0  0  # atno 17320 bound_to 7965
  146.3512  140.0056  142.8672 LP  0  0  0  0  0  0  0  0  0  0  0  0  # atno 17321 bound_to 7965
  139.8595  143.7333  152.3174 LP  0  0  0  0  0  0  0  0  0  0  0  0  # atno 17342 bound_to 10162
  139.7543  144.7525  151.0458 LP  0  0  0  0  0  0  0  0  0  0  0  0  # atno 17343 bound_to 10162
  157.2599  131.0564  151.2327 LP  0  0  0  0  0  0  0  0  0  0  0  0  # atno 17370 bound_to 10713
  157.3445  130.7050  149.6402 LP  0  0  0  0  0  0  0  0  0  0  0  0  # atno 17371 bound_to 10713
  140.2998  134.3144  155.7292 LP  0  0  0  0  0  0  0  0  0  0  0  0  # atno 17394 bound_to 11000
  141.2146  133.7585  156.9625 LP  0  0  0  0  0  0  0  0  0  0  0  0  # atno 17395 bound_to 11000

$$$$
