AV-unprocessed.smi:2905|AV-procd|sdf|11161|dock5
  -GOLD-   2272016 43D 1   1.00000     0.00000
 Structure written by MMmdl.
 39 40  0  0  0  0  0  0  0  0  1 V2000
  146.6182  133.0849  150.8987 C   0  0  0  0  0  0  0  0  0  0  0  0
  145.1025  132.8477  151.1094 C   0  0  0  0  0  0  0  0  0  0  0  0
  144.5401  132.2761  149.7918 C   0  0  0  0  0  0  0  0  0  0  0  0
  144.9550  131.8200  152.2501 C   0  0  0  0  0  0  0  0  0  0  0  0
  144.3581  134.1446  151.4753 C   0  0  0  0  0  0  0  0  0  0  0  0
  143.0544  134.0663  151.7729 N   0  0  0  0  0  0  0  0  0  0  0  0
  142.4129  135.2107  152.0918 C   0  0  0  0  0  0  0  0  0  0  0  0
  143.0851  136.4560  152.1166 C   0  0  0  0  0  0  0  0  0  0  0  0
  142.4823  137.7074  152.4130 N   0  0  0  0  0  0  0  0  0  0  0  0
  141.1781  137.9914  152.5944 C   0  0  0  0  0  0  0  0  0  0  0  0
  140.2755  137.1574  152.6055 O   0  0  0  0  0  0  0  0  0  0  0  0
  140.9236  139.2952  152.8068 N   0  0  0  0  0  0  0  0  0  0  0  0
  139.6277  139.9362  153.0379 C   0  0  0  0  0  0  0  0  0  0  0  0
  138.6420  139.7484  151.8560 C   0  0  0  0  0  0  0  0  0  0  0  0
  138.0618  141.1220  151.6562 C   0  0  0  0  0  0  0  0  0  0  0  0
  138.6695  142.0431  152.4011 C   0  0  0  0  0  0  0  0  0  0  0  0
  139.7737  141.4634  153.2428 C   0  0  0  0  0  0  0  0  0  0  0  0
  144.4521  136.4218  151.7767 C   0  0  0  0  0  0  0  0  0  0  0  0
  145.0829  135.2707  151.4622 N   0  0  0  0  0  0  0  0  0  0  0  0
  147.1327  132.1582  150.6422 H   0  0  0  0  0  0  0  0  0  0  0  0
  147.0939  133.4768  151.7988 H   0  0  0  0  0  0  0  0  0  0  0  0
  146.8071  133.7909  150.0888 H   0  0  0  0  0  0  0  0  0  0  0  0
  144.6411  132.9927  148.9760 H   0  0  0  0  0  0  0  0  0  0  0  0
  143.4823  132.0260  149.8796 H   0  0  0  0  0  0  0  0  0  0  0  0
  145.0628  131.3653  149.4977 H   0  0  0  0  0  0  0  0  0  0  0  0
  145.4956  130.8990  152.0288 H   0  0  0  0  0  0  0  0  0  0  0  0
  143.9123  131.5485  152.4166 H   0  0  0  0  0  0  0  0  0  0  0  0
  145.3454  132.2141  153.1891 H   0  0  0  0  0  0  0  0  0  0  0  0
  141.3595  135.1093  152.3006 H   0  0  0  0  0  0  0  0  0  0  0  0
  143.1213  138.4813  152.5223 H   0  0  0  0  0  0  0  0  0  0  0  0
  141.7259  139.9070  152.8471 H   0  0  0  0  0  0  0  0  0  0  0  0
  139.1728  139.5286  153.9427 H   0  0  0  0  0  0  0  0  0  0  0  0
  139.1436  139.4348  150.9393 H   0  0  0  0  0  0  0  0  0  0  0  0
  137.8613  139.0244  152.0905 H   0  0  0  0  0  0  0  0  0  0  0  0
  137.2567  141.3136  150.9622 H   0  0  0  0  0  0  0  0  0  0  0  0
  138.4338  143.0971  152.4053 H   0  0  0  0  0  0  0  0  0  0  0  0
  139.6557  141.7451  154.2895 H   0  0  0  0  0  0  0  0  0  0  0  0
  140.7318  141.8439  152.8862 H   0  0  0  0  0  0  0  0  0  0  0  0
  145.0471  137.3232  151.7569 H   0  0  0  0  0  0  0  0  0  0  0  0
  1  2  1  0  0  0  0
  1 20  1  0  0  0  0
  1 21  1  0  0  0  0
  1 22  1  0  0  0  0
  2  3  1  0  0  0  0
  2  4  1  0  0  0  0
  2  5  1  0  0  0  0
  3 23  1  0  0  0  0
  3 24  1  0  0  0  0
  3 25  1  0  0  0  0
  4 26  1  0  0  0  0
  4 27  1  0  0  0  0
  4 28  1  0  0  0  0
  5 19  1  0  0  0  0
  5  6  2  0  0  0  0
  6  7  1  0  0  0  0
  7  8  2  0  0  0  0
  7 29  1  0  0  0  0
  8  9  1  0  0  0  0
  8 18  1  0  0  0  0
  9 10  1  0  0  0  0
  9 30  1  0  0  0  0
 10 11  2  0  0  0  0
 10 12  1  0  0  0  0
 12 13  1  0  0  0  0
 12 31  1  0  0  0  0
 13 17  1  0  0  0  0
 13 14  1  0  0  0  0
 13 32  1  0  0  0  0
 14 15  1  0  0  0  0
 14 33  1  0  0  0  0
 14 34  1  0  0  0  0
 15 16  2  0  0  0  0
 15 35  1  0  0  0  0
 16 17  1  0  0  0  0
 16 36  1  0  0  0  0
 17 37  1  0  0  0  0
 17 38  1  0  0  0  0
 18 19  2  0  0  0  0
 18 39  1  0  0  0  0
M  END
> <s_m_source_file>
AV-unprocessed.smi

> <i_m_source_file_index>
2905

> <i_lp_mmshare_version>
43012

> <i_f3d_flags>
0

> <s_epik_input>
W0NIM11DKFtDSDNdKShbQ0gzXSljMW5bY0hdYyhbY0hdbjEpW05IXUMoPU8pW05IXVtDSF0yW0NIMl1bQ0hdPVtDSF1bQ0gyXTI=

> <s_epik_cmdline>
J2VwaWtfcHl0aG9uJywgJy1waCcsICc3LjAnLCAnLXRuJywgJzgnLCAnLW1hJywgJzIwMCcsICctbWV0YWxfYmluZGluZycsICctaW1hZScsICc8aW5maWxlLm1hZT4nLCAnLW9tYWUnLCAnPG91dGZpbGUubWFlPic=

> <r_lp_tautomer_probability>
1

> <r_epik_Ionization_Penalty>
2.65275e-05

> <r_epik_Ionization_Penalty_Charging>
0

> <r_epik_Ionization_Penalty_Neutral>
2.65275e-05

> <r_epik_State_Penalty>
-0

> <r_epik_Charging_Adjusted_Penalty>
0

> <i_epik_Tot_Q>
0

> <i_epik_Tot_abs_Q>
0

> <r_epik_Metal_State_Penalty>
-0

> <b_epik_Metal_Only>
0

> <s_lp_Force_Field>
OPLS_2005

> <r_lp_Energy>
27.7511

> <b_lp_Chiralities_Consistent>
1

> <s_lp_Variant>
AV-unprocessed.smi:2905-1

> <Gold.Version>
5.8.1

> <Gold.Id.Protein>
6NUR|6NUR_protein|mol2

> <Gold.PLP.Fitness>
40.6504

> <Gold.PLP.PLP>
-32.7569

> <Gold.PLP.part.hbond>
-2.6314

> <Gold.PLP.part.metal>
0.0000

> <Gold.PLP.part.buried>
-5.6979

> <Gold.PLP.part.nonpolar>
-25.6847

> <Gold.PLP.part.repulsive>
0.5142

> <Gold.PLP.ligand.clash>
0.0000

> <Gold.PLP.ligand.torsion>
0.0799

> <Gold.PLP.Chemscore.Hbond>
1.9913

> <Gold.PLP.Chemscore.CHOScore>
0.6913

> <Gold.PLP.Chemscore.Metal>
0.0000

> <Gold.Chemscore.Hbonds>
donor molecule, donor type, donor heavy atom, donor atom, acceptor molecule, acceptor atom, score
      L1  H     9    30       P1 10175  1.00
      L1  H    12    31       P1 10175  0.85
      L1  C    18    39       P1 10171  0.33

> <Gold.PLP.Chemscore.Internal.Correction>
0.0057

> <Gold.Rescore>
     Score         DG    S(hbond)    S(metal)    S(lipo)     H(rot)  DE(clash)    DE(int)     intcor
     14.18     -17.03       1.73        0.00      75.06       1.17       1.28       1.57       ----

> <Gold.Chemscore.Fitness>
14.1798

> <Gold.Chemscore.DG>
-17.0294

> <Gold.Chemscore.ZeroCoef>
-5.4800

> <Gold.Chemscore.Hbond>
1.7254

> <Gold.Chemscore.Metal>
0.0000

> <Gold.Chemscore.Lipo>
75.0562

> <Gold.Chemscore.Internal_Hbond>
0.0000

> <Gold.Chemscore.DEClash>
1.2778

> <Gold.Chemscore.DEInternal>
1.5718

> <Gold.Chemscore.Rot>
1.1699

> <Gold.Chemscore.Internal.Correction>
   9.000000E+99

> <Gold.Chemscore.Hbonds>
donor molecule, donor type, donor heavy atom, donor atom, acceptor molecule, acceptor atom, score
      L1  H     9    30       P1 10175  0.92
      L1  H    12    31       P1 10175  0.14

> <Gold.Chemscore.Hbond.Weighted>
-5.7627

> <Gold.Chemscore.Metal.Weighted>
-0.0000

> <Gold.Chemscore.Lipo.Weighted>
-8.7816

> <Gold.Chemscore.Internal_Hbond.Weighted>
0.0000

> <Gold.Chemscore.DEClash.Weighted>
1.2778

> <Gold.Chemscore.DEInternal.Weighted>
1.5718

> <Gold.Chemscore.Rot.Weighted>
2.9949

> <Gold.Chemscore.Internal.Correction.Weighted>
   9.000000E+99

> <Gold.Protein.RotatedTorsions>
[ 6907 6896 6895 6894 ] final   50.83 input  -60.11 | X-H torsion
[ 7974 7965 7964 7962 ] final -176.72 input  175.53 | X-H torsion
[ 8008 7997 7996 7995 ] final   17.37 input   59.86 | X-H torsion
[ 10167 10162 10161 10158 ] final   95.40 input  -65.29 | X-H torsion
[ 10718 10713 10712 10709 ] final -112.58 input   66.30 | X-H torsion
[ 10763 10752 10751 10750 ] final  -66.73 input  -60.55 | X-H torsion
[ 11005 11000 10999 10996 ] final  102.35 input  -57.11 | X-H torsion

> <Gold.Protein.ActiveResidues>
 VAL166  LYS551  ARG553  GLY616  TRP617  ASP618  TYR619  PRO620  LYS621  CYS622 
 ASP623  PHE694  ASN695  SER759  ASP760  ASP761  ALA762  ILE779  LEU786  VAL792 
 PHE793  MET794  SER795  GLU796  ALA797  LYS798  CYS799  TRP800  GLU811  SER814 

> <Gold.Protein.RotatedAtoms>
  152.3061  134.7554  160.0346 H   0  0  0  0  0  0  0  0  0  0  0  0  # atno 6907 bound_to 6896
  151.8050  133.3369  159.3546 H   0  0  0  0  0  0  0  0  0  0  0  0  # atno 6908 bound_to 6896
  150.7297  134.5647  159.5904 H   0  0  0  0  0  0  0  0  0  0  0  0  # atno 6909 bound_to 6896
  144.7127  140.1128  143.6410 H   0  0  0  0  0  0  0  0  0  0  0  0  # atno 7974 bound_to 7965
  154.8904  140.2986  155.5374 H   0  0  0  0  0  0  0  0  0  0  0  0  # atno 8008 bound_to 7997
  156.3021  140.2425  156.3854 H   0  0  0  0  0  0  0  0  0  0  0  0  # atno 8009 bound_to 7997
  154.8624  140.0405  157.1662 H   0  0  0  0  0  0  0  0  0  0  0  0  # atno 8010 bound_to 7997
  139.7992  144.6821  150.9788 H   0  0  0  0  0  0  0  0  0  0  0  0  # atno 10167 bound_to 10162
  156.0714  130.5927  150.8527 H   0  0  0  0  0  0  0  0  0  0  0  0  # atno 10718 bound_to 10713
  154.3641  135.6109  153.5706 H   0  0  0  0  0  0  0  0  0  0  0  0  # atno 10763 bound_to 10752
  152.9792  135.5822  154.4598 H   0  0  0  0  0  0  0  0  0  0  0  0  # atno 10764 bound_to 10752
  154.4341  135.2848  155.1870 H   0  0  0  0  0  0  0  0  0  0  0  0  # atno 10765 bound_to 10752
  139.8777  134.9220  156.5045 H   0  0  0  0  0  0  0  0  0  0  0  0  # atno 11005 bound_to 11000
  145.9440  139.2688  143.1252 LP  0  0  0  0  0  0  0  0  0  0  0  0  # atno 17320 bound_to 7965
  145.9394  140.8991  143.0316 LP  0  0  0  0  0  0  0  0  0  0  0  0  # atno 17321 bound_to 7965
  140.7820  143.4299  151.0710 LP  0  0  0  0  0  0  0  0  0  0  0  0  # atno 17342 bound_to 10162
  139.7972  143.8135  152.3159 LP  0  0  0  0  0  0  0  0  0  0  0  0  # atno 17343 bound_to 10162
  157.5787  131.0946  150.9306 LP  0  0  0  0  0  0  0  0  0  0  0  0  # atno 17370 bound_to 10713
  156.9506  130.5418  149.5282 LP  0  0  0  0  0  0  0  0  0  0  0  0  # atno 17371 bound_to 10713
  140.8565  133.8092  155.9221 LP  0  0  0  0  0  0  0  0  0  0  0  0  # atno 17394 bound_to 11000
  140.9092  134.2282  157.4996 LP  0  0  0  0  0  0  0  0  0  0  0  0  # atno 17395 bound_to 11000

$$$$
