AV-unprocessed.smi:1867|AV-procd|sdf|7571|dock4
  -GOLD-   22720 9283D 1   1.00000     0.00000
 Structure written by MMmdl.
 53 56  0  0  0  0  0  0  0  0  3 V2000
  146.4207  139.4084  153.7315 O   0  0  0  0  0  0  0  0  0  0  0  0
  147.2681  138.6402  153.2835 C   0  0  0  0  0  0  0  0  0  0  0  0
  148.5897  138.7201  153.5365 N   0  0  0  0  0  0  0  0  0  0  0  0
  149.2835  139.6427  154.3663 C   0  0  0  0  0  0  0  0  0  0  0  0
  150.4083  139.1699  155.0750 C   0  0  0  0  0  0  0  0  0  0  0  0
  151.1227  140.0422  155.9214 C   0  0  0  0  0  0  0  0  0  0  0  0
  150.6987  141.3842  156.0631 C   0  0  0  0  0  0  0  0  0  0  0  0
  151.3642  142.3124  156.8857 N   0  0  0  0  0  0  0  0  0  0  0  0
  150.9894  143.7173  156.9076 C   0  0  0  0  0  0  0  0  0  0  0  0
  151.8331  144.3226  158.0282 C   0  0  0  0  0  0  0  0  0  0  0  0
  151.9605  143.1713  159.0262 C   0  0  0  0  0  0  0  0  0  0  0  0
  151.9671  141.9131  158.1497 C   0  0  0  0  0  0  0  0  0  0  0  0
  149.6097  141.7934  155.3695 N   0  3  0  0  0  0  0  0  0  0  0  0
  148.8977  140.9927  154.5476 C   0  0  0  0  0  0  0  0  0  0  0  0
  146.9247  137.6416  152.4501 N   0  0  0  0  0  0  0  0  0  0  0  0
  145.5890  137.2770  151.9715 C   0  0  1  0  0  0  0  0  0  0  0  0
  145.5740  135.9654  151.1964 C   0  0  0  0  0  0  0  0  0  0  0  0
  144.0979  135.5578  151.2293 C   0  0  0  0  0  0  0  0  0  0  0  0
  143.5150  136.1580  152.4542 N   0  3  1  0  0  0  0  0  0  0  0  0
  142.8764  135.1706  153.3653 C   0  0  0  0  0  0  0  0  0  0  0  0
  142.6426  135.7786  154.7562 C   0  0  0  0  0  0  0  0  0  0  0  0
  143.9690  136.1868  155.4248 C   0  0  0  0  0  0  0  0  0  0  0  0
  145.0928  136.4381  154.4014 C   0  0  0  0  0  0  0  0  0  0  0  0
  144.5458  137.0345  153.0812 C   0  0  1  0  0  0  0  0  0  0  0  0
  149.1731  138.0610  153.0429 H   0  0  0  0  0  0  0  0  0  0  0  0
  150.7306  138.1442  154.9686 H   0  0  0  0  0  0  0  0  0  0  0  0
  151.9902  139.6722  156.4480 H   0  0  0  0  0  0  0  0  0  0  0  0
  151.1826  144.2023  155.9503 H   0  0  0  0  0  0  0  0  0  0  0  0
  149.9261  143.8074  157.1347 H   0  0  0  0  0  0  0  0  0  0  0  0
  152.8195  144.5888  157.6461 H   0  0  0  0  0  0  0  0  0  0  0  0
  151.3861  145.2180  158.4607 H   0  0  0  0  0  0  0  0  0  0  0  0
  152.8457  143.2514  159.6577 H   0  0  0  0  0  0  0  0  0  0  0  0
  151.0857  143.1574  159.6776 H   0  0  0  0  0  0  0  0  0  0  0  0
  151.4210  141.1010  158.6309 H   0  0  0  0  0  0  0  0  0  0  0  0
  152.9878  141.5778  157.9626 H   0  0  0  0  0  0  0  0  0  0  0  0
  148.0477  141.4685  154.0826 H   0  0  0  0  0  0  0  0  0  0  0  0
  147.6848  137.0809  152.0917 H   0  0  0  0  0  0  0  0  0  0  0  0
  145.2200  138.0553  151.3002 H   0  0  0  0  0  0  0  0  0  0  0  0
  145.9608  136.0659  150.1816 H   0  0  0  0  0  0  0  0  0  0  0  0
  146.1749  135.2140  151.7115 H   0  0  0  0  0  0  0  0  0  0  0  0
  143.5754  135.9791  150.3699 H   0  0  0  0  0  0  0  0  0  0  0  0
  143.9790  134.4745  151.1814 H   0  0  0  0  0  0  0  0  0  0  0  0
  141.9339  134.8410  152.9269 H   0  0  0  0  0  0  0  0  0  0  0  0
  143.5063  134.2846  153.4628 H   0  0  0  0  0  0  0  0  0  0  0  0
  141.9999  136.6543  154.6560 H   0  0  0  0  0  0  0  0  0  0  0  0
  142.1040  135.0779  155.3950 H   0  0  0  0  0  0  0  0  0  0  0  0
  143.8025  137.0820  156.0251 H   0  0  0  0  0  0  0  0  0  0  0  0
  144.2920  135.4120  156.1209 H   0  0  0  0  0  0  0  0  0  0  0  0
  145.8401  137.0920  154.8513 H   0  0  0  0  0  0  0  0  0  0  0  0
  145.6031  135.4978  154.1874 H   0  0  0  0  0  0  0  0  0  0  0  0
  144.0684  137.9842  153.3270 H   0  0  0  0  0  0  0  0  0  0  0  0
  142.7798  136.7762  152.1420 H   0  0  0  0  0  0  0  0  0  0  0  0
  149.3063  142.7615  155.4759 H   0  0  0  0  0  0  0  0  0  0  0  0
  1  2  2  0  0  0  0
  2  3  1  0  0  0  0
  2 15  1  0  0  0  0
  3  4  1  0  0  0  0
  3 25  1  0  0  0  0
  4 14  1  0  0  0  0
  4  5  2  0  0  0  0
  5  6  1  0  0  0  0
  5 26  1  0  0  0  0
  6  7  2  0  0  0  0
  6 27  1  0  0  0  0
  7  8  1  0  0  0  0
  7 13  1  0  0  0  0
  8 12  1  0  0  0  0
  8  9  1  0  0  0  0
  9 10  1  0  0  0  0
  9 28  1  0  0  0  0
  9 29  1  0  0  0  0
 10 11  1  0  0  0  0
 10 30  1  0  0  0  0
 10 31  1  0  0  0  0
 11 12  1  0  0  0  0
 11 32  1  0  0  0  0
 11 33  1  0  0  0  0
 12 34  1  0  0  0  0
 12 35  1  0  0  0  0
 13 14  2  0  0  0  0
 13 53  1  0  0  0  0
 14 36  1  0  0  0  0
 15 16  1  0  0  0  0
 15 37  1  0  0  0  0
 16 24  1  0  0  0  0
 16 17  1  0  0  0  0
 16 38  1  0  0  0  0
 17 18  1  0  0  0  0
 17 39  1  0  0  0  0
 17 40  1  0  0  0  0
 18 19  1  0  0  0  0
 18 41  1  0  0  0  0
 18 42  1  0  0  0  0
 19 24  1  0  0  0  0
 19 20  1  0  0  0  0
 19 52  1  0  0  0  0
 20 21  1  0  0  0  0
 20 43  1  0  0  0  0
 20 44  1  0  0  0  0
 21 22  1  0  0  0  0
 21 45  1  0  0  0  0
 21 46  1  0  0  0  0
 22 23  1  0  0  0  0
 22 47  1  0  0  0  0
 22 48  1  0  0  0  0
 23 24  1  0  0  0  0
 23 49  1  0  0  0  0
 23 50  1  0  0  0  0
 24 51  1  0  0  0  0
M  CHG  1  13   1
M  CHG  1  19   1
M  END
> <s_m_source_file>
AV-unprocessed.smi

> <i_m_source_file_index>
1867

> <i_lp_mmshare_version>
43012

> <i_f3d_flags>
0

> <s_epik_input>
W0NIMl0xW0NIMl1bQ0gyXVtDSDJdW0NASF0oTjEyKVtDQEBIXShbQ0gyXVtDSDJdMilbTkhdQyg9TylbTkhdYzNbY0hdW2NIXWMobltjSF0zKU40W0NIMl1bQ0gyXVtDSDJdW0NIMl00

> <s_epik_cmdline>
J2VwaWtfcHl0aG9uJywgJy1waCcsICc3LjAnLCAnLXRuJywgJzgnLCAnLW1hJywgJzIwMCcsICctbWV0YWxfYmluZGluZycsICctaW1hZScsICc8aW5maWxlLm1hZT4nLCAnLW9tYWUnLCAnPG91dGZpbGUubWFlPic=

> <r_lp_tautomer_probability>
0.999994

> <r_epik_Ionization_Penalty>
1.27347

> <r_epik_Ionization_Penalty_Charging>
1.27345

> <r_epik_Ionization_Penalty_Neutral>
1.96458e-05

> <r_epik_State_Penalty>
1.34393

> <r_epik_Charging_Adjusted_Penalty>
2.61738

> <i_epik_Tot_Q>
2

> <i_epik_Tot_abs_Q>
2

> <r_epik_Metal_State_Penalty>
1.41094

> <b_epik_Metal_Only>
0

> <s_lp_Force_Field>
OPLS_2005

> <r_lp_Energy>
85.1711

> <b_lp_Chiralities_Consistent>
1

> <s_lp_Variant>
AV-unprocessed.smi:1867-12

> <Gold.Version>
5.8.1

> <Gold.Id.Protein>
6NUR|6NUR_protein|mol2

> <Gold.PLP.Fitness>
51.1519

> <Gold.PLP.PLP>
-41.4445

> <Gold.PLP.part.hbond>
-3.9768

> <Gold.PLP.part.metal>
0.0000

> <Gold.PLP.part.buried>
-1.2473

> <Gold.PLP.part.nonpolar>
-38.6162

> <Gold.PLP.part.repulsive>
0.5076

> <Gold.PLP.ligand.clash>
0.0000

> <Gold.PLP.ligand.torsion>
0.5517

> <Gold.PLP.Chemscore.Hbond>
3.5373

> <Gold.PLP.Chemscore.CHOScore>
0.0000

> <Gold.PLP.Chemscore.Metal>
0.0000

> <Gold.Chemscore.Hbonds>
donor molecule, donor type, donor heavy atom, donor atom, acceptor molecule, acceptor atom, score
      L1  H     3    25       P1  7948  0.55
      L1  H    13    53       P1  8028  2.00
      L1  H    15    37       P1  7948  0.99

> <Gold.PLP.Chemscore.Internal.Correction>
0.1990

> <Gold.Rescore>
     Score         DG    S(hbond)    S(metal)    S(lipo)     H(rot)  DE(clash)    DE(int)     intcor
     19.33     -22.99       2.43        0.00     102.09       1.00       2.30       1.35       ----

> <Gold.Chemscore.Fitness>
19.3340

> <Gold.Chemscore.DG>
-22.9883

> <Gold.Chemscore.ZeroCoef>
-5.4800

> <Gold.Chemscore.Hbond>
2.4322

> <Gold.Chemscore.Metal>
0.0000

> <Gold.Chemscore.Lipo>
102.0927

> <Gold.Chemscore.Internal_Hbond>
0.0000

> <Gold.Chemscore.DEClash>
2.3045

> <Gold.Chemscore.DEInternal>
1.3499

> <Gold.Chemscore.Rot>
1.0000

> <Gold.Chemscore.Internal.Correction>
   9.000000E+99

> <Gold.Chemscore.Hbonds>
donor molecule, donor type, donor heavy atom, donor atom, acceptor molecule, acceptor atom, score
      L1  H     3    25       P1  7948  0.54
      L1  H    13    53       P1  8028  0.95
      L1  H    15    37       P1  7948  0.92

> <Gold.Chemscore.Hbond.Weighted>
-8.1235

> <Gold.Chemscore.Metal.Weighted>
-0.0000

> <Gold.Chemscore.Lipo.Weighted>
-11.9448

> <Gold.Chemscore.Internal_Hbond.Weighted>
0.0000

> <Gold.Chemscore.DEClash.Weighted>
2.3045

> <Gold.Chemscore.DEInternal.Weighted>
1.3499

> <Gold.Chemscore.Rot.Weighted>
2.5600

> <Gold.Chemscore.Internal.Correction.Weighted>
   9.000000E+99

> <Gold.Protein.RotatedTorsions>
[ 6907 6896 6895 6894 ] final  -94.17 input  -60.11 | X-H torsion
[ 7974 7965 7964 7962 ] final  -94.92 input  175.53 | X-H torsion
[ 8008 7997 7996 7995 ] final   73.01 input   59.86 | X-H torsion
[ 10167 10162 10161 10158 ] final   87.16 input  -65.29 | X-H torsion
[ 10718 10713 10712 10709 ] final   91.25 input   66.30 | X-H torsion
[ 10763 10752 10751 10750 ] final  -93.94 input  -60.55 | X-H torsion
[ 11005 11000 10999 10996 ] final -131.42 input  -57.11 | X-H torsion

> <Gold.Protein.ActiveResidues>
 VAL166  LYS551  ARG553  GLY616  TRP617  ASP618  TYR619  PRO620  LYS621  CYS622 
 ASP623  PHE694  ASN695  SER759  ASP760  ASP761  ALA762  ILE779  LEU786  VAL792 
 PHE793  MET794  SER795  GLU796  ALA797  LYS798  CYS799  TRP800  GLU811  SER814 

> <Gold.Protein.RotatedAtoms>
  150.6936  134.1853  159.4264 H   0  0  0  0  0  0  0  0  0  0  0  0  # atno 6907 bound_to 6896
  151.9826  135.0018  160.0567 H   0  0  0  0  0  0  0  0  0  0  0  0  # atno 6908 bound_to 6896
  152.1741  133.4628  159.4961 H   0  0  0  0  0  0  0  0  0  0  0  0  # atno 6909 bound_to 6896
  145.3668  140.9500  143.2469 H   0  0  0  0  0  0  0  0  0  0  0  0  # atno 7974 bound_to 7965
  155.7773  140.3483  155.5278 H   0  0  0  0  0  0  0  0  0  0  0  0  # atno 8008 bound_to 7997
  155.8763  140.0995  157.1537 H   0  0  0  0  0  0  0  0  0  0  0  0  # atno 8009 bound_to 7997
  154.4021  140.1331  156.4128 H   0  0  0  0  0  0  0  0  0  0  0  0  # atno 8010 bound_to 7997
  139.8802  144.6444  150.8851 H   0  0  0  0  0  0  0  0  0  0  0  0  # atno 10167 bound_to 10162
  157.6960  131.0400  150.3701 H   0  0  0  0  0  0  0  0  0  0  0  0  # atno 10718 bound_to 10713
  154.7007  135.5176  153.8523 H   0  0  0  0  0  0  0  0  0  0  0  0  # atno 10763 bound_to 10752
  153.0702  135.6598  154.0274 H   0  0  0  0  0  0  0  0  0  0  0  0  # atno 10764 bound_to 10752
  154.0133  135.3000  155.3369 H   0  0  0  0  0  0  0  0  0  0  0  0  # atno 10765 bound_to 10752
  140.9260  134.1382  157.4275 H   0  0  0  0  0  0  0  0  0  0  0  0  # atno 11005 bound_to 11000
  144.8605  139.5184  143.6814 LP  0  0  0  0  0  0  0  0  0  0  0  0  # atno 17320 bound_to 7965
  146.2903  139.7120  142.9166 LP  0  0  0  0  0  0  0  0  0  0  0  0  # atno 17321 bound_to 7965
  140.7746  143.3592  151.1862 LP  0  0  0  0  0  0  0  0  0  0  0  0  # atno 17342 bound_to 10162
  139.7203  143.9234  152.2982 LP  0  0  0  0  0  0  0  0  0  0  0  0  # atno 17343 bound_to 10162
  156.4126  130.3937  149.6880 LP  0  0  0  0  0  0  0  0  0  0  0  0  # atno 17370 bound_to 10713
  156.4159  130.7745  151.2760 LP  0  0  0  0  0  0  0  0  0  0  0  0  # atno 17371 bound_to 10713
  139.8785  134.9988  156.5921 LP  0  0  0  0  0  0  0  0  0  0  0  0  # atno 17394 bound_to 11000
  140.7926  133.8570  155.8658 LP  0  0  0  0  0  0  0  0  0  0  0  0  # atno 17395 bound_to 11000

$$$$
