#       Name:                AV-unprocessed.smi:2499
#       Creating user name   scv26
#       Creation time:       Fri Mar 27 13:46:31 2020


#       File generated by GOLD software.
#

@<TRIPOS>MOLECULE
AV-unprocessed.smi:2499
    32    33     1
SMALL
NO_CHARGES


@<TRIPOS>ATOM
      1 ****        -2.0437  -1.6982   1.6149 C.3            1 S1                 0.0000
      2 ****        -1.5583  -0.8493   0.4319 C.3            1 S1                 0.0000
      3 ****        -0.1069  -0.7182   0.5173 N.am           1 S1                 0.0000
      4 ****         0.6230   0.2858   0.0075 C.2            1 S1                 0.0000
      5 ****         0.1002   1.2334  -0.5875 O.2            1 S1                 0.0000
      6 ****         1.9670   0.0883   0.2835 N.2            1 S1                 0.0000
      7 ****         2.7578   1.1156   0.3222 C.2            1 S1                 0.0000
      8 ****         4.1234   1.1257   0.5573 N.pl3          1 S1                 0.0000
      9 ****         4.5518   2.4239   0.5199 C.2            1 S1                 0.0000
     10 ****         3.5004   3.2001   0.2733 C.2            1 S1                 0.0000
     11 ****         2.3846   2.4288   0.1476 O.3            1 S1                 0.0000
     12 ****        -2.0354  -1.4357  -0.8865 C.3            1 S1                 0.0000
     13 ****        -2.3589  -0.5545  -2.0701 C.3            1 S1                 0.0000
     14 ****        -3.4681  -1.2723  -1.3365 C.3            1 S1                 0.0000
     15 ****        -3.1311  -1.7778   1.6214 H              1 S1                 0.0000
     16 ****        -1.7425  -1.2574   2.5659 H              1 S1                 0.0000
     17 ****        -1.6368  -2.7092   1.5719 H              1 S1                 0.0000
     18 ****        -2.0042   0.1411   0.5425 H              1 S1                 0.0000
     19 ****         0.3858  -1.4554   1.0006 H              1 S1                 0.0000
     20 ****         4.7340   0.3403   0.7307 H              1 S1                 0.0000
     21 ****         5.5937   2.6605   0.6789 H              1 S1                 0.0000
     22 ****         3.3862   4.2683   0.1630 H              1 S1                 0.0000
     23 ****        -1.5814  -2.3967  -1.1215 H              1 S1                 0.0000
     24 ****        -2.2885   0.5234  -1.9381 H              1 S1                 0.0000
     25 ****        -2.0855  -0.9218  -3.0571 H              1 S1                 0.0000
     26 ****        -3.9369  -2.1182  -1.8351 H              1 S1                 0.0000
     27 ****        -4.1298  -0.6701  -0.7171 H              1 S1                 0.0000
     28 ****        -0.8929   1.2666  -0.6999 LP             1 S1                 0.0000
     29 ****         0.6700   1.9675  -0.9569 LP             1 S1                 0.0000
     30 ****         2.3213  -0.8319   0.4501 LP             1 S1                 0.0000
     31 ****         1.7130   2.6866   0.8422 LP             1 S1                 0.0000
     32 ****         1.9873   2.5513  -0.7619 LP             1 S1                 0.0000
@<TRIPOS>BOND
    1    1    2 1     
    2    1   15 1     
    3    1   16 1     
    4    1   17 1     
    5    2    3 1     
    6    2   12 1     
    7    2   18 1     
    8    3   19 1     
    9    3    4 am    
   10    4    6 1     
   11    4    5 2     
   12    6    7 2     
   13    7   11 1     
   14    7    8 1     
   15    8   20 1     
   16    8    9 1     
   17    9   21 1     
   18    9   10 2     
   19   10   22 1     
   20   10   11 1     
   21   12   14 1     
   22   12   13 1     
   23   12   23 1     
   24   13   14 1     
   25   13   24 1     
   26   13   25 1     
   27   14   26 1     
   28   14   27 1     
   29    5   28 1     
   30    5   29 1     
   31    6   30 1     
   32   11   31 1     
   33   11   32 1     
@<TRIPOS>SUBSTRUCTURE
      1 S1             1
@<TRIPOS>SET
LONE_PAIRS      STATIC     ATOMS    <user>   **** ""
5 28 29 30 31 32
DONOR_HYDROGENS      STATIC     ATOMS    <user>   **** ""
2 19 20
ATOM$BLUE        STATIC     ATOMS    COLORGROUP SYSTEM
5 28 29 30 31 32
ATOM$RED        STATIC     ATOMS    COLORGROUP SYSTEM
2 19 20
