AV-unprocessed.smi:2423|AV-procd|sdf|9558|dock2
  -GOLD-   2272013193D 1   1.00000     0.00000
 Structure written by MMmdl.
 37 39  0  0  0  0  0  0  0  0  1 V2000
  144.4563  136.6392  152.1285 O   0  0  0  0  0  0  0  0  0  0  0  0
  145.6722  136.4905  152.0292 C   0  0  0  0  0  0  0  0  0  0  0  0
  146.5244  137.4408  152.4503 N   0  0  0  0  0  0  0  0  0  0  0  0
  146.1902  138.7374  153.0408 C   0  0  0  0  0  0  0  0  0  0  0  0
  146.9869  139.0097  154.3306 C   0  0  0  0  0  0  0  0  0  0  0  0
  148.1215  139.9756  153.9741 C   0  0  0  0  0  0  0  0  0  0  0  0
  148.7467  140.9575  154.9378 C   0  0  0  0  0  0  0  0  0  0  0  0
  147.8742  141.4529  153.8000 C   0  0  0  0  0  0  0  0  0  0  0  0
  146.0947  139.3478  155.5511 C   0  0  0  0  0  0  0  0  0  0  0  0
  146.1185  137.8727  155.9487 C   0  0  0  0  0  0  0  0  0  0  0  0
  147.4074  137.7607  155.1363 C   0  0  0  0  0  0  0  0  0  0  0  0
  146.2782  135.3963  151.5274 N   0  0  0  0  0  0  0  0  0  0  0  0
  145.6992  134.2103  150.9989 C   0  0  0  0  0  0  0  0  0  0  0  0
  144.4269  134.1497  150.3802 C   0  0  0  0  0  0  0  0  0  0  0  0
  143.9776  132.9104  149.8820 C   0  0  0  0  0  0  0  0  0  0  0  0
  144.7000  131.7724  149.9549 N   0  0  0  0  0  0  0  0  0  0  0  0
  145.9174  131.8365  150.5343 C   0  0  0  0  0  0  0  0  0  0  0  0
  146.4604  133.0241  151.0643 C   0  0  0  0  0  0  0  0  0  0  0  0
  147.6922  133.0201  151.6296 F   0  0  0  0  0  0  0  0  0  0  0  0
  147.5099  137.2385  152.3618 H   0  0  0  0  0  0  0  0  0  0  0  0
  146.3817  139.5252  152.3102 H   0  0  0  0  0  0  0  0  0  0  0  0
  145.1174  138.7595  153.2388 H   0  0  0  0  0  0  0  0  0  0  0  0
  148.8428  139.5391  153.2858 H   0  0  0  0  0  0  0  0  0  0  0  0
  148.3532  141.0389  155.9472 H   0  0  0  0  0  0  0  0  0  0  0  0
  149.8183  141.1258  154.8514 H   0  0  0  0  0  0  0  0  0  0  0  0
  148.3652  141.9469  152.9643 H   0  0  0  0  0  0  0  0  0  0  0  0
  146.8893  141.8382  154.0559 H   0  0  0  0  0  0  0  0  0  0  0  0
  146.5672  139.9738  156.3067 H   0  0  0  0  0  0  0  0  0  0  0  0
  145.1037  139.7278  155.3009 H   0  0  0  0  0  0  0  0  0  0  0  0
  146.2345  137.6879  157.0170 H   0  0  0  0  0  0  0  0  0  0  0  0
  145.2933  137.2999  155.5230 H   0  0  0  0  0  0  0  0  0  0  0  0
  147.4972  136.8412  154.5569 H   0  0  0  0  0  0  0  0  0  0  0  0
  148.2971  137.9287  155.7459 H   0  0  0  0  0  0  0  0  0  0  0  0
  147.2863  135.3913  151.5808 H   0  0  0  0  0  0  0  0  0  0  0  0
  143.7969  135.0180  150.2671 H   0  0  0  0  0  0  0  0  0  0  0  0
  143.0115  132.8330  149.4053 H   0  0  0  0  0  0  0  0  0  0  0  0
  146.4774  130.9138  150.5749 H   0  0  0  0  0  0  0  0  0  0  0  0
  1  2  2  0  0  0  0
  2  3  1  0  0  0  0
  2 12  1  0  0  0  0
  3  4  1  0  0  0  0
  3 20  1  0  0  0  0
  4  5  1  0  0  0  0
  4 21  1  0  0  0  0
  4 22  1  0  0  0  0
  5 11  1  0  0  0  0
  5  6  1  0  0  0  0
  5  9  1  0  0  0  0
  6  8  1  0  0  0  0
  6  7  1  0  0  0  0
  6 23  1  0  0  0  0
  7  8  1  0  0  0  0
  7 24  1  0  0  0  0
  7 25  1  0  0  0  0
  8 26  1  0  0  0  0
  8 27  1  0  0  0  0
  9 10  1  0  0  0  0
  9 28  1  0  0  0  0
  9 29  1  0  0  0  0
 10 11  1  0  0  0  0
 10 30  1  0  0  0  0
 10 31  1  0  0  0  0
 11 32  1  0  0  0  0
 11 33  1  0  0  0  0
 12 13  1  0  0  0  0
 12 34  1  0  0  0  0
 13 18  1  0  0  0  0
 13 14  2  0  0  0  0
 14 15  1  0  0  0  0
 14 35  1  0  0  0  0
 15 16  2  0  0  0  0
 15 36  1  0  0  0  0
 16 17  1  0  0  0  0
 17 18  2  0  0  0  0
 17 37  1  0  0  0  0
 18 19  1  0  0  0  0
M  END
> <s_m_source_file>
AV-unprocessed.smi

> <i_m_source_file_index>
2423

> <i_lp_mmshare_version>
43012

> <i_f3d_flags>
0

> <s_epik_input>
W0NIMl0xW0NIMl1bQ0hdMUMyKFtDSDJdW0NIMl1bQ0gyXTIpW0NIMl1bTkhdQyg9TylbTkhdYzNbY0hdW2NIXW5bY0hdYzNG

> <s_epik_cmdline>
J2VwaWtfcHl0aG9uJywgJy1waCcsICc3LjAnLCAnLXRuJywgJzgnLCAnLW1hJywgJzIwMCcsICctbWV0YWxfYmluZGluZycsICctaW1hZScsICc8aW5maWxlLm1hZT4nLCAnLW9tYWUnLCAnPG91dGZpbGUubWFlPic=

> <r_epik_Ionization_Penalty>
0.00332314

> <r_epik_Ionization_Penalty_Charging>
0

> <r_epik_Ionization_Penalty_Neutral>
0.00332314

> <r_epik_State_Penalty>
0.00231995

> <r_epik_Charging_Adjusted_Penalty>
0.00231995

> <i_epik_Tot_Q>
0

> <i_epik_Tot_abs_Q>
0

> <r_epik_Metal_State_Penalty>
-0

> <b_epik_Metal_Only>
0

> <s_lp_Force_Field>
OPLS_2005

> <r_lp_Energy>
40.5055

> <b_lp_Chiralities_Consistent>
1

> <s_lp_Variant>
AV-unprocessed.smi:2423-1

> <Gold.Version>
5.8.1

> <Gold.Id.Protein>
6NUR|6NUR_protein|mol2

> <Gold.PLP.Fitness>
36.5992

> <Gold.PLP.PLP>
-27.1798

> <Gold.PLP.part.hbond>
-2.5469

> <Gold.PLP.part.metal>
0.0000

> <Gold.PLP.part.buried>
-0.8650

> <Gold.PLP.part.nonpolar>
-24.4364

> <Gold.PLP.part.repulsive>
1.0396

> <Gold.PLP.ligand.clash>
0.0000

> <Gold.PLP.ligand.torsion>
1.8632

> <Gold.PLP.Chemscore.Hbond>
2.0000

> <Gold.PLP.Chemscore.CHOScore>
1.8088

> <Gold.PLP.Chemscore.Metal>
0.0000

> <Gold.Chemscore.Hbonds>
donor molecule, donor type, donor heavy atom, donor atom, acceptor molecule, acceptor atom, score
      L1  H     3    20       P1  7948  1.00
      L1  H    12    34       P1  7948  1.00
      L1  C    15    36       P1 10186  0.92
      L1  C    17    37       P1 10747  0.85

> <Gold.PLP.Chemscore.Internal.Correction>
1.7194

> <Gold.Rescore>
     Score         DG    S(hbond)    S(metal)    S(lipo)     H(rot)  DE(clash)    DE(int)     intcor
     14.47     -16.95       1.96        0.00      72.54       1.40       0.58       1.89       ----

> <Gold.Chemscore.Fitness>
14.4726

> <Gold.Chemscore.DG>
-16.9453

> <Gold.Chemscore.ZeroCoef>
-5.4800

> <Gold.Chemscore.Hbond>
1.9639

> <Gold.Chemscore.Metal>
0.0000

> <Gold.Chemscore.Lipo>
72.5390

> <Gold.Chemscore.Internal_Hbond>
0.0000

> <Gold.Chemscore.DEClash>
0.5818

> <Gold.Chemscore.DEInternal>
1.8909

> <Gold.Chemscore.Rot>
1.3990

> <Gold.Chemscore.Internal.Correction>
   9.000000E+99

> <Gold.Chemscore.Hbonds>
donor molecule, donor type, donor heavy atom, donor atom, acceptor molecule, acceptor atom, score
      L1  H     3    20       P1  7948  0.98
      L1  H    12    34       P1  7948  0.93

> <Gold.Chemscore.Hbond.Weighted>
-6.5596

> <Gold.Chemscore.Metal.Weighted>
-0.0000

> <Gold.Chemscore.Lipo.Weighted>
-8.4871

> <Gold.Chemscore.Internal_Hbond.Weighted>
0.0000

> <Gold.Chemscore.DEClash.Weighted>
0.5818

> <Gold.Chemscore.DEInternal.Weighted>
1.8909

> <Gold.Chemscore.Rot.Weighted>
3.5814

> <Gold.Chemscore.Internal.Correction.Weighted>
   9.000000E+99

> <Gold.Protein.RotatedTorsions>
[ 6907 6896 6895 6894 ] final -153.38 input  -60.11 | X-H torsion
[ 7974 7965 7964 7962 ] final  150.92 input  175.53 | X-H torsion
[ 8008 7997 7996 7995 ] final  134.42 input   59.86 | X-H torsion
[ 10167 10162 10161 10158 ] final  -41.07 input  -65.29 | X-H torsion
[ 10718 10713 10712 10709 ] final   80.45 input   66.30 | X-H torsion
[ 10763 10752 10751 10750 ] final  102.09 input  -60.55 | X-H torsion
[ 11005 11000 10999 10996 ] final   71.89 input  -57.11 | X-H torsion

> <Gold.Protein.ActiveResidues>
 VAL166  LYS551  ARG553  GLY616  TRP617  ASP618  TYR619  PRO620  LYS621  CYS622 
 ASP623  PHE694  ASN695  SER759  ASP760  ASP761  ALA762  ILE779  LEU786  VAL792 
 PHE793  MET794  SER795  GLU796  ALA797  LYS798  CYS799  TRP800  GLU811  SER814 

> <Gold.Protein.RotatedAtoms>
  151.2417  133.4396  159.2607 H   0  0  0  0  0  0  0  0  0  0  0  0  # atno 6907 bound_to 6896
  151.0699  134.9791  159.8313 H   0  0  0  0  0  0  0  0  0  0  0  0  # atno 6908 bound_to 6896
  152.5410  134.2363  159.8897 H   0  0  0  0  0  0  0  0  0  0  0  0  # atno 6909 bound_to 6896
  144.8330  139.6470  143.6050 H   0  0  0  0  0  0  0  0  0  0  0  0  # atno 7974 bound_to 7965
  156.2999  140.2496  156.3414 H   0  0  0  0  0  0  0  0  0  0  0  0  # atno 8008 bound_to 7997
  154.9051  140.0405  157.1934 H   0  0  0  0  0  0  0  0  0  0  0  0  # atno 8009 bound_to 7997
  154.8461  140.2898  155.5632 H   0  0  0  0  0  0  0  0  0  0  0  0  # atno 8010 bound_to 7997
  140.7014  143.3116  151.3014 H   0  0  0  0  0  0  0  0  0  0  0  0  # atno 10167 bound_to 10162
  157.6806  130.9960  150.2081 H   0  0  0  0  0  0  0  0  0  0  0  0  # atno 10718 bound_to 10713
  153.3350  135.4022  155.1526 H   0  0  0  0  0  0  0  0  0  0  0  0  # atno 10763 bound_to 10752
  154.8631  135.3620  154.5420 H   0  0  0  0  0  0  0  0  0  0  0  0  # atno 10764 bound_to 10752
  153.5861  135.7075  153.5502 H   0  0  0  0  0  0  0  0  0  0  0  0  # atno 10765 bound_to 10752
  139.9519  134.7211  156.0842 H   0  0  0  0  0  0  0  0  0  0  0  0  # atno 11005 bound_to 11000
  146.2631  139.6456  142.9348 LP  0  0  0  0  0  0  0  0  0  0  0  0  # atno 17320 bound_to 7965
  145.4855  141.0438  143.2622 LP  0  0  0  0  0  0  0  0  0  0  0  0  # atno 17321 bound_to 7965
  139.6541  144.0309  152.2647 LP  0  0  0  0  0  0  0  0  0  0  0  0  # atno 17342 bound_to 10162
  139.9855  144.6398  150.7862 LP  0  0  0  0  0  0  0  0  0  0  0  0  # atno 17343 bound_to 10162
  156.2758  130.3727  149.7985 LP  0  0  0  0  0  0  0  0  0  0  0  0  # atno 17370 bound_to 10713
  156.5688  130.8416  151.3350 LP  0  0  0  0  0  0  0  0  0  0  0  0  # atno 17371 bound_to 10713
  141.1184  133.6620  156.3152 LP  0  0  0  0  0  0  0  0  0  0  0  0  # atno 17394 bound_to 11000
  140.5698  134.5851  157.5455 LP  0  0  0  0  0  0  0  0  0  0  0  0  # atno 17395 bound_to 11000

$$$$
