AV-unprocessed.smi:50|AV-procd|sdf|497|dock4
  -GOLD-   2262016363D 1   1.00000     0.00000
 Structure written by MMmdl.
 42 43  0  0  0  0  0  0  0  0  2 V2000
  145.6207  133.0857  150.1977 C   0  0  0  0  0  0  0  0  0  0  0  0
  145.6504  134.1281  151.3291 C   0  0  0  0  0  0  0  0  0  0  0  0
  145.2604  133.4740  152.6693 C   0  0  0  0  0  0  0  0  0  0  0  0
  144.8356  135.4011  150.9662 C   0  0  2  0  0  0  0  0  0  0  0  0
  145.3715  136.0361  149.7612 N   0  0  0  0  0  0  0  0  0  0  0  0
  144.6564  136.3919  152.1331 C   0  0  0  0  0  0  0  0  0  0  0  0
  143.5564  136.7395  152.5635 O   0  0  0  0  0  0  0  0  0  0  0  0
  145.8427  136.8055  152.6183 O   0  0  0  0  0  0  0  0  0  0  0  0
  145.8839  137.8299  153.5974 C   0  0  0  0  0  0  0  0  0  0  0  0
  146.5200  139.0837  152.9926 C   0  0  0  0  0  0  0  0  0  0  0  0
  147.0995  139.8474  154.0367 O   0  0  0  0  0  0  0  0  0  0  0  0
  147.9500  140.8405  153.5699 C   0  0  0  0  0  0  0  0  0  0  0  0
  149.1553  140.8036  154.3736 N   0  0  0  0  0  0  0  0  0  0  0  0
  149.7374  141.8351  155.0153 C   0  0  0  0  0  0  0  0  0  0  0  0
  150.8463  141.5349  155.6906 N   0  0  0  0  0  0  0  0  0  0  0  0
  150.9752  140.1720  155.4460 C   0  0  0  0  0  0  0  0  0  0  0  0
  151.9871  139.1813  155.8861 C   0  0  0  0  0  0  0  0  0  0  0  0
  152.9172  139.5523  156.5999 O   0  0  0  0  0  0  0  0  0  0  0  0
  151.7886  137.9020  155.4444 N   0  5  0  0  0  0  0  0  0  0  0  0
  150.6912  137.5950  154.6273 C   0  0  0  0  0  0  0  0  0  0  0  0
  150.6464  136.2647  154.2716 N   0  0  0  0  0  0  0  0  0  0  0  0
  149.7628  138.4158  154.2002 N   0  0  0  0  0  0  0  0  0  0  0  0
  149.9626  139.7074  154.6509 C   0  0  0  0  0  0  0  0  0  0  0  0
  143.8368  135.0559  150.6970 H   0  0  0  0  0  0  0  0  0  0  0  0
  144.6214  132.6737  150.0542 H   0  0  0  0  0  0  0  0  0  0  0  0
  146.2908  132.2538  150.4155 H   0  0  0  0  0  0  0  0  0  0  0  0
  145.9396  133.5227  149.2512 H   0  0  0  0  0  0  0  0  0  0  0  0
  146.6916  134.4403  151.4249 H   0  0  0  0  0  0  0  0  0  0  0  0
  144.2667  133.0277  152.6306 H   0  0  0  0  0  0  0  0  0  0  0  0
  145.2729  134.1965  153.4855 H   0  0  0  0  0  0  0  0  0  0  0  0
  145.9607  132.6799  152.9294 H   0  0  0  0  0  0  0  0  0  0  0  0
  145.4359  135.3824  148.9942 H   0  0  0  0  0  0  0  0  0  0  0  0
  144.7777  136.7895  149.4449 H   0  0  0  0  0  0  0  0  0  0  0  0
  144.8744  138.0540  153.9451 H   0  0  0  0  0  0  0  0  0  0  0  0
  146.4630  137.4929  154.4583 H   0  0  0  0  0  0  0  0  0  0  0  0
  147.2838  138.8027  152.2657 H   0  0  0  0  0  0  0  0  0  0  0  0
  145.7628  139.6705  152.4700 H   0  0  0  0  0  0  0  0  0  0  0  0
  148.2165  140.6645  152.5265 H   0  0  0  0  0  0  0  0  0  0  0  0
  147.4892  141.8247  153.6680 H   0  0  0  0  0  0  0  0  0  0  0  0
  149.3356  142.8371  154.9860 H   0  0  0  0  0  0  0  0  0  0  0  0
  151.3308  135.5850  154.5682 H   0  0  0  0  0  0  0  0  0  0  0  0
  149.9211  135.8751  153.6876 H   0  0  0  0  0  0  0  0  0  0  0  0
  1  2  1  0  0  0  0
  1 25  1  0  0  0  0
  1 26  1  0  0  0  0
  1 27  1  0  0  0  0
  2  3  1  0  0  0  0
  2  4  1  0  0  0  0
  2 28  1  0  0  0  0
  3 29  1  0  0  0  0
  3 30  1  0  0  0  0
  3 31  1  0  0  0  0
  4 24  1  0  0  0  0
  4  5  1  0  0  0  0
  4  6  1  0  0  0  0
  5 32  1  0  0  0  0
  5 33  1  0  0  0  0
  6  7  2  0  0  0  0
  6  8  1  0  0  0  0
  8  9  1  0  0  0  0
  9 10  1  0  0  0  0
  9 34  1  0  0  0  0
  9 35  1  0  0  0  0
 10 11  1  0  0  0  0
 10 36  1  0  0  0  0
 10 37  1  0  0  0  0
 11 12  1  0  0  0  0
 12 13  1  0  0  0  0
 12 38  1  0  0  0  0
 12 39  1  0  0  0  0
 13 23  1  0  0  0  0
 13 14  1  0  0  0  0
 14 15  2  0  0  0  0
 14 40  1  0  0  0  0
 15 16  1  0  0  0  0
 16 23  2  0  0  0  0
 16 17  1  0  0  0  0
 17 18  2  0  0  0  0
 17 19  1  0  0  0  0
 19 20  1  0  0  0  0
 20 21  1  0  0  0  0
 20 22  2  0  0  0  0
 21 41  1  0  0  0  0
 21 42  1  0  0  0  0
 22 23  1  0  0  0  0
M  CHG  1  19  -1
M  END
> <s_m_source_file>
AV-unprocessed.smi

> <i_m_source_file_index>
50

> <i_lp_mmshare_version>
43012

> <i_f3d_flags>
0

> <s_epik_input>
W0NIM11bQ0hdKFtDSDNdKVtDQEhdKFtOSDJdKUMoPU8pT1tDSDJdW0NIMl1PW0NIMl1uKFtjSF1uMSljKGMxMiluYyhbTkgyXSlbbkhdYzI9Tw==

> <s_epik_cmdline>
J2VwaWtfcHl0aG9uJywgJy1waCcsICc3LjAnLCAnLXRuJywgJzgnLCAnLW1hJywgJzIwMCcsICctbWV0YWxfYmluZGluZycsICctaW1hZScsICc8aW5maWxlLm1hZT4nLCAnLW9tYWUnLCAnPG91dGZpbGUubWFlPic=

> <r_lp_tautomer_probability>
0.99994

> <r_epik_Ionization_Penalty>
4.26118

> <r_epik_Ionization_Penalty_Charging>
1.23364e-10

> <r_epik_Ionization_Penalty_Neutral>
4.26118

> <r_epik_State_Penalty>
4.27372

> <r_epik_Charging_Adjusted_Penalty>
4.27372

> <i_epik_Tot_Q>
-1

> <i_epik_Tot_abs_Q>
1

> <r_epik_Metal_State_Penalty>
1.24306

> <b_epik_Metal_Only>
1

> <s_epik_Chemistry_Notes>
This compound has an ester and may undergo hydrolysis at high or low pH. This compound contains an acetal/aminal-like group ( X-CH(R)-Y where X, Y are N, S, or O) that may be acid/base labile, releasing an aldehyde.

> <s_lp_Force_Field>
OPLS_2005

> <r_lp_Energy>
24.4723

> <b_lp_Chiralities_Consistent>
1

> <s_lp_Variant>
AV-unprocessed.smi:50-7

> <Gold.Version>
5.8.1

> <Gold.Id.Protein>
6NUR|6NUR_protein|mol2

> <Gold.PLP.Fitness>
47.1779

> <Gold.PLP.PLP>
-35.4972

> <Gold.PLP.part.hbond>
-5.6426

> <Gold.PLP.part.metal>
0.0000

> <Gold.PLP.part.buried>
-1.2419

> <Gold.PLP.part.nonpolar>
-29.4404

> <Gold.PLP.part.repulsive>
0.9225

> <Gold.PLP.ligand.clash>
0.0000

> <Gold.PLP.ligand.torsion>
1.1500

> <Gold.PLP.Chemscore.Hbond>
3.5616

> <Gold.PLP.Chemscore.CHOScore>
1.0000

> <Gold.PLP.Chemscore.Metal>
0.0000

> <Gold.Chemscore.Hbonds>
donor molecule, donor type, donor heavy atom, donor atom, acceptor molecule, acceptor atom, score
      L1  H     5    32       P1  7921  1.00
      L1  H     5    33       P1 10171  1.00
      L1  H    21    42       P1  7948  0.53
      P1  H  7997  8008       L1    18  1.00
      L1  C    14    40       P1  8028  1.00

> <Gold.PLP.Chemscore.Internal.Correction>
0.2959

> <Gold.Rescore>
     Score         DG    S(hbond)    S(metal)    S(lipo)     H(rot)  DE(clash)    DE(int)     intcor
      5.84      -7.85       3.00        0.00      38.06       4.72       0.02       1.99       ----

> <Gold.Chemscore.Fitness>
5.8387

> <Gold.Chemscore.DG>
-7.8512

> <Gold.Chemscore.ZeroCoef>
-5.4800

> <Gold.Chemscore.Hbond>
2.9974

> <Gold.Chemscore.Metal>
0.0000

> <Gold.Chemscore.Lipo>
38.0623

> <Gold.Chemscore.Internal_Hbond>
0.0000

> <Gold.Chemscore.DEClash>
0.0193

> <Gold.Chemscore.DEInternal>
1.9932

> <Gold.Chemscore.Rot>
4.7239

> <Gold.Chemscore.Internal.Correction>
   9.000000E+99

> <Gold.Chemscore.Hbonds>
donor molecule, donor type, donor heavy atom, donor atom, acceptor molecule, acceptor atom, score
      L1  H     5    32       P1  7921  0.95
      L1  H     5    33       P1 10171  0.90
      L1  H    21    42       P1  7948  0.05
      P1  H  7997  8008       L1    18  0.96

> <Gold.Chemscore.Hbond.Weighted>
-10.0112

> <Gold.Chemscore.Metal.Weighted>
-0.0000

> <Gold.Chemscore.Lipo.Weighted>
-4.4533

> <Gold.Chemscore.Internal_Hbond.Weighted>
0.0000

> <Gold.Chemscore.DEClash.Weighted>
0.0193

> <Gold.Chemscore.DEInternal.Weighted>
1.9932

> <Gold.Chemscore.Rot.Weighted>
12.0933

> <Gold.Chemscore.Internal.Correction.Weighted>
   9.000000E+99

> <Gold.Protein.RotatedTorsions>
[ 6907 6896 6895 6894 ] final  144.85 input  -60.11 | X-H torsion
[ 7974 7965 7964 7962 ] final -129.72 input  175.53 | X-H torsion
[ 8008 7997 7996 7995 ] final  -64.06 input   59.86 | X-H torsion
[ 10167 10162 10161 10158 ] final  149.08 input  -65.29 | X-H torsion
[ 10718 10713 10712 10709 ] final -168.73 input   66.30 | X-H torsion
[ 10763 10752 10751 10750 ] final   90.35 input  -60.55 | X-H torsion
[ 11005 11000 10999 10996 ] final  -66.17 input  -57.11 | X-H torsion

> <Gold.Protein.ActiveResidues>
 VAL166  LYS551  ARG553  GLY616  TRP617  ASP618  TYR619  PRO620  LYS621  CYS622 
 ASP623  PHE694  ASN695  SER759  ASP760  ASP761  ALA762  ILE779  LEU786  VAL792 
 PHE793  MET794  SER795  GLU796  ALA797  LYS798  CYS799  TRP800  GLU811  SER814 

> <Gold.Protein.RotatedAtoms>
  152.1884  133.4756  159.4994 H   0  0  0  0  0  0  0  0  0  0  0  0  # atno 6907 bound_to 6896
  150.6946  134.1744  159.4233 H   0  0  0  0  0  0  0  0  0  0  0  0  # atno 6908 bound_to 6896
  151.9658  135.0101  160.0601 H   0  0  0  0  0  0  0  0  0  0  0  0  # atno 6909 bound_to 6896
  144.9544  140.7380  143.4767 H   0  0  0  0  0  0  0  0  0  0  0  0  # atno 7974 bound_to 7965
  154.4590  140.0962  156.6838 H   0  0  0  0  0  0  0  0  0  0  0  0  # atno 8008 bound_to 7997
  155.5052  140.3475  155.4360 H   0  0  0  0  0  0  0  0  0  0  0  0  # atno 8009 bound_to 7997
  156.0833  140.1378  156.9674 H   0  0  0  0  0  0  0  0  0  0  0  0  # atno 8010 bound_to 7997
  139.4866  144.5630  151.7197 H   0  0  0  0  0  0  0  0  0  0  0  0  # atno 10167 bound_to 10162
  156.7012  130.9197  151.3080 H   0  0  0  0  0  0  0  0  0  0  0  0  # atno 10718 bound_to 10713
  153.1967  135.4437  155.0216 H   0  0  0  0  0  0  0  0  0  0  0  0  # atno 10763 bound_to 10752
  154.8122  135.3299  154.7275 H   0  0  0  0  0  0  0  0  0  0  0  0  # atno 10764 bound_to 10752
  153.7724  135.6983  153.4959 H   0  0  0  0  0  0  0  0  0  0  0  0  # atno 10765 bound_to 10752
  141.1475  133.6694  156.6099 H   0  0  0  0  0  0  0  0  0  0  0  0  # atno 11005 bound_to 11000
  145.2794  139.1924  143.4799 LP  0  0  0  0  0  0  0  0  0  0  0  0  # atno 17320 bound_to 7965
  146.3332  140.2754  142.8608 LP  0  0  0  0  0  0  0  0  0  0  0  0  # atno 17321 bound_to 7965
  140.5203  144.0890  150.6020 LP  0  0  0  0  0  0  0  0  0  0  0  0  # atno 17342 bound_to 10162
  140.3845  143.2785  152.0132 LP  0  0  0  0  0  0  0  0  0  0  0  0  # atno 17343 bound_to 10162
  157.6972  130.9295  150.0680 LP  0  0  0  0  0  0  0  0  0  0  0  0  # atno 17370 bound_to 10713
  156.1727  130.3647  149.9142 LP  0  0  0  0  0  0  0  0  0  0  0  0  # atno 17371 bound_to 10713
  140.3623  134.7677  157.4542 LP  0  0  0  0  0  0  0  0  0  0  0  0  # atno 17394 bound_to 11000
  140.0775  134.5776  155.8575 LP  0  0  0  0  0  0  0  0  0  0  0  0  # atno 17395 bound_to 11000

$$$$
