AV-unprocessed.smi:2898|AV-procd|sdf|11141|dock8
  -GOLD-   2272016 23D 1   1.00000     0.00000
 Structure written by MMmdl.
 44 45  0  0  0  0  0  0  0  0  1 V2000
  149.5017  140.5921  155.0381 C   0  0  0  0  0  0  0  0  0  0  0  0
  150.8482  140.0279  155.3904 C   0  0  0  0  0  0  0  0  0  0  0  0
  151.8600  140.1906  154.5562 N   0  0  0  0  0  0  0  0  0  0  0  0
  152.9469  139.5395  155.1445 O   0  0  0  0  0  0  0  0  0  0  0  0
  152.5424  139.0010  156.3230 C   0  0  0  0  0  0  0  0  0  0  0  0
  153.5745  138.2404  157.0855 C   0  0  0  0  0  0  0  0  0  0  0  0
  151.2194  139.2807  156.5461 C   0  0  0  0  0  0  0  0  0  0  0  0
  150.3212  138.8797  157.6989 C   0  0  2  0  0  0  0  0  0  0  0  0
  151.1313  138.5100  158.9510 C   0  0  0  0  0  0  0  0  0  0  0  0
  149.3364  137.7555  157.3106 C   0  0  0  0  0  0  0  0  0  0  0  0
  148.6203  137.2377  158.4742 N   0  0  0  0  0  0  0  0  0  0  0  0
  148.6992  135.9835  158.9529 C   0  0  0  0  0  0  0  0  0  0  0  0
  149.4834  135.1500  158.4962 O   0  0  0  0  0  0  0  0  0  0  0  0
  147.7372  135.5882  160.0953 C   0  0  0  0  0  0  0  0  0  0  0  0
  146.3248  135.7272  159.6813 C   0  0  0  0  0  0  0  0  0  0  0  0
  145.2186  135.8351  159.3569 N   0  0  0  0  0  0  0  0  0  0  0  0
  148.0089  134.1152  160.4943 C   0  0  0  0  0  0  0  0  0  0  0  0
  147.1729  133.6766  161.7094 C   0  0  0  0  0  0  0  0  0  0  0  0
  147.4211  134.6004  162.9113 C   0  0  0  0  0  0  0  0  0  0  0  0
  147.1706  136.0718  162.5486 C   0  0  0  0  0  0  0  0  0  0  0  0
  148.0070  136.4896  161.3261 C   0  0  0  0  0  0  0  0  0  0  0  0
  148.7597  139.7979  154.9516 H   0  0  0  0  0  0  0  0  0  0  0  0
  149.5220  141.1289  154.0888 H   0  0  0  0  0  0  0  0  0  0  0  0
  149.1579  141.2874  155.8040 H   0  0  0  0  0  0  0  0  0  0  0  0
  153.1517  137.3333  157.5162 H   0  0  0  0  0  0  0  0  0  0  0  0
  153.9793  138.8459  157.8962 H   0  0  0  0  0  0  0  0  0  0  0  0
  154.4013  137.9469  156.4385 H   0  0  0  0  0  0  0  0  0  0  0  0
  149.7108  139.7388  157.9803 H   0  0  0  0  0  0  0  0  0  0  0  0
  151.7899  139.3269  159.2474 H   0  0  0  0  0  0  0  0  0  0  0  0
  151.7471  137.6257  158.7896 H   0  0  0  0  0  0  0  0  0  0  0  0
  150.4716  138.2986  159.7928 H   0  0  0  0  0  0  0  0  0  0  0  0
  148.6367  138.1076  156.5512 H   0  0  0  0  0  0  0  0  0  0  0  0
  149.8818  136.9288  156.8547 H   0  0  0  0  0  0  0  0  0  0  0  0
  147.9608  137.8656  158.9108 H   0  0  0  0  0  0  0  0  0  0  0  0
  147.7928  133.4549  159.6531 H   0  0  0  0  0  0  0  0  0  0  0  0
  149.0651  133.9708  160.7281 H   0  0  0  0  0  0  0  0  0  0  0  0
  146.1125  133.6801  161.4552 H   0  0  0  0  0  0  0  0  0  0  0  0
  147.4197  132.6488  161.9767 H   0  0  0  0  0  0  0  0  0  0  0  0
  146.7812  134.3080  163.7443 H   0  0  0  0  0  0  0  0  0  0  0  0
  148.4493  134.4808  163.2552 H   0  0  0  0  0  0  0  0  0  0  0  0
  146.1101  136.2256  162.3466 H   0  0  0  0  0  0  0  0  0  0  0  0
  147.4155  136.7085  163.3992 H   0  0  0  0  0  0  0  0  0  0  0  0
  149.0631  136.4564  161.5988 H   0  0  0  0  0  0  0  0  0  0  0  0
  147.7896  137.5300  161.0803 H   0  0  0  0  0  0  0  0  0  0  0  0
  1  2  1  0  0  0  0
  1 22  1  0  0  0  0
  1 23  1  0  0  0  0
  1 24  1  0  0  0  0
  2  7  1  0  0  0  0
  2  3  2  0  0  0  0
  3  4  1  0  0  0  0
  4  5  1  0  0  0  0
  5  6  1  0  0  0  0
  5  7  2  0  0  0  0
  6 25  1  0  0  0  0
  6 26  1  0  0  0  0
  6 27  1  0  0  0  0
  7  8  1  0  0  0  0
  8  9  1  0  0  0  0
  8 10  1  0  0  0  0
  8 28  1  0  0  0  0
  9 29  1  0  0  0  0
  9 30  1  0  0  0  0
  9 31  1  0  0  0  0
 10 11  1  0  0  0  0
 10 32  1  0  0  0  0
 10 33  1  0  0  0  0
 11 12  1  0  0  0  0
 11 34  1  0  0  0  0
 12 13  2  0  0  0  0
 12 14  1  0  0  0  0
 14 21  1  0  0  0  0
 14 15  1  0  0  0  0
 14 17  1  0  0  0  0
 15 16  3  0  0  0  0
 17 18  1  0  0  0  0
 17 35  1  0  0  0  0
 17 36  1  0  0  0  0
 18 19  1  0  0  0  0
 18 37  1  0  0  0  0
 18 38  1  0  0  0  0
 19 20  1  0  0  0  0
 19 39  1  0  0  0  0
 19 40  1  0  0  0  0
 20 21  1  0  0  0  0
 20 41  1  0  0  0  0
 20 42  1  0  0  0  0
 21 43  1  0  0  0  0
 21 44  1  0  0  0  0
M  END
> <s_m_source_file>
AV-unprocessed.smi

> <i_m_source_file_index>
2898

> <i_lp_mmshare_version>
43012

> <i_f3d_flags>
0

> <s_epik_input>
W0NIM11jMW5vYyhbQ0gzXSljMVtDQEhdKFtDSDNdKVtDSDJdW05IXUMoPU8pQzIoQyNOKVtDSDJdW0NIMl1bQ0gyXVtDSDJdW0NIMl0y

> <s_epik_cmdline>
J2VwaWtfcHl0aG9uJywgJy1waCcsICc3LjAnLCAnLXRuJywgJzgnLCAnLW1hJywgJzIwMCcsICctbWV0YWxfYmluZGluZycsICctaW1hZScsICc8aW5maWxlLm1hZT4nLCAnLW9tYWUnLCAnPG91dGZpbGUubWFlPic=

> <r_lp_tautomer_probability>
1

> <r_epik_Ionization_Penalty>
4.33734e-07

> <r_epik_Ionization_Penalty_Charging>
0

> <r_epik_Ionization_Penalty_Neutral>
4.33734e-07

> <r_epik_State_Penalty>
-0

> <r_epik_Charging_Adjusted_Penalty>
0

> <i_epik_Tot_Q>
0

> <i_epik_Tot_abs_Q>
0

> <r_epik_Metal_State_Penalty>
-0

> <b_epik_Metal_Only>
0

> <s_lp_Force_Field>
OPLS_2005

> <r_lp_Energy>
7.89046

> <b_lp_Chiralities_Consistent>
1

> <s_lp_Variant>
AV-unprocessed.smi:2898-1

> <Gold.Version>
5.8.1

> <Gold.Id.Protein>
6NUR|6NUR_protein|mol2

> <Gold.PLP.Fitness>
40.4893

> <Gold.PLP.PLP>
-33.3365

> <Gold.PLP.part.hbond>
-2.7875

> <Gold.PLP.part.metal>
0.0000

> <Gold.PLP.part.buried>
-2.8376

> <Gold.PLP.part.nonpolar>
-26.9282

> <Gold.PLP.part.repulsive>
0.2001

> <Gold.PLP.ligand.clash>
0.0000

> <Gold.PLP.ligand.torsion>
0.5373

> <Gold.PLP.Chemscore.Hbond>
2.7200

> <Gold.PLP.Chemscore.CHOScore>
0.0000

> <Gold.PLP.Chemscore.Metal>
0.0000

> <Gold.Chemscore.Hbonds>
donor molecule, donor type, donor heavy atom, donor atom, acceptor molecule, acceptor atom, score
      P1  H  6896  6907       L1    13  0.94
      P1  H  7989  7998       L1     3  0.31
      P1  H  7997  8010       L1     4  0.75

> <Gold.PLP.Chemscore.Internal.Correction>
0.0674

> <Gold.Rescore>
     Score         DG    S(hbond)    S(metal)    S(lipo)     H(rot)  DE(clash)    DE(int)     intcor
     18.05     -19.24       2.48        0.00      80.11       1.52       0.02       1.17       ----

> <Gold.Chemscore.Fitness>
18.0462

> <Gold.Chemscore.DG>
-19.2400

> <Gold.Chemscore.ZeroCoef>
-5.4800

> <Gold.Chemscore.Hbond>
2.4817

> <Gold.Chemscore.Metal>
0.0000

> <Gold.Chemscore.Lipo>
80.1146

> <Gold.Chemscore.Internal_Hbond>
0.0000

> <Gold.Chemscore.DEClash>
0.0202

> <Gold.Chemscore.DEInternal>
1.1735

> <Gold.Chemscore.Rot>
1.5243

> <Gold.Chemscore.Internal.Correction>
   9.000000E+99

> <Gold.Chemscore.Hbonds>
donor molecule, donor type, donor heavy atom, donor atom, acceptor molecule, acceptor atom, score
      P1  H  6896  6907       L1    13  0.91
      P1  H  7989  7998       L1     3  0.28
      P1  H  7997  8010       L1     4  0.09

> <Gold.Chemscore.Hbond.Weighted>
-8.2888

> <Gold.Chemscore.Metal.Weighted>
-0.0000

> <Gold.Chemscore.Lipo.Weighted>
-9.3734

> <Gold.Chemscore.Internal_Hbond.Weighted>
0.0000

> <Gold.Chemscore.DEClash.Weighted>
0.0202

> <Gold.Chemscore.DEInternal.Weighted>
1.1735

> <Gold.Chemscore.Rot.Weighted>
3.9022

> <Gold.Chemscore.Internal.Correction.Weighted>
   9.000000E+99

> <Gold.Protein.RotatedTorsions>
[ 6907 6896 6895 6894 ] final  -98.27 input  -60.11 | X-H torsion
[ 7974 7965 7964 7962 ] final -122.30 input  175.53 | X-H torsion
[ 8008 7997 7996 7995 ] final  110.15 input   59.86 | X-H torsion
[ 10167 10162 10161 10158 ] final -177.96 input  -65.29 | X-H torsion
[ 10718 10713 10712 10709 ] final  -39.46 input   66.30 | X-H torsion
[ 10763 10752 10751 10750 ] final -112.53 input  -60.55 | X-H torsion
[ 11005 11000 10999 10996 ] final -107.61 input  -57.11 | X-H torsion

> <Gold.Protein.ActiveResidues>
 VAL166  LYS551  ARG553  GLY616  TRP617  ASP618  TYR619  PRO620  LYS621  CYS622 
 ASP623  PHE694  ASN695  SER759  ASP760  ASP761  ALA762  ILE779  LEU786  VAL792 
 PHE793  MET794  SER795  GLU796  ALA797  LYS798  CYS799  TRP800  GLU811  SER814 

> <Gold.Protein.RotatedAtoms>
  150.7041  134.1220  159.4038 H   0  0  0  0  0  0  0  0  0  0  0  0  # atno 6907 bound_to 6896
  151.9207  135.0297  160.0531 H   0  0  0  0  0  0  0  0  0  0  0  0  # atno 6908 bound_to 6896
  152.2259  133.4984  159.5225 H   0  0  0  0  0  0  0  0  0  0  0  0  # atno 6909 bound_to 6896
  145.0309  140.8067  143.4324 H   0  0  0  0  0  0  0  0  0  0  0  0  # atno 7974 bound_to 7965
  156.2032  140.3044  155.9570 H   0  0  0  0  0  0  0  0  0  0  0  0  # atno 8008 bound_to 7997
  155.2905  140.0442  157.3039 H   0  0  0  0  0  0  0  0  0  0  0  0  # atno 8009 bound_to 7997
  154.5598  140.2317  155.8362 H   0  0  0  0  0  0  0  0  0  0  0  0  # atno 8010 bound_to 7997
  139.5455  144.2248  152.0979 H   0  0  0  0  0  0  0  0  0  0  0  0  # atno 10167 bound_to 10162
  156.2922  130.4229  149.8227 H   0  0  0  0  0  0  0  0  0  0  0  0  # atno 10718 bound_to 10713
  154.8354  135.4487  154.1208 H   0  0  0  0  0  0  0  0  0  0  0  0  # atno 10763 bound_to 10752
  153.2445  135.6920  153.7753 H   0  0  0  0  0  0  0  0  0  0  0  0  # atno 10764 bound_to 10752
  153.7088  135.3360  155.3217 H   0  0  0  0  0  0  0  0  0  0  0  0  # atno 10765 bound_to 10752
  141.0945  133.8996  157.1997 H   0  0  0  0  0  0  0  0  0  0  0  0  # atno 11005 bound_to 11000
  145.1772  139.2371  143.5311 LP  0  0  0  0  0  0  0  0  0  0  0  0  # atno 17320 bound_to 7965
  146.3498  140.1537  142.8592 LP  0  0  0  0  0  0  0  0  0  0  0  0  # atno 17321 bound_to 7965
  140.1733  144.4914  150.6567 LP  0  0  0  0  0  0  0  0  0  0  0  0  # atno 17342 bound_to 10162
  140.6701  143.2282  151.5646 LP  0  0  0  0  0  0  0  0  0  0  0  0  # atno 17343 bound_to 10162
  156.5636  130.8394  151.3336 LP  0  0  0  0  0  0  0  0  0  0  0  0  # atno 17370 bound_to 10713
  157.7345  130.9748  150.2034 LP  0  0  0  0  0  0  0  0  0  0  0  0  # atno 17371 bound_to 10713
  139.9778  135.0108  156.9675 LP  0  0  0  0  0  0  0  0  0  0  0  0  # atno 17394 bound_to 11000
  140.5173  134.0942  155.7284 LP  0  0  0  0  0  0  0  0  0  0  0  0  # atno 17395 bound_to 11000

$$$$
