#       Name:                AV-unprocessed.smi:738
#       Creating user name   scv26
#       Creation time:       Fri Mar 27 00:53:30 2020


#       File generated by GOLD software.
#

@<TRIPOS>MOLECULE
AV-unprocessed.smi:738
    41    43     1
SMALL
NO_CHARGES


@<TRIPOS>ATOM
      1 ****        -5.4141  -1.2850   0.7318 N.am           1 S1                 0.0000
      2 ****        -4.8793  -0.0735   0.5518 C.2            1 S1                 0.0000
      3 ****        -5.5664   0.9301   0.3725 O.2            1 S1                 0.0000
      4 ****        -3.3798  -0.0089   0.5125 C.ar           1 S1                 0.0000
      5 ****        -2.7234   0.9833  -0.2474 C.ar           1 S1                 0.0000
      6 ****        -1.3810   1.1087  -0.3090 N.ar           1 S1                 0.0000
      7 ****        -0.6134   0.2451   0.3985 C.ar           1 S1                 0.0000
      8 ****         0.7837   0.4004   0.3349 N.3            1 S1                 0.0000
      9 ****         1.2862   1.2130   1.4329 C.3            1 S1                 0.0000
     10 ****         2.8128   1.0848   1.5086 C.3            1 S1                 0.0000
     11 ****         3.3947   1.4959   0.2750 O.3            1 S1                 0.0000
     12 ****         2.8980   0.8145  -0.8790 C.3            1 S1                 0.0000
     13 ****         3.3785  -0.6355  -1.0510 C.3            1 S1                 0.0000
     14 ****         2.2577  -1.3525  -1.8213 C.3            1 S1                 0.0000
     15 ****         1.1384  -0.3214  -2.0307 C.3            1 S1                 0.0000
     16 ****         1.3629   0.7607  -0.9626 C.3            1 S1                 0.0000
     17 ****        -1.1752  -0.7759   1.2027 C.ar           1 S1                 0.0000
     18 ****        -0.1856  -1.8778   2.0963 Cl             1 S1                 0.0000
     19 ****        -2.5771  -0.8990   1.2600 C.ar           1 S1                 0.0000
     20 ****        -6.4183  -1.3881   0.7621 H              1 S1                 0.0000
     21 ****        -4.8168  -2.0926   0.8325 H              1 S1                 0.0000
     22 ****        -3.2855   1.6989  -0.8298 H              1 S1                 0.0000
     23 ****         1.0021   2.2544   1.2745 H              1 S1                 0.0000
     24 ****         0.8418   0.8986   2.3781 H              1 S1                 0.0000
     25 ****         3.2020   1.7188   2.3052 H              1 S1                 0.0000
     26 ****         3.1036   0.0633   1.7536 H              1 S1                 0.0000
     27 ****         3.2553   1.3739  -1.7448 H              1 S1                 0.0000
     28 ****         4.3315  -0.6778  -1.5793 H              1 S1                 0.0000
     29 ****         3.5232  -1.1280  -0.0902 H              1 S1                 0.0000
     30 ****         2.6096  -1.7530  -2.7725 H              1 S1                 0.0000
     31 ****         1.8872  -2.1923  -1.2320 H              1 S1                 0.0000
     32 ****         1.2573   0.1315  -3.0159 H              1 S1                 0.0000
     33 ****         0.1451  -0.7707  -2.0093 H              1 S1                 0.0000
     34 ****         0.9649   1.7248  -1.2823 H              1 S1                 0.0000
     35 ****        -3.0205  -1.6699   1.8736 H              1 S1                 0.0000
     36 ****        -6.5636   0.8572   0.3576 LP             1 S1                 0.0000
     37 ****        -5.1281   1.8194   0.2416 LP             1 S1                 0.0000
     38 ****        -0.9611   1.8252  -0.8661 LP             1 S1                 0.0000
     39 ****         1.1234  -0.5330   0.4500 LP             1 S1                 0.0000
     40 ****         4.3808   1.3387   0.3286 LP             1 S1                 0.0000
     41 ****         3.2189   2.4735   0.1587 LP             1 S1                 0.0000
@<TRIPOS>BOND
    1    1    2 am    
    2    1   20 1     
    3    1   21 1     
    4    2    3 2     
    5    2    4 1     
    6    4   19 ar    
    7    4    5 ar    
    8    5    6 ar    
    9    5   22 1     
   10    6    7 ar    
   11    7    8 1     
   12    7   17 ar    
   13    8   16 1     
   14    8    9 1     
   15    9   10 1     
   16    9   23 1     
   17    9   24 1     
   18   10   11 1     
   19   10   25 1     
   20   10   26 1     
   21   11   12 1     
   22   12   16 1     
   23   12   13 1     
   24   12   27 1     
   25   13   14 1     
   26   13   28 1     
   27   13   29 1     
   28   14   15 1     
   29   14   30 1     
   30   14   31 1     
   31   15   16 1     
   32   15   32 1     
   33   15   33 1     
   34   16   34 1     
   35   17   18 1     
   36   17   19 ar    
   37   19   35 1     
   38    3   36 1     
   39    3   37 1     
   40    6   38 1     
   41    8   39 1     
   42   11   40 1     
   43   11   41 1     
@<TRIPOS>SUBSTRUCTURE
      1 S1             1
@<TRIPOS>SET
LONE_PAIRS      STATIC     ATOMS    <user>   **** ""
6 36 37 38 39 40 41
DONOR_HYDROGENS      STATIC     ATOMS    <user>   **** ""
2 20 21
ATOM$BLUE        STATIC     ATOMS    COLORGROUP SYSTEM
6 36 37 38 39 40 41
ATOM$RED        STATIC     ATOMS    COLORGROUP SYSTEM
2 20 21
