AV-unprocessed.smi:1041|AV-procd|sdf|4534|dock7
  -GOLD-   22720 2563D 1   1.00000     0.00000
 Structure written by MMmdl.
 52 53  0  0  0  0  0  0  0  0  3 V2000
  153.4303  142.4962  160.3311 C   0  0  0  0  0  0  0  0  0  0  0  0
  152.6056  143.1755  159.4005 O   0  0  0  0  0  0  0  0  0  0  0  0
  151.7280  142.2997  158.7126 C   0  0  0  0  0  0  0  0  0  0  0  0
  150.9018  143.1130  157.7034 C   0  0  0  0  0  0  0  0  0  0  0  0
  149.9609  142.2684  156.9242 N   0  3  2  0  0  0  0  0  0  0  0  0
  148.9876  141.5280  157.7711 C   0  0  0  0  0  0  0  0  0  0  0  0
  147.9624  140.7667  156.9101 C   0  0  0  0  0  0  0  0  0  0  0  0
  148.6355  139.8176  155.9022 C   0  0  2  0  0  0  0  0  0  0  0  0
  149.2070  138.5506  156.5830 C   0  0  0  0  0  0  0  0  0  0  0  0
  148.4902  137.3440  156.1919 N   0  0  0  0  0  0  0  0  0  0  0  0
  149.0154  136.1105  156.1172 C   0  0  0  0  0  0  0  0  0  0  0  0
  150.2105  135.8782  156.2953 O   0  0  0  0  0  0  0  0  0  0  0  0
  148.0536  134.9521  155.8276 C   0  0  0  0  0  0  0  0  0  0  0  0
  148.6613  133.5491  155.7570 C   0  0  0  0  0  0  0  0  0  0  0  0
  148.4571  132.6948  154.7142 C   0  0  0  0  0  0  0  0  0  0  0  0
  147.6134  133.0560  153.5045 C   0  0  0  0  0  0  0  0  0  0  0  0
  149.0219  131.4083  154.7080 N   0  0  0  0  0  0  0  0  0  0  0  0
  149.7305  131.0269  155.7014 C   0  0  0  0  0  0  0  0  0  0  0  0
  150.3362  129.6396  155.6856 C   0  0  0  0  0  0  0  0  0  0  0  0
  149.9812  131.8045  156.8101 N   0  5  0  0  0  0  0  0  0  0  0  0
  149.4776  133.0689  156.8864 C   0  0  0  0  0  0  0  0  0  0  0  0
  149.6705  133.7924  157.8628 O   0  0  0  0  0  0  0  0  0  0  0  0
  149.6718  140.6151  155.0824 C   0  0  0  0  0  0  0  0  0  0  0  0
  150.6686  141.3630  155.9831 C   0  0  0  0  0  0  0  0  0  0  0  0
  154.0900  143.2087  160.8259 H   0  0  0  0  0  0  0  0  0  0  0  0
  154.0520  141.7491  159.8363 H   0  0  0  0  0  0  0  0  0  0  0  0
  152.8323  142.0024  161.0983 H   0  0  0  0  0  0  0  0  0  0  0  0
  152.3126  141.5492  158.1785 H   0  0  0  0  0  0  0  0  0  0  0  0
  151.0897  141.7623  159.4141 H   0  0  0  0  0  0  0  0  0  0  0  0
  150.3437  143.8686  158.2581 H   0  0  0  0  0  0  0  0  0  0  0  0
  151.5578  143.6557  157.0214 H   0  0  0  0  0  0  0  0  0  0  0  0
  149.5216  140.8412  158.4288 H   0  0  0  0  0  0  0  0  0  0  0  0
  148.4475  142.2178  158.4177 H   0  0  0  0  0  0  0  0  0  0  0  0
  147.2739  140.2125  157.5489 H   0  0  0  0  0  0  0  0  0  0  0  0
  147.3526  141.4896  156.3665 H   0  0  0  0  0  0  0  0  0  0  0  0
  147.8621  139.4829  155.2097 H   0  0  0  0  0  0  0  0  0  0  0  0
  150.2540  138.4069  156.3188 H   0  0  0  0  0  0  0  0  0  0  0  0
  149.1795  138.6569  157.6688 H   0  0  0  0  0  0  0  0  0  0  0  0
  147.4988  137.4389  156.0222 H   0  0  0  0  0  0  0  0  0  0  0  0
  147.2808  134.9677  156.5958 H   0  0  0  0  0  0  0  0  0  0  0  0
  147.5230  135.1706  154.9003 H   0  0  0  0  0  0  0  0  0  0  0  0
  148.0856  133.8583  152.9370 H   0  0  0  0  0  0  0  0  0  0  0  0
  146.6206  133.3848  153.8125 H   0  0  0  0  0  0  0  0  0  0  0  0
  147.4908  132.2006  152.8390 H   0  0  0  0  0  0  0  0  0  0  0  0
  151.3512  129.6581  156.0844 H   0  0  0  0  0  0  0  0  0  0  0  0
  150.3796  129.2441  154.6699 H   0  0  0  0  0  0  0  0  0  0  0  0
  149.7371  128.9616  156.2940 H   0  0  0  0  0  0  0  0  0  0  0  0
  150.2079  139.9676  154.3881 H   0  0  0  0  0  0  0  0  0  0  0  0
  149.1479  141.3415  154.4596 H   0  0  0  0  0  0  0  0  0  0  0  0
  151.3439  141.9437  155.3533 H   0  0  0  0  0  0  0  0  0  0  0  0
  151.2876  140.6582  156.5401 H   0  0  0  0  0  0  0  0  0  0  0  0
  149.4260  142.9024  156.3477 H   0  0  0  0  0  0  0  0  0  0  0  0
  1  2  1  0  0  0  0
  1 25  1  0  0  0  0
  1 26  1  0  0  0  0
  1 27  1  0  0  0  0
  2  3  1  0  0  0  0
  3  4  1  0  0  0  0
  3 28  1  0  0  0  0
  3 29  1  0  0  0  0
  4  5  1  0  0  0  0
  4 30  1  0  0  0  0
  4 31  1  0  0  0  0
  5 24  1  0  0  0  0
  5  6  1  0  0  0  0
  5 52  1  0  0  0  0
  6  7  1  0  0  0  0
  6 32  1  0  0  0  0
  6 33  1  0  0  0  0
  7  8  1  0  0  0  0
  7 34  1  0  0  0  0
  7 35  1  0  0  0  0
  8  9  1  0  0  0  0
  8 23  1  0  0  0  0
  8 36  1  0  0  0  0
  9 10  1  0  0  0  0
  9 37  1  0  0  0  0
  9 38  1  0  0  0  0
 10 11  1  0  0  0  0
 10 39  1  0  0  0  0
 11 12  2  0  0  0  0
 11 13  1  0  0  0  0
 13 14  1  0  0  0  0
 13 40  1  0  0  0  0
 13 41  1  0  0  0  0
 14 21  1  0  0  0  0
 14 15  2  0  0  0  0
 15 16  1  0  0  0  0
 15 17  1  0  0  0  0
 16 42  1  0  0  0  0
 16 43  1  0  0  0  0
 16 44  1  0  0  0  0
 17 18  2  0  0  0  0
 18 19  1  0  0  0  0
 18 20  1  0  0  0  0
 19 45  1  0  0  0  0
 19 46  1  0  0  0  0
 19 47  1  0  0  0  0
 20 21  1  0  0  0  0
 21 22  2  0  0  0  0
 23 24  1  0  0  0  0
 23 48  1  0  0  0  0
 23 49  1  0  0  0  0
 24 50  1  0  0  0  0
 24 51  1  0  0  0  0
M  CHG  1   5   1
M  CHG  1  20  -1
M  END
> <s_m_source_file>
AV-unprocessed.smi

> <i_m_source_file_index>
1041

> <i_lp_mmshare_version>
43012

> <i_f3d_flags>
0

> <s_epik_input>
W0NIM11PW0NIMl1bQ0gyXU4xW0NIMl1bQ0gyXVtDSF0oW0NIMl1bQ0gyXTEpW0NIMl1bTkhdQyg9TylbQ0gyXWMyYyhbQ0gzXSluYyhbQ0gzXSlbbkhdYzI9Tw==

> <s_epik_cmdline>
J2VwaWtfcHl0aG9uJywgJy1waCcsICc3LjAnLCAnLXRuJywgJzgnLCAnLW1hJywgJzIwMCcsICctbWV0YWxfYmluZGluZycsICctaW1hZScsICc8aW5maWxlLm1hZT4nLCAnLW9tYWUnLCAnPG91dGZpbGUubWFlPic=

> <r_lp_tautomer_probability>
0.839158

> <r_epik_Ionization_Penalty>
6.54961

> <r_epik_Ionization_Penalty_Charging>
0.00968647

> <r_epik_Ionization_Penalty_Neutral>
6.53992

> <r_epik_State_Penalty>
4.43892

> <r_epik_Charging_Adjusted_Penalty>
4.44861

> <i_epik_Tot_Q>
0

> <i_epik_Tot_abs_Q>
2

> <r_epik_Metal_State_Penalty>
0.818645

> <b_epik_Metal_Only>
1

> <s_lp_Force_Field>
OPLS_2005

> <r_lp_Energy>
22.1122

> <b_lp_Chiralities_Consistent>
1

> <s_lp_Variant>
AV-unprocessed.smi:1041-7

> <Gold.Version>
5.8.1

> <Gold.Id.Protein>
6NUR|6NUR_protein|mol2

> <Gold.PLP.Fitness>
41.7450

> <Gold.PLP.PLP>
-34.7624

> <Gold.PLP.part.hbond>
-2.0000

> <Gold.PLP.part.metal>
0.0000

> <Gold.PLP.part.buried>
-3.5549

> <Gold.PLP.part.nonpolar>
-28.0917

> <Gold.PLP.part.repulsive>
0.1383

> <Gold.PLP.ligand.clash>
0.0000

> <Gold.PLP.ligand.torsion>
0.9981

> <Gold.PLP.Chemscore.Hbond>
2.9760

> <Gold.PLP.Chemscore.CHOScore>
0.0000

> <Gold.PLP.Chemscore.Metal>
0.0000

> <Gold.Chemscore.Hbonds>
donor molecule, donor type, donor heavy atom, donor atom, acceptor molecule, acceptor atom, score
      L1  H     5    52       P1  8028  2.00
      P1  H  6896  6908       L1    22  1.00

> <Gold.PLP.Chemscore.Internal.Correction>
0.0510

> <Gold.Rescore>
     Score         DG    S(hbond)    S(metal)    S(lipo)     H(rot)  DE(clash)    DE(int)     intcor
     14.20     -15.23       1.96        0.00      78.79       2.35       0.04       0.99       ----

> <Gold.Chemscore.Fitness>
14.2040

> <Gold.Chemscore.DG>
-15.2311

> <Gold.Chemscore.ZeroCoef>
-5.4800

> <Gold.Chemscore.Hbond>
1.9621

> <Gold.Chemscore.Metal>
0.0000

> <Gold.Chemscore.Lipo>
78.7919

> <Gold.Chemscore.Internal_Hbond>
0.0000

> <Gold.Chemscore.DEClash>
0.0398

> <Gold.Chemscore.DEInternal>
0.9872

> <Gold.Chemscore.Rot>
2.3520

> <Gold.Chemscore.Internal.Correction>
   9.000000E+99

> <Gold.Chemscore.Hbonds>
donor molecule, donor type, donor heavy atom, donor atom, acceptor molecule, acceptor atom, score
      L1  H     5    52       P1  8028  0.92
      P1  H  6896  6908       L1    22  1.00

> <Gold.Chemscore.Hbond.Weighted>
-6.5535

> <Gold.Chemscore.Metal.Weighted>
-0.0000

> <Gold.Chemscore.Lipo.Weighted>
-9.2187

> <Gold.Chemscore.Internal_Hbond.Weighted>
0.0000

> <Gold.Chemscore.DEClash.Weighted>
0.0398

> <Gold.Chemscore.DEInternal.Weighted>
0.9872

> <Gold.Chemscore.Rot.Weighted>
6.0211

> <Gold.Chemscore.Internal.Correction.Weighted>
   9.000000E+99

> <Gold.Protein.RotatedTorsions>
[ 6907 6896 6895 6894 ] final  119.24 input  -60.11 | X-H torsion
[ 7974 7965 7964 7962 ] final   36.60 input  175.53 | X-H torsion
[ 8008 7997 7996 7995 ] final   24.23 input   59.86 | X-H torsion
[ 10167 10162 10161 10158 ] final  -33.05 input  -65.29 | X-H torsion
[ 10718 10713 10712 10709 ] final  -87.06 input   66.30 | X-H torsion
[ 10763 10752 10751 10750 ] final  175.69 input  -60.55 | X-H torsion
[ 11005 11000 10999 10996 ] final   91.01 input  -57.11 | X-H torsion

> <Gold.Protein.ActiveResidues>
 VAL166  LYS551  ARG553  GLY616  TRP617  ASP618  TYR619  PRO620  LYS621  CYS622 
 ASP623  PHE694  ASN695  SER759  ASP760  ASP761  ALA762  ILE779  LEU786  VAL792 
 PHE793  MET794  SER795  GLU796  ALA797  LYS798  CYS799  TRP800  GLU811  SER814 

> <Gold.Protein.RotatedAtoms>
  152.4486  133.7584  159.6732 H   0  0  0  0  0  0  0  0  0  0  0  0  # atno 6907 bound_to 6896
  150.8392  133.7954  159.3074 H   0  0  0  0  0  0  0  0  0  0  0  0  # atno 6908 bound_to 6896
  151.5584  135.1068  160.0018 H   0  0  0  0  0  0  0  0  0  0  0  0  # atno 6909 bound_to 6896
  146.1199  139.5997  142.9296 H   0  0  0  0  0  0  0  0  0  0  0  0  # atno 7974 bound_to 7965
  154.9930  140.3116  155.4898 H   0  0  0  0  0  0  0  0  0  0  0  0  # atno 8008 bound_to 7997
  156.2937  140.2245  156.4976 H   0  0  0  0  0  0  0  0  0  0  0  0  # atno 8009 bound_to 7997
  154.7686  140.0454  157.1021 H   0  0  0  0  0  0  0  0  0  0  0  0  # atno 8010 bound_to 7997
  140.7211  143.3649  151.1891 H   0  0  0  0  0  0  0  0  0  0  0  0  # atno 10167 bound_to 10162
  155.9987  130.4786  150.4809 H   0  0  0  0  0  0  0  0  0  0  0  0  # atno 10718 bound_to 10713
  154.4710  135.2771  155.1642 H   0  0  0  0  0  0  0  0  0  0  0  0  # atno 10763 bound_to 10752
  154.3391  135.6174  153.5591 H   0  0  0  0  0  0  0  0  0  0  0  0  # atno 10764 bound_to 10752
  152.9864  135.5784  154.5091 H   0  0  0  0  0  0  0  0  0  0  0  0  # atno 10765 bound_to 10752
  139.8846  134.8648  156.3367 H   0  0  0  0  0  0  0  0  0  0  0  0  # atno 11005 bound_to 11000
  145.5487  141.0415  143.2290 LP  0  0  0  0  0  0  0  0  0  0  0  0  # atno 17320 bound_to 7965
  144.7588  139.7009  143.7243 LP  0  0  0  0  0  0  0  0  0  0  0  0  # atno 17321 bound_to 7965
  139.7208  143.9226  152.2984 LP  0  0  0  0  0  0  0  0  0  0  0  0  # atno 17342 bound_to 10162
  139.8983  144.6926  150.8694 LP  0  0  0  0  0  0  0  0  0  0  0  0  # atno 17343 bound_to 10162
  157.2814  131.0607  151.2195 LP  0  0  0  0  0  0  0  0  0  0  0  0  # atno 17370 bound_to 10713
  157.3240  130.6951  149.6285 LP  0  0  0  0  0  0  0  0  0  0  0  0  # atno 17371 bound_to 10713
  140.9686  133.7342  156.0502 LP  0  0  0  0  0  0  0  0  0  0  0  0  # atno 17394 bound_to 11000
  140.7899  134.3629  157.5467 LP  0  0  0  0  0  0  0  0  0  0  0  0  # atno 17395 bound_to 11000

$$$$
