AV-unprocessed.smi:1241|AV-procd|sdf|5215|dock9
  -GOLD-   22720 4313D 1   1.00000     0.00000
 Structure written by MMmdl.
 38 39  0  0  0  0  0  0  0  0  1 V2000
  150.4875  140.8591  157.4056 C   0  0  0  0  0  0  0  0  0  0  0  0
  151.3564  139.6220  156.3577 S   0  0  0  0  0  0  0  0  0  0  0  0
  151.0077  139.8846  154.9529 O   0  0  0  0  0  0  0  0  0  0  0  0
  152.7699  139.5873  156.7637 O   0  0  0  0  0  0  0  0  0  0  0  0
  150.6351  138.1042  156.8099 N   0  0  0  0  0  0  0  0  0  0  0  0
  149.1688  137.9968  156.9532 C   0  0  0  0  0  0  0  0  0  0  0  0
  148.5220  137.3229  155.7299 C   0  0  0  0  0  0  0  0  0  0  0  0
  149.1768  135.9655  155.4244 C   0  0  0  0  0  0  0  0  0  0  0  0
  148.6041  135.3712  154.2194 N   0  0  0  0  0  0  0  0  0  0  0  0
  147.8924  134.2349  154.1834 C   0  0  0  0  0  0  0  0  0  0  0  0
  147.6379  133.5627  155.1832 O   0  0  0  0  0  0  0  0  0  0  0  0
  147.5000  133.9447  152.9300 N   0  0  0  0  0  0  0  0  0  0  0  0
  146.7664  132.8141  152.4803 C   0  0  0  0  0  0  0  0  0  0  0  0
  146.4715  132.8017  151.0980 C   0  0  0  0  0  0  0  0  0  0  0  0
  145.7533  131.7199  150.5524 C   0  0  0  0  0  0  0  0  0  0  0  0
  145.3490  130.6763  151.4039 C   0  0  0  0  0  0  0  0  0  0  0  0
  145.6832  130.7662  152.7678 C   0  0  0  0  0  0  0  0  0  0  0  0
  146.3705  131.8025  153.2928 N   0  0  0  0  0  0  0  0  0  0  0  0
  150.6889  136.1618  155.2440 C   0  0  0  0  0  0  0  0  0  0  0  0
  151.3161  136.8370  156.4763 C   0  0  0  0  0  0  0  0  0  0  0  0
  150.8947  141.8484  157.1985 H   0  0  0  0  0  0  0  0  0  0  0  0
  150.6408  140.6277  158.4581 H   0  0  0  0  0  0  0  0  0  0  0  0
  149.4238  140.8596  157.1742 H   0  0  0  0  0  0  0  0  0  0  0  0
  148.9534  137.4099  157.8468 H   0  0  0  0  0  0  0  0  0  0  0  0
  148.7293  138.9799  157.1196 H   0  0  0  0  0  0  0  0  0  0  0  0
  147.4553  137.1907  155.9146 H   0  0  0  0  0  0  0  0  0  0  0  0
  148.5992  137.9761  154.8613 H   0  0  0  0  0  0  0  0  0  0  0  0
  149.0170  135.2926  156.2692 H   0  0  0  0  0  0  0  0  0  0  0  0
  148.7642  135.8605  153.3512 H   0  0  0  0  0  0  0  0  0  0  0  0
  147.7647  134.6031  152.2126 H   0  0  0  0  0  0  0  0  0  0  0  0
  146.7909  133.6111  150.4575 H   0  0  0  0  0  0  0  0  0  0  0  0
  145.5182  131.6916  149.4987 H   0  0  0  0  0  0  0  0  0  0  0  0
  144.7978  129.8297  151.0225 H   0  0  0  0  0  0  0  0  0  0  0  0
  145.3930  129.9856  153.4553 H   0  0  0  0  0  0  0  0  0  0  0  0
  151.1714  135.1984  155.0746 H   0  0  0  0  0  0  0  0  0  0  0  0
  150.8830  136.7591  154.3537 H   0  0  0  0  0  0  0  0  0  0  0  0
  152.3798  137.0084  156.3140 H   0  0  0  0  0  0  0  0  0  0  0  0
  151.2402  136.1695  157.3354 H   0  0  0  0  0  0  0  0  0  0  0  0
  1  2  1  0  0  0  0
  1 21  1  0  0  0  0
  1 22  1  0  0  0  0
  1 23  1  0  0  0  0
  2  3  2  0  0  0  0
  2  4  2  0  0  0  0
  2  5  1  0  0  0  0
  5 20  1  0  0  0  0
  5  6  1  0  0  0  0
  6  7  1  0  0  0  0
  6 24  1  0  0  0  0
  6 25  1  0  0  0  0
  7  8  1  0  0  0  0
  7 26  1  0  0  0  0
  7 27  1  0  0  0  0
  8  9  1  0  0  0  0
  8 19  1  0  0  0  0
  8 28  1  0  0  0  0
  9 10  1  0  0  0  0
  9 29  1  0  0  0  0
 10 11  2  0  0  0  0
 10 12  1  0  0  0  0
 12 13  1  0  0  0  0
 12 30  1  0  0  0  0
 13 18  1  0  0  0  0
 13 14  2  0  0  0  0
 14 15  1  0  0  0  0
 14 31  1  0  0  0  0
 15 16  2  0  0  0  0
 15 32  1  0  0  0  0
 16 17  1  0  0  0  0
 16 33  1  0  0  0  0
 17 18  2  0  0  0  0
 17 34  1  0  0  0  0
 19 20  1  0  0  0  0
 19 35  1  0  0  0  0
 19 36  1  0  0  0  0
 20 37  1  0  0  0  0
 20 38  1  0  0  0  0
M  END
> <s_m_source_file>
AV-unprocessed.smi

> <i_m_source_file_index>
1241

> <i_lp_mmshare_version>
43012

> <i_f3d_flags>
0

> <s_epik_input>
W0NIM11TKD1PKSg9TylOMVtDSDJdW0NIMl1bQ0hdKFtDSDJdW0NIMl0xKVtOSF1DKD1PKVtOSF1jMltjSF1bY0hdW2NIXVtjSF1uMg==

> <s_epik_cmdline>
J2VwaWtfcHl0aG9uJywgJy1waCcsICc3LjAnLCAnLXRuJywgJzgnLCAnLW1hJywgJzIwMCcsICctbWV0YWxfYmluZGluZycsICctaW1hZScsICc8aW5maWxlLm1hZT4nLCAnLW9tYWUnLCAnPG91dGZpbGUubWFlPic=

> <r_lp_tautomer_probability>
1

> <r_epik_Ionization_Penalty>
4.62702e-05

> <r_epik_Ionization_Penalty_Charging>
0

> <r_epik_Ionization_Penalty_Neutral>
4.62702e-05

> <r_epik_State_Penalty>
-0

> <r_epik_Charging_Adjusted_Penalty>
0

> <i_epik_Tot_Q>
0

> <i_epik_Tot_abs_Q>
0

> <r_epik_Metal_State_Penalty>
-0

> <b_epik_Metal_Only>
0

> <s_lp_Force_Field>
OPLS_2005

> <r_lp_Energy>
3.28241

> <b_lp_Chiralities_Consistent>
1

> <s_lp_Variant>
AV-unprocessed.smi:1241-1

> <Gold.Version>
5.8.1

> <Gold.Id.Protein>
6NUR|6NUR_protein|mol2

> <Gold.PLP.Fitness>
37.7523

> <Gold.PLP.PLP>
-24.1304

> <Gold.PLP.part.hbond>
-3.9247

> <Gold.PLP.part.metal>
0.0000

> <Gold.PLP.part.buried>
-4.2578

> <Gold.PLP.part.nonpolar>
-17.9619

> <Gold.PLP.part.repulsive>
0.2224

> <Gold.PLP.ligand.clash>
0.0000

> <Gold.PLP.ligand.torsion>
1.1927

> <Gold.PLP.Chemscore.Hbond>
3.8553

> <Gold.PLP.Chemscore.CHOScore>
0.7962

> <Gold.PLP.Chemscore.Metal>
0.0000

> <Gold.Chemscore.Hbonds>
donor molecule, donor type, donor heavy atom, donor atom, acceptor molecule, acceptor atom, score
      L1  H     9    29       P1  7948  0.99
      L1  H    12    30       P1  7948  0.86
      P1  H  7989  7998       L1     3  1.00
      P1  H  7997  8009       L1     4  1.00
      L1  C    17    34       P1 10956  0.91

> <Gold.PLP.Chemscore.Internal.Correction>
2.0529

> <Gold.Rescore>
     Score         DG    S(hbond)    S(metal)    S(lipo)     H(rot)  DE(clash)    DE(int)     intcor
     18.69     -21.20       3.72        0.00      49.97       1.00       0.03       2.49       ----

> <Gold.Chemscore.Fitness>
18.6900

> <Gold.Chemscore.DG>
-21.2038

> <Gold.Chemscore.ZeroCoef>
-5.4800

> <Gold.Chemscore.Hbond>
3.7239

> <Gold.Chemscore.Metal>
0.0000

> <Gold.Chemscore.Lipo>
49.9665

> <Gold.Chemscore.Internal_Hbond>
0.0000

> <Gold.Chemscore.DEClash>
0.0270

> <Gold.Chemscore.DEInternal>
2.4868

> <Gold.Chemscore.Rot>
1.0000

> <Gold.Chemscore.Internal.Correction>
   9.000000E+99

> <Gold.Chemscore.Hbonds>
donor molecule, donor type, donor heavy atom, donor atom, acceptor molecule, acceptor atom, score
      L1  H     9    29       P1  7948  0.92
      L1  H    12    30       P1  7948  0.45
      P1  H  7989  7998       L1     3  1.00
      P1  H  7997  8009       L1     4  0.99

> <Gold.Chemscore.Hbond.Weighted>
-12.4378

> <Gold.Chemscore.Metal.Weighted>
-0.0000

> <Gold.Chemscore.Lipo.Weighted>
-5.8461

> <Gold.Chemscore.Internal_Hbond.Weighted>
0.0000

> <Gold.Chemscore.DEClash.Weighted>
0.0270

> <Gold.Chemscore.DEInternal.Weighted>
2.4868

> <Gold.Chemscore.Rot.Weighted>
2.5600

> <Gold.Chemscore.Internal.Correction.Weighted>
   9.000000E+99

> <Gold.Protein.RotatedTorsions>
[ 6907 6896 6895 6894 ] final -157.63 input  -60.11 | X-H torsion
[ 7974 7965 7964 7962 ] final   61.98 input  175.53 | X-H torsion
[ 8008 7997 7996 7995 ] final  171.35 input   59.86 | X-H torsion
[ 10167 10162 10161 10158 ] final  -36.95 input  -65.29 | X-H torsion
[ 10718 10713 10712 10709 ] final -168.45 input   66.30 | X-H torsion
[ 10763 10752 10751 10750 ] final  170.17 input  -60.55 | X-H torsion
[ 11005 11000 10999 10996 ] final  -94.55 input  -57.11 | X-H torsion

> <Gold.Protein.ActiveResidues>
 VAL166  LYS551  ARG553  GLY616  TRP617  ASP618  TYR619  PRO620  LYS621  CYS622 
 ASP623  PHE694  ASN695  SER759  ASP760  ASP761  ALA762  ILE779  LEU786  VAL792 
 PHE793  MET794  SER795  GLU796  ALA797  LYS798  CYS799  TRP800  GLU811  SER814 

> <Gold.Protein.RotatedAtoms>
  151.3058  133.4102  159.2642 H   0  0  0  0  0  0  0  0  0  0  0  0  # atno 6907 bound_to 6896
  151.0156  134.9431  159.8042 H   0  0  0  0  0  0  0  0  0  0  0  0  # atno 6908 bound_to 6896
  152.5312  134.3022  159.9135 H   0  0  0  0  0  0  0  0  0  0  0  0  # atno 6909 bound_to 6896
  145.8786  139.3427  143.0720 H   0  0  0  0  0  0  0  0  0  0  0  0  # atno 7974 bound_to 7965
  156.1279  140.1514  156.9108 H   0  0  0  0  0  0  0  0  0  0  0  0  # atno 8008 bound_to 7997
  154.4886  140.0858  156.7584 H   0  0  0  0  0  0  0  0  0  0  0  0  # atno 8009 bound_to 7997
  155.4309  140.3427  155.4282 H   0  0  0  0  0  0  0  0  0  0  0  0  # atno 8010 bound_to 7997
  140.7130  143.3374  151.2432 H   0  0  0  0  0  0  0  0  0  0  0  0  # atno 10167 bound_to 10162
  156.6971  130.9182  151.3075 H   0  0  0  0  0  0  0  0  0  0  0  0  # atno 10718 bound_to 10713
  154.3938  135.2754  155.2138 H   0  0  0  0  0  0  0  0  0  0  0  0  # atno 10763 bound_to 10752
  154.4193  135.6004  153.6004 H   0  0  0  0  0  0  0  0  0  0  0  0  # atno 10764 bound_to 10752
  152.9831  135.5968  154.4197 H   0  0  0  0  0  0  0  0  0  0  0  0  # atno 10765 bound_to 10752
  141.1467  133.7964  157.0313 H   0  0  0  0  0  0  0  0  0  0  0  0  # atno 11005 bound_to 11000
  145.9051  140.9217  143.0483 LP  0  0  0  0  0  0  0  0  0  0  0  0  # atno 17320 bound_to 7965
  144.6727  140.1085  143.7457 LP  0  0  0  0  0  0  0  0  0  0  0  0  # atno 17321 bound_to 7965
  139.6873  143.9752  152.2841 LP  0  0  0  0  0  0  0  0  0  0  0  0  # atno 17342 bound_to 10162
  139.9402  144.6686  150.8274 LP  0  0  0  0  0  0  0  0  0  0  0  0  # atno 17343 bound_to 10162
  157.6987  130.9309  150.0720 LP  0  0  0  0  0  0  0  0  0  0  0  0  # atno 17370 bound_to 10713
  156.1755  130.3648  149.9106 LP  0  0  0  0  0  0  0  0  0  0  0  0  # atno 17371 bound_to 10713
  140.0752  134.9680  157.1534 LP  0  0  0  0  0  0  0  0  0  0  0  0  # atno 17394 bound_to 11000
  140.3654  134.2448  155.7183 LP  0  0  0  0  0  0  0  0  0  0  0  0  # atno 17395 bound_to 11000

$$$$
